MODEL 1
REMARK VINA RESULT:    -9.723      0.000      0.000
REMARK INTER + INTRA:         -13.331
REMARK INTER:                 -12.565
REMARK INTRA:                  -0.766
REMARK UNBOUND:                -0.766
REMARK SMILES c1ccc(Nc2nc(OCC3CCCCC3)c3[nH]cnc3n2)cc1
REMARK SMILES IDX 8 1 17 2 21 3 20 4 19 5 18 6 22 7 6 8 7 9 9 11 10 12 11 13
REMARK SMILES IDX 14 14 13 15 15 16 12 17 16 18 5 19 4 21 3 22 23 23 2 24
REMARK SMILES IDX 24 25 1 26
REMARK H PARENT 18 10 5 20
ROOT
ATOM      1  C   UNL     1       4.414  45.218  54.730  1.00  0.00     0.245 A 
ATOM      2  C   UNL     1       3.200  45.411  55.330  1.00  0.00     0.148 A 
ATOM      3  C   UNL     1       2.069  44.876  54.757  1.00  0.00     0.186 A 
ATOM      4  N   UNL     1       0.958  45.176  55.503  1.00  0.00    -0.217 NA
ATOM      5  C   UNL     1       1.409  45.886  56.515  1.00  0.00     0.199 A 
ATOM      6  N   UNL     1       2.765  46.055  56.451  1.00  0.00    -0.339 N 
ATOM      7  N   UNL     1       2.086  44.163  53.624  1.00  0.00    -0.191 NA
ATOM      8  C   UNL     1       3.296  44.007  53.081  1.00  0.00     0.232 A 
ATOM      9  N   UNL     1       4.448  44.503  53.590  1.00  0.00    -0.175 NA
ATOM     10  H   UNL     1       3.341  46.560  57.110  1.00  0.00     0.168 HD
ENDROOT
BRANCH   1  11
ATOM     11  O   UNL     1       5.555  45.753  55.286  1.00  0.00    -0.476 OA
BRANCH  11  12
ATOM     12  C   UNL     1       6.122  46.843  54.551  1.00  0.00     0.235 C 
BRANCH  12  13
ATOM     13  C   UNL     1       7.404  46.427  53.809  1.00  0.00     0.027 C 
ATOM     14  C   UNL     1       9.765  47.061  52.134  1.00  0.00     0.000 C 
ATOM     15  C   UNL     1       8.568  46.314  51.558  1.00  0.00     0.000 C 
ATOM     16  C   UNL     1       9.901  46.827  53.635  1.00  0.00     0.000 C 
ATOM     17  C   UNL     1       7.277  46.662  52.295  1.00  0.00     0.007 C 
ATOM     18  C   UNL     1       8.615  47.179  54.378  1.00  0.00     0.007 C 
ENDBRANCH  12  13
ENDBRANCH  11  12
ENDBRANCH   1  11
BRANCH   8  19
ATOM     19  N   UNL     1       3.476  43.291  51.897  1.00  0.00    -0.324 N 
ATOM     20  H   UNL     1       2.585  42.928  51.594  1.00  0.00     0.170 HD
BRANCH  19  21
ATOM     21  C   UNL     1       4.585  42.988  51.099  1.00  0.00     0.041 A 
ATOM     22  C   UNL     1       4.943  41.693  50.712  1.00  0.00     0.026 A 
ATOM     23  C   UNL     1       5.397  44.045  50.654  1.00  0.00     0.026 A 
ATOM     24  C   UNL     1       6.066  41.457  49.913  1.00  0.00     0.002 A 
ATOM     25  C   UNL     1       6.521  43.817  49.855  1.00  0.00     0.002 A 
ATOM     26  C   UNL     1       6.856  42.519  49.483  1.00  0.00     0.000 A 
ENDBRANCH  19  21
ENDBRANCH   8  19
TORSDOF 5
ENDMDL
MODEL 2
REMARK VINA RESULT:    -9.464      1.464      4.402
REMARK INTER + INTRA:         -12.996
REMARK INTER:                 -11.922
REMARK INTRA:                  -1.074
REMARK UNBOUND:                -0.766
REMARK SMILES c1ccc(Nc2nc(OCC3CCCCC3)c3[nH]cnc3n2)cc1
REMARK SMILES IDX 8 1 17 2 21 3 20 4 19 5 18 6 22 7 6 8 7 9 9 11 10 12 11 13
REMARK SMILES IDX 14 14 13 15 15 16 12 17 16 18 5 19 4 21 3 22 23 23 2 24
REMARK SMILES IDX 24 25 1 26
REMARK H PARENT 18 10 5 20
ROOT
ATOM      1  C   UNL     1       3.974  44.342  53.448  1.00  0.00     0.245 A 
ATOM      2  C   UNL     1       2.896  44.565  54.261  1.00  0.00     0.148 A 
ATOM      3  C   UNL     1       2.962  45.555  55.215  1.00  0.00     0.186 A 
ATOM      4  N   UNL     1       1.791  45.625  55.924  1.00  0.00    -0.217 NA
ATOM      5  C   UNL     1       1.023  44.688  55.408  1.00  0.00     0.199 A 
ATOM      6  N   UNL     1       1.654  44.018  54.395  1.00  0.00    -0.339 N 
ATOM      7  N   UNL     1       4.040  46.328  55.400  1.00  0.00    -0.191 NA
ATOM      8  C   UNL     1       5.062  46.065  54.581  1.00  0.00     0.232 A 
ATOM      9  N   UNL     1       5.065  45.110  53.622  1.00  0.00    -0.175 NA
ATOM     10  H   UNL     1       1.274  43.260  53.846  1.00  0.00     0.168 HD
ENDROOT
BRANCH   1  11
ATOM     11  O   UNL     1       3.927  43.350  52.493  1.00  0.00    -0.476 OA
BRANCH  11  12
ATOM     12  C   UNL     1       4.216  43.791  51.162  1.00  0.00     0.235 C 
BRANCH  12  13
ATOM     13  C   UNL     1       5.708  43.644  50.821  1.00  0.00     0.027 C 
ATOM     14  C   UNL     1       7.983  43.867  48.935  1.00  0.00     0.000 C 
ATOM     15  C   UNL     1       7.402  42.509  49.311  1.00  0.00     0.000 C 
ATOM     16  C   UNL     1       7.773  44.892  50.045  1.00  0.00     0.000 C 
ATOM     17  C   UNL     1       5.929  42.614  49.701  1.00  0.00     0.007 C 
ATOM     18  C   UNL     1       6.302  45.006  50.436  1.00  0.00     0.007 C 
ENDBRANCH  12  13
ENDBRANCH  11  12
ENDBRANCH   1  11
BRANCH   8  19
ATOM     19  N   UNL     1       6.256  46.783  54.653  1.00  0.00    -0.324 N 
ATOM     20  H   UNL     1       6.298  47.261  55.540  1.00  0.00     0.170 HD
BRANCH  19  21
ATOM     21  C   UNL     1       7.337  46.967  53.785  1.00  0.00     0.041 A 
ATOM     22  C   UNL     1       7.312  47.807  52.667  1.00  0.00     0.026 A 
ATOM     23  C   UNL     1       8.528  46.267  54.043  1.00  0.00     0.026 A 
ATOM     24  C   UNL     1       8.429  47.945  51.837  1.00  0.00     0.002 A 
ATOM     25  C   UNL     1       9.649  46.401  53.217  1.00  0.00     0.002 A 
ATOM     26  C   UNL     1       9.598  47.243  52.111  1.00  0.00     0.000 A 
ENDBRANCH  19  21
ENDBRANCH   8  19
TORSDOF 5
ENDMDL
MODEL 3
REMARK VINA RESULT:    -9.361      2.411      6.166
REMARK INTER + INTRA:         -12.863
REMARK INTER:                 -11.963
REMARK INTRA:                  -0.901
REMARK UNBOUND:                -0.766
REMARK SMILES c1ccc(Nc2nc(OCC3CCCCC3)c3[nH]cnc3n2)cc1
REMARK SMILES IDX 8 1 17 2 21 3 20 4 19 5 18 6 22 7 6 8 7 9 9 11 10 12 11 13
REMARK SMILES IDX 14 14 13 15 15 16 12 17 16 18 5 19 4 21 3 22 23 23 2 24
REMARK SMILES IDX 24 25 1 26
REMARK H PARENT 18 10 5 20
ROOT
ATOM      1  C   UNL     1       7.200  46.237  52.367  1.00  0.00     0.245 A 
ATOM      2  C   UNL     1       8.272  46.623  53.126  1.00  0.00     0.148 A 
ATOM      3  C   UNL     1       8.059  47.151  54.379  1.00  0.00     0.186 A 
ATOM      4  N   UNL     1       9.249  47.474  54.979  1.00  0.00    -0.217 NA
ATOM      5  C   UNL     1      10.173  47.146  54.100  1.00  0.00     0.199 A 
ATOM      6  N   UNL     1       9.625  46.626  52.959  1.00  0.00    -0.339 N 
ATOM      7  N   UNL     1       6.841  47.316  54.911  1.00  0.00    -0.191 NA
ATOM      8  C   UNL     1       5.833  46.925  54.126  1.00  0.00     0.232 A 
ATOM      9  N   UNL     1       5.969  46.396  52.888  1.00  0.00    -0.175 NA
ATOM     10  H   UNL     1      10.126  46.302  52.144  1.00  0.00     0.168 HD
ENDROOT
BRANCH   1  11
ATOM     11  O   UNL     1       7.395  45.713  51.109  1.00  0.00    -0.476 OA
BRANCH  11  12
ATOM     12  C   UNL     1       6.200  45.278  50.452  1.00  0.00     0.235 C 
BRANCH  12  13
ATOM     13  C   UNL     1       5.822  43.839  50.844  1.00  0.00     0.027 C 
ATOM     14  C   UNL     1       4.306  41.332  50.401  1.00  0.00     0.000 C 
ATOM     15  C   UNL     1       3.934  42.290  51.527  1.00  0.00     0.000 C 
ATOM     16  C   UNL     1       5.785  41.433  50.046  1.00  0.00     0.000 C 
ATOM     17  C   UNL     1       4.331  43.727  51.201  1.00  0.00     0.007 C 
ATOM     18  C   UNL     1       6.188  42.867  49.713  1.00  0.00     0.007 C 
ENDBRANCH  12  13
ENDBRANCH  11  12
ENDBRANCH   1  11
BRANCH   8  19
ATOM     19  N   UNL     1       4.504  47.035  54.539  1.00  0.00    -0.324 N 
ATOM     20  H   UNL     1       4.432  47.778  55.217  1.00  0.00     0.170 HD
BRANCH  19  21
ATOM     21  C   UNL     1       3.325  46.352  54.223  1.00  0.00     0.041 A 
ATOM     22  C   UNL     1       2.601  46.543  53.042  1.00  0.00     0.026 A 
ATOM     23  C   UNL     1       2.826  45.415  55.145  1.00  0.00     0.026 A 
ATOM     24  C   UNL     1       1.426  45.828  52.786  1.00  0.00     0.002 A 
ATOM     25  C   UNL     1       1.653  44.698  54.896  1.00  0.00     0.002 A 
ATOM     26  C   UNL     1       0.951  44.905  53.713  1.00  0.00     0.000 A 
ENDBRANCH  19  21
ENDBRANCH   8  19
TORSDOF 5
ENDMDL
MODEL 4
REMARK VINA RESULT:    -9.208      0.578      1.526
REMARK INTER + INTRA:         -12.665
REMARK INTER:                 -11.963
REMARK INTRA:                  -0.702
REMARK UNBOUND:                -0.766
REMARK SMILES c1ccc(Nc2nc(OCC3CCCCC3)c3[nH]cnc3n2)cc1
REMARK SMILES IDX 8 1 17 2 21 3 20 4 19 5 18 6 22 7 6 8 7 9 9 11 10 12 11 13
REMARK SMILES IDX 14 14 13 15 15 16 12 17 16 18 5 19 4 21 3 22 23 23 2 24
REMARK SMILES IDX 24 25 1 26
REMARK H PARENT 18 10 5 20
ROOT
ATOM      1  C   UNL     1       3.911  45.786  54.463  1.00  0.00     0.245 A 
ATOM      2  C   UNL     1       2.816  45.590  55.259  1.00  0.00     0.148 A 
ATOM      3  C   UNL     1       1.834  44.713  54.856  1.00  0.00     0.186 A 
ATOM      4  N   UNL     1       0.826  44.654  55.783  1.00  0.00    -0.217 NA
ATOM      5  C   UNL     1       1.189  45.486  56.736  1.00  0.00     0.199 A 
ATOM      6  N   UNL     1       2.391  46.078  56.460  1.00  0.00    -0.339 N 
ATOM      7  N   UNL     1       1.888  44.026  53.708  1.00  0.00    -0.191 NA
ATOM      8  C   UNL     1       2.978  44.257  52.970  1.00  0.00     0.232 A 
ATOM      9  N   UNL     1       3.980  45.102  53.305  1.00  0.00    -0.175 NA
ATOM     10  H   UNL     1       2.878  46.751  57.035  1.00  0.00     0.168 HD
ENDROOT
BRANCH   1  11
ATOM     11  O   UNL     1       4.899  46.666  54.848  1.00  0.00    -0.476 OA
BRANCH  11  12
ATOM     12  C   UNL     1       6.217  46.107  54.875  1.00  0.00     0.235 C 
BRANCH  12  13
ATOM     13  C   UNL     1       7.171  46.845  53.921  1.00  0.00     0.027 C 
ATOM     14  C   UNL     1       9.572  46.923  52.186  1.00  0.00     0.000 C 
ATOM     15  C   UNL     1       9.557  47.618  53.543  1.00  0.00     0.000 C 
ATOM     16  C   UNL     1       8.171  46.826  51.591  1.00  0.00     0.000 C 
ATOM     17  C   UNL     1       8.587  46.946  54.511  1.00  0.00     0.007 C 
ATOM     18  C   UNL     1       7.198  46.148  52.553  1.00  0.00     0.007 C 
ENDBRANCH  12  13
ENDBRANCH  11  12
ENDBRANCH   1  11
BRANCH   8  19
ATOM     19  N   UNL     1       3.177  43.618  51.746  1.00  0.00    -0.324 N 
ATOM     20  H   UNL     1       2.282  43.471  51.303  1.00  0.00     0.170 HD
BRANCH  19  21
ATOM     21  C   UNL     1       4.305  43.161  51.056  1.00  0.00     0.041 A 
ATOM     22  C   UNL     1       5.315  43.994  50.566  1.00  0.00     0.026 A 
ATOM     23  C   UNL     1       4.439  41.779  50.836  1.00  0.00     0.026 A 
ATOM     24  C   UNL     1       6.418  43.472  49.882  1.00  0.00     0.002 A 
ATOM     25  C   UNL     1       5.539  41.252  50.153  1.00  0.00     0.002 A 
ATOM     26  C   UNL     1       6.532  42.101  49.675  1.00  0.00     0.000 A 
ENDBRANCH  19  21
ENDBRANCH   8  19
TORSDOF 5
ENDMDL
MODEL 5
REMARK VINA RESULT:    -9.112      1.681      5.270
REMARK INTER + INTRA:         -12.541
REMARK INTER:                 -11.874
REMARK INTRA:                  -0.667
REMARK UNBOUND:                -0.766
REMARK SMILES c1ccc(Nc2nc(OCC3CCCCC3)c3[nH]cnc3n2)cc1
REMARK SMILES IDX 8 1 17 2 21 3 20 4 19 5 18 6 22 7 6 8 7 9 9 11 10 12 11 13
REMARK SMILES IDX 14 14 13 15 15 16 12 17 16 18 5 19 4 21 3 22 23 23 2 24
REMARK SMILES IDX 24 25 1 26
REMARK H PARENT 18 10 5 20
ROOT
ATOM      1  C   UNL     1       3.618  44.615  52.595  1.00  0.00     0.245 A 
ATOM      2  C   UNL     1       2.938  44.793  53.769  1.00  0.00     0.148 A 
ATOM      3  C   UNL     1       3.312  45.808  54.621  1.00  0.00     0.186 A 
ATOM      4  N   UNL     1       2.515  45.825  55.736  1.00  0.00    -0.217 NA
ATOM      5  C   UNL     1       1.668  44.831  55.565  1.00  0.00     0.199 A 
ATOM      6  N   UNL     1       1.888  44.176  54.384  1.00  0.00    -0.339 N 
ATOM      7  N   UNL     1       4.323  46.648  54.365  1.00  0.00    -0.191 NA
ATOM      8  C   UNL     1       4.952  46.427  53.207  1.00  0.00     0.232 A 
ATOM      9  N   UNL     1       4.637  45.451  52.323  1.00  0.00    -0.175 NA
ATOM     10  H   UNL     1       1.371  43.384  54.029  1.00  0.00     0.168 HD
ENDROOT
BRANCH   1  11
ATOM     11  O   UNL     1       3.261  43.600  51.736  1.00  0.00    -0.476 OA
BRANCH  11  12
ATOM     12  C   UNL     1       3.726  42.302  52.121  1.00  0.00     0.235 C 
BRANCH  12  13
ATOM     13  C   UNL     1       4.481  41.601  50.978  1.00  0.00     0.027 C 
ATOM     14  C   UNL     1       5.397  41.460  48.164  1.00  0.00     0.000 C 
ATOM     15  C   UNL     1       4.278  40.560  48.674  1.00  0.00     0.000 C 
ATOM     16  C   UNL     1       6.350  41.860  49.285  1.00  0.00     0.000 C 
ATOM     17  C   UNL     1       3.528  41.197  49.841  1.00  0.00     0.007 C 
ATOM     18  C   UNL     1       5.607  42.503  50.453  1.00  0.00     0.007 C 
ENDBRANCH  12  13
ENDBRANCH  11  12
ENDBRANCH   1  11
BRANCH   8  19
ATOM     19  N   UNL     1       6.028  47.217  52.801  1.00  0.00    -0.324 N 
ATOM     20  H   UNL     1       5.675  48.030  52.319  1.00  0.00     0.170 HD
BRANCH  19  21
ATOM     21  C   UNL     1       7.418  47.106  52.916  1.00  0.00     0.041 A 
ATOM     22  C   UNL     1       8.116  47.214  54.122  1.00  0.00     0.026 A 
ATOM     23  C   UNL     1       8.169  46.873  51.750  1.00  0.00     0.026 A 
ATOM     24  C   UNL     1       9.509  47.095  54.169  1.00  0.00     0.002 A 
ATOM     25  C   UNL     1       9.561  46.752  51.790  1.00  0.00     0.002 A 
ATOM     26  C   UNL     1      10.233  46.864  53.003  1.00  0.00     0.000 A 
ENDBRANCH  19  21
ENDBRANCH   8  19
TORSDOF 5
ENDMDL
MODEL 6
REMARK VINA RESULT:    -9.066      1.500      4.525
REMARK INTER + INTRA:         -12.482
REMARK INTER:                 -11.551
REMARK INTRA:                  -0.931
REMARK UNBOUND:                -0.766
REMARK SMILES c1ccc(Nc2nc(OCC3CCCCC3)c3[nH]cnc3n2)cc1
REMARK SMILES IDX 8 1 17 2 21 3 20 4 19 5 18 6 22 7 6 8 7 9 9 11 10 12 11 13
REMARK SMILES IDX 14 14 13 15 15 16 12 17 16 18 5 19 4 21 3 22 23 23 2 24
REMARK SMILES IDX 24 25 1 26
REMARK H PARENT 18 10 5 20
ROOT
ATOM      1  C   UNL     1       3.581  44.868  52.982  1.00  0.00     0.245 A 
ATOM      2  C   UNL     1       2.631  44.844  53.966  1.00  0.00     0.148 A 
ATOM      3  C   UNL     1       2.816  45.593  55.106  1.00  0.00     0.186 A 
ATOM      4  N   UNL     1       1.761  45.438  55.966  1.00  0.00    -0.217 NA
ATOM      5  C   UNL     1       0.945  44.603  55.358  1.00  0.00     0.199 A 
ATOM      6  N   UNL     1       1.433  44.215  54.140  1.00  0.00    -0.339 N 
ATOM      7  N   UNL     1       3.894  46.360  55.314  1.00  0.00    -0.191 NA
ATOM      8  C   UNL     1       4.790  46.345  54.323  1.00  0.00     0.232 A 
ATOM      9  N   UNL     1       4.671  45.634  53.177  1.00  0.00    -0.175 NA
ATOM     10  H   UNL     1       0.991  43.583  53.487  1.00  0.00     0.168 HD
ENDROOT
BRANCH   1  11
ATOM     11  O   UNL     1       3.414  44.119  51.839  1.00  0.00    -0.476 OA
BRANCH  11  12
ATOM     12  C   UNL     1       4.446  43.156  51.601  1.00  0.00     0.235 C 
BRANCH  12  13
ATOM     13  C   UNL     1       5.392  43.597  50.472  1.00  0.00     0.027 C 
ATOM     14  C   UNL     1       8.063  43.666  49.189  1.00  0.00     0.000 C 
ATOM     15  C   UNL     1       7.497  44.891  49.899  1.00  0.00     0.000 C 
ATOM     16  C   UNL     1       6.954  42.767  48.655  1.00  0.00     0.000 C 
ATOM     17  C   UNL     1       6.516  44.502  51.002  1.00  0.00     0.007 C 
ATOM     18  C   UNL     1       5.972  42.369  49.755  1.00  0.00     0.007 C 
ENDBRANCH  12  13
ENDBRANCH  11  12
ENDBRANCH   1  11
BRANCH   8  19
ATOM     19  N   UNL     1       5.967  47.091  54.393  1.00  0.00    -0.324 N 
ATOM     20  H   UNL     1       5.894  47.748  55.155  1.00  0.00     0.170 HD
BRANCH  19  21
ATOM     21  C   UNL     1       7.155  47.111  53.655  1.00  0.00     0.041 A 
ATOM     22  C   UNL     1       7.332  47.840  52.475  1.00  0.00     0.026 A 
ATOM     23  C   UNL     1       8.244  46.353  54.119  1.00  0.00     0.026 A 
ATOM     24  C   UNL     1       8.547  47.816  51.782  1.00  0.00     0.002 A 
ATOM     25  C   UNL     1       9.461  46.325  53.431  1.00  0.00     0.002 A 
ATOM     26  C   UNL     1       9.612  47.059  52.259  1.00  0.00     0.000 A 
ENDBRANCH  19  21
ENDBRANCH   8  19
TORSDOF 5
ENDMDL
MODEL 7
REMARK VINA RESULT:    -8.966      2.227      5.265
REMARK INTER + INTRA:         -12.352
REMARK INTER:                 -11.710
REMARK INTRA:                  -0.642
REMARK UNBOUND:                -0.766
REMARK SMILES c1ccc(Nc2nc(OCC3CCCCC3)c3[nH]cnc3n2)cc1
REMARK SMILES IDX 8 1 17 2 21 3 20 4 19 5 18 6 22 7 6 8 7 9 9 11 10 12 11 13
REMARK SMILES IDX 14 14 13 15 15 16 12 17 16 18 5 19 4 21 3 22 23 23 2 24
REMARK SMILES IDX 24 25 1 26
REMARK H PARENT 18 10 5 20
ROOT
ATOM      1  C   UNL     1       4.790  44.468  51.580  1.00  0.00     0.245 A 
ATOM      2  C   UNL     1       5.429  43.597  50.741  1.00  0.00     0.148 A 
ATOM      3  C   UNL     1       5.021  42.283  50.692  1.00  0.00     0.186 A 
ATOM      4  N   UNL     1       5.778  41.573  49.797  1.00  0.00    -0.217 NA
ATOM      5  C   UNL     1       6.636  42.444  49.309  1.00  0.00     0.199 A 
ATOM      6  N   UNL     1       6.461  43.686  49.854  1.00  0.00    -0.339 N 
ATOM      7  N   UNL     1       4.017  41.796  51.433  1.00  0.00    -0.191 NA
ATOM      8  C   UNL     1       3.432  42.690  52.235  1.00  0.00     0.232 A 
ATOM      9  N   UNL     1       3.779  43.994  52.332  1.00  0.00    -0.175 NA
ATOM     10  H   UNL     1       6.994  44.518  49.642  1.00  0.00     0.168 HD
ENDROOT
BRANCH   1  11
ATOM     11  O   UNL     1       5.191  45.785  51.647  1.00  0.00    -0.476 OA
BRANCH  11  12
ATOM     12  C   UNL     1       5.583  46.223  52.952  1.00  0.00     0.235 C 
BRANCH  12  13
ATOM     13  C   UNL     1       6.925  46.975  52.924  1.00  0.00     0.027 C 
ATOM     14  C   UNL     1       9.885  47.026  53.051  1.00  0.00     0.000 C 
ATOM     15  C   UNL     1       9.037  47.522  54.217  1.00  0.00     0.000 C 
ATOM     16  C   UNL     1       9.149  47.169  51.723  1.00  0.00     0.000 C 
ATOM     17  C   UNL     1       7.675  46.834  54.258  1.00  0.00     0.007 C 
ATOM     18  C   UNL     1       7.789  46.478  51.756  1.00  0.00     0.007 C 
ENDBRANCH  12  13
ENDBRANCH  11  12
ENDBRANCH   1  11
BRANCH   8  19
ATOM     19  N   UNL     1       2.372  42.334  53.070  1.00  0.00    -0.324 N 
ATOM     20  H   UNL     1       2.640  41.531  53.616  1.00  0.00     0.170 HD
BRANCH  19  21
ATOM     21  C   UNL     1       1.084  42.839  53.279  1.00  0.00     0.041 A 
ATOM     22  C   UNL     1      -0.034  42.476  52.521  1.00  0.00     0.026 A 
ATOM     23  C   UNL     1       0.891  43.769  54.315  1.00  0.00     0.026 A 
ATOM     24  C   UNL     1      -1.296  43.020  52.781  1.00  0.00     0.002 A 
ATOM     25  C   UNL     1      -0.369  44.316  54.581  1.00  0.00     0.002 A 
ATOM     26  C   UNL     1      -1.465  43.939  53.812  1.00  0.00     0.000 A 
ENDBRANCH  19  21
ENDBRANCH   8  19
TORSDOF 5
ENDMDL
MODEL 8
REMARK VINA RESULT:    -8.938      2.073      5.325
REMARK INTER + INTRA:         -12.316
REMARK INTER:                 -11.775
REMARK INTRA:                  -0.541
REMARK UNBOUND:                -0.766
REMARK SMILES c1ccc(Nc2nc(OCC3CCCCC3)c3[nH]cnc3n2)cc1
REMARK SMILES IDX 8 1 17 2 21 3 20 4 19 5 18 6 22 7 6 8 7 9 9 11 10 12 11 13
REMARK SMILES IDX 14 14 13 15 15 16 12 17 16 18 5 19 4 21 3 22 23 23 2 24
REMARK SMILES IDX 24 25 1 26
REMARK H PARENT 18 10 5 20
ROOT
ATOM      1  C   UNL     1       4.781  44.601  51.559  1.00  0.00     0.245 A 
ATOM      2  C   UNL     1       5.433  43.721  50.738  1.00  0.00     0.148 A 
ATOM      3  C   UNL     1       5.040  42.402  50.712  1.00  0.00     0.186 A 
ATOM      4  N   UNL     1       5.808  41.684  49.833  1.00  0.00    -0.217 NA
ATOM      5  C   UNL     1       6.658  42.556  49.332  1.00  0.00     0.199 A 
ATOM      6  N   UNL     1       6.467  43.806  49.854  1.00  0.00    -0.339 N 
ATOM      7  N   UNL     1       4.039  41.918  51.459  1.00  0.00    -0.191 NA
ATOM      8  C   UNL     1       3.441  42.820  52.242  1.00  0.00     0.232 A 
ATOM      9  N   UNL     1       3.773  44.129  52.316  1.00  0.00    -0.175 NA
ATOM     10  H   UNL     1       6.991  44.640  49.628  1.00  0.00     0.168 HD
ENDROOT
BRANCH   1  11
ATOM     11  O   UNL     1       5.166  45.923  51.603  1.00  0.00    -0.476 OA
BRANCH  11  12
ATOM     12  C   UNL     1       5.520  46.398  52.906  1.00  0.00     0.235 C 
BRANCH  12  13
ATOM     13  C   UNL     1       6.892  47.094  52.909  1.00  0.00     0.027 C 
ATOM     14  C   UNL     1       9.852  47.016  53.029  1.00  0.00     0.000 C 
ATOM     15  C   UNL     1       9.027  47.491  54.220  1.00  0.00     0.000 C 
ATOM     16  C   UNL     1       9.121  47.252  51.712  1.00  0.00     0.000 C 
ATOM     17  C   UNL     1       7.638  46.859  54.233  1.00  0.00     0.007 C 
ATOM     18  C   UNL     1       7.733  46.617  51.716  1.00  0.00     0.007 C 
ENDBRANCH  12  13
ENDBRANCH  11  12
ENDBRANCH   1  11
BRANCH   8  19
ATOM     19  N   UNL     1       2.382  42.468  53.080  1.00  0.00    -0.324 N 
ATOM     20  H   UNL     1       2.500  41.510  53.373  1.00  0.00     0.170 HD
BRANCH  19  21
ATOM     21  C   UNL     1       1.252  43.139  53.558  1.00  0.00     0.041 A 
ATOM     22  C   UNL     1       1.290  44.147  54.527  1.00  0.00     0.026 A 
ATOM     23  C   UNL     1      -0.006  42.785  53.041  1.00  0.00     0.026 A 
ATOM     24  C   UNL     1       0.122  44.779  54.965  1.00  0.00     0.002 A 
ATOM     25  C   UNL     1      -1.178  43.413  53.474  1.00  0.00     0.002 A 
ATOM     26  C   UNL     1      -1.113  44.412  54.438  1.00  0.00     0.000 A 
ENDBRANCH  19  21
ENDBRANCH   8  19
TORSDOF 5
ENDMDL
MODEL 9
REMARK VINA RESULT:    -8.854      2.638      6.553
REMARK INTER + INTRA:         -12.207
REMARK INTER:                 -11.628
REMARK INTRA:                  -0.580
REMARK UNBOUND:                -0.766
REMARK SMILES c1ccc(Nc2nc(OCC3CCCCC3)c3[nH]cnc3n2)cc1
REMARK SMILES IDX 8 1 17 2 21 3 20 4 19 5 18 6 22 7 6 8 7 9 9 11 10 12 11 13
REMARK SMILES IDX 14 14 13 15 15 16 12 17 16 18 5 19 4 21 3 22 23 23 2 24
REMARK SMILES IDX 24 25 1 26
REMARK H PARENT 18 10 5 20
ROOT
ATOM      1  C   UNL     1       4.761  42.783  50.890  1.00  0.00     0.245 A 
ATOM      2  C   UNL     1       3.737  43.005  51.769  1.00  0.00     0.148 A 
ATOM      3  C   UNL     1       3.722  44.164  52.512  1.00  0.00     0.186 A 
ATOM      4  N   UNL     1       2.622  44.203  53.329  1.00  0.00    -0.217 NA
ATOM      5  C   UNL     1       1.978  43.081  53.087  1.00  0.00     0.199 A 
ATOM      6  N   UNL     1       2.619  42.321  52.147  1.00  0.00    -0.339 N 
ATOM      7  N   UNL     1       4.670  45.107  52.423  1.00  0.00    -0.191 NA
ATOM      8  C   UNL     1       5.645  44.837  51.551  1.00  0.00     0.232 A 
ATOM      9  N   UNL     1       5.722  43.721  50.789  1.00  0.00    -0.175 NA
ATOM     10  H   UNL     1       2.323  41.422  51.795  1.00  0.00     0.168 HD
ENDROOT
BRANCH   1  11
ATOM     11  O   UNL     1       4.795  41.625  50.145  1.00  0.00    -0.476 OA
BRANCH  11  12
ATOM     12  C   UNL     1       5.830  41.582  49.157  1.00  0.00     0.235 C 
BRANCH  12  13
ATOM     13  C   UNL     1       5.326  41.005  47.823  1.00  0.00     0.027 C 
ATOM     14  C   UNL     1       3.570  41.109  45.438  1.00  0.00     0.000 C 
ATOM     15  C   UNL     1       3.312  40.113  46.564  1.00  0.00     0.000 C 
ATOM     16  C   UNL     1       5.046  41.483  45.349  1.00  0.00     0.000 C 
ATOM     17  C   UNL     1       3.838  40.626  47.902  1.00  0.00     0.007 C 
ATOM     18  C   UNL     1       5.576  42.002  46.683  1.00  0.00     0.007 C 
ENDBRANCH  12  13
ENDBRANCH  11  12
ENDBRANCH   1  11
BRANCH   8  19
ATOM     19  N   UNL     1       6.705  45.721  51.348  1.00  0.00    -0.324 N 
ATOM     20  H   UNL     1       6.682  46.048  50.395  1.00  0.00     0.170 HD
BRANCH  19  21
ATOM     21  C   UNL     1       7.737  46.208  52.157  1.00  0.00     0.041 A 
ATOM     22  C   UNL     1       7.550  46.719  53.445  1.00  0.00     0.026 A 
ATOM     23  C   UNL     1       9.049  46.188  51.652  1.00  0.00     0.026 A 
ATOM     24  C   UNL     1       8.626  47.192  54.203  1.00  0.00     0.002 A 
ATOM     25  C   UNL     1      10.129  46.660  52.404  1.00  0.00     0.002 A 
ATOM     26  C   UNL     1       9.917  47.163  53.683  1.00  0.00     0.000 A 
ENDBRANCH  19  21
ENDBRANCH   8  19
TORSDOF 5
ENDMDL
MODEL 10
REMARK VINA RESULT:    -8.823      2.594      6.006
REMARK INTER + INTRA:         -12.168
REMARK INTER:                 -11.210
REMARK INTRA:                  -0.957
REMARK UNBOUND:                -0.766
REMARK SMILES c1ccc(Nc2nc(OCC3CCCCC3)c3[nH]cnc3n2)cc1
REMARK SMILES IDX 8 1 17 2 21 3 20 4 19 5 18 6 22 7 6 8 7 9 9 11 10 12 11 13
REMARK SMILES IDX 14 14 13 15 15 16 12 17 16 18 5 19 4 21 3 22 23 23 2 24
REMARK SMILES IDX 24 25 1 26
REMARK H PARENT 18 10 5 20
ROOT
ATOM      1  C   UNL     1       4.872  43.403  51.284  1.00  0.00     0.245 A 
ATOM      2  C   UNL     1       4.892  42.430  50.323  1.00  0.00     0.148 A 
ATOM      3  C   UNL     1       5.873  42.453  49.357  1.00  0.00     0.186 A 
ATOM      4  N   UNL     1       5.725  41.401  48.490  1.00  0.00    -0.217 NA
ATOM      5  C   UNL     1       4.668  40.748  48.923  1.00  0.00     0.199 A 
ATOM      6  N   UNL     1       4.128  41.338  50.034  1.00  0.00    -0.339 N 
ATOM      7  N   UNL     1       6.827  43.391  49.300  1.00  0.00    -0.191 NA
ATOM      8  C   UNL     1       6.758  44.316  50.261  1.00  0.00     0.232 A 
ATOM      9  N   UNL     1       5.825  44.353  51.240  1.00  0.00    -0.175 NA
ATOM     10  H   UNL     1       3.317  41.025  50.548  1.00  0.00     0.168 HD
ENDROOT
BRANCH   1  11
ATOM     11  O   UNL     1       3.893  43.399  52.253  1.00  0.00    -0.476 OA
BRANCH  11  12
ATOM     12  C   UNL     1       2.875  44.390  52.076  1.00  0.00     0.235 C 
BRANCH  12  13
ATOM     13  C   UNL     1       3.033  45.556  53.066  1.00  0.00     0.027 C 
ATOM     14  C   UNL     1       4.706  47.453  54.612  1.00  0.00     0.000 C 
ATOM     15  C   UNL     1       4.001  46.286  55.294  1.00  0.00     0.000 C 
ATOM     16  C   UNL     1       3.964  47.897  53.356  1.00  0.00     0.000 C 
ATOM     17  C   UNL     1       3.783  45.119  54.335  1.00  0.00     0.007 C 
ATOM     18  C   UNL     1       3.747  46.735  52.389  1.00  0.00     0.007 C 
ENDBRANCH  12  13
ENDBRANCH  11  12
ENDBRANCH   1  11
BRANCH   8  19
ATOM     19  N   UNL     1       7.681  45.360  50.334  1.00  0.00    -0.324 N 
ATOM     20  H   UNL     1       7.973  45.605  49.400  1.00  0.00     0.170 HD
BRANCH  19  21
ATOM     21  C   UNL     1       8.252  46.085  51.385  1.00  0.00     0.041 A 
ATOM     22  C   UNL     1       7.539  46.953  52.217  1.00  0.00     0.026 A 
ATOM     23  C   UNL     1       9.629  45.940  51.627  1.00  0.00     0.026 A 
ATOM     24  C   UNL     1       8.172  47.651  53.251  1.00  0.00     0.002 A 
ATOM     25  C   UNL     1      10.267  46.634  52.659  1.00  0.00     0.002 A 
ATOM     26  C   UNL     1       9.536  47.492  53.473  1.00  0.00     0.000 A 
ENDBRANCH  19  21
ENDBRANCH   8  19
TORSDOF 5
ENDMDL
MODEL 11
REMARK VINA RESULT:    -8.807      2.008      6.655
REMARK INTER + INTRA:         -12.147
REMARK INTER:                 -11.546
REMARK INTRA:                  -0.601
REMARK UNBOUND:                -0.766
REMARK SMILES c1ccc(Nc2nc(OCC3CCCCC3)c3[nH]cnc3n2)cc1
REMARK SMILES IDX 8 1 17 2 21 3 20 4 19 5 18 6 22 7 6 8 7 9 9 11 10 12 11 13
REMARK SMILES IDX 14 14 13 15 15 16 12 17 16 18 5 19 4 21 3 22 23 23 2 24
REMARK SMILES IDX 24 25 1 26
REMARK H PARENT 18 10 5 20
ROOT
ATOM      1  C   UNL     1       3.670  43.998  52.474  1.00  0.00     0.245 A 
ATOM      2  C   UNL     1       3.937  42.947  51.640  1.00  0.00     0.148 A 
ATOM      3  C   UNL     1       5.047  42.993  50.827  1.00  0.00     0.186 A 
ATOM      4  N   UNL     1       5.143  41.853  50.071  1.00  0.00    -0.217 NA
ATOM      5  C   UNL     1       4.103  41.125  50.419  1.00  0.00     0.199 A 
ATOM      6  N   UNL     1       3.342  41.750  51.369  1.00  0.00    -0.339 N 
ATOM      7  N   UNL     1       5.898  44.026  50.803  1.00  0.00    -0.191 NA
ATOM      8  C   UNL     1       5.588  45.024  51.635  1.00  0.00     0.232 A 
ATOM      9  N   UNL     1       4.516  45.045  52.461  1.00  0.00    -0.175 NA
ATOM     10  H   UNL     1       2.497  41.394  51.794  1.00  0.00     0.168 HD
ENDROOT
BRANCH   1  11
ATOM     11  O   UNL     1       2.559  43.971  53.288  1.00  0.00    -0.476 OA
BRANCH  11  12
ATOM     12  C   UNL     1       2.562  44.948  54.334  1.00  0.00     0.235 C 
BRANCH  12  13
ATOM     13  C   UNL     1       1.143  45.241  54.849  1.00  0.00     0.027 C 
ATOM     14  C   UNL     1      -1.223  44.556  56.496  1.00  0.00     0.000 C 
ATOM     15  C   UNL     1      -1.245  44.396  54.980  1.00  0.00     0.000 C 
ATOM     16  C   UNL     1      -0.247  45.645  56.930  1.00  0.00     0.000 C 
ATOM     17  C   UNL     1       0.152  44.147  54.418  1.00  0.00     0.007 C 
ATOM     18  C   UNL     1       1.154  45.399  56.376  1.00  0.00     0.007 C 
ENDBRANCH  12  13
ENDBRANCH  11  12
ENDBRANCH   1  11
BRANCH   8  19
ATOM     19  N   UNL     1       6.377  46.171  51.722  1.00  0.00    -0.324 N 
ATOM     20  H   UNL     1       5.926  46.919  51.217  1.00  0.00     0.170 HD
BRANCH  19  21
ATOM     21  C   UNL     1       7.602  46.469  52.329  1.00  0.00     0.041 A 
ATOM     22  C   UNL     1       8.840  46.367  51.689  1.00  0.00     0.026 A 
ATOM     23  C   UNL     1       7.597  46.898  53.668  1.00  0.00     0.026 A 
ATOM     24  C   UNL     1      10.030  46.679  52.354  1.00  0.00     0.002 A 
ATOM     25  C   UNL     1       8.783  47.212  54.339  1.00  0.00     0.002 A 
ATOM     26  C   UNL     1      10.003  47.102  53.679  1.00  0.00     0.000 A 
ENDBRANCH  19  21
ENDBRANCH   8  19
TORSDOF 5
ENDMDL
MODEL 12
REMARK VINA RESULT:    -8.801      1.460      2.194
REMARK INTER + INTRA:         -12.139
REMARK INTER:                 -11.505
REMARK INTRA:                  -0.634
REMARK UNBOUND:                -0.766
REMARK SMILES c1ccc(Nc2nc(OCC3CCCCC3)c3[nH]cnc3n2)cc1
REMARK SMILES IDX 8 1 17 2 21 3 20 4 19 5 18 6 22 7 6 8 7 9 9 11 10 12 11 13
REMARK SMILES IDX 14 14 13 15 15 16 12 17 16 18 5 19 4 21 3 22 23 23 2 24
REMARK SMILES IDX 24 25 1 26
REMARK H PARENT 18 10 5 20
ROOT
ATOM      1  C   UNL     1       4.235  44.732  53.334  1.00  0.00     0.245 A 
ATOM      2  C   UNL     1       2.953  44.834  53.802  1.00  0.00     0.148 A 
ATOM      3  C   UNL     1       2.048  43.836  53.521  1.00  0.00     0.186 A 
ATOM      4  N   UNL     1       0.826  44.118  54.074  1.00  0.00    -0.217 NA
ATOM      5  C   UNL     1       0.986  45.275  54.681  1.00  0.00     0.199 A 
ATOM      6  N   UNL     1       2.262  45.748  54.542  1.00  0.00    -0.339 N 
ATOM      7  N   UNL     1       2.353  42.748  52.802  1.00  0.00    -0.191 NA
ATOM      8  C   UNL     1       3.616  42.701  52.370  1.00  0.00     0.232 A 
ATOM      9  N   UNL     1       4.557  43.644  52.609  1.00  0.00    -0.175 NA
ATOM     10  H   UNL     1       2.629  46.612  54.916  1.00  0.00     0.168 HD
ENDROOT
BRANCH   1  11
ATOM     11  O   UNL     1       5.151  45.726  53.599  1.00  0.00    -0.476 OA
BRANCH  11  12
ATOM     12  C   UNL     1       5.549  46.489  52.456  1.00  0.00     0.235 C 
BRANCH  12  13
ATOM     13  C   UNL     1       6.945  47.108  52.639  1.00  0.00     0.027 C 
ATOM     14  C   UNL     1       9.848  46.871  53.187  1.00  0.00     0.000 C 
ATOM     15  C   UNL     1       8.892  47.432  54.234  1.00  0.00     0.000 C 
ATOM     16  C   UNL     1       9.328  47.102  51.773  1.00  0.00     0.000 C 
ATOM     17  C   UNL     1       7.480  46.878  54.063  1.00  0.00     0.007 C 
ATOM     18  C   UNL     1       7.918  46.545  51.593  1.00  0.00     0.007 C 
ENDBRANCH  12  13
ENDBRANCH  11  12
ENDBRANCH   1  11
BRANCH   8  19
ATOM     19  N   UNL     1       4.084  41.631  51.606  1.00  0.00    -0.324 N 
ATOM     20  H   UNL     1       4.144  40.811  52.190  1.00  0.00     0.170 HD
BRANCH  19  21
ATOM     21  C   UNL     1       4.473  41.483  50.270  1.00  0.00     0.041 A 
ATOM     22  C   UNL     1       5.642  42.027  49.728  1.00  0.00     0.026 A 
ATOM     23  C   UNL     1       3.642  40.744  49.410  1.00  0.00     0.026 A 
ATOM     24  C   UNL     1       5.972  41.843  48.382  1.00  0.00     0.002 A 
ATOM     25  C   UNL     1       3.967  40.556  48.063  1.00  0.00     0.002 A 
ATOM     26  C   UNL     1       5.136  41.107  47.548  1.00  0.00     0.000 A 
ENDBRANCH  19  21
ENDBRANCH   8  19
TORSDOF 5
ENDMDL
MODEL 13
REMARK VINA RESULT:    -8.748      1.800      4.765
REMARK INTER + INTRA:         -12.071
REMARK INTER:                 -11.767
REMARK INTRA:                  -0.303
REMARK UNBOUND:                -0.766
REMARK SMILES c1ccc(Nc2nc(OCC3CCCCC3)c3[nH]cnc3n2)cc1
REMARK SMILES IDX 8 1 17 2 21 3 20 4 19 5 18 6 22 7 6 8 7 9 9 11 10 12 11 13
REMARK SMILES IDX 14 14 13 15 15 16 12 17 16 18 5 19 4 21 3 22 23 23 2 24
REMARK SMILES IDX 24 25 1 26
REMARK H PARENT 18 10 5 20
ROOT
ATOM      1  C   UNL     1       3.255  46.720  53.150  1.00  0.00     0.245 A 
ATOM      2  C   UNL     1       2.489  46.067  54.076  1.00  0.00     0.148 A 
ATOM      3  C   UNL     1       3.046  45.702  55.280  1.00  0.00     0.186 A 
ATOM      4  N   UNL     1       2.125  45.063  56.068  1.00  0.00    -0.217 NA
ATOM      5  C   UNL     1       1.021  45.039  55.351  1.00  0.00     0.199 A 
ATOM      6  N   UNL     1       1.196  45.637  54.133  1.00  0.00    -0.339 N 
ATOM      7  N   UNL     1       4.321  45.952  55.606  1.00  0.00    -0.191 NA
ATOM      8  C   UNL     1       5.022  46.590  54.666  1.00  0.00     0.232 A 
ATOM      9  N   UNL     1       4.539  46.979  53.463  1.00  0.00    -0.175 NA
ATOM     10  H   UNL     1       0.500  45.743  53.408  1.00  0.00     0.168 HD
ENDROOT
BRANCH   1  11
ATOM     11  O   UNL     1       2.715  47.086  51.937  1.00  0.00    -0.476 OA
BRANCH  11  12
ATOM     12  C   UNL     1       3.222  46.357  50.814  1.00  0.00     0.235 C 
BRANCH  12  13
ATOM     13  C   UNL     1       3.891  45.040  51.242  1.00  0.00     0.027 C 
ATOM     14  C   UNL     1       4.879  42.309  50.651  1.00  0.00     0.000 C 
ATOM     15  C   UNL     1       3.605  42.529  51.459  1.00  0.00     0.000 C 
ATOM     16  C   UNL     1       5.842  43.484  50.793  1.00  0.00     0.000 C 
ATOM     17  C   UNL     1       2.929  43.849  51.100  1.00  0.00     0.007 C 
ATOM     18  C   UNL     1       5.173  44.807  50.429  1.00  0.00     0.007 C 
ENDBRANCH  12  13
ENDBRANCH  11  12
ENDBRANCH   1  11
BRANCH   8  19
ATOM     19  N   UNL     1       6.365  46.919  54.856  1.00  0.00    -0.324 N 
ATOM     20  H   UNL     1       6.484  47.284  55.789  1.00  0.00     0.170 HD
BRANCH  19  21
ATOM     21  C   UNL     1       7.509  46.853  54.054  1.00  0.00     0.041 A 
ATOM     22  C   UNL     1       7.532  46.312  52.764  1.00  0.00     0.026 A 
ATOM     23  C   UNL     1       8.716  47.358  54.567  1.00  0.00     0.026 A 
ATOM     24  C   UNL     1       8.712  46.275  52.013  1.00  0.00     0.002 A 
ATOM     25  C   UNL     1       9.898  47.324  53.822  1.00  0.00     0.002 A 
ATOM     26  C   UNL     1       9.896  46.781  52.541  1.00  0.00     0.000 A 
ENDBRANCH  19  21
ENDBRANCH   8  19
TORSDOF 5
ENDMDL
MODEL 14
REMARK VINA RESULT:    -8.741      2.153      6.883
REMARK INTER + INTRA:         -12.061
REMARK INTER:                 -11.406
REMARK INTRA:                  -0.655
REMARK UNBOUND:                -0.766
REMARK SMILES c1ccc(Nc2nc(OCC3CCCCC3)c3[nH]cnc3n2)cc1
REMARK SMILES IDX 8 1 17 2 21 3 20 4 19 5 18 6 22 7 6 8 7 9 9 11 10 12 11 13
REMARK SMILES IDX 14 14 13 15 15 16 12 17 16 18 5 19 4 21 3 22 23 23 2 24
REMARK SMILES IDX 24 25 1 26
REMARK H PARENT 18 10 5 20
ROOT
ATOM      1  C   UNL     1       4.300  43.272  51.873  1.00  0.00     0.245 A 
ATOM      2  C   UNL     1       4.757  42.551  50.804  1.00  0.00     0.148 A 
ATOM      3  C   UNL     1       5.804  43.040  50.056  1.00  0.00     0.186 A 
ATOM      4  N   UNL     1       6.115  42.179  49.036  1.00  0.00    -0.217 NA
ATOM      5  C   UNL     1       5.267  41.180  49.162  1.00  0.00     0.199 A 
ATOM      6  N   UNL     1       4.423  41.363  50.222  1.00  0.00    -0.339 N 
ATOM      7  N   UNL     1       6.414  44.203  50.316  1.00  0.00    -0.191 NA
ATOM      8  C   UNL     1       5.926  44.865  51.369  1.00  0.00     0.232 A 
ATOM      9  N   UNL     1       4.903  44.444  52.148  1.00  0.00    -0.175 NA
ATOM     10  H   UNL     1       3.688  40.738  50.523  1.00  0.00     0.168 HD
ENDROOT
BRANCH   1  11
ATOM     11  O   UNL     1       3.249  42.800  52.628  1.00  0.00    -0.476 OA
BRANCH  11  12
ATOM     12  C   UNL     1       2.055  43.585  52.542  1.00  0.00     0.235 C 
BRANCH  12  13
ATOM     13  C   UNL     1       1.370  43.737  53.911  1.00  0.00     0.027 C 
ATOM     14  C   UNL     1      -0.200  45.301  55.879  1.00  0.00     0.000 C 
ATOM     15  C   UNL     1       1.294  45.066  56.070  1.00  0.00     0.000 C 
ATOM     16  C   UNL     1      -0.843  44.183  55.066  1.00  0.00     0.000 C 
ATOM     17  C   UNL     1       2.010  44.865  54.737  1.00  0.00     0.007 C 
ATOM     18  C   UNL     1      -0.135  43.980  53.728  1.00  0.00     0.007 C 
ENDBRANCH  12  13
ENDBRANCH  11  12
ENDBRANCH   1  11
BRANCH   8  19
ATOM     19  N   UNL     1       6.454  46.094  51.764  1.00  0.00    -0.324 N 
ATOM     20  H   UNL     1       5.865  46.834  51.414  1.00  0.00     0.170 HD
BRANCH  19  21
ATOM     21  C   UNL     1       7.579  46.481  52.501  1.00  0.00     0.041 A 
ATOM     22  C   UNL     1       7.535  46.914  53.830  1.00  0.00     0.026 A 
ATOM     23  C   UNL     1       8.837  46.436  51.875  1.00  0.00     0.026 A 
ATOM     24  C   UNL     1       8.699  47.289  54.511  1.00  0.00     0.002 A 
ATOM     25  C   UNL     1      10.003  46.809  52.550  1.00  0.00     0.002 A 
ATOM     26  C   UNL     1       9.933  47.236  53.871  1.00  0.00     0.000 A 
ENDBRANCH  19  21
ENDBRANCH   8  19
TORSDOF 5
ENDMDL
MODEL 15
REMARK VINA RESULT:    -8.724      2.381      3.495
REMARK INTER + INTRA:         -12.040
REMARK INTER:                 -11.441
REMARK INTRA:                  -0.599
REMARK UNBOUND:                -0.766
REMARK SMILES c1ccc(Nc2nc(OCC3CCCCC3)c3[nH]cnc3n2)cc1
REMARK SMILES IDX 8 1 17 2 21 3 20 4 19 5 18 6 22 7 6 8 7 9 9 11 10 12 11 13
REMARK SMILES IDX 14 14 13 15 15 16 12 17 16 18 5 19 4 21 3 22 23 23 2 24
REMARK SMILES IDX 24 25 1 26
REMARK H PARENT 18 10 5 20
ROOT
ATOM      1  C   UNL     1       5.063  43.896  51.857  1.00  0.00     0.245 A 
ATOM      2  C   UNL     1       3.824  43.688  52.399  1.00  0.00     0.148 A 
ATOM      3  C   UNL     1       3.033  42.674  51.910  1.00  0.00     0.186 A 
ATOM      4  N   UNL     1       1.837  42.626  52.578  1.00  0.00    -0.217 NA
ATOM      5  C   UNL     1       1.901  43.600  53.461  1.00  0.00     0.199 A 
ATOM      6  N   UNL     1       3.090  44.273  53.388  1.00  0.00    -0.339 N 
ATOM      7  N   UNL     1       3.410  41.862  50.914  1.00  0.00    -0.191 NA
ATOM      8  C   UNL     1       4.627  42.110  50.422  1.00  0.00     0.232 A 
ATOM      9  N   UNL     1       5.457  43.087  50.855  1.00  0.00    -0.175 NA
ATOM     10  H   UNL     1       3.375  45.056  53.959  1.00  0.00     0.168 HD
ENDROOT
BRANCH   1  11
ATOM     11  O   UNL     1       5.865  44.911  52.330  1.00  0.00    -0.476 OA
BRANCH  11  12
ATOM     12  C   UNL     1       6.518  45.678  51.312  1.00  0.00     0.235 C 
BRANCH  12  13
ATOM     13  C   UNL     1       7.641  46.556  51.889  1.00  0.00     0.027 C 
ATOM     14  C   UNL     1       9.974  46.964  53.670  1.00  0.00     0.000 C 
ATOM     15  C   UNL     1       8.617  47.579  53.995  1.00  0.00     0.000 C 
ATOM     16  C   UNL     1      10.152  46.763  52.169  1.00  0.00     0.000 C 
ATOM     17  C   UNL     1       7.471  46.763  53.403  1.00  0.00     0.007 C 
ATOM     18  C   UNL     1       9.012  45.942  51.572  1.00  0.00     0.007 C 
ENDBRANCH  12  13
ENDBRANCH  11  12
ENDBRANCH   1  11
BRANCH   8  19
ATOM     19  N   UNL     1       5.160  41.351  49.380  1.00  0.00    -0.324 N 
ATOM     20  H   UNL     1       5.951  40.829  49.725  1.00  0.00     0.170 HD
BRANCH  19  21
ATOM     21  C   UNL     1       4.837  41.187  48.029  1.00  0.00     0.041 A 
ATOM     22  C   UNL     1       3.765  40.418  47.566  1.00  0.00     0.026 A 
ATOM     23  C   UNL     1       5.635  41.831  47.067  1.00  0.00     0.026 A 
ATOM     24  C   UNL     1       3.497  40.293  46.199  1.00  0.00     0.002 A 
ATOM     25  C   UNL     1       5.373  41.710  45.700  1.00  0.00     0.002 A 
ATOM     26  C   UNL     1       4.300  40.939  45.265  1.00  0.00     0.000 A 
ENDBRANCH  19  21
ENDBRANCH   8  19
TORSDOF 5
ENDMDL
MODEL 16
REMARK VINA RESULT:    -8.722      2.684      5.305
REMARK INTER + INTRA:         -12.037
REMARK INTER:                 -11.060
REMARK INTRA:                  -0.977
REMARK UNBOUND:                -0.766
REMARK SMILES c1ccc(Nc2nc(OCC3CCCCC3)c3[nH]cnc3n2)cc1
REMARK SMILES IDX 8 1 17 2 21 3 20 4 19 5 18 6 22 7 6 8 7 9 9 11 10 12 11 13
REMARK SMILES IDX 14 14 13 15 15 16 12 17 16 18 5 19 4 21 3 22 23 23 2 24
REMARK SMILES IDX 24 25 1 26
REMARK H PARENT 18 10 5 20
ROOT
ATOM      1  C   UNL     1       6.669  47.109  52.796  1.00  0.00     0.245 A 
ATOM      2  C   UNL     1       7.962  47.183  53.237  1.00  0.00     0.148 A 
ATOM      3  C   UNL     1       8.939  46.458  52.596  1.00  0.00     0.186 A 
ATOM      4  N   UNL     1      10.161  46.665  53.181  1.00  0.00    -0.217 NA
ATOM      5  C   UNL     1       9.929  47.505  54.167  1.00  0.00     0.199 A 
ATOM      6  N   UNL     1       8.606  47.847  54.240  1.00  0.00    -0.339 N 
ATOM      7  N   UNL     1       8.696  45.665  51.544  1.00  0.00    -0.191 NA
ATOM      8  C   UNL     1       7.418  45.629  51.157  1.00  0.00     0.232 A 
ATOM      9  N   UNL     1       6.408  46.316  51.740  1.00  0.00    -0.175 NA
ATOM     10  H   UNL     1       8.182  48.474  54.908  1.00  0.00     0.168 HD
ENDROOT
BRANCH   1  11
ATOM     11  O   UNL     1       5.678  47.823  53.432  1.00  0.00    -0.476 OA
BRANCH  11  12
ATOM     12  C   UNL     1       5.067  47.144  54.534  1.00  0.00     0.235 C 
BRANCH  12  13
ATOM     13  C   UNL     1       3.743  46.472  54.130  1.00  0.00     0.027 C 
ATOM     14  C   UNL     1       2.103  44.865  52.258  1.00  0.00     0.000 C 
ATOM     15  C   UNL     1       1.901  46.370  52.390  1.00  0.00     0.000 C 
ATOM     16  C   UNL     1       2.654  44.259  53.544  1.00  0.00     0.000 C 
ATOM     17  C   UNL     1       3.180  47.075  52.833  1.00  0.00     0.007 C 
ATOM     18  C   UNL     1       3.938  44.956  53.989  1.00  0.00     0.007 C 
ENDBRANCH  12  13
ENDBRANCH  11  12
ENDBRANCH   1  11
BRANCH   8  19
ATOM     19  N   UNL     1       7.006  44.847  50.078  1.00  0.00    -0.324 N 
ATOM     20  H   UNL     1       7.309  45.284  49.221  1.00  0.00     0.170 HD
BRANCH  19  21
ATOM     21  C   UNL     1       6.290  43.651  49.956  1.00  0.00     0.041 A 
ATOM     22  C   UNL     1       6.522  42.695  48.962  1.00  0.00     0.026 A 
ATOM     23  C   UNL     1       5.270  43.385  50.886  1.00  0.00     0.026 A 
ATOM     24  C   UNL     1       5.768  41.518  48.895  1.00  0.00     0.002 A 
ATOM     25  C   UNL     1       4.513  42.211  50.825  1.00  0.00     0.002 A 
ATOM     26  C   UNL     1       4.763  41.275  49.827  1.00  0.00     0.000 A 
ENDBRANCH  19  21
ENDBRANCH   8  19
TORSDOF 5
ENDMDL
MODEL 17
REMARK VINA RESULT:    -8.616      1.515      2.400
REMARK INTER + INTRA:         -11.901
REMARK INTER:                 -11.307
REMARK INTRA:                  -0.594
REMARK UNBOUND:                -0.766
REMARK SMILES c1ccc(Nc2nc(OCC3CCCCC3)c3[nH]cnc3n2)cc1
REMARK SMILES IDX 8 1 17 2 21 3 20 4 19 5 18 6 22 7 6 8 7 9 9 11 10 12 11 13
REMARK SMILES IDX 14 14 13 15 15 16 12 17 16 18 5 19 4 21 3 22 23 23 2 24
REMARK SMILES IDX 24 25 1 26
REMARK H PARENT 18 10 5 20
ROOT
ATOM      1  C   UNL     1       2.545  45.082  53.816  1.00  0.00     0.245 A 
ATOM      2  C   UNL     1       1.259  44.810  54.195  1.00  0.00     0.148 A 
ATOM      3  C   UNL     1       0.681  43.618  53.823  1.00  0.00     0.186 A 
ATOM      4  N   UNL     1      -0.603  43.532  54.297  1.00  0.00    -0.217 NA
ATOM      5  C   UNL     1      -0.803  44.659  54.947  1.00  0.00     0.199 A 
ATOM      6  N   UNL     1       0.301  45.466  54.911  1.00  0.00    -0.339 N 
ATOM      7  N   UNL     1       1.314  42.688  53.096  1.00  0.00    -0.191 NA
ATOM      8  C   UNL     1       2.565  43.006  52.752  1.00  0.00     0.232 A 
ATOM      9  N   UNL     1       3.195  44.157  53.084  1.00  0.00    -0.175 NA
ATOM     10  H   UNL     1       0.394  46.379  55.335  1.00  0.00     0.168 HD
ENDROOT
BRANCH   1  11
ATOM     11  O   UNL     1       3.136  46.273  54.173  1.00  0.00    -0.476 OA
BRANCH  11  12
ATOM     12  C   UNL     1       3.646  47.038  53.076  1.00  0.00     0.235 C 
BRANCH  12  13
ATOM     13  C   UNL     1       5.165  47.256  53.187  1.00  0.00     0.027 C 
ATOM     14  C   UNL     1       7.941  46.228  53.322  1.00  0.00     0.000 C 
ATOM     15  C   UNL     1       7.245  46.785  54.559  1.00  0.00     0.000 C 
ATOM     16  C   UNL     1       7.390  46.849  52.043  1.00  0.00     0.000 C 
ATOM     17  C   UNL     1       5.729  46.631  54.473  1.00  0.00     0.007 C 
ATOM     18  C   UNL     1       5.875  46.693  51.948  1.00  0.00     0.007 C 
ENDBRANCH  12  13
ENDBRANCH  11  12
ENDBRANCH   1  11
BRANCH   8  19
ATOM     19  N   UNL     1       3.354  42.141  51.993  1.00  0.00    -0.324 N 
ATOM     20  H   UNL     1       3.092  41.190  52.201  1.00  0.00     0.170 HD
BRANCH  19  21
ATOM     21  C   UNL     1       4.380  42.323  51.060  1.00  0.00     0.041 A 
ATOM     22  C   UNL     1       5.190  43.461  50.996  1.00  0.00     0.026 A 
ATOM     23  C   UNL     1       4.620  41.303  50.123  1.00  0.00     0.026 A 
ATOM     24  C   UNL     1       6.200  43.581  50.037  1.00  0.00     0.002 A 
ATOM     25  C   UNL     1       5.629  41.417  49.161  1.00  0.00     0.002 A 
ATOM     26  C   UNL     1       6.421  42.559  49.118  1.00  0.00     0.000 A 
ENDBRANCH  19  21
ENDBRANCH   8  19
TORSDOF 5
ENDMDL
MODEL 18
REMARK VINA RESULT:    -8.530      2.398      5.233
REMARK INTER + INTRA:         -11.789
REMARK INTER:                 -11.014
REMARK INTRA:                  -0.775
REMARK UNBOUND:                -0.766
REMARK SMILES c1ccc(Nc2nc(OCC3CCCCC3)c3[nH]cnc3n2)cc1
REMARK SMILES IDX 8 1 17 2 21 3 20 4 19 5 18 6 22 7 6 8 7 9 9 11 10 12 11 13
REMARK SMILES IDX 14 14 13 15 15 16 12 17 16 18 5 19 4 21 3 22 23 23 2 24
REMARK SMILES IDX 24 25 1 26
REMARK H PARENT 18 10 5 20
ROOT
ATOM      1  C   UNL     1       4.868  44.496  51.235  1.00  0.00     0.245 A 
ATOM      2  C   UNL     1       5.485  43.506  50.520  1.00  0.00     0.148 A 
ATOM      3  C   UNL     1       5.050  42.207  50.649  1.00  0.00     0.186 A 
ATOM      4  N   UNL     1       5.788  41.367  49.856  1.00  0.00    -0.217 NA
ATOM      5  C   UNL     1       6.661  42.146  49.254  1.00  0.00     0.199 A 
ATOM      6  N   UNL     1       6.514  43.454  49.627  1.00  0.00    -0.339 N 
ATOM      7  N   UNL     1       4.040  41.845  51.451  1.00  0.00    -0.191 NA
ATOM      8  C   UNL     1       3.477  42.851  52.126  1.00  0.00     0.232 A 
ATOM      9  N   UNL     1       3.851  44.149  52.046  1.00  0.00    -0.175 NA
ATOM     10  H   UNL     1       7.063  44.239  49.304  1.00  0.00     0.168 HD
ENDROOT
BRANCH   1  11
ATOM     11  O   UNL     1       5.295  45.801  51.123  1.00  0.00    -0.476 OA
BRANCH  11  12
ATOM     12  C   UNL     1       5.690  46.407  52.358  1.00  0.00     0.235 C 
BRANCH  12  13
ATOM     13  C   UNL     1       7.177  46.162  52.667  1.00  0.00     0.027 C 
ATOM     14  C   UNL     1       9.974  47.106  52.927  1.00  0.00     0.000 C 
ATOM     15  C   UNL     1       9.540  46.241  51.749  1.00  0.00     0.000 C 
ATOM     16  C   UNL     1       9.109  46.851  54.157  1.00  0.00     0.000 C 
ATOM     17  C   UNL     1       8.057  46.419  51.433  1.00  0.00     0.007 C 
ATOM     18  C   UNL     1       7.625  47.033  53.850  1.00  0.00     0.007 C 
ENDBRANCH  12  13
ENDBRANCH  11  12
ENDBRANCH   1  11
BRANCH   8  19
ATOM     19  N   UNL     1       2.414  42.633  53.004  1.00  0.00    -0.324 N 
ATOM     20  H   UNL     1       2.755  42.144  53.817  1.00  0.00     0.170 HD
BRANCH  19  21
ATOM     21  C   UNL     1       1.048  42.934  52.975  1.00  0.00     0.041 A 
ATOM     22  C   UNL     1       0.301  43.298  54.100  1.00  0.00     0.026 A 
ATOM     23  C   UNL     1       0.374  42.867  51.743  1.00  0.00     0.026 A 
ATOM     24  C   UNL     1      -1.064  43.585  54.004  1.00  0.00     0.002 A 
ATOM     25  C   UNL     1      -0.990  43.154  51.640  1.00  0.00     0.002 A 
ATOM     26  C   UNL     1      -1.711  43.513  52.774  1.00  0.00     0.000 A 
ENDBRANCH  19  21
ENDBRANCH   8  19
TORSDOF 5
ENDMDL
MODEL 19
REMARK VINA RESULT:    -8.495      2.229      6.692
REMARK INTER + INTRA:         -11.744
REMARK INTER:                 -11.088
REMARK INTRA:                  -0.656
REMARK UNBOUND:                -0.766
REMARK SMILES c1ccc(Nc2nc(OCC3CCCCC3)c3[nH]cnc3n2)cc1
REMARK SMILES IDX 8 1 17 2 21 3 20 4 19 5 18 6 22 7 6 8 7 9 9 11 10 12 11 13
REMARK SMILES IDX 14 14 13 15 15 16 12 17 16 18 5 19 4 21 3 22 23 23 2 24
REMARK SMILES IDX 24 25 1 26
REMARK H PARENT 18 10 5 20
ROOT
ATOM      1  C   UNL     1       4.082  43.854  52.256  1.00  0.00     0.245 A 
ATOM      2  C   UNL     1       4.246  42.815  51.382  1.00  0.00     0.148 A 
ATOM      3  C   UNL     1       5.265  42.863  50.457  1.00  0.00     0.186 A 
ATOM      4  N   UNL     1       5.266  41.736  49.677  1.00  0.00    -0.217 NA
ATOM      5  C   UNL     1       4.259  41.013  50.121  1.00  0.00     0.199 A 
ATOM      6  N   UNL     1       3.611  41.630  51.156  1.00  0.00    -0.339 N 
ATOM      7  N   UNL     1       6.122  43.887  50.359  1.00  0.00    -0.191 NA
ATOM      8  C   UNL     1       5.914  44.874  51.236  1.00  0.00     0.232 A 
ATOM      9  N   UNL     1       4.936  44.892  52.171  1.00  0.00    -0.175 NA
ATOM     10  H   UNL     1       2.811  41.277  51.662  1.00  0.00     0.168 HD
ENDROOT
BRANCH   1  11
ATOM     11  O   UNL     1       3.063  43.826  53.183  1.00  0.00    -0.476 OA
BRANCH  11  12
ATOM     12  C   UNL     1       2.662  45.112  53.667  1.00  0.00     0.235 C 
BRANCH  12  13
ATOM     13  C   UNL     1       1.133  45.278  53.652  1.00  0.00     0.027 C 
ATOM     14  C   UNL     1      -1.595  44.239  53.140  1.00  0.00     0.000 C 
ATOM     15  C   UNL     1      -0.953  45.262  52.209  1.00  0.00     0.000 C 
ATOM     16  C   UNL     1      -1.046  44.351  54.558  1.00  0.00     0.000 C 
ATOM     17  C   UNL     1       0.570  45.164  52.226  1.00  0.00     0.007 C 
ATOM     18  C   UNL     1       0.477  44.247  54.582  1.00  0.00     0.007 C 
ENDBRANCH  12  13
ENDBRANCH  11  12
ENDBRANCH   1  11
BRANCH   8  19
ATOM     19  N   UNL     1       6.723  46.011  51.257  1.00  0.00    -0.324 N 
ATOM     20  H   UNL     1       6.394  46.661  50.560  1.00  0.00     0.170 HD
BRANCH  19  21
ATOM     21  C   UNL     1       7.839  46.400  52.005  1.00  0.00     0.041 A 
ATOM     22  C   UNL     1       9.159  46.087  51.665  1.00  0.00     0.026 A 
ATOM     23  C   UNL     1       7.632  47.151  53.175  1.00  0.00     0.026 A 
ATOM     24  C   UNL     1      10.232  46.506  52.459  1.00  0.00     0.002 A 
ATOM     25  C   UNL     1       8.700  47.573  53.972  1.00  0.00     0.002 A 
ATOM     26  C   UNL     1      10.004  47.249  53.612  1.00  0.00     0.000 A 
ENDBRANCH  19  21
ENDBRANCH   8  19
TORSDOF 5
ENDMDL
MODEL 20
REMARK VINA RESULT:    -8.229      2.419      5.247
REMARK INTER + INTRA:         -11.400
REMARK INTER:                 -10.088
REMARK INTRA:                  -1.312
REMARK UNBOUND:                -0.766
REMARK SMILES c1ccc(Nc2nc(OCC3CCCCC3)c3[nH]cnc3n2)cc1
REMARK SMILES IDX 8 1 17 2 21 3 20 4 19 5 18 6 22 7 6 8 7 9 9 11 10 12 11 13
REMARK SMILES IDX 14 14 13 15 15 16 12 17 16 18 5 19 4 21 3 22 23 23 2 24
REMARK SMILES IDX 24 25 1 26
REMARK H PARENT 18 10 5 20
ROOT
ATOM      1  C   UNL     1       0.483  44.443  54.210  1.00  0.00     0.245 A 
ATOM      2  C   UNL     1      -0.493  44.393  55.167  1.00  0.00     0.148 A 
ATOM      3  C   UNL     1      -0.235  44.891  56.424  1.00  0.00     0.186 A 
ATOM      4  N   UNL     1      -1.331  44.753  57.236  1.00  0.00    -0.217 NA
ATOM      5  C   UNL     1      -2.243  44.176  56.482  1.00  0.00     0.199 A 
ATOM      6  N   UNL     1      -1.778  43.938  55.217  1.00  0.00    -0.339 N 
ATOM      7  N   UNL     1       0.939  45.432  56.774  1.00  0.00    -0.191 NA
ATOM      8  C   UNL     1       1.855  45.452  55.802  1.00  0.00     0.232 A 
ATOM      9  N   UNL     1       1.669  44.983  54.546  1.00  0.00    -0.175 NA
ATOM     10  H   UNL     1      -2.288  43.508  54.458  1.00  0.00     0.168 HD
ENDROOT
BRANCH   1  11
ATOM     11  O   UNL     1       0.243  43.942  52.949  1.00  0.00    -0.476 OA
BRANCH  11  12
ATOM     12  C   UNL     1       0.539  44.849  51.882  1.00  0.00     0.235 C 
BRANCH  12  13
ATOM     13  C   UNL     1       1.886  44.526  51.212  1.00  0.00     0.027 C 
ATOM     14  C   UNL     1       4.788  43.941  51.346  1.00  0.00     0.000 C 
ATOM     15  C   UNL     1       4.278  45.293  50.858  1.00  0.00     0.000 C 
ATOM     16  C   UNL     1       3.770  42.834  51.093  1.00  0.00     0.000 C 
ATOM     17  C   UNL     1       2.919  45.636  51.464  1.00  0.00     0.007 C 
ATOM     18  C   UNL     1       2.411  43.169  51.702  1.00  0.00     0.007 C 
ENDBRANCH  12  13
ENDBRANCH  11  12
ENDBRANCH   1  11
BRANCH   8  19
ATOM     19  N   UNL     1       3.129  45.981  56.013  1.00  0.00    -0.324 N 
ATOM     20  H   UNL     1       3.178  46.355  56.949  1.00  0.00     0.170 HD
BRANCH  19  21
ATOM     21  C   UNL     1       4.280  46.096  55.227  1.00  0.00     0.041 A 
ATOM     22  C   UNL     1       4.585  47.212  54.441  1.00  0.00     0.026 A 
ATOM     23  C   UNL     1       5.194  45.028  55.219  1.00  0.00     0.026 A 
ATOM     24  C   UNL     1       5.755  47.263  53.675  1.00  0.00     0.002 A 
ATOM     25  C   UNL     1       6.365  45.073  54.456  1.00  0.00     0.002 A 
ATOM     26  C   UNL     1       6.645  46.194  53.682  1.00  0.00     0.000 A 
ENDBRANCH  19  21
ENDBRANCH   8  19
TORSDOF 5
ENDMDL
