MODEL 1
REMARK VINA RESULT:    -9.253      0.000      0.000
REMARK INTER + INTRA:         -13.089
REMARK INTER:                 -12.499
REMARK INTRA:                  -0.591
REMARK UNBOUND:                -0.591
REMARK SMILES COc1ccc(Nc2nc(NC[C@@H]3CCCO3)c3ccccc3n2)cc1
REMARK SMILES IDX 8 1 9 2 10 3 18 4 19 5 20 6 21 7 22 8 23 9 24 10 7 11 6 13
REMARK SMILES IDX 3 14 4 15 26 16 5 17 25 18 2 19 1 20 11 21 12 23 13 24 14 25
REMARK SMILES IDX 17 26 15 27 16 28
REMARK H PARENT 7 12 11 22
ROOT
ATOM      1  C   UNL     1       2.980  43.502  52.566  1.00  0.00     0.229 A 
ATOM      2  N   UNL     1       3.478  44.738  52.466  1.00  0.00    -0.195 NA
ATOM      3  C   UNL     1       4.556  44.943  51.700  1.00  0.00     0.139 A 
ATOM      4  C   UNL     1       5.162  43.896  50.991  1.00  0.00     0.043 A 
ATOM      5  C   UNL     1       6.319  44.018  50.179  1.00  0.00     0.014 A 
ATOM      6  C   UNL     1       6.840  42.915  49.506  1.00  0.00     0.001 A 
ATOM      7  C   UNL     1       6.217  41.682  49.640  1.00  0.00     0.002 A 
ATOM      8  C   UNL     1       5.085  41.562  50.451  1.00  0.00     0.029 A 
ATOM      9  C   UNL     1       4.549  42.647  51.134  1.00  0.00     0.078 A 
ATOM     10  N   UNL     1       3.476  42.453  51.905  1.00  0.00    -0.213 NA
ENDROOT
BRANCH   1  11
ATOM     11  N   UNL     1       1.897  43.393  53.435  1.00  0.00    -0.324 N 
ATOM     12  H   UNL     1       1.299  42.655  53.088  1.00  0.00     0.170 HD
BRANCH  11  13
ATOM     13  C   UNL     1       1.411  44.171  54.488  1.00  0.00     0.041 A 
ATOM     14  C   UNL     1       0.293  45.665  56.625  1.00  0.00     0.119 A 
ATOM     15  C   UNL     1      -0.527  44.912  55.792  1.00  0.00     0.048 A 
ATOM     16  C   UNL     1       1.668  45.664  56.394  1.00  0.00     0.048 A 
ATOM     17  C   UNL     1       0.030  44.171  54.740  1.00  0.00     0.030 A 
ATOM     18  C   UNL     1       2.220  44.923  55.342  1.00  0.00     0.030 A 
BRANCH  14  19
ATOM     19  O   UNL     1      -0.113  46.430  57.683  1.00  0.00    -0.497 OA
ATOM     20  C   UNL     1       0.904  46.905  58.557  1.00  0.00     0.278 C 
ENDBRANCH  14  19
ENDBRANCH  11  13
ENDBRANCH   1  11
BRANCH   3  21
ATOM     21  N   UNL     1       5.099  46.243  51.617  1.00  0.00    -0.367 N 
ATOM     22  H   UNL     1       4.345  46.866  51.337  1.00  0.00     0.162 HD
BRANCH  21  23
ATOM     23  C   UNL     1       5.787  46.758  52.813  1.00  0.00     0.146 C 
BRANCH  23  24
ATOM     24  C   UNL     1       7.157  47.414  52.545  1.00  0.00     0.137 C 
ATOM     25  C   UNL     1       8.204  46.535  51.870  1.00  0.00     0.036 C 
ATOM     26  O   UNL     1       7.767  47.956  53.736  1.00  0.00    -0.376 OA
ATOM     27  C   UNL     1       9.489  47.187  52.318  1.00  0.00     0.031 C 
ATOM     28  C   UNL     1       9.151  47.582  53.739  1.00  0.00     0.160 C 
ENDBRANCH  23  24
ENDBRANCH  21  23
ENDBRANCH   3  21
TORSDOF 6
ENDMDL
MODEL 2
REMARK VINA RESULT:    -9.252      2.257      6.064
REMARK INTER + INTRA:         -13.088
REMARK INTER:                 -12.183
REMARK INTRA:                  -0.904
REMARK UNBOUND:                -0.591
REMARK SMILES COc1ccc(Nc2nc(NC[C@@H]3CCCO3)c3ccccc3n2)cc1
REMARK SMILES IDX 8 1 9 2 10 3 18 4 19 5 20 6 21 7 22 8 23 9 24 10 7 11 6 13
REMARK SMILES IDX 3 14 4 15 26 16 5 17 25 18 2 19 1 20 11 21 12 23 13 24 14 25
REMARK SMILES IDX 17 26 15 27 16 28
REMARK H PARENT 7 12 11 22
ROOT
ATOM      1  C   UNL     1       6.600  44.878  51.009  1.00  0.00     0.229 A 
ATOM      2  N   UNL     1       5.688  44.604  51.946  1.00  0.00    -0.195 NA
ATOM      3  C   UNL     1       4.880  43.551  51.776  1.00  0.00     0.139 A 
ATOM      4  C   UNL     1       4.980  42.724  50.649  1.00  0.00     0.043 A 
ATOM      5  C   UNL     1       4.150  41.605  50.377  1.00  0.00     0.014 A 
ATOM      6  C   UNL     1       4.338  40.839  49.228  1.00  0.00     0.001 A 
ATOM      7  C   UNL     1       5.348  41.182  48.341  1.00  0.00     0.002 A 
ATOM      8  C   UNL     1       6.156  42.291  48.606  1.00  0.00     0.029 A 
ATOM      9  C   UNL     1       5.986  43.072  49.743  1.00  0.00     0.078 A 
ATOM     10  N   UNL     1       6.783  44.128  49.919  1.00  0.00    -0.213 NA
ENDROOT
BRANCH   1  11
ATOM     11  N   UNL     1       7.344  46.028  51.258  1.00  0.00    -0.324 N 
ATOM     12  H   UNL     1       7.549  46.461  50.367  1.00  0.00     0.170 HD
BRANCH  11  13
ATOM     13  C   UNL     1       7.984  46.550  52.385  1.00  0.00     0.041 A 
ATOM     14  C   UNL     1       9.411  47.632  54.586  1.00  0.00     0.119 A 
ATOM     15  C   UNL     1      10.096  47.144  53.478  1.00  0.00     0.048 A 
ATOM     16  C   UNL     1       8.017  47.585  54.589  1.00  0.00     0.048 A 
ATOM     17  C   UNL     1       9.386  46.615  52.390  1.00  0.00     0.030 A 
ATOM     18  C   UNL     1       7.313  47.055  53.501  1.00  0.00     0.030 A 
BRANCH  14  19
ATOM     19  O   UNL     1       9.971  48.173  55.710  1.00  0.00    -0.497 OA
ATOM     20  C   UNL     1      11.068  47.470  56.280  1.00  0.00     0.278 C 
ENDBRANCH  14  19
ENDBRANCH  11  13
ENDBRANCH   1  11
BRANCH   3  21
ATOM     21  N   UNL     1       3.896  43.279  52.752  1.00  0.00    -0.367 N 
ATOM     22  H   UNL     1       4.363  43.279  53.657  1.00  0.00     0.162 HD
BRANCH  21  23
ATOM     23  C   UNL     1       2.713  44.155  52.772  1.00  0.00     0.146 C 
BRANCH  23  24
ATOM     24  C   UNL     1       2.773  45.306  53.798  1.00  0.00     0.137 C 
ATOM     25  C   UNL     1       3.389  46.612  53.309  1.00  0.00     0.036 C 
ATOM     26  O   UNL     1       3.463  44.944  55.014  1.00  0.00    -0.376 OA
ATOM     27  C   UNL     1       3.860  47.232  54.602  1.00  0.00     0.031 C 
ATOM     28  C   UNL     1       4.343  46.020  55.365  1.00  0.00     0.160 C 
ENDBRANCH  23  24
ENDBRANCH  21  23
ENDBRANCH   3  21
TORSDOF 6
ENDMDL
MODEL 3
REMARK VINA RESULT:    -9.251      2.617      5.198
REMARK INTER + INTRA:         -13.087
REMARK INTER:                 -12.242
REMARK INTRA:                  -0.844
REMARK UNBOUND:                -0.591
REMARK SMILES COc1ccc(Nc2nc(NC[C@@H]3CCCO3)c3ccccc3n2)cc1
REMARK SMILES IDX 8 1 9 2 10 3 18 4 19 5 20 6 21 7 22 8 23 9 24 10 7 11 6 13
REMARK SMILES IDX 3 14 4 15 26 16 5 17 25 18 2 19 1 20 11 21 12 23 13 24 14 25
REMARK SMILES IDX 17 26 15 27 16 28
REMARK H PARENT 7 12 11 22
ROOT
ATOM      1  C   UNL     1       5.319  46.893  53.165  1.00  0.00     0.229 A 
ATOM      2  N   UNL     1       5.554  46.376  51.956  1.00  0.00    -0.195 NA
ATOM      3  C   UNL     1       6.820  46.209  51.557  1.00  0.00     0.139 A 
ATOM      4  C   UNL     1       7.901  46.549  52.384  1.00  0.00     0.043 A 
ATOM      5  C   UNL     1       9.271  46.429  52.033  1.00  0.00     0.014 A 
ATOM      6  C   UNL     1      10.273  46.787  52.932  1.00  0.00     0.001 A 
ATOM      7  C   UNL     1       9.920  47.269  54.185  1.00  0.00     0.002 A 
ATOM      8  C   UNL     1       8.570  47.397  54.523  1.00  0.00     0.029 A 
ATOM      9  C   UNL     1       7.553  47.050  53.642  1.00  0.00     0.078 A 
ATOM     10  N   UNL     1       6.286  47.218  54.027  1.00  0.00    -0.213 NA
ENDROOT
BRANCH   1  11
ATOM     11  N   UNL     1       3.969  47.079  53.453  1.00  0.00    -0.324 N 
ATOM     12  H   UNL     1       3.850  48.034  53.764  1.00  0.00     0.170 HD
BRANCH  11  13
ATOM     13  C   UNL     1       2.873  46.222  53.579  1.00  0.00     0.041 A 
ATOM     14  C   UNL     1       0.672  44.480  53.992  1.00  0.00     0.119 A 
ATOM     15  C   UNL     1       1.662  44.601  54.962  1.00  0.00     0.048 A 
ATOM     16  C   UNL     1       0.780  45.234  52.825  1.00  0.00     0.048 A 
ATOM     17  C   UNL     1       2.746  45.466  54.756  1.00  0.00     0.030 A 
ATOM     18  C   UNL     1       1.864  46.097  52.623  1.00  0.00     0.030 A 
BRANCH  14  19
ATOM     19  O   UNL     1      -0.434  43.679  54.061  1.00  0.00    -0.497 OA
ATOM     20  C   UNL     1      -0.609  42.738  53.010  1.00  0.00     0.278 C 
ENDBRANCH  14  19
ENDBRANCH  11  13
ENDBRANCH   1  11
BRANCH   3  21
ATOM     21  N   UNL     1       7.069  45.689  50.268  1.00  0.00    -0.367 N 
ATOM     22  H   UNL     1       7.888  46.171  49.903  1.00  0.00     0.162 HD
BRANCH  21  23
ATOM     23  C   UNL     1       7.227  44.230  50.155  1.00  0.00     0.146 C 
BRANCH  23  24
ATOM     24  C   UNL     1       5.928  43.457  49.846  1.00  0.00     0.137 C 
ATOM     25  C   UNL     1       5.177  42.895  51.047  1.00  0.00     0.036 C 
ATOM     26  O   UNL     1       6.127  42.363  48.924  1.00  0.00    -0.376 OA
ATOM     27  C   UNL     1       4.413  41.752  50.425  1.00  0.00     0.031 C 
ATOM     28  C   UNL     1       5.415  41.224  49.424  1.00  0.00     0.160 C 
ENDBRANCH  23  24
ENDBRANCH  21  23
ENDBRANCH   3  21
TORSDOF 6
ENDMDL
MODEL 4
REMARK VINA RESULT:    -9.242      1.529      2.250
REMARK INTER + INTRA:         -13.074
REMARK INTER:                 -12.380
REMARK INTRA:                  -0.694
REMARK UNBOUND:                -0.591
REMARK SMILES COc1ccc(Nc2nc(NC[C@@H]3CCCO3)c3ccccc3n2)cc1
REMARK SMILES IDX 8 1 9 2 10 3 18 4 19 5 20 6 21 7 22 8 23 9 24 10 7 11 6 13
REMARK SMILES IDX 3 14 4 15 26 16 5 17 25 18 2 19 1 20 11 21 12 23 13 24 14 25
REMARK SMILES IDX 17 26 15 27 16 28
REMARK H PARENT 7 12 11 22
ROOT
ATOM      1  C   UNL     1       3.687  44.111  53.032  1.00  0.00     0.229 A 
ATOM      2  N   UNL     1       4.346  45.248  52.793  1.00  0.00    -0.195 NA
ATOM      3  C   UNL     1       5.266  45.272  51.822  1.00  0.00     0.139 A 
ATOM      4  C   UNL     1       5.540  44.139  51.043  1.00  0.00     0.043 A 
ATOM      5  C   UNL     1       6.514  44.069  50.012  1.00  0.00     0.014 A 
ATOM      6  C   UNL     1       6.704  42.894  49.288  1.00  0.00     0.001 A 
ATOM      7  C   UNL     1       5.931  41.781  49.586  1.00  0.00     0.002 A 
ATOM      8  C   UNL     1       4.982  41.850  50.609  1.00  0.00     0.029 A 
ATOM      9  C   UNL     1       4.776  43.009  51.347  1.00  0.00     0.078 A 
ATOM     10  N   UNL     1       3.864  42.994  52.322  1.00  0.00    -0.213 NA
ENDROOT
BRANCH   1  11
ATOM     11  N   UNL     1       2.798  44.182  54.102  1.00  0.00    -0.324 N 
ATOM     12  H   UNL     1       3.345  44.228  54.952  1.00  0.00     0.170 HD
BRANCH  11  13
ATOM     13  C   UNL     1       1.418  44.012  54.235  1.00  0.00     0.041 A 
ATOM     14  C   UNL     1      -1.391  43.808  54.575  1.00  0.00     0.119 A 
ATOM     15  C   UNL     1      -0.655  44.704  55.344  1.00  0.00     0.048 A 
ATOM     16  C   UNL     1      -0.724  43.023  53.635  1.00  0.00     0.048 A 
ATOM     17  C   UNL     1       0.732  44.805  55.169  1.00  0.00     0.030 A 
ATOM     18  C   UNL     1       0.662  43.128  53.465  1.00  0.00     0.030 A 
BRANCH  14  19
ATOM     19  O   UNL     1      -2.742  43.607  54.639  1.00  0.00    -0.497 OA
ATOM     20  C   UNL     1      -3.475  43.797  53.435  1.00  0.00     0.278 C 
ENDBRANCH  14  19
ENDBRANCH  11  13
ENDBRANCH   1  11
BRANCH   3  21
ATOM     21  N   UNL     1       5.983  46.466  51.588  1.00  0.00    -0.367 N 
ATOM     22  H   UNL     1       5.398  47.058  51.002  1.00  0.00     0.162 HD
BRANCH  21  23
ATOM     23  C   UNL     1       6.456  47.204  52.771  1.00  0.00     0.146 C 
BRANCH  23  24
ATOM     24  C   UNL     1       7.956  47.564  52.757  1.00  0.00     0.137 C 
ATOM     25  C   UNL     1       8.893  46.523  52.156  1.00  0.00     0.036 C 
ATOM     26  O   UNL     1       8.471  47.890  54.066  1.00  0.00    -0.376 OA
ATOM     27  C   UNL     1      10.198  46.855  52.837  1.00  0.00     0.031 C 
ATOM     28  C   UNL     1       9.732  47.227  54.226  1.00  0.00     0.160 C 
ENDBRANCH  23  24
ENDBRANCH  21  23
ENDBRANCH   3  21
TORSDOF 6
ENDMDL
MODEL 5
REMARK VINA RESULT:    -9.182      2.582      6.788
REMARK INTER + INTRA:         -12.993
REMARK INTER:                 -12.182
REMARK INTRA:                  -0.811
REMARK UNBOUND:                -0.591
REMARK SMILES COc1ccc(Nc2nc(NC[C@@H]3CCCO3)c3ccccc3n2)cc1
REMARK SMILES IDX 8 1 9 2 10 3 18 4 19 5 20 6 21 7 22 8 23 9 24 10 7 11 6 13
REMARK SMILES IDX 3 14 4 15 26 16 5 17 25 18 2 19 1 20 11 21 12 23 13 24 14 25
REMARK SMILES IDX 17 26 15 27 16 28
REMARK H PARENT 7 12 11 22
ROOT
ATOM      1  C   UNL     1       6.511  44.714  51.171  1.00  0.00     0.229 A 
ATOM      2  N   UNL     1       5.617  44.559  52.152  1.00  0.00    -0.195 NA
ATOM      3  C   UNL     1       4.717  43.573  52.059  1.00  0.00     0.139 A 
ATOM      4  C   UNL     1       4.702  42.694  50.968  1.00  0.00     0.043 A 
ATOM      5  C   UNL     1       3.770  41.640  50.777  1.00  0.00     0.014 A 
ATOM      6  C   UNL     1       3.846  40.813  49.658  1.00  0.00     0.001 A 
ATOM      7  C   UNL     1       4.845  41.031  48.720  1.00  0.00     0.002 A 
ATOM      8  C   UNL     1       5.753  42.077  48.904  1.00  0.00     0.029 A 
ATOM      9  C   UNL     1       5.696  42.916  50.010  1.00  0.00     0.078 A 
ATOM     10  N   UNL     1       6.586  43.906  50.110  1.00  0.00    -0.213 NA
ENDROOT
BRANCH   1  11
ATOM     11  N   UNL     1       7.359  45.805  51.340  1.00  0.00    -0.324 N 
ATOM     12  H   UNL     1       7.651  46.112  50.422  1.00  0.00     0.170 HD
BRANCH  11  13
ATOM     13  C   UNL     1       7.994  46.384  52.442  1.00  0.00     0.041 A 
ATOM     14  C   UNL     1       9.412  47.574  54.591  1.00  0.00     0.119 A 
ATOM     15  C   UNL     1      10.102  47.010  53.523  1.00  0.00     0.048 A 
ATOM     16  C   UNL     1       8.018  47.549  54.580  1.00  0.00     0.048 A 
ATOM     17  C   UNL     1       9.397  46.427  52.461  1.00  0.00     0.030 A 
ATOM     18  C   UNL     1       7.318  46.966  53.516  1.00  0.00     0.030 A 
BRANCH  14  19
ATOM     19  O   UNL     1       9.968  48.173  55.687  1.00  0.00    -0.497 OA
ATOM     20  C   UNL     1      11.075  47.512  56.286  1.00  0.00     0.278 C 
ENDBRANCH  14  19
ENDBRANCH  11  13
ENDBRANCH   1  11
BRANCH   3  21
ATOM     21  N   UNL     1       3.754  43.427  53.082  1.00  0.00    -0.367 N 
ATOM     22  H   UNL     1       4.260  43.245  53.947  1.00  0.00     0.162 HD
BRANCH  21  23
ATOM     23  C   UNL     1       2.794  44.529  53.259  1.00  0.00     0.146 C 
BRANCH  23  24
ATOM     24  C   UNL     1       1.342  44.199  52.855  1.00  0.00     0.137 C 
ATOM     25  C   UNL     1       0.861  42.787  53.170  1.00  0.00     0.036 C 
ATOM     26  O   UNL     1       1.078  44.433  51.455  1.00  0.00    -0.376 OA
ATOM     27  C   UNL     1      -0.239  42.605  52.153  1.00  0.00     0.031 C 
ATOM     28  C   UNL     1       0.336  43.315  50.949  1.00  0.00     0.160 C 
ENDBRANCH  23  24
ENDBRANCH  21  23
ENDBRANCH   3  21
TORSDOF 6
ENDMDL
MODEL 6
REMARK VINA RESULT:    -9.087      1.994      2.688
REMARK INTER + INTRA:         -12.864
REMARK INTER:                 -12.152
REMARK INTRA:                  -0.712
REMARK UNBOUND:                -0.591
REMARK SMILES COc1ccc(Nc2nc(NC[C@@H]3CCCO3)c3ccccc3n2)cc1
REMARK SMILES IDX 8 1 9 2 10 3 18 4 19 5 20 6 21 7 22 8 23 9 24 10 7 11 6 13
REMARK SMILES IDX 3 14 4 15 26 16 5 17 25 18 2 19 1 20 11 21 12 23 13 24 14 25
REMARK SMILES IDX 17 26 15 27 16 28
REMARK H PARENT 7 12 11 22
ROOT
ATOM      1  C   UNL     1       4.047  43.327  52.130  1.00  0.00     0.229 A 
ATOM      2  N   UNL     1       4.336  44.546  52.594  1.00  0.00    -0.195 NA
ATOM      3  C   UNL     1       5.376  45.208  52.075  1.00  0.00     0.139 A 
ATOM      4  C   UNL     1       6.156  44.659  51.048  1.00  0.00     0.043 A 
ATOM      5  C   UNL     1       7.290  45.279  50.459  1.00  0.00     0.014 A 
ATOM      6  C   UNL     1       7.994  44.652  49.434  1.00  0.00     0.001 A 
ATOM      7  C   UNL     1       7.581  43.403  48.991  1.00  0.00     0.002 A 
ATOM      8  C   UNL     1       6.473  42.790  49.581  1.00  0.00     0.029 A 
ATOM      9  C   UNL     1       5.756  43.394  50.607  1.00  0.00     0.078 A 
ATOM     10  N   UNL     1       4.719  42.740  51.136  1.00  0.00    -0.213 NA
ENDROOT
BRANCH   1  11
ATOM     11  N   UNL     1       2.985  42.706  52.782  1.00  0.00    -0.324 N 
ATOM     12  H   UNL     1       3.255  41.748  52.965  1.00  0.00     0.170 HD
BRANCH  11  13
ATOM     13  C   UNL     1       1.656  43.056  53.030  1.00  0.00     0.041 A 
ATOM     14  C   UNL     1      -1.088  43.651  53.438  1.00  0.00     0.119 A 
ATOM     15  C   UNL     1      -0.689  42.912  52.329  1.00  0.00     0.048 A 
ATOM     16  C   UNL     1      -0.120  44.083  54.342  1.00  0.00     0.048 A 
ATOM     17  C   UNL     1       0.668  42.616  52.134  1.00  0.00     0.030 A 
ATOM     18  C   UNL     1       1.234  43.786  54.143  1.00  0.00     0.030 A 
BRANCH  14  19
ATOM     19  O   UNL     1      -2.370  44.010  53.752  1.00  0.00    -0.497 OA
ATOM     20  C   UNL     1      -3.365  43.754  52.769  1.00  0.00     0.278 C 
ENDBRANCH  14  19
ENDBRANCH  11  13
ENDBRANCH   1  11
BRANCH   3  21
ATOM     21  N   UNL     1       5.699  46.484  52.586  1.00  0.00    -0.367 N 
ATOM     22  H   UNL     1       4.823  46.987  52.712  1.00  0.00     0.162 HD
BRANCH  21  23
ATOM     23  C   UNL     1       6.510  46.527  53.814  1.00  0.00     0.146 C 
BRANCH  23  24
ATOM     24  C   UNL     1       7.862  47.256  53.677  1.00  0.00     0.137 C 
ATOM     25  C   UNL     1       9.028  46.421  53.162  1.00  0.00     0.036 C 
ATOM     26  O   UNL     1       8.298  47.876  54.907  1.00  0.00    -0.376 OA
ATOM     27  C   UNL     1      10.213  47.166  53.726  1.00  0.00     0.031 C 
ATOM     28  C   UNL     1       9.691  47.588  55.082  1.00  0.00     0.160 C 
ENDBRANCH  23  24
ENDBRANCH  21  23
ENDBRANCH   3  21
TORSDOF 6
ENDMDL
MODEL 7
REMARK VINA RESULT:    -8.994      2.801      6.875
REMARK INTER + INTRA:         -12.739
REMARK INTER:                 -11.760
REMARK INTRA:                  -0.978
REMARK UNBOUND:                -0.591
REMARK SMILES COc1ccc(Nc2nc(NC[C@@H]3CCCO3)c3ccccc3n2)cc1
REMARK SMILES IDX 8 1 9 2 10 3 18 4 19 5 20 6 21 7 22 8 23 9 24 10 7 11 6 13
REMARK SMILES IDX 3 14 4 15 26 16 5 17 25 18 2 19 1 20 11 21 12 23 13 24 14 25
REMARK SMILES IDX 17 26 15 27 16 28
REMARK H PARENT 7 12 11 22
ROOT
ATOM      1  C   UNL     1       7.047  45.536  51.188  1.00  0.00     0.229 A 
ATOM      2  N   UNL     1       6.052  46.190  51.793  1.00  0.00    -0.195 NA
ATOM      3  C   UNL     1       6.328  46.941  52.866  1.00  0.00     0.139 A 
ATOM      4  C   UNL     1       7.636  47.069  53.355  1.00  0.00     0.043 A 
ATOM      5  C   UNL     1       8.014  47.822  54.497  1.00  0.00     0.014 A 
ATOM      6  C   UNL     1       9.346  47.893  54.897  1.00  0.00     0.001 A 
ATOM      7  C   UNL     1      10.311  47.212  54.168  1.00  0.00     0.002 A 
ATOM      8  C   UNL     1       9.934  46.462  53.051  1.00  0.00     0.029 A 
ATOM      9  C   UNL     1       8.611  46.374  52.634  1.00  0.00     0.078 A 
ATOM     10  N   UNL     1       8.324  45.622  51.569  1.00  0.00    -0.213 NA
ENDROOT
BRANCH   1  11
ATOM     11  N   UNL     1       6.638  44.737  50.122  1.00  0.00    -0.324 N 
ATOM     12  H   UNL     1       6.823  45.247  49.268  1.00  0.00     0.170 HD
BRANCH  11  13
ATOM     13  C   UNL     1       5.900  43.556  50.017  1.00  0.00     0.041 A 
ATOM     14  C   UNL     1       4.284  41.228  49.885  1.00  0.00     0.119 A 
ATOM     15  C   UNL     1       4.029  42.204  50.842  1.00  0.00     0.048 A 
ATOM     16  C   UNL     1       5.337  41.421  48.992  1.00  0.00     0.048 A 
ATOM     17  C   UNL     1       4.827  43.356  50.902  1.00  0.00     0.030 A 
ATOM     18  C   UNL     1       6.132  42.572  49.055  1.00  0.00     0.030 A 
BRANCH  14  19
ATOM     19  O   UNL     1       3.589  40.063  49.713  1.00  0.00    -0.497 OA
ATOM     20  C   UNL     1       3.416  39.612  48.376  1.00  0.00     0.278 C 
ENDBRANCH  14  19
ENDBRANCH  11  13
ENDBRANCH   1  11
BRANCH   3  21
ATOM     21  N   UNL     1       5.272  47.610  53.523  1.00  0.00    -0.367 N 
ATOM     22  H   UNL     1       4.616  47.913  52.807  1.00  0.00     0.162 HD
BRANCH  21  23
ATOM     23  C   UNL     1       4.577  46.873  54.592  1.00  0.00     0.146 C 
BRANCH  23  24
ATOM     24  C   UNL     1       3.217  46.268  54.187  1.00  0.00     0.137 C 
ATOM     25  C   UNL     1       3.219  44.788  53.824  1.00  0.00     0.036 C 
ATOM     26  O   UNL     1       2.590  46.971  53.092  1.00  0.00    -0.376 OA
ATOM     27  C   UNL     1       2.009  44.690  52.927  1.00  0.00     0.031 C 
ATOM     28  C   UNL     1       2.083  45.997  52.170  1.00  0.00     0.160 C 
ENDBRANCH  23  24
ENDBRANCH  21  23
ENDBRANCH   3  21
TORSDOF 6
ENDMDL
MODEL 8
REMARK VINA RESULT:    -8.792      2.755      6.793
REMARK INTER + INTRA:         -12.466
REMARK INTER:                 -11.490
REMARK INTRA:                  -0.977
REMARK UNBOUND:                -0.591
REMARK SMILES COc1ccc(Nc2nc(NC[C@@H]3CCCO3)c3ccccc3n2)cc1
REMARK SMILES IDX 8 1 9 2 10 3 18 4 19 5 20 6 21 7 22 8 23 9 24 10 7 11 6 13
REMARK SMILES IDX 3 14 4 15 26 16 5 17 25 18 2 19 1 20 11 21 12 23 13 24 14 25
REMARK SMILES IDX 17 26 15 27 16 28
REMARK H PARENT 7 12 11 22
ROOT
ATOM      1  C   UNL     1       3.369  45.730  53.456  1.00  0.00     0.229 A 
ATOM      2  N   UNL     1       3.820  44.567  52.976  1.00  0.00    -0.195 NA
ATOM      3  C   UNL     1       3.000  43.510  52.964  1.00  0.00     0.139 A 
ATOM      4  C   UNL     1       1.680  43.600  53.426  1.00  0.00     0.043 A 
ATOM      5  C   UNL     1       0.753  42.526  53.473  1.00  0.00     0.014 A 
ATOM      6  C   UNL     1      -0.544  42.721  53.944  1.00  0.00     0.001 A 
ATOM      7  C   UNL     1      -0.926  43.983  54.375  1.00  0.00     0.002 A 
ATOM      8  C   UNL     1      -0.007  45.036  54.340  1.00  0.00     0.029 A 
ATOM      9  C   UNL     1       1.292  44.865  53.877  1.00  0.00     0.078 A 
ATOM     10  N   UNL     1       2.120  45.912  53.891  1.00  0.00    -0.213 NA
ENDROOT
BRANCH   1  11
ATOM     11  N   UNL     1       4.323  46.744  53.479  1.00  0.00    -0.324 N 
ATOM     12  H   UNL     1       3.831  47.628  53.511  1.00  0.00     0.170 HD
BRANCH  11  13
ATOM     13  C   UNL     1       5.705  46.787  53.277  1.00  0.00     0.041 A 
ATOM     14  C   UNL     1       8.530  46.827  53.016  1.00  0.00     0.119 A 
ATOM     15  C   UNL     1       7.941  46.859  54.277  1.00  0.00     0.048 A 
ATOM     16  C   UNL     1       7.708  46.767  51.892  1.00  0.00     0.048 A 
ATOM     17  C   UNL     1       6.545  46.834  54.401  1.00  0.00     0.030 A 
ATOM     18  C   UNL     1       6.313  46.743  52.021  1.00  0.00     0.030 A 
BRANCH  14  19
ATOM     19  O   UNL     1       9.870  46.844  52.749  1.00  0.00    -0.497 OA
ATOM     20  C   UNL     1      10.328  45.981  51.716  1.00  0.00     0.278 C 
ENDBRANCH  14  19
ENDBRANCH  11  13
ENDBRANCH   1  11
BRANCH   3  21
ATOM     21  N   UNL     1       3.485  42.274  52.483  1.00  0.00    -0.367 N 
ATOM     22  H   UNL     1       2.869  41.549  52.844  1.00  0.00     0.162 HD
BRANCH  21  23
ATOM     23  C   UNL     1       3.650  42.142  51.026  1.00  0.00     0.146 C 
BRANCH  23  24
ATOM     24  C   UNL     1       5.112  42.054  50.541  1.00  0.00     0.137 C 
ATOM     25  C   UNL     1       5.827  43.380  50.315  1.00  0.00     0.036 C 
ATOM     26  O   UNL     1       5.260  41.282  49.329  1.00  0.00    -0.376 OA
ATOM     27  C   UNL     1       6.886  42.991  49.313  1.00  0.00     0.031 C 
ATOM     28  C   UNL     1       6.142  41.996  48.452  1.00  0.00     0.160 C 
ENDBRANCH  23  24
ENDBRANCH  21  23
ENDBRANCH   3  21
TORSDOF 6
ENDMDL
MODEL 9
REMARK VINA RESULT:    -8.769      3.486      7.237
REMARK INTER + INTRA:         -12.436
REMARK INTER:                 -11.382
REMARK INTRA:                  -1.054
REMARK UNBOUND:                -0.591
REMARK SMILES COc1ccc(Nc2nc(NC[C@@H]3CCCO3)c3ccccc3n2)cc1
REMARK SMILES IDX 8 1 9 2 10 3 18 4 19 5 20 6 21 7 22 8 23 9 24 10 7 11 6 13
REMARK SMILES IDX 3 14 4 15 26 16 5 17 25 18 2 19 1 20 11 21 12 23 13 24 14 25
REMARK SMILES IDX 17 26 15 27 16 28
REMARK H PARENT 7 12 11 22
ROOT
ATOM      1  C   UNL     1       7.011  43.839  49.698  1.00  0.00     0.229 A 
ATOM      2  N   UNL     1       5.831  44.360  50.047  1.00  0.00    -0.195 NA
ATOM      3  C   UNL     1       5.807  45.441  50.835  1.00  0.00     0.139 A 
ATOM      4  C   UNL     1       6.988  46.045  51.287  1.00  0.00     0.043 A 
ATOM      5  C   UNL     1       7.055  47.176  52.144  1.00  0.00     0.014 A 
ATOM      6  C   UNL     1       8.283  47.708  52.529  1.00  0.00     0.001 A 
ATOM      7  C   UNL     1       9.453  47.119  52.071  1.00  0.00     0.002 A 
ATOM      8  C   UNL     1       9.384  45.999  51.237  1.00  0.00     0.029 A 
ATOM      9  C   UNL     1       8.171  45.448  50.841  1.00  0.00     0.078 A 
ATOM     10  N   UNL     1       8.184  44.366  50.059  1.00  0.00    -0.213 NA
ENDROOT
BRANCH   1  11
ATOM     11  N   UNL     1       6.918  42.682  48.928  1.00  0.00    -0.324 N 
ATOM     12  H   UNL     1       7.849  42.452  48.606  1.00  0.00     0.170 HD
BRANCH  11  13
ATOM     13  C   UNL     1       5.855  41.953  48.390  1.00  0.00     0.041 A 
ATOM     14  C   UNL     1       3.769  40.475  47.159  1.00  0.00     0.119 A 
ATOM     15  C   UNL     1       4.653  41.218  46.384  1.00  0.00     0.048 A 
ATOM     16  C   UNL     1       3.934  40.465  48.544  1.00  0.00     0.048 A 
ATOM     17  C   UNL     1       5.685  41.944  46.996  1.00  0.00     0.030 A 
ATOM     18  C   UNL     1       4.966  41.191  49.151  1.00  0.00     0.030 A 
BRANCH  14  19
ATOM     19  O   UNL     1       2.724  39.724  46.699  1.00  0.00    -0.497 OA
ATOM     20  C   UNL     1       2.746  38.336  47.009  1.00  0.00     0.278 C 
ENDBRANCH  14  19
ENDBRANCH  11  13
ENDBRANCH   1  11
BRANCH   3  21
ATOM     21  N   UNL     1       4.560  45.974  51.228  1.00  0.00    -0.367 N 
ATOM     22  H   UNL     1       4.142  46.399  50.403  1.00  0.00     0.162 HD
BRANCH  21  23
ATOM     23  C   UNL     1       3.613  45.051  51.877  1.00  0.00     0.146 C 
BRANCH  23  24
ATOM     24  C   UNL     1       3.770  44.928  53.407  1.00  0.00     0.137 C 
ATOM     25  C   UNL     1       3.838  46.237  54.184  1.00  0.00     0.036 C 
ATOM     26  O   UNL     1       4.921  44.147  53.796  1.00  0.00    -0.376 OA
ATOM     27  C   UNL     1       4.587  45.819  55.425  1.00  0.00     0.031 C 
ATOM     28  C   UNL     1       5.588  44.836  54.862  1.00  0.00     0.160 C 
ENDBRANCH  23  24
ENDBRANCH  21  23
ENDBRANCH   3  21
TORSDOF 6
ENDMDL
MODEL 10
REMARK VINA RESULT:    -8.727      3.575      7.526
REMARK INTER + INTRA:         -12.378
REMARK INTER:                 -11.528
REMARK INTRA:                  -0.850
REMARK UNBOUND:                -0.591
REMARK SMILES COc1ccc(Nc2nc(NC[C@@H]3CCCO3)c3ccccc3n2)cc1
REMARK SMILES IDX 8 1 9 2 10 3 18 4 19 5 20 6 21 7 22 8 23 9 24 10 7 11 6 13
REMARK SMILES IDX 3 14 4 15 26 16 5 17 25 18 2 19 1 20 11 21 12 23 13 24 14 25
REMARK SMILES IDX 17 26 15 27 16 28
REMARK H PARENT 7 12 11 22
ROOT
ATOM      1  C   UNL     1       7.371  44.149  49.869  1.00  0.00     0.229 A 
ATOM      2  N   UNL     1       6.215  44.696  50.253  1.00  0.00    -0.195 NA
ATOM      3  C   UNL     1       6.235  45.713  51.123  1.00  0.00     0.139 A 
ATOM      4  C   UNL     1       7.440  46.223  51.625  1.00  0.00     0.043 A 
ATOM      5  C   UNL     1       7.553  47.279  52.568  1.00  0.00     0.014 A 
ATOM      6  C   UNL     1       8.802  47.721  52.999  1.00  0.00     0.001 A 
ATOM      7  C   UNL     1       9.946  47.114  52.500  1.00  0.00     0.002 A 
ATOM      8  C   UNL     1       9.831  46.067  51.582  1.00  0.00     0.029 A 
ATOM      9  C   UNL     1       8.597  45.607  51.139  1.00  0.00     0.078 A 
ATOM     10  N   UNL     1       8.565  44.589  50.276  1.00  0.00    -0.213 NA
ENDROOT
BRANCH   1  11
ATOM     11  N   UNL     1       7.230  43.061  49.011  1.00  0.00    -0.324 N 
ATOM     12  H   UNL     1       8.068  43.003  48.448  1.00  0.00     0.170 HD
BRANCH  11  13
ATOM     13  C   UNL     1       6.164  42.228  48.662  1.00  0.00     0.041 A 
ATOM     14  C   UNL     1       3.940  40.559  48.098  1.00  0.00     0.119 A 
ATOM     15  C   UNL     1       4.283  40.848  49.415  1.00  0.00     0.048 A 
ATOM     16  C   UNL     1       4.702  41.109  47.068  1.00  0.00     0.048 A 
ATOM     17  C   UNL     1       5.380  41.677  49.689  1.00  0.00     0.030 A 
ATOM     18  C   UNL     1       5.797  41.936  47.347  1.00  0.00     0.030 A 
BRANCH  14  19
ATOM     19  O   UNL     1       2.901  39.772  47.687  1.00  0.00    -0.497 OA
ATOM     20  C   UNL     1       2.990  39.225  46.377  1.00  0.00     0.278 C 
ENDBRANCH  14  19
ENDBRANCH  11  13
ENDBRANCH   1  11
BRANCH   3  21
ATOM     21  N   UNL     1       5.011  46.273  51.550  1.00  0.00    -0.367 N 
ATOM     22  H   UNL     1       5.115  47.284  51.513  1.00  0.00     0.162 HD
BRANCH  21  23
ATOM     23  C   UNL     1       3.796  45.844  50.839  1.00  0.00     0.146 C 
BRANCH  23  24
ATOM     24  C   UNL     1       2.829  44.974  51.667  1.00  0.00     0.137 C 
ATOM     25  C   UNL     1       3.428  43.731  52.315  1.00  0.00     0.036 C 
ATOM     26  O   UNL     1       1.673  44.542  50.917  1.00  0.00    -0.376 OA
ATOM     27  C   UNL     1       2.215  42.847  52.466  1.00  0.00     0.031 C 
ATOM     28  C   UNL     1       1.455  43.152  51.194  1.00  0.00     0.160 C 
ENDBRANCH  23  24
ENDBRANCH  21  23
ENDBRANCH   3  21
TORSDOF 6
ENDMDL
MODEL 11
REMARK VINA RESULT:    -8.659      1.960      6.491
REMARK INTER + INTRA:         -12.287
REMARK INTER:                 -11.516
REMARK INTRA:                  -0.770
REMARK UNBOUND:                -0.591
REMARK SMILES COc1ccc(Nc2nc(NC[C@@H]3CCCO3)c3ccccc3n2)cc1
REMARK SMILES IDX 8 1 9 2 10 3 18 4 19 5 20 6 21 7 22 8 23 9 24 10 7 11 6 13
REMARK SMILES IDX 3 14 4 15 26 16 5 17 25 18 2 19 1 20 11 21 12 23 13 24 14 25
REMARK SMILES IDX 17 26 15 27 16 28
REMARK H PARENT 7 12 11 22
ROOT
ATOM      1  C   UNL     1       2.457  43.696  53.042  1.00  0.00     0.229 A 
ATOM      2  N   UNL     1       3.402  44.338  53.736  1.00  0.00    -0.195 NA
ATOM      3  C   UNL     1       3.056  44.987  54.854  1.00  0.00     0.139 A 
ATOM      4  C   UNL     1       1.734  44.994  55.319  1.00  0.00     0.043 A 
ATOM      5  C   UNL     1       1.276  45.676  56.477  1.00  0.00     0.014 A 
ATOM      6  C   UNL     1      -0.062  45.613  56.860  1.00  0.00     0.001 A 
ATOM      7  C   UNL     1      -0.954  44.877  56.093  1.00  0.00     0.002 A 
ATOM      8  C   UNL     1      -0.503  44.218  54.946  1.00  0.00     0.029 A 
ATOM      9  C   UNL     1       0.826  44.268  54.542  1.00  0.00     0.078 A 
ATOM     10  N   UNL     1       1.180  43.629  53.425  1.00  0.00    -0.213 NA
ENDROOT
BRANCH   1  11
ATOM     11  N   UNL     1       2.916  43.108  51.866  1.00  0.00    -0.324 N 
ATOM     12  H   UNL     1       2.218  42.442  51.563  1.00  0.00     0.170 HD
BRANCH  11  13
ATOM     13  C   UNL     1       4.138  43.108  51.189  1.00  0.00     0.041 A 
ATOM     14  C   UNL     1       6.586  42.964  49.761  1.00  0.00     0.119 A 
ATOM     15  C   UNL     1       5.887  41.802  50.074  1.00  0.00     0.048 A 
ATOM     16  C   UNL     1       6.057  44.192  50.153  1.00  0.00     0.048 A 
ATOM     17  C   UNL     1       4.676  41.878  50.776  1.00  0.00     0.030 A 
ATOM     18  C   UNL     1       4.846  44.264  50.854  1.00  0.00     0.030 A 
BRANCH  14  19
ATOM     19  O   UNL     1       7.771  43.037  49.085  1.00  0.00    -0.497 OA
ATOM     20  C   UNL     1       8.576  44.184  49.326  1.00  0.00     0.278 C 
ENDBRANCH  14  19
ENDBRANCH  11  13
ENDBRANCH   1  11
BRANCH   3  21
ATOM     21  N   UNL     1       4.049  45.689  55.572  1.00  0.00    -0.367 N 
ATOM     22  H   UNL     1       3.918  45.469  56.557  1.00  0.00     0.162 HD
BRANCH  21  23
ATOM     23  C   UNL     1       5.447  45.469  55.168  1.00  0.00     0.146 C 
BRANCH  23  24
ATOM     24  C   UNL     1       6.132  46.682  54.505  1.00  0.00     0.137 C 
ATOM     25  C   UNL     1       6.161  46.689  52.981  1.00  0.00     0.036 C 
ATOM     26  O   UNL     1       7.490  46.880  54.954  1.00  0.00    -0.376 OA
ATOM     27  C   UNL     1       7.357  47.566  52.700  1.00  0.00     0.031 C 
ATOM     28  C   UNL     1       8.304  47.154  53.806  1.00  0.00     0.160 C 
ENDBRANCH  23  24
ENDBRANCH  21  23
ENDBRANCH   3  21
TORSDOF 6
ENDMDL
MODEL 12
REMARK VINA RESULT:    -8.640      3.679      7.312
REMARK INTER + INTRA:         -12.261
REMARK INTER:                 -11.371
REMARK INTRA:                  -0.890
REMARK UNBOUND:                -0.591
REMARK SMILES COc1ccc(Nc2nc(NC[C@@H]3CCCO3)c3ccccc3n2)cc1
REMARK SMILES IDX 8 1 9 2 10 3 18 4 19 5 20 6 21 7 22 8 23 9 24 10 7 11 6 13
REMARK SMILES IDX 3 14 4 15 26 16 5 17 25 18 2 19 1 20 11 21 12 23 13 24 14 25
REMARK SMILES IDX 17 26 15 27 16 28
REMARK H PARENT 7 12 11 22
ROOT
ATOM      1  C   UNL     1       5.989  42.890  49.949  1.00  0.00     0.229 A 
ATOM      2  N   UNL     1       6.869  43.885  49.806  1.00  0.00    -0.195 NA
ATOM      3  C   UNL     1       6.793  44.940  50.625  1.00  0.00     0.139 A 
ATOM      4  C   UNL     1       5.825  45.015  51.637  1.00  0.00     0.043 A 
ATOM      5  C   UNL     1       5.657  46.105  52.531  1.00  0.00     0.014 A 
ATOM      6  C   UNL     1       4.667  46.078  53.511  1.00  0.00     0.001 A 
ATOM      7  C   UNL     1       3.834  44.972  53.605  1.00  0.00     0.002 A 
ATOM      8  C   UNL     1       3.994  43.906  52.715  1.00  0.00     0.029 A 
ATOM      9  C   UNL     1       4.972  43.911  51.728  1.00  0.00     0.078 A 
ATOM     10  N   UNL     1       5.053  42.866  50.901  1.00  0.00    -0.213 NA
ENDROOT
BRANCH   1  11
ATOM     11  N   UNL     1       6.121  41.873  49.006  1.00  0.00    -0.324 N 
ATOM     12  H   UNL     1       7.017  41.428  49.158  1.00  0.00     0.170 HD
BRANCH  11  13
ATOM     13  C   UNL     1       5.412  41.510  47.859  1.00  0.00     0.041 A 
ATOM     14  C   UNL     1       3.845  40.744  45.621  1.00  0.00     0.119 A 
ATOM     15  C   UNL     1       3.477  40.348  46.903  1.00  0.00     0.048 A 
ATOM     16  C   UNL     1       4.987  41.527  45.461  1.00  0.00     0.048 A 
ATOM     17  C   UNL     1       4.252  40.733  48.006  1.00  0.00     0.030 A 
ATOM     18  C   UNL     1       5.758  41.909  46.567  1.00  0.00     0.030 A 
BRANCH  14  19
ATOM     19  O   UNL     1       3.187  40.443  44.461  1.00  0.00    -0.497 OA
ATOM     20  C   UNL     1       3.861  39.590  43.545  1.00  0.00     0.278 C 
ENDBRANCH  14  19
ENDBRANCH  11  13
ENDBRANCH   1  11
BRANCH   3  21
ATOM     21  N   UNL     1       7.704  46.006  50.456  1.00  0.00    -0.367 N 
ATOM     22  H   UNL     1       7.328  46.805  50.961  1.00  0.00     0.162 HD
BRANCH  21  23
ATOM     23  C   UNL     1       9.104  45.755  50.838  1.00  0.00     0.146 C 
BRANCH  23  24
ATOM     24  C   UNL     1       9.670  46.717  51.903  1.00  0.00     0.137 C 
ATOM     25  C   UNL     1       9.949  46.115  53.275  1.00  0.00     0.036 C 
ATOM     26  O   UNL     1       8.839  47.880  52.113  1.00  0.00    -0.376 OA
ATOM     27  C   UNL     1       9.861  47.329  54.167  1.00  0.00     0.031 C 
ATOM     28  C   UNL     1       8.728  48.098  53.525  1.00  0.00     0.160 C 
ENDBRANCH  23  24
ENDBRANCH  21  23
ENDBRANCH   3  21
TORSDOF 6
ENDMDL
MODEL 13
REMARK VINA RESULT:    -8.633      2.540      5.190
REMARK INTER + INTRA:         -12.251
REMARK INTER:                 -11.846
REMARK INTRA:                  -0.405
REMARK UNBOUND:                -0.591
REMARK SMILES COc1ccc(Nc2nc(NC[C@@H]3CCCO3)c3ccccc3n2)cc1
REMARK SMILES IDX 8 1 9 2 10 3 18 4 19 5 20 6 21 7 22 8 23 9 24 10 7 11 6 13
REMARK SMILES IDX 3 14 4 15 26 16 5 17 25 18 2 19 1 20 11 21 12 23 13 24 14 25
REMARK SMILES IDX 17 26 15 27 16 28
REMARK H PARENT 7 12 11 22
ROOT
ATOM      1  C   UNL     1       5.464  46.352  51.583  1.00  0.00     0.229 A 
ATOM      2  N   UNL     1       6.066  45.652  50.618  1.00  0.00    -0.195 NA
ATOM      3  C   UNL     1       7.399  45.546  50.629  1.00  0.00     0.139 A 
ATOM      4  C   UNL     1       8.173  46.136  51.638  1.00  0.00     0.043 A 
ATOM      5  C   UNL     1       9.590  46.095  51.714  1.00  0.00     0.014 A 
ATOM      6  C   UNL     1      10.267  46.708  52.766  1.00  0.00     0.001 A 
ATOM      7  C   UNL     1       9.542  47.370  53.747  1.00  0.00     0.002 A 
ATOM      8  C   UNL     1       8.147  47.419  53.662  1.00  0.00     0.029 A 
ATOM      9  C   UNL     1       7.450  46.818  52.621  1.00  0.00     0.078 A 
ATOM     10  N   UNL     1       6.119  46.923  52.597  1.00  0.00    -0.213 NA
ENDROOT
BRANCH   1  11
ATOM     11  N   UNL     1       4.082  46.449  51.439  1.00  0.00    -0.324 N 
ATOM     12  H   UNL     1       3.896  47.107  50.694  1.00  0.00     0.170 HD
BRANCH  11  13
ATOM     13  C   UNL     1       2.991  46.008  52.192  1.00  0.00     0.041 A 
ATOM     14  C   UNL     1       0.742  45.011  53.606  1.00  0.00     0.119 A 
ATOM     15  C   UNL     1       0.855  44.807  52.235  1.00  0.00     0.048 A 
ATOM     16  C   UNL     1       1.755  45.704  54.268  1.00  0.00     0.048 A 
ATOM     17  C   UNL     1       1.970  45.297  51.541  1.00  0.00     0.030 A 
ATOM     18  C   UNL     1       2.867  46.192  53.571  1.00  0.00     0.030 A 
BRANCH  14  19
ATOM     19  O   UNL     1      -0.284  44.590  54.405  1.00  0.00    -0.497 OA
ATOM     20  C   UNL     1      -0.254  45.012  55.763  1.00  0.00     0.278 C 
ENDBRANCH  14  19
ENDBRANCH  11  13
ENDBRANCH   1  11
BRANCH   3  21
ATOM     21  N   UNL     1       8.038  44.830  49.593  1.00  0.00    -0.367 N 
ATOM     22  H   UNL     1       9.027  45.068  49.629  1.00  0.00     0.162 HD
BRANCH  21  23
ATOM     23  C   UNL     1       7.851  43.370  49.575  1.00  0.00     0.146 C 
BRANCH  23  24
ATOM     24  C   UNL     1       6.396  42.902  49.366  1.00  0.00     0.137 C 
ATOM     25  C   UNL     1       5.918  41.767  50.263  1.00  0.00     0.036 C 
ATOM     26  O   UNL     1       6.120  42.509  48.004  1.00  0.00    -0.376 OA
ATOM     27  C   UNL     1       4.809  41.166  49.434  1.00  0.00     0.031 C 
ATOM     28  C   UNL     1       5.374  41.285  48.036  1.00  0.00     0.160 C 
ENDBRANCH  23  24
ENDBRANCH  21  23
ENDBRANCH   3  21
TORSDOF 6
ENDMDL
MODEL 14
REMARK VINA RESULT:    -8.514      3.569      7.252
REMARK INTER + INTRA:         -12.091
REMARK INTER:                 -11.323
REMARK INTRA:                  -0.768
REMARK UNBOUND:                -0.591
REMARK SMILES COc1ccc(Nc2nc(NC[C@@H]3CCCO3)c3ccccc3n2)cc1
REMARK SMILES IDX 8 1 9 2 10 3 18 4 19 5 20 6 21 7 22 8 23 9 24 10 7 11 6 13
REMARK SMILES IDX 3 14 4 15 26 16 5 17 25 18 2 19 1 20 11 21 12 23 13 24 14 25
REMARK SMILES IDX 17 26 15 27 16 28
REMARK H PARENT 7 12 11 22
ROOT
ATOM      1  C   UNL     1       5.955  44.941  51.168  1.00  0.00     0.229 A 
ATOM      2  N   UNL     1       6.127  43.657  50.845  1.00  0.00    -0.195 NA
ATOM      3  C   UNL     1       5.055  42.862  50.749  1.00  0.00     0.139 A 
ATOM      4  C   UNL     1       3.759  43.351  50.963  1.00  0.00     0.043 A 
ATOM      5  C   UNL     1       2.571  42.576  50.907  1.00  0.00     0.014 A 
ATOM      6  C   UNL     1       1.325  43.161  51.127  1.00  0.00     0.001 A 
ATOM      7  C   UNL     1       1.253  44.518  51.409  1.00  0.00     0.002 A 
ATOM      8  C   UNL     1       2.425  45.275  51.475  1.00  0.00     0.029 A 
ATOM      9  C   UNL     1       3.678  44.714  51.262  1.00  0.00     0.078 A 
ATOM     10  N   UNL     1       4.756  45.497  51.361  1.00  0.00    -0.213 NA
ENDROOT
BRANCH   1  11
ATOM     11  N   UNL     1       7.140  45.660  51.299  1.00  0.00    -0.324 N 
ATOM     12  H   UNL     1       7.647  45.579  50.428  1.00  0.00     0.170 HD
BRANCH  11  13
ATOM     13  C   UNL     1       7.806  46.252  52.375  1.00  0.00     0.041 A 
ATOM     14  C   UNL     1       9.274  47.495  54.461  1.00  0.00     0.119 A 
ATOM     15  C   UNL     1       9.909  47.127  53.280  1.00  0.00     0.048 A 
ATOM     16  C   UNL     1       7.908  47.248  54.595  1.00  0.00     0.048 A 
ATOM     17  C   UNL     1       9.179  46.517  52.250  1.00  0.00     0.030 A 
ATOM     18  C   UNL     1       7.183  46.638  53.563  1.00  0.00     0.030 A 
BRANCH  14  19
ATOM     19  O   UNL     1       9.858  48.094  55.542  1.00  0.00    -0.497 OA
ATOM     20  C   UNL     1      11.044  47.492  56.045  1.00  0.00     0.278 C 
ENDBRANCH  14  19
ENDBRANCH  11  13
ENDBRANCH   1  11
BRANCH   3  21
ATOM     21  N   UNL     1       5.240  41.498  50.436  1.00  0.00    -0.367 N 
ATOM     22  H   UNL     1       4.336  41.041  50.542  1.00  0.00     0.162 HD
BRANCH  21  23
ATOM     23  C   UNL     1       5.833  41.187  49.125  1.00  0.00     0.146 C 
BRANCH  23  24
ATOM     24  C   UNL     1       4.944  41.528  47.911  1.00  0.00     0.137 C 
ATOM     25  C   UNL     1       3.964  40.448  47.469  1.00  0.00     0.036 C 
ATOM     26  O   UNL     1       5.705  41.910  46.743  1.00  0.00    -0.376 OA
ATOM     27  C   UNL     1       3.756  40.797  46.016  1.00  0.00     0.031 C 
ATOM     28  C   UNL     1       5.143  41.241  45.607  1.00  0.00     0.160 C 
ENDBRANCH  23  24
ENDBRANCH  21  23
ENDBRANCH   3  21
TORSDOF 6
ENDMDL
MODEL 15
REMARK VINA RESULT:    -8.460      1.392      1.688
REMARK INTER + INTRA:         -12.018
REMARK INTER:                 -11.056
REMARK INTRA:                  -0.962
REMARK UNBOUND:                -0.591
REMARK SMILES COc1ccc(Nc2nc(NC[C@@H]3CCCO3)c3ccccc3n2)cc1
REMARK SMILES IDX 8 1 9 2 10 3 18 4 19 5 20 6 21 7 22 8 23 9 24 10 7 11 6 13
REMARK SMILES IDX 3 14 4 15 26 16 5 17 25 18 2 19 1 20 11 21 12 23 13 24 14 25
REMARK SMILES IDX 17 26 15 27 16 28
REMARK H PARENT 7 12 11 22
ROOT
ATOM      1  C   UNL     1       2.551  43.319  52.613  1.00  0.00     0.229 A 
ATOM      2  N   UNL     1       2.815  44.607  52.376  1.00  0.00    -0.195 NA
ATOM      3  C   UNL     1       3.865  44.923  51.609  1.00  0.00     0.139 A 
ATOM      4  C   UNL     1       4.680  43.936  51.038  1.00  0.00     0.043 A 
ATOM      5  C   UNL     1       5.824  44.182  50.235  1.00  0.00     0.014 A 
ATOM      6  C   UNL     1       6.565  43.127  49.705  1.00  0.00     0.001 A 
ATOM      7  C   UNL     1       6.176  41.822  49.973  1.00  0.00     0.002 A 
ATOM      8  C   UNL     1       5.056  41.584  50.774  1.00  0.00     0.029 A 
ATOM      9  C   UNL     1       4.303  42.619  51.316  1.00  0.00     0.078 A 
ATOM     10  N   UNL     1       3.257  42.314  52.088  1.00  0.00    -0.213 NA
ENDROOT
BRANCH   1  11
ATOM     11  N   UNL     1       1.476  43.106  53.472  1.00  0.00    -0.324 N 
ATOM     12  H   UNL     1       0.981  42.286  53.147  1.00  0.00     0.170 HD
BRANCH  11  13
ATOM     13  C   UNL     1       0.877  43.856  54.487  1.00  0.00     0.041 A 
ATOM     14  C   UNL     1      -0.469  45.293  56.530  1.00  0.00     0.119 A 
ATOM     15  C   UNL     1      -1.193  44.567  55.590  1.00  0.00     0.048 A 
ATOM     16  C   UNL     1       0.923  45.292  56.453  1.00  0.00     0.048 A 
ATOM     17  C   UNL     1      -0.524  43.855  54.584  1.00  0.00     0.030 A 
ATOM     18  C   UNL     1       1.587  44.580  55.447  1.00  0.00     0.030 A 
BRANCH  14  19
ATOM     19  O   UNL     1      -0.988  46.028  57.559  1.00  0.00    -0.497 OA
ATOM     20  C   UNL     1      -2.400  46.198  57.576  1.00  0.00     0.278 C 
ENDBRANCH  14  19
ENDBRANCH  11  13
ENDBRANCH   1  11
BRANCH   3  21
ATOM     21  N   UNL     1       4.161  46.285  51.382  1.00  0.00    -0.367 N 
ATOM     22  H   UNL     1       3.673  46.561  50.533  1.00  0.00     0.162 HD
BRANCH  21  23
ATOM     23  C   UNL     1       3.874  47.223  52.480  1.00  0.00     0.146 C 
BRANCH  23  24
ATOM     24  C   UNL     1       4.954  47.291  53.578  1.00  0.00     0.137 C 
ATOM     25  C   UNL     1       6.390  47.048  53.127  1.00  0.00     0.036 C 
ATOM     26  O   UNL     1       4.700  46.390  54.678  1.00  0.00    -0.376 OA
ATOM     27  C   UNL     1       7.036  46.567  54.403  1.00  0.00     0.031 C 
ATOM     28  C   UNL     1       5.930  45.734  55.011  1.00  0.00     0.160 C 
ENDBRANCH  23  24
ENDBRANCH  21  23
ENDBRANCH   3  21
TORSDOF 6
ENDMDL
MODEL 16
REMARK VINA RESULT:    -8.441      2.375      3.944
REMARK INTER + INTRA:         -11.992
REMARK INTER:                 -10.786
REMARK INTRA:                  -1.206
REMARK UNBOUND:                -0.591
REMARK SMILES COc1ccc(Nc2nc(NC[C@@H]3CCCO3)c3ccccc3n2)cc1
REMARK SMILES IDX 8 1 9 2 10 3 18 4 19 5 20 6 21 7 22 8 23 9 24 10 7 11 6 13
REMARK SMILES IDX 3 14 4 15 26 16 5 17 25 18 2 19 1 20 11 21 12 23 13 24 14 25
REMARK SMILES IDX 17 26 15 27 16 28
REMARK H PARENT 7 12 11 22
ROOT
ATOM      1  C   UNL     1       3.872  43.029  51.239  1.00  0.00     0.229 A 
ATOM      2  N   UNL     1       3.850  44.297  51.659  1.00  0.00    -0.195 NA
ATOM      3  C   UNL     1       4.902  45.084  51.402  1.00  0.00     0.139 A 
ATOM      4  C   UNL     1       6.014  44.612  50.692  1.00  0.00     0.043 A 
ATOM      5  C   UNL     1       7.180  45.367  50.399  1.00  0.00     0.014 A 
ATOM      6  C   UNL     1       8.231  44.806  49.676  1.00  0.00     0.001 A 
ATOM      7  C   UNL     1       8.132  43.491  49.244  1.00  0.00     0.002 A 
ATOM      8  C   UNL     1       6.988  42.747  49.545  1.00  0.00     0.029 A 
ATOM      9  C   UNL     1       5.929  43.283  50.267  1.00  0.00     0.078 A 
ATOM     10  N   UNL     1       4.877  42.505  50.533  1.00  0.00    -0.213 NA
ENDROOT
BRANCH   1  11
ATOM     11  N   UNL     1       2.755  42.286  51.613  1.00  0.00    -0.324 N 
ATOM     12  H   UNL     1       2.905  41.333  51.310  1.00  0.00     0.170 HD
BRANCH  11  13
ATOM     13  C   UNL     1       1.487  42.612  52.101  1.00  0.00     0.041 A 
ATOM     14  C   UNL     1      -1.139  43.276  52.945  1.00  0.00     0.119 A 
ATOM     15  C   UNL     1      -0.742  43.517  51.633  1.00  0.00     0.048 A 
ATOM     16  C   UNL     1      -0.228  42.698  53.827  1.00  0.00     0.048 A 
ATOM     17  C   UNL     1       0.556  43.183  51.220  1.00  0.00     0.030 A 
ATOM     18  C   UNL     1       1.067  42.366  53.410  1.00  0.00     0.030 A 
BRANCH  14  19
ATOM     19  O   UNL     1      -2.366  43.550  53.481  1.00  0.00    -0.497 OA
ATOM     20  C   UNL     1      -2.860  44.872  53.310  1.00  0.00     0.278 C 
ENDBRANCH  14  19
ENDBRANCH  11  13
ENDBRANCH   1  11
BRANCH   3  21
ATOM     21  N   UNL     1       4.891  46.416  51.871  1.00  0.00    -0.367 N 
ATOM     22  H   UNL     1       3.991  46.816  51.616  1.00  0.00     0.162 HD
BRANCH  21  23
ATOM     23  C   UNL     1       5.170  46.623  53.302  1.00  0.00     0.146 C 
BRANCH  23  24
ATOM     24  C   UNL     1       3.928  46.610  54.216  1.00  0.00     0.137 C 
ATOM     25  C   UNL     1       3.736  45.365  55.073  1.00  0.00     0.036 C 
ATOM     26  O   UNL     1       2.694  46.821  53.495  1.00  0.00    -0.376 OA
ATOM     27  C   UNL     1       2.246  45.382  55.310  1.00  0.00     0.031 C 
ATOM     28  C   UNL     1       1.730  45.875  53.977  1.00  0.00     0.160 C 
ENDBRANCH  23  24
ENDBRANCH  21  23
ENDBRANCH   3  21
TORSDOF 6
ENDMDL
MODEL 17
REMARK VINA RESULT:    -8.358      3.298      7.134
REMARK INTER + INTRA:         -11.881
REMARK INTER:                 -11.238
REMARK INTRA:                  -0.643
REMARK UNBOUND:                -0.591
REMARK SMILES COc1ccc(Nc2nc(NC[C@@H]3CCCO3)c3ccccc3n2)cc1
REMARK SMILES IDX 8 1 9 2 10 3 18 4 19 5 20 6 21 7 22 8 23 9 24 10 7 11 6 13
REMARK SMILES IDX 3 14 4 15 26 16 5 17 25 18 2 19 1 20 11 21 12 23 13 24 14 25
REMARK SMILES IDX 17 26 15 27 16 28
REMARK H PARENT 7 12 11 22
ROOT
ATOM      1  C   UNL     1       4.773  42.387  50.881  1.00  0.00     0.229 A 
ATOM      2  N   UNL     1       5.517  43.440  51.231  1.00  0.00    -0.195 NA
ATOM      3  C   UNL     1       5.035  44.304  52.132  1.00  0.00     0.139 A 
ATOM      4  C   UNL     1       3.778  44.119  52.726  1.00  0.00     0.043 A 
ATOM      5  C   UNL     1       3.180  44.996  53.668  1.00  0.00     0.014 A 
ATOM      6  C   UNL     1       1.926  44.718  54.208  1.00  0.00     0.001 A 
ATOM      7  C   UNL     1       1.256  43.569  53.811  1.00  0.00     0.002 A 
ATOM      8  C   UNL     1       1.843  42.714  52.873  1.00  0.00     0.029 A 
ATOM      9  C   UNL     1       3.091  42.972  52.319  1.00  0.00     0.078 A 
ATOM     10  N   UNL     1       3.579  42.120  51.415  1.00  0.00    -0.213 NA
ENDROOT
BRANCH   1  11
ATOM     11  N   UNL     1       5.345  41.589  49.893  1.00  0.00    -0.324 N 
ATOM     12  H   UNL     1       6.230  41.250  50.247  1.00  0.00     0.170 HD
BRANCH  11  13
ATOM     13  C   UNL     1       5.058  41.349  48.547  1.00  0.00     0.041 A 
ATOM     14  C   UNL     1       4.328  40.826  45.856  1.00  0.00     0.119 A 
ATOM     15  C   UNL     1       3.568  40.311  46.901  1.00  0.00     0.048 A 
ATOM     16  C   UNL     1       5.444  41.606  46.157  1.00  0.00     0.048 A 
ATOM     17  C   UNL     1       3.930  40.576  48.230  1.00  0.00     0.030 A 
ATOM     18  C   UNL     1       5.801  41.868  47.485  1.00  0.00     0.030 A 
BRANCH  14  19
ATOM     19  O   UNL     1       4.093  40.648  44.521  1.00  0.00    -0.497 OA
ATOM     20  C   UNL     1       5.230  40.449  43.691  1.00  0.00     0.278 C 
ENDBRANCH  14  19
ENDBRANCH  11  13
ENDBRANCH   1  11
BRANCH   3  21
ATOM     21  N   UNL     1       5.809  45.432  52.481  1.00  0.00    -0.367 N 
ATOM     22  H   UNL     1       6.175  45.267  53.416  1.00  0.00     0.162 HD
BRANCH  21  23
ATOM     23  C   UNL     1       6.888  45.815  51.555  1.00  0.00     0.146 C 
BRANCH  23  24
ATOM     24  C   UNL     1       7.896  46.838  52.118  1.00  0.00     0.137 C 
ATOM     25  C   UNL     1       9.321  46.336  52.322  1.00  0.00     0.036 C 
ATOM     26  O   UNL     1       7.471  47.421  53.369  1.00  0.00    -0.376 OA
ATOM     27  C   UNL     1       9.826  47.271  53.393  1.00  0.00     0.031 C 
ATOM     28  C   UNL     1       8.596  47.437  54.258  1.00  0.00     0.160 C 
ENDBRANCH  23  24
ENDBRANCH  21  23
ENDBRANCH   3  21
TORSDOF 6
ENDMDL
MODEL 18
REMARK VINA RESULT:    -8.325      1.645      2.193
REMARK INTER + INTRA:         -11.836
REMARK INTER:                 -11.050
REMARK INTRA:                  -0.786
REMARK UNBOUND:                -0.591
REMARK SMILES COc1ccc(Nc2nc(NC[C@@H]3CCCO3)c3ccccc3n2)cc1
REMARK SMILES IDX 8 1 9 2 10 3 18 4 19 5 20 6 21 7 22 8 23 9 24 10 7 11 6 13
REMARK SMILES IDX 3 14 4 15 26 16 5 17 25 18 2 19 1 20 11 21 12 23 13 24 14 25
REMARK SMILES IDX 17 26 15 27 16 28
REMARK H PARENT 7 12 11 22
ROOT
ATOM      1  C   UNL     1       3.764  44.923  54.372  1.00  0.00     0.229 A 
ATOM      2  N   UNL     1       4.569  45.988  54.399  1.00  0.00    -0.195 NA
ATOM      3  C   UNL     1       5.458  46.154  53.413  1.00  0.00     0.139 A 
ATOM      4  C   UNL     1       5.551  45.246  52.349  1.00  0.00     0.043 A 
ATOM      5  C   UNL     1       6.479  45.331  51.278  1.00  0.00     0.014 A 
ATOM      6  C   UNL     1       6.484  44.379  50.260  1.00  0.00     0.001 A 
ATOM      7  C   UNL     1       5.571  43.335  50.303  1.00  0.00     0.002 A 
ATOM      8  C   UNL     1       4.667  43.248  51.365  1.00  0.00     0.029 A 
ATOM      9  C   UNL     1       4.645  44.183  52.392  1.00  0.00     0.078 A 
ATOM     10  N   UNL     1       3.765  44.024  53.384  1.00  0.00    -0.213 NA
ENDROOT
BRANCH   1  11
ATOM     11  N   UNL     1       2.922  44.817  55.476  1.00  0.00    -0.324 N 
ATOM     12  H   UNL     1       3.455  44.407  56.231  1.00  0.00     0.170 HD
BRANCH  11  13
ATOM     13  C   UNL     1       1.546  44.965  55.670  1.00  0.00     0.041 A 
ATOM     14  C   UNL     1      -1.270  45.148  55.960  1.00  0.00     0.119 A 
ATOM     15  C   UNL     1      -0.719  44.531  54.841  1.00  0.00     0.048 A 
ATOM     16  C   UNL     1      -0.415  45.664  56.932  1.00  0.00     0.048 A 
ATOM     17  C   UNL     1       0.673  44.439  54.704  1.00  0.00     0.030 A 
ATOM     18  C   UNL     1       0.975  45.569  56.791  1.00  0.00     0.030 A 
BRANCH  14  19
ATOM     19  O   UNL     1      -2.602  45.308  56.221  1.00  0.00    -0.497 OA
ATOM     20  C   UNL     1      -2.951  45.739  57.531  1.00  0.00     0.278 C 
ENDBRANCH  14  19
ENDBRANCH  11  13
ENDBRANCH   1  11
BRANCH   3  21
ATOM     21  N   UNL     1       6.329  47.265  53.456  1.00  0.00    -0.367 N 
ATOM     22  H   UNL     1       5.772  48.073  53.725  1.00  0.00     0.162 HD
BRANCH  21  23
ATOM     23  C   UNL     1       7.523  47.145  54.309  1.00  0.00     0.146 C 
BRANCH  23  24
ATOM     24  C   UNL     1       8.868  47.174  53.555  1.00  0.00     0.137 C 
ATOM     25  C   UNL     1       8.811  47.596  52.092  1.00  0.00     0.036 C 
ATOM     26  O   UNL     1       9.570  45.912  53.603  1.00  0.00    -0.376 OA
ATOM     27  C   UNL     1      10.048  46.938  51.533  1.00  0.00     0.031 C 
ATOM     28  C   UNL     1      10.066  45.628  52.288  1.00  0.00     0.160 C 
ENDBRANCH  23  24
ENDBRANCH  21  23
ENDBRANCH   3  21
TORSDOF 6
ENDMDL
MODEL 19
REMARK VINA RESULT:    -8.299      2.436      6.905
REMARK INTER + INTRA:         -11.801
REMARK INTER:                 -10.366
REMARK INTRA:                  -1.434
REMARK UNBOUND:                -0.591
REMARK SMILES COc1ccc(Nc2nc(NC[C@@H]3CCCO3)c3ccccc3n2)cc1
REMARK SMILES IDX 8 1 9 2 10 3 18 4 19 5 20 6 21 7 22 8 23 9 24 10 7 11 6 13
REMARK SMILES IDX 3 14 4 15 26 16 5 17 25 18 2 19 1 20 11 21 12 23 13 24 14 25
REMARK SMILES IDX 17 26 15 27 16 28
REMARK H PARENT 7 12 11 22
ROOT
ATOM      1  C   UNL     1       2.280  45.525  55.539  1.00  0.00     0.229 A 
ATOM      2  N   UNL     1       2.138  44.946  54.344  1.00  0.00    -0.195 NA
ATOM      3  C   UNL     1       0.968  44.375  54.035  1.00  0.00     0.139 A 
ATOM      4  C   UNL     1      -0.112  44.386  54.929  1.00  0.00     0.043 A 
ATOM      5  C   UNL     1      -1.376  43.784  54.694  1.00  0.00     0.014 A 
ATOM      6  C   UNL     1      -2.391  43.860  55.646  1.00  0.00     0.001 A 
ATOM      7  C   UNL     1      -2.154  44.528  56.839  1.00  0.00     0.002 A 
ATOM      8  C   UNL     1      -0.905  45.109  57.072  1.00  0.00     0.029 A 
ATOM      9  C   UNL     1       0.124  45.045  56.139  1.00  0.00     0.078 A 
ATOM     10  N   UNL     1       1.297  45.606  56.439  1.00  0.00    -0.213 NA
ENDROOT
BRANCH   1  11
ATOM     11  N   UNL     1       3.555  46.033  55.778  1.00  0.00    -0.324 N 
ATOM     12  H   UNL     1       3.563  46.412  56.716  1.00  0.00     0.170 HD
BRANCH  11  13
ATOM     13  C   UNL     1       4.670  46.283  54.975  1.00  0.00     0.041 A 
ATOM     14  C   UNL     1       6.974  46.639  53.358  1.00  0.00     0.119 A 
ATOM     15  C   UNL     1       6.875  45.539  54.204  1.00  0.00     0.048 A 
ATOM     16  C   UNL     1       5.921  47.551  53.315  1.00  0.00     0.048 A 
ATOM     17  C   UNL     1       5.732  45.365  54.998  1.00  0.00     0.030 A 
ATOM     18  C   UNL     1       4.782  47.373  54.110  1.00  0.00     0.030 A 
BRANCH  14  19
ATOM     19  O   UNL     1       8.023  46.932  52.532  1.00  0.00    -0.497 OA
ATOM     20  C   UNL     1       9.324  46.868  53.103  1.00  0.00     0.278 C 
ENDBRANCH  14  19
ENDBRANCH  11  13
ENDBRANCH   1  11
BRANCH   3  21
ATOM     21  N   UNL     1       0.827  43.737  52.783  1.00  0.00    -0.367 N 
ATOM     22  H   UNL     1       0.515  44.443  52.120  1.00  0.00     0.162 HD
BRANCH  21  23
ATOM     23  C   UNL     1       2.001  43.014  52.265  1.00  0.00     0.146 C 
BRANCH  23  24
ATOM     24  C   UNL     1       2.852  43.800  51.247  1.00  0.00     0.137 C 
ATOM     25  C   UNL     1       4.297  44.074  51.647  1.00  0.00     0.036 C 
ATOM     26  O   UNL     1       2.268  45.069  50.882  1.00  0.00    -0.376 OA
ATOM     27  C   UNL     1       4.615  45.302  50.830  1.00  0.00     0.031 C 
ATOM     28  C   UNL     1       3.306  46.057  50.892  1.00  0.00     0.160 C 
ENDBRANCH  23  24
ENDBRANCH  21  23
ENDBRANCH   3  21
TORSDOF 6
ENDMDL
MODEL 20
REMARK VINA RESULT:    -8.252      2.812      5.273
REMARK INTER + INTRA:         -11.737
REMARK INTER:                 -10.882
REMARK INTRA:                  -0.855
REMARK UNBOUND:                -0.591
REMARK SMILES COc1ccc(Nc2nc(NC[C@@H]3CCCO3)c3ccccc3n2)cc1
REMARK SMILES IDX 8 1 9 2 10 3 18 4 19 5 20 6 21 7 22 8 23 9 24 10 7 11 6 13
REMARK SMILES IDX 3 14 4 15 26 16 5 17 25 18 2 19 1 20 11 21 12 23 13 24 14 25
REMARK SMILES IDX 17 26 15 27 16 28
REMARK H PARENT 7 12 11 22
ROOT
ATOM      1  C   UNL     1       4.662  44.881  53.270  1.00  0.00     0.229 A 
ATOM      2  N   UNL     1       4.854  44.295  52.085  1.00  0.00    -0.195 NA
ATOM      3  C   UNL     1       5.904  44.664  51.342  1.00  0.00     0.139 A 
ATOM      4  C   UNL     1       6.810  45.637  51.785  1.00  0.00     0.043 A 
ATOM      5  C   UNL     1       7.933  46.106  51.053  1.00  0.00     0.014 A 
ATOM      6  C   UNL     1       8.781  47.073  51.588  1.00  0.00     0.001 A 
ATOM      7  C   UNL     1       8.517  47.584  52.851  1.00  0.00     0.002 A 
ATOM      8  C   UNL     1       7.405  47.129  53.564  1.00  0.00     0.029 A 
ATOM      9  C   UNL     1       6.543  46.168  53.051  1.00  0.00     0.078 A 
ATOM     10  N   UNL     1       5.489  45.796  53.782  1.00  0.00    -0.213 NA
ENDROOT
BRANCH   1  11
ATOM     11  N   UNL     1       3.508  44.465  53.930  1.00  0.00    -0.324 N 
ATOM     12  H   UNL     1       3.782  44.123  54.842  1.00  0.00     0.170 HD
BRANCH  11  13
ATOM     13  C   UNL     1       2.184  44.256  53.539  1.00  0.00     0.041 A 
ATOM     14  C   UNL     1      -0.498  43.687  52.806  1.00  0.00     0.119 A 
ATOM     15  C   UNL     1       0.388  42.651  53.084  1.00  0.00     0.048 A 
ATOM     16  C   UNL     1      -0.045  45.002  52.902  1.00  0.00     0.048 A 
ATOM     17  C   UNL     1       1.711  42.937  53.450  1.00  0.00     0.030 A 
ATOM     18  C   UNL     1       1.277  45.283  53.268  1.00  0.00     0.030 A 
BRANCH  14  19
ATOM     19  O   UNL     1      -1.808  43.555  52.439  1.00  0.00    -0.497 OA
ATOM     20  C   UNL     1      -2.091  42.629  51.397  1.00  0.00     0.278 C 
ENDBRANCH  14  19
ENDBRANCH  11  13
ENDBRANCH   1  11
BRANCH   3  21
ATOM     21  N   UNL     1       6.092  44.065  50.077  1.00  0.00    -0.367 N 
ATOM     22  H   UNL     1       6.536  44.759  49.479  1.00  0.00     0.162 HD
BRANCH  21  23
ATOM     23  C   UNL     1       6.833  42.793  50.043  1.00  0.00     0.146 C 
BRANCH  23  24
ATOM     24  C   UNL     1       5.978  41.551  49.717  1.00  0.00     0.137 C 
ATOM     25  C   UNL     1       5.362  41.505  48.324  1.00  0.00     0.036 C 
ATOM     26  O   UNL     1       4.906  41.339  50.660  1.00  0.00    -0.376 OA
ATOM     27  C   UNL     1       4.175  40.599  48.543  1.00  0.00     0.031 C 
ATOM     28  C   UNL     1       3.719  41.020  49.922  1.00  0.00     0.160 C 
ENDBRANCH  23  24
ENDBRANCH  21  23
ENDBRANCH   3  21
TORSDOF 6
ENDMDL
