MODEL 1
REMARK VINA RESULT:    -8.368      0.000      0.000
REMARK INTER + INTRA:         -12.967
REMARK INTER:                 -11.793
REMARK INTRA:                  -1.174
REMARK UNBOUND:                -1.174
REMARK SMILES C[NH+](C)CCCNc1nc(Nc2ccc(F)cc2)c2nccnc2n1
REMARK SMILES IDX 6 1 5 2 4 3 2 4 1 5 3 6 7 8 8 10 9 11 25 12 10 13 24 14
REMARK SMILES IDX 19 15 23 16 20 17 22 18 21 19 11 20 12 22 13 23 18 24 14 25
REMARK SMILES IDX 17 26 15 27 16 28
REMARK H PARENT 2 7 7 9 11 21
ROOT
ATOM      1  C   UNL     1       3.742  45.813  55.500  1.00  0.00     0.122 C 
ENDROOT
BRANCH   1   2
ATOM      2  C   UNL     1       2.404  45.532  54.812  1.00  0.00     0.083 C 
BRANCH   2   3
ATOM      3  C   UNL     1       2.562  44.436  53.767  1.00  0.00     0.263 C 
BRANCH   3   4
ATOM      4  N   UNL     1       2.506  45.012  52.364  1.00  0.00    -0.340 N 
ATOM      5  C   UNL     1       2.015  46.435  52.311  1.00  0.00     0.332 C 
ATOM      6  C   UNL     1       1.699  44.131  51.443  1.00  0.00     0.332 C 
ATOM      7  H   UNL     1       3.467  45.010  51.991  1.00  0.00     0.347 HD
ENDBRANCH   3   4
ENDBRANCH   2   3
ENDBRANCH   1   2
BRANCH   1   8
ATOM      8  N   UNL     1       4.284  47.049  54.977  1.00  0.00    -0.354 N 
ATOM      9  H   UNL     1       4.406  47.820  55.629  1.00  0.00     0.163 HD
BRANCH   8  10
ATOM     10  C   UNL     1       5.511  46.923  54.335  1.00  0.00     0.226 A 
ATOM     11  N   UNL     1       5.454  46.498  53.078  1.00  0.00    -0.193 NA
ATOM     12  N   UNL     1       6.639  47.227  54.970  1.00  0.00    -0.191 NA
ATOM     13  C   UNL     1       6.617  46.344  52.413  1.00  0.00     0.164 A 
ATOM     14  C   UNL     1       7.782  47.076  54.313  1.00  0.00     0.185 A 
ATOM     15  C   UNL     1       7.854  46.625  52.989  1.00  0.00     0.150 A 
ATOM     16  N   UNL     1       8.906  47.391  54.966  1.00  0.00    -0.233 NA
ATOM     17  N   UNL     1       9.038  46.494  52.315  1.00  0.00    -0.247 NA
ATOM     18  C   UNL     1      10.082  47.248  54.310  1.00  0.00     0.133 A 
ATOM     19  C   UNL     1      10.150  46.808  53.007  1.00  0.00     0.132 A 
BRANCH  13  20
ATOM     20  N   UNL     1       6.626  45.856  51.078  1.00  0.00    -0.338 N 
ATOM     21  H   UNL     1       6.524  46.625  50.418  1.00  0.00     0.168 HD
BRANCH  20  22
ATOM     22  C   UNL     1       6.430  44.575  50.541  1.00  0.00     0.040 A 
ATOM     23  C   UNL     1       7.340  44.101  49.579  1.00  0.00     0.029 A 
ATOM     24  C   UNL     1       5.389  43.724  50.934  1.00  0.00     0.029 A 
ATOM     25  C   UNL     1       7.200  42.830  49.013  1.00  0.00     0.041 A 
ATOM     26  C   UNL     1       5.245  42.451  50.373  1.00  0.00     0.041 A 
ATOM     27  C   UNL     1       6.150  42.017  49.414  1.00  0.00     0.123 A 
ATOM     28  F   UNL     1       6.012  40.800  48.876  1.00  0.00    -0.207 F 
ENDBRANCH  20  22
ENDBRANCH  13  20
ENDBRANCH   8  10
ENDBRANCH   1   8
TORSDOF 7
ENDMDL
MODEL 2
REMARK VINA RESULT:    -8.326      0.841      1.001
REMARK INTER + INTRA:         -12.907
REMARK INTER:                 -12.158
REMARK INTRA:                  -0.749
REMARK UNBOUND:                -1.174
REMARK SMILES C[NH+](C)CCCNc1nc(Nc2ccc(F)cc2)c2nccnc2n1
REMARK SMILES IDX 6 1 5 2 4 3 2 4 1 5 3 6 7 8 8 10 9 11 25 12 10 13 24 14
REMARK SMILES IDX 19 15 23 16 20 17 22 18 21 19 11 20 12 22 13 23 18 24 14 25
REMARK SMILES IDX 17 26 15 27 16 28
REMARK H PARENT 2 7 7 9 11 21
ROOT
ATOM      1  C   UNL     1       3.635  45.856  55.305  1.00  0.00     0.122 C 
ENDROOT
BRANCH   1   2
ATOM      2  C   UNL     1       2.353  45.738  54.477  1.00  0.00     0.083 C 
BRANCH   2   3
ATOM      3  C   UNL     1       1.530  44.542  54.937  1.00  0.00     0.263 C 
BRANCH   3   4
ATOM      4  N   UNL     1       1.627  43.401  53.940  1.00  0.00    -0.340 N 
ATOM      5  C   UNL     1       2.182  43.809  52.602  1.00  0.00     0.332 C 
ATOM      6  C   UNL     1       0.301  42.700  53.781  1.00  0.00     0.332 C 
ATOM      7  H   UNL     1       2.274  42.702  54.335  1.00  0.00     0.347 HD
ENDBRANCH   3   4
ENDBRANCH   2   3
ENDBRANCH   1   2
BRANCH   1   8
ATOM      8  N   UNL     1       4.296  47.099  54.967  1.00  0.00    -0.354 N 
ATOM      9  H   UNL     1       4.476  47.754  55.724  1.00  0.00     0.163 HD
BRANCH   8  10
ATOM     10  C   UNL     1       5.517  46.953  54.318  1.00  0.00     0.226 A 
ATOM     11  N   UNL     1       5.446  46.522  53.064  1.00  0.00    -0.193 NA
ATOM     12  N   UNL     1       6.652  47.246  54.944  1.00  0.00    -0.191 NA
ATOM     13  C   UNL     1       6.602  46.350  52.392  1.00  0.00     0.164 A 
ATOM     14  C   UNL     1       7.789  47.077  54.280  1.00  0.00     0.185 A 
ATOM     15  C   UNL     1       7.847  46.617  52.959  1.00  0.00     0.150 A 
ATOM     16  N   UNL     1       8.922  47.381  54.924  1.00  0.00    -0.233 NA
ATOM     17  N   UNL     1       9.024  46.468  52.278  1.00  0.00    -0.247 NA
ATOM     18  C   UNL     1      10.091  47.220  54.262  1.00  0.00     0.133 A 
ATOM     19  C   UNL     1      10.144  46.771  52.961  1.00  0.00     0.132 A 
BRANCH  13  20
ATOM     20  N   UNL     1       6.597  45.854  51.060  1.00  0.00    -0.338 N 
ATOM     21  H   UNL     1       6.482  46.619  50.397  1.00  0.00     0.168 HD
BRANCH  20  22
ATOM     22  C   UNL     1       6.399  44.569  50.533  1.00  0.00     0.040 A 
ATOM     23  C   UNL     1       7.347  44.060  49.627  1.00  0.00     0.029 A 
ATOM     24  C   UNL     1       5.320  43.747  50.884  1.00  0.00     0.029 A 
ATOM     25  C   UNL     1       7.207  42.783  49.073  1.00  0.00     0.041 A 
ATOM     26  C   UNL     1       5.177  42.469  50.335  1.00  0.00     0.041 A 
ATOM     27  C   UNL     1       6.120  42.001  49.431  1.00  0.00     0.123 A 
ATOM     28  F   UNL     1       5.982  40.778  48.905  1.00  0.00    -0.207 F 
ENDBRANCH  20  22
ENDBRANCH  13  20
ENDBRANCH   8  10
ENDBRANCH   1   8
TORSDOF 7
ENDMDL
MODEL 3
REMARK VINA RESULT:    -8.230      2.612      5.427
REMARK INTER + INTRA:         -12.772
REMARK INTER:                 -11.791
REMARK INTRA:                  -0.981
REMARK UNBOUND:                -1.174
REMARK SMILES C[NH+](C)CCCNc1nc(Nc2ccc(F)cc2)c2nccnc2n1
REMARK SMILES IDX 6 1 5 2 4 3 2 4 1 5 3 6 7 8 8 10 9 11 25 12 10 13 24 14
REMARK SMILES IDX 19 15 23 16 20 17 22 18 21 19 11 20 12 22 13 23 18 24 14 25
REMARK SMILES IDX 17 26 15 27 16 28
REMARK H PARENT 2 7 7 9 11 21
ROOT
ATOM      1  C   UNL     1       1.815  44.490  53.191  1.00  0.00     0.122 C 
ENDROOT
BRANCH   1   2
ATOM      2  C   UNL     1       1.852  45.641  54.199  1.00  0.00     0.083 C 
BRANCH   2   3
ATOM      3  C   UNL     1       2.609  45.227  55.454  1.00  0.00     0.263 C 
BRANCH   3   4
ATOM      4  N   UNL     1       3.849  46.081  55.646  1.00  0.00    -0.340 N 
ATOM      5  C   UNL     1       4.010  47.160  54.608  1.00  0.00     0.332 C 
ATOM      6  C   UNL     1       5.091  45.230  55.732  1.00  0.00     0.332 C 
ATOM      7  H   UNL     1       3.761  46.551  56.558  1.00  0.00     0.347 HD
ENDBRANCH   3   4
ENDBRANCH   2   3
ENDBRANCH   1   2
BRANCH   1   8
ATOM      8  N   UNL     1       2.923  43.599  53.460  1.00  0.00    -0.354 N 
ATOM      9  H   UNL     1       2.702  42.633  53.688  1.00  0.00     0.163 HD
BRANCH   8  10
ATOM     10  C   UNL     1       3.870  43.522  52.445  1.00  0.00     0.226 A 
ATOM     11  N   UNL     1       4.699  44.556  52.362  1.00  0.00    -0.193 NA
ATOM     12  N   UNL     1       3.913  42.464  51.642  1.00  0.00    -0.191 NA
ATOM     13  C   UNL     1       5.629  44.539  51.385  1.00  0.00     0.164 A 
ATOM     14  C   UNL     1       4.830  42.450  50.682  1.00  0.00     0.185 A 
ATOM     15  C   UNL     1       5.752  43.484  50.484  1.00  0.00     0.150 A 
ATOM     16  N   UNL     1       4.862  41.375  49.886  1.00  0.00    -0.233 NA
ATOM     17  N   UNL     1       6.707  43.447  49.504  1.00  0.00    -0.247 NA
ATOM     18  C   UNL     1       5.793  41.339  48.904  1.00  0.00     0.133 A 
ATOM     19  C   UNL     1       6.702  42.356  48.715  1.00  0.00     0.132 A 
BRANCH  13  20
ATOM     20  N   UNL     1       6.521  45.634  51.218  1.00  0.00    -0.338 N 
ATOM     21  H   UNL     1       6.494  45.970  50.256  1.00  0.00     0.168 HD
BRANCH  20  22
ATOM     22  C   UNL     1       7.601  46.096  51.985  1.00  0.00     0.040 A 
ATOM     23  C   UNL     1       7.340  46.647  53.252  1.00  0.00     0.029 A 
ATOM     24  C   UNL     1       8.936  46.012  51.569  1.00  0.00     0.029 A 
ATOM     25  C   UNL     1       8.376  47.118  54.065  1.00  0.00     0.041 A 
ATOM     26  C   UNL     1       9.976  46.479  52.378  1.00  0.00     0.041 A 
ATOM     27  C   UNL     1       9.685  47.032  53.618  1.00  0.00     0.123 A 
ATOM     28  F   UNL     1      10.681  47.481  54.392  1.00  0.00    -0.207 F 
ENDBRANCH  20  22
ENDBRANCH  13  20
ENDBRANCH   8  10
ENDBRANCH   1   8
TORSDOF 7
ENDMDL
MODEL 4
REMARK VINA RESULT:    -8.144      2.857      5.541
REMARK INTER + INTRA:         -12.651
REMARK INTER:                 -11.969
REMARK INTRA:                  -0.682
REMARK UNBOUND:                -1.174
REMARK SMILES C[NH+](C)CCCNc1nc(Nc2ccc(F)cc2)c2nccnc2n1
REMARK SMILES IDX 6 1 5 2 4 3 2 4 1 5 3 6 7 8 8 10 9 11 25 12 10 13 24 14
REMARK SMILES IDX 19 15 23 16 20 17 22 18 21 19 11 20 12 22 13 23 18 24 14 25
REMARK SMILES IDX 17 26 15 27 16 28
REMARK H PARENT 2 7 7 9 11 21
ROOT
ATOM      1  C   UNL     1       1.574  44.839  53.349  1.00  0.00     0.122 C 
ENDROOT
BRANCH   1   2
ATOM      2  C   UNL     1       0.723  45.004  54.610  1.00  0.00     0.083 C 
BRANCH   2   3
ATOM      3  C   UNL     1       1.609  45.258  55.822  1.00  0.00     0.263 C 
BRANCH   3   4
ATOM      4  N   UNL     1       0.802  45.197  57.107  1.00  0.00    -0.340 N 
ATOM      5  C   UNL     1      -0.664  44.934  56.891  1.00  0.00     0.332 C 
ATOM      6  C   UNL     1       1.009  46.436  57.941  1.00  0.00     0.332 C 
ATOM      7  H   UNL     1       1.171  44.413  57.665  1.00  0.00     0.347 HD
ENDBRANCH   3   4
ENDBRANCH   2   3
ENDBRANCH   1   2
BRANCH   1   8
ATOM      8  N   UNL     1       2.558  43.804  53.583  1.00  0.00    -0.354 N 
ATOM      9  H   UNL     1       2.221  42.848  53.671  1.00  0.00     0.163 HD
BRANCH   8  10
ATOM     10  C   UNL     1       3.576  43.741  52.638  1.00  0.00     0.226 A 
ATOM     11  N   UNL     1       4.362  44.810  52.578  1.00  0.00    -0.193 NA
ATOM     12  N   UNL     1       3.722  42.663  51.875  1.00  0.00    -0.191 NA
ATOM     13  C   UNL     1       5.357  44.808  51.668  1.00  0.00     0.164 A 
ATOM     14  C   UNL     1       4.703  42.663  50.981  1.00  0.00     0.185 A 
ATOM     15  C   UNL     1       5.590  43.733  50.813  1.00  0.00     0.150 A 
ATOM     16  N   UNL     1       4.839  41.568  50.225  1.00  0.00    -0.233 NA
ATOM     17  N   UNL     1       6.612  43.712  49.902  1.00  0.00    -0.247 NA
ATOM     18  C   UNL     1       5.837  41.547  49.311  1.00  0.00     0.133 A 
ATOM     19  C   UNL     1       6.710  42.599  49.151  1.00  0.00     0.132 A 
BRANCH  13  20
ATOM     20  N   UNL     1       6.209  45.938  51.527  1.00  0.00    -0.338 N 
ATOM     21  H   UNL     1       6.075  46.371  50.614  1.00  0.00     0.168 HD
BRANCH  20  22
ATOM     22  C   UNL     1       7.356  46.347  52.222  1.00  0.00     0.040 A 
ATOM     23  C   UNL     1       7.222  46.762  53.559  1.00  0.00     0.029 A 
ATOM     24  C   UNL     1       8.642  46.336  51.666  1.00  0.00     0.029 A 
ATOM     25  C   UNL     1       8.330  47.175  54.305  1.00  0.00     0.041 A 
ATOM     26  C   UNL     1       9.754  46.745  52.408  1.00  0.00     0.041 A 
ATOM     27  C   UNL     1       9.587  47.165  53.720  1.00  0.00     0.123 A 
ATOM     28  F   UNL     1      10.651  47.558  54.430  1.00  0.00    -0.207 F 
ENDBRANCH  20  22
ENDBRANCH  13  20
ENDBRANCH   8  10
ENDBRANCH   1   8
TORSDOF 7
ENDMDL
MODEL 5
REMARK VINA RESULT:    -8.119      2.851      5.449
REMARK INTER + INTRA:         -12.616
REMARK INTER:                 -11.830
REMARK INTRA:                  -0.786
REMARK UNBOUND:                -1.174
REMARK SMILES C[NH+](C)CCCNc1nc(Nc2ccc(F)cc2)c2nccnc2n1
REMARK SMILES IDX 6 1 5 2 4 3 2 4 1 5 3 6 7 8 8 10 9 11 25 12 10 13 24 14
REMARK SMILES IDX 19 15 23 16 20 17 22 18 21 19 11 20 12 22 13 23 18 24 14 25
REMARK SMILES IDX 17 26 15 27 16 28
REMARK H PARENT 2 7 7 9 11 21
ROOT
ATOM      1  C   UNL     1       1.410  42.796  53.343  1.00  0.00     0.122 C 
ENDROOT
BRANCH   1   2
ATOM      2  C   UNL     1       0.125  43.475  53.825  1.00  0.00     0.083 C 
BRANCH   2   3
ATOM      3  C   UNL     1       0.348  44.971  54.002  1.00  0.00     0.263 C 
BRANCH   3   4
ATOM      4  N   UNL     1      -0.120  45.431  55.371  1.00  0.00    -0.340 N 
ATOM      5  C   UNL     1       0.956  45.399  56.423  1.00  0.00     0.332 C 
ATOM      6  C   UNL     1      -1.335  44.658  55.821  1.00  0.00     0.332 C 
ATOM      7  H   UNL     1      -0.424  46.411  55.279  1.00  0.00     0.347 HD
ENDBRANCH   3   4
ENDBRANCH   2   3
ENDBRANCH   1   2
BRANCH   1   8
ATOM      8  N   UNL     1       2.530  43.673  53.612  1.00  0.00    -0.354 N 
ATOM      9  H   UNL     1       3.005  43.565  54.504  1.00  0.00     0.163 HD
BRANCH   8  10
ATOM     10  C   UNL     1       3.541  43.636  52.658  1.00  0.00     0.226 A 
ATOM     11  N   UNL     1       4.308  44.719  52.602  1.00  0.00    -0.193 NA
ATOM     12  N   UNL     1       3.700  42.567  51.885  1.00  0.00    -0.191 NA
ATOM     13  C   UNL     1       5.297  44.742  51.685  1.00  0.00     0.164 A 
ATOM     14  C   UNL     1       4.674  42.592  50.984  1.00  0.00     0.185 A 
ATOM     15  C   UNL     1       5.542  43.678  50.819  1.00  0.00     0.150 A 
ATOM     16  N   UNL     1       4.823  41.505  50.217  1.00  0.00    -0.233 NA
ATOM     17  N   UNL     1       6.557  43.683  49.901  1.00  0.00    -0.247 NA
ATOM     18  C   UNL     1       5.815  41.510  49.296  1.00  0.00     0.133 A 
ATOM     19  C   UNL     1       6.669  42.578  49.139  1.00  0.00     0.132 A 
BRANCH  13  20
ATOM     20  N   UNL     1       6.128  45.887  51.547  1.00  0.00    -0.338 N 
ATOM     21  H   UNL     1       5.948  46.351  50.658  1.00  0.00     0.168 HD
BRANCH  20  22
ATOM     22  C   UNL     1       7.301  46.286  52.205  1.00  0.00     0.040 A 
ATOM     23  C   UNL     1       7.220  46.667  53.556  1.00  0.00     0.029 A 
ATOM     24  C   UNL     1       8.563  46.296  51.595  1.00  0.00     0.029 A 
ATOM     25  C   UNL     1       8.357  47.067  54.266  1.00  0.00     0.041 A 
ATOM     26  C   UNL     1       9.703  46.693  52.301  1.00  0.00     0.041 A 
ATOM     27  C   UNL     1       9.588  47.079  53.629  1.00  0.00     0.123 A 
ATOM     28  F   UNL     1      10.679  47.461  54.304  1.00  0.00    -0.207 F 
ENDBRANCH  20  22
ENDBRANCH  13  20
ENDBRANCH   8  10
ENDBRANCH   1   8
TORSDOF 7
ENDMDL
MODEL 6
REMARK VINA RESULT:    -8.009      2.740      5.325
REMARK INTER + INTRA:         -12.461
REMARK INTER:                 -11.521
REMARK INTRA:                  -0.939
REMARK UNBOUND:                -1.174
REMARK SMILES C[NH+](C)CCCNc1nc(Nc2ccc(F)cc2)c2nccnc2n1
REMARK SMILES IDX 6 1 5 2 4 3 2 4 1 5 3 6 7 8 8 10 9 11 25 12 10 13 24 14
REMARK SMILES IDX 19 15 23 16 20 17 22 18 21 19 11 20 12 22 13 23 18 24 14 25
REMARK SMILES IDX 17 26 15 27 16 28
REMARK H PARENT 2 7 7 9 11 21
ROOT
ATOM      1  C   UNL     1       2.085  45.543  53.743  1.00  0.00     0.122 C 
ENDROOT
BRANCH   1   2
ATOM      2  C   UNL     1       0.942  45.486  52.726  1.00  0.00     0.083 C 
BRANCH   2   3
ATOM      3  C   UNL     1      -0.228  44.687  53.284  1.00  0.00     0.263 C 
BRANCH   3   4
ATOM      4  N   UNL     1      -0.476  43.438  52.457  1.00  0.00    -0.340 N 
ATOM      5  C   UNL     1      -0.091  42.161  53.155  1.00  0.00     0.332 C 
ATOM      6  C   UNL     1       0.192  43.535  51.108  1.00  0.00     0.332 C 
ATOM      7  H   UNL     1      -1.488  43.388  52.271  1.00  0.00     0.347 HD
ENDBRANCH   3   4
ENDBRANCH   2   3
ENDBRANCH   1   2
BRANCH   1   8
ATOM      8  N   UNL     1       2.726  44.247  53.797  1.00  0.00    -0.354 N 
ATOM      9  H   UNL     1       2.125  43.427  53.785  1.00  0.00     0.163 HD
BRANCH   8  10
ATOM     10  C   UNL     1       3.668  44.019  52.800  1.00  0.00     0.226 A 
ATOM     11  N   UNL     1       4.581  44.972  52.652  1.00  0.00    -0.193 NA
ATOM     12  N   UNL     1       3.626  42.906  52.075  1.00  0.00    -0.191 NA
ATOM     13  C   UNL     1       5.510  44.808  51.689  1.00  0.00     0.164 A 
ATOM     14  C   UNL     1       4.542  42.746  51.129  1.00  0.00     0.185 A 
ATOM     15  C   UNL     1       5.549  43.683  50.867  1.00  0.00     0.150 A 
ATOM     16  N   UNL     1       4.488  41.618  50.411  1.00  0.00    -0.233 NA
ATOM     17  N   UNL     1       6.502  43.497  49.902  1.00  0.00    -0.247 NA
ATOM     18  C   UNL     1       5.418  41.435  49.445  1.00  0.00     0.133 A 
ATOM     19  C   UNL     1       6.409  42.356  49.193  1.00  0.00     0.132 A 
BRANCH  13  20
ATOM     20  N   UNL     1       6.492  45.810  51.454  1.00  0.00    -0.338 N 
ATOM     21  H   UNL     1       6.516  46.057  50.466  1.00  0.00     0.168 HD
BRANCH  20  22
ATOM     22  C   UNL     1       7.586  46.254  52.211  1.00  0.00     0.040 A 
ATOM     23  C   UNL     1       7.358  46.713  53.520  1.00  0.00     0.029 A 
ATOM     24  C   UNL     1       8.907  46.237  51.743  1.00  0.00     0.029 A 
ATOM     25  C   UNL     1       8.410  47.162  54.325  1.00  0.00     0.041 A 
ATOM     26  C   UNL     1       9.963  46.683  52.544  1.00  0.00     0.041 A 
ATOM     27  C   UNL     1       9.703  47.145  53.826  1.00  0.00     0.123 A 
ATOM     28  F   UNL     1      10.714  47.573  54.592  1.00  0.00    -0.207 F 
ENDBRANCH  20  22
ENDBRANCH  13  20
ENDBRANCH   8  10
ENDBRANCH   1   8
TORSDOF 7
ENDMDL
MODEL 7
REMARK VINA RESULT:    -7.897      3.185      6.406
REMARK INTER + INTRA:         -12.303
REMARK INTER:                 -11.717
REMARK INTRA:                  -0.586
REMARK UNBOUND:                -1.174
REMARK SMILES C[NH+](C)CCCNc1nc(Nc2ccc(F)cc2)c2nccnc2n1
REMARK SMILES IDX 6 1 5 2 4 3 2 4 1 5 3 6 7 8 8 10 9 11 25 12 10 13 24 14
REMARK SMILES IDX 19 15 23 16 20 17 22 18 21 19 11 20 12 22 13 23 18 24 14 25
REMARK SMILES IDX 17 26 15 27 16 28
REMARK H PARENT 2 7 7 9 11 21
ROOT
ATOM      1  C   UNL     1       6.178  41.477  49.686  1.00  0.00     0.122 C 
ENDROOT
BRANCH   1   2
ATOM      2  C   UNL     1       5.803  41.564  48.205  1.00  0.00     0.083 C 
BRANCH   2   3
ATOM      3  C   UNL     1       4.510  40.807  47.937  1.00  0.00     0.263 C 
BRANCH   3   4
ATOM      4  N   UNL     1       4.341  40.529  46.454  1.00  0.00    -0.340 N 
ATOM      5  C   UNL     1       5.051  41.516  45.566  1.00  0.00     0.332 C 
ATOM      6  C   UNL     1       2.883  40.424  46.080  1.00  0.00     0.332 C 
ATOM      7  H   UNL     1       4.751  39.603  46.265  1.00  0.00     0.347 HD
ENDBRANCH   3   4
ENDBRANCH   2   3
ENDBRANCH   1   2
BRANCH   1   8
ATOM      8  N   UNL     1       4.980  41.641  50.481  1.00  0.00    -0.354 N 
ATOM      9  H   UNL     1       4.898  41.080  51.325  1.00  0.00     0.163 HD
BRANCH   8  10
ATOM     10  C   UNL     1       4.724  42.945  50.888  1.00  0.00     0.226 A 
ATOM     11  N   UNL     1       5.747  43.785  50.783  1.00  0.00    -0.193 NA
ATOM     12  N   UNL     1       3.521  43.288  51.337  1.00  0.00    -0.191 NA
ATOM     13  C   UNL     1       5.558  45.060  51.178  1.00  0.00     0.164 A 
ATOM     14  C   UNL     1       3.336  44.544  51.724  1.00  0.00     0.185 A 
ATOM     15  C   UNL     1       4.339  45.520  51.672  1.00  0.00     0.150 A 
ATOM     16  N   UNL     1       2.118  44.873  52.168  1.00  0.00    -0.233 NA
ATOM     17  N   UNL     1       4.131  46.818  52.054  1.00  0.00    -0.247 NA
ATOM     18  C   UNL     1       1.909  46.151  52.562  1.00  0.00     0.133 A 
ATOM     19  C   UNL     1       2.896  47.108  52.507  1.00  0.00     0.132 A 
BRANCH  13  20
ATOM     20  N   UNL     1       6.625  45.998  51.127  1.00  0.00    -0.338 N 
ATOM     21  H   UNL     1       6.809  46.275  50.163  1.00  0.00     0.168 HD
BRANCH  20  22
ATOM     22  C   UNL     1       7.625  46.341  52.050  1.00  0.00     0.040 A 
ATOM     23  C   UNL     1       8.961  46.370  51.615  1.00  0.00     0.029 A 
ATOM     24  C   UNL     1       7.361  46.688  53.381  1.00  0.00     0.029 A 
ATOM     25  C   UNL     1      10.001  46.711  52.487  1.00  0.00     0.041 A 
ATOM     26  C   UNL     1       8.395  47.031  54.257  1.00  0.00     0.041 A 
ATOM     27  C   UNL     1       9.707  47.035  53.802  1.00  0.00     0.123 A 
ATOM     28  F   UNL     1      10.697  47.363  54.641  1.00  0.00    -0.207 F 
ENDBRANCH  20  22
ENDBRANCH  13  20
ENDBRANCH   8  10
ENDBRANCH   1   8
TORSDOF 7
ENDMDL
MODEL 8
REMARK VINA RESULT:    -7.839      3.637      7.107
REMARK INTER + INTRA:         -12.221
REMARK INTER:                 -11.556
REMARK INTRA:                  -0.665
REMARK UNBOUND:                -1.174
REMARK SMILES C[NH+](C)CCCNc1nc(Nc2ccc(F)cc2)c2nccnc2n1
REMARK SMILES IDX 6 1 5 2 4 3 2 4 1 5 3 6 7 8 8 10 9 11 25 12 10 13 24 14
REMARK SMILES IDX 19 15 23 16 20 17 22 18 21 19 11 20 12 22 13 23 18 24 14 25
REMARK SMILES IDX 17 26 15 27 16 28
REMARK H PARENT 2 7 7 9 11 21
ROOT
ATOM      1  C   UNL     1       5.384  41.208  47.973  1.00  0.00     0.122 C 
ENDROOT
BRANCH   1   2
ATOM      2  C   UNL     1       5.763  41.921  46.673  1.00  0.00     0.083 C 
BRANCH   2   3
ATOM      3  C   UNL     1       4.733  41.635  45.588  1.00  0.00     0.263 C 
BRANCH   3   4
ATOM      4  N   UNL     1       5.004  40.299  44.920  1.00  0.00    -0.340 N 
ATOM      5  C   UNL     1       5.688  40.416  43.584  1.00  0.00     0.332 C 
ATOM      6  C   UNL     1       3.744  39.478  44.808  1.00  0.00     0.332 C 
ATOM      7  H   UNL     1       5.636  39.769  45.538  1.00  0.00     0.347 HD
ENDBRANCH   3   4
ENDBRANCH   2   3
ENDBRANCH   1   2
BRANCH   1   8
ATOM      8  N   UNL     1       6.279  41.646  49.023  1.00  0.00    -0.354 N 
ATOM      9  H   UNL     1       7.152  42.085  48.741  1.00  0.00     0.163 HD
BRANCH   8  10
ATOM     10  C   UNL     1       5.715  42.523  49.942  1.00  0.00     0.226 A 
ATOM     11  N   UNL     1       6.329  43.695  50.060  1.00  0.00    -0.193 NA
ATOM     12  N   UNL     1       4.629  42.177  50.627  1.00  0.00    -0.191 NA
ATOM     13  C   UNL     1       5.831  44.579  50.949  1.00  0.00     0.164 A 
ATOM     14  C   UNL     1       4.141  43.049  51.500  1.00  0.00     0.185 A 
ATOM     15  C   UNL     1       4.705  44.311  51.724  1.00  0.00     0.150 A 
ATOM     16  N   UNL     1       3.046  42.685  52.177  1.00  0.00    -0.233 NA
ATOM     17  N   UNL     1       4.178  45.210  52.611  1.00  0.00    -0.247 NA
ATOM     18  C   UNL     1       2.529  43.564  53.068  1.00  0.00     0.133 A 
ATOM     19  C   UNL     1       3.084  44.805  53.283  1.00  0.00     0.132 A 
BRANCH  13  20
ATOM     20  N   UNL     1       6.466  45.835  51.151  1.00  0.00    -0.338 N 
ATOM     21  H   UNL     1       6.216  46.482  50.404  1.00  0.00     0.168 HD
BRANCH  20  22
ATOM     22  C   UNL     1       7.556  46.224  51.943  1.00  0.00     0.040 A 
ATOM     23  C   UNL     1       7.303  46.772  53.213  1.00  0.00     0.029 A 
ATOM     24  C   UNL     1       8.891  46.069  51.550  1.00  0.00     0.029 A 
ATOM     25  C   UNL     1       8.349  47.173  54.051  1.00  0.00     0.041 A 
ATOM     26  C   UNL     1       9.941  46.465  52.384  1.00  0.00     0.041 A 
ATOM     27  C   UNL     1       9.659  47.018  53.626  1.00  0.00     0.123 A 
ATOM     28  F   UNL     1      10.664  47.399  54.424  1.00  0.00    -0.207 F 
ENDBRANCH  20  22
ENDBRANCH  13  20
ENDBRANCH   8  10
ENDBRANCH   1   8
TORSDOF 7
ENDMDL
MODEL 9
REMARK VINA RESULT:    -7.685      3.163      6.520
REMARK INTER + INTRA:         -12.004
REMARK INTER:                 -11.291
REMARK INTRA:                  -0.713
REMARK UNBOUND:                -1.174
REMARK SMILES C[NH+](C)CCCNc1nc(Nc2ccc(F)cc2)c2nccnc2n1
REMARK SMILES IDX 6 1 5 2 4 3 2 4 1 5 3 6 7 8 8 10 9 11 25 12 10 13 24 14
REMARK SMILES IDX 19 15 23 16 20 17 22 18 21 19 11 20 12 22 13 23 18 24 14 25
REMARK SMILES IDX 17 26 15 27 16 28
REMARK H PARENT 2 7 7 9 11 21
ROOT
ATOM      1  C   UNL     1       6.072  41.608  49.779  1.00  0.00     0.122 C 
ENDROOT
BRANCH   1   2
ATOM      2  C   UNL     1       5.802  41.596  48.273  1.00  0.00     0.083 C 
BRANCH   2   3
ATOM      3  C   UNL     1       4.527  40.821  47.966  1.00  0.00     0.263 C 
BRANCH   3   4
ATOM      4  N   UNL     1       4.400  40.553  46.477  1.00  0.00    -0.340 N 
ATOM      5  C   UNL     1       5.140  41.543  45.617  1.00  0.00     0.332 C 
ATOM      6  C   UNL     1       2.953  40.456  46.061  1.00  0.00     0.332 C 
ATOM      7  H   UNL     1       4.812  39.626  46.295  1.00  0.00     0.347 HD
ENDBRANCH   3   4
ENDBRANCH   2   3
ENDBRANCH   1   2
BRANCH   1   8
ATOM      8  N   UNL     1       4.812  41.471  50.480  1.00  0.00    -0.354 N 
ATOM      9  H   UNL     1       4.729  40.709  51.148  1.00  0.00     0.163 HD
BRANCH   8  10
ATOM     10  C   UNL     1       4.404  42.605  51.174  1.00  0.00     0.226 A 
ATOM     11  N   UNL     1       5.160  43.683  50.996  1.00  0.00    -0.193 NA
ATOM     12  N   UNL     1       3.321  42.571  51.943  1.00  0.00    -0.191 NA
ATOM     13  C   UNL     1       4.816  44.807  51.657  1.00  0.00     0.164 A 
ATOM     14  C   UNL     1       2.985  43.679  52.591  1.00  0.00     0.185 A 
ATOM     15  C   UNL     1       3.706  44.875  52.496  1.00  0.00     0.150 A 
ATOM     16  N   UNL     1       1.889  43.628  53.357  1.00  0.00    -0.233 NA
ATOM     17  N   UNL     1       3.337  46.018  53.152  1.00  0.00    -0.247 NA
ATOM     18  C   UNL     1       1.527  44.751  54.023  1.00  0.00     0.133 A 
ATOM     19  C   UNL     1       2.236  45.926  53.923  1.00  0.00     0.132 A 
BRANCH  13  20
ATOM     20  N   UNL     1       5.607  45.983  51.540  1.00  0.00    -0.338 N 
ATOM     21  H   UNL     1       5.314  46.528  50.730  1.00  0.00     0.168 HD
BRANCH  20  22
ATOM     22  C   UNL     1       6.843  46.348  52.092  1.00  0.00     0.040 A 
ATOM     23  C   UNL     1       6.904  46.655  53.463  1.00  0.00     0.029 A 
ATOM     24  C   UNL     1       8.035  46.393  51.357  1.00  0.00     0.029 A 
ATOM     25  C   UNL     1       8.109  47.019  54.073  1.00  0.00     0.041 A 
ATOM     26  C   UNL     1       9.243  46.753  51.962  1.00  0.00     0.041 A 
ATOM     27  C   UNL     1       9.268  47.067  53.314  1.00  0.00     0.123 A 
ATOM     28  F   UNL     1      10.425  47.414  53.891  1.00  0.00    -0.207 F 
ENDBRANCH  20  22
ENDBRANCH  13  20
ENDBRANCH   8  10
ENDBRANCH   1   8
TORSDOF 7
ENDMDL
MODEL 10
REMARK VINA RESULT:    -7.596      1.463      1.662
REMARK INTER + INTRA:         -11.878
REMARK INTER:                 -11.259
REMARK INTRA:                  -0.619
REMARK UNBOUND:                -1.174
REMARK SMILES C[NH+](C)CCCNc1nc(Nc2ccc(F)cc2)c2nccnc2n1
REMARK SMILES IDX 6 1 5 2 4 3 2 4 1 5 3 6 7 8 8 10 9 11 25 12 10 13 24 14
REMARK SMILES IDX 19 15 23 16 20 17 22 18 21 19 11 20 12 22 13 23 18 24 14 25
REMARK SMILES IDX 17 26 15 27 16 28
REMARK H PARENT 2 7 7 9 11 21
ROOT
ATOM      1  C   UNL     1       3.264  45.520  55.019  1.00  0.00     0.122 C 
ENDROOT
BRANCH   1   2
ATOM      2  C   UNL     1       1.941  45.688  55.769  1.00  0.00     0.083 C 
BRANCH   2   3
ATOM      3  C   UNL     1       0.965  44.586  55.379  1.00  0.00     0.263 C 
BRANCH   3   4
ATOM      4  N   UNL     1      -0.432  45.146  55.177  1.00  0.00    -0.340 N 
ATOM      5  C   UNL     1      -1.377  44.842  56.309  1.00  0.00     0.332 C 
ATOM      6  C   UNL     1      -1.014  44.701  53.859  1.00  0.00     0.332 C 
ATOM      7  H   UNL     1      -0.348  46.171  55.121  1.00  0.00     0.347 HD
ENDBRANCH   3   4
ENDBRANCH   2   3
ENDBRANCH   1   2
BRANCH   1   8
ATOM      8  N   UNL     1       4.052  46.723  55.189  1.00  0.00    -0.354 N 
ATOM      9  H   UNL     1       4.307  46.984  56.138  1.00  0.00     0.163 HD
BRANCH   8  10
ATOM     10  C   UNL     1       5.246  46.744  54.476  1.00  0.00     0.226 A 
ATOM     11  N   UNL     1       5.165  46.323  53.219  1.00  0.00    -0.193 NA
ATOM     12  N   UNL     1       6.366  47.174  55.048  1.00  0.00    -0.191 NA
ATOM     13  C   UNL     1       6.296  46.310  52.486  1.00  0.00     0.164 A 
ATOM     14  C   UNL     1       7.478  47.161  54.325  1.00  0.00     0.185 A 
ATOM     15  C   UNL     1       7.524  46.729  52.994  1.00  0.00     0.150 A 
ATOM     16  N   UNL     1       8.595  47.602  54.916  1.00  0.00    -0.233 NA
ATOM     17  N   UNL     1       8.674  46.741  52.251  1.00  0.00    -0.247 NA
ATOM     18  C   UNL     1       9.739  47.601  54.191  1.00  0.00     0.133 A 
ATOM     19  C   UNL     1       9.780  47.179  52.882  1.00  0.00     0.132 A 
BRANCH  13  20
ATOM     20  N   UNL     1       6.284  45.833  51.147  1.00  0.00    -0.338 N 
ATOM     21  H   UNL     1       6.067  46.591  50.502  1.00  0.00     0.168 HD
BRANCH  20  22
ATOM     22  C   UNL     1       6.192  44.542  50.606  1.00  0.00     0.040 A 
ATOM     23  C   UNL     1       7.185  44.117  49.706  1.00  0.00     0.029 A 
ATOM     24  C   UNL     1       5.177  43.635  50.939  1.00  0.00     0.029 A 
ATOM     25  C   UNL     1       7.151  42.838  49.139  1.00  0.00     0.041 A 
ATOM     26  C   UNL     1       5.139  42.355  50.377  1.00  0.00     0.041 A 
ATOM     27  C   UNL     1       6.125  41.970  49.479  1.00  0.00     0.123 A 
ATOM     28  F   UNL     1       6.088  40.745  48.940  1.00  0.00    -0.207 F 
ENDBRANCH  20  22
ENDBRANCH  13  20
ENDBRANCH   8  10
ENDBRANCH   1   8
TORSDOF 7
ENDMDL
MODEL 11
REMARK VINA RESULT:    -7.593      1.793      5.759
REMARK INTER + INTRA:         -11.874
REMARK INTER:                 -11.422
REMARK INTRA:                  -0.452
REMARK UNBOUND:                -1.174
REMARK SMILES C[NH+](C)CCCNc1nc(Nc2ccc(F)cc2)c2nccnc2n1
REMARK SMILES IDX 6 1 5 2 4 3 2 4 1 5 3 6 7 8 8 10 9 11 25 12 10 13 24 14
REMARK SMILES IDX 19 15 23 16 20 17 22 18 21 19 11 20 12 22 13 23 18 24 14 25
REMARK SMILES IDX 17 26 15 27 16 28
REMARK H PARENT 2 7 7 9 11 21
ROOT
ATOM      1  C   UNL     1       5.408  47.045  54.463  1.00  0.00     0.122 C 
ENDROOT
BRANCH   1   2
ATOM      2  C   UNL     1       6.839  46.520  54.601  1.00  0.00     0.083 C 
BRANCH   2   3
ATOM      3  C   UNL     1       7.693  46.986  53.430  1.00  0.00     0.263 C 
BRANCH   3   4
ATOM      4  N   UNL     1       9.141  46.566  53.613  1.00  0.00    -0.340 N 
ATOM      5  C   UNL     1       9.873  47.355  54.665  1.00  0.00     0.332 C 
ATOM      6  C   UNL     1       9.888  46.596  52.303  1.00  0.00     0.332 C 
ATOM      7  H   UNL     1       9.140  45.583  53.918  1.00  0.00     0.347 HD
ENDBRANCH   3   4
ENDBRANCH   2   3
ENDBRANCH   1   2
BRANCH   1   8
ATOM      8  N   UNL     1       4.526  46.205  55.245  1.00  0.00    -0.354 N 
ATOM      9  H   UNL     1       3.878  46.669  55.878  1.00  0.00     0.163 HD
BRANCH   8  10
ATOM     10  C   UNL     1       3.739  45.333  54.501  1.00  0.00     0.226 A 
ATOM     11  N   UNL     1       4.337  44.786  53.448  1.00  0.00    -0.193 NA
ATOM     12  N   UNL     1       2.484  45.083  54.859  1.00  0.00    -0.191 NA
ATOM     13  C   UNL     1       3.616  43.942  52.684  1.00  0.00     0.164 A 
ATOM     14  C   UNL     1       1.777  44.251  54.106  1.00  0.00     0.185 A 
ATOM     15  C   UNL     1       2.289  43.621  52.965  1.00  0.00     0.150 A 
ATOM     16  N   UNL     1       0.516  44.008  54.484  1.00  0.00    -0.233 NA
ATOM     17  N   UNL     1       1.556  42.748  52.208  1.00  0.00    -0.247 NA
ATOM     18  C   UNL     1      -0.220  43.158  53.731  1.00  0.00     0.133 A 
ATOM     19  C   UNL     1       0.289  42.537  52.612  1.00  0.00     0.132 A 
BRANCH  13  20
ATOM     20  N   UNL     1       4.185  43.354  51.521  1.00  0.00    -0.338 N 
ATOM     21  H   UNL     1       3.733  42.465  51.316  1.00  0.00     0.168 HD
BRANCH  20  22
ATOM     22  C   UNL     1       5.390  43.587  50.840  1.00  0.00     0.040 A 
ATOM     23  C   UNL     1       5.947  42.542  50.083  1.00  0.00     0.029 A 
ATOM     24  C   UNL     1       6.057  44.819  50.849  1.00  0.00     0.029 A 
ATOM     25  C   UNL     1       7.142  42.715  49.377  1.00  0.00     0.041 A 
ATOM     26  C   UNL     1       7.251  44.999  50.143  1.00  0.00     0.041 A 
ATOM     27  C   UNL     1       7.785  43.943  49.417  1.00  0.00     0.123 A 
ATOM     28  F   UNL     1       8.929  44.115  48.744  1.00  0.00    -0.207 F 
ENDBRANCH  20  22
ENDBRANCH  13  20
ENDBRANCH   8  10
ENDBRANCH   1   8
TORSDOF 7
ENDMDL
MODEL 12
REMARK VINA RESULT:    -7.420      1.831      5.802
REMARK INTER + INTRA:         -11.630
REMARK INTER:                 -11.116
REMARK INTRA:                  -0.514
REMARK UNBOUND:                -1.174
REMARK SMILES C[NH+](C)CCCNc1nc(Nc2ccc(F)cc2)c2nccnc2n1
REMARK SMILES IDX 6 1 5 2 4 3 2 4 1 5 3 6 7 8 8 10 9 11 25 12 10 13 24 14
REMARK SMILES IDX 19 15 23 16 20 17 22 18 21 19 11 20 12 22 13 23 18 24 14 25
REMARK SMILES IDX 17 26 15 27 16 28
REMARK H PARENT 2 7 7 9 11 21
ROOT
ATOM      1  C   UNL     1       5.992  45.565  55.027  1.00  0.00     0.122 C 
ENDROOT
BRANCH   1   2
ATOM      2  C   UNL     1       6.766  46.796  54.549  1.00  0.00     0.083 C 
BRANCH   2   3
ATOM      3  C   UNL     1       7.553  46.472  53.286  1.00  0.00     0.263 C 
BRANCH   3   4
ATOM      4  N   UNL     1       9.044  46.441  53.570  1.00  0.00    -0.340 N 
ATOM      5  C   UNL     1       9.512  47.544  54.482  1.00  0.00     0.332 C 
ATOM      6  C   UNL     1       9.844  46.428  52.291  1.00  0.00     0.332 C 
ATOM      7  H   UNL     1       9.249  45.550  54.043  1.00  0.00     0.347 HD
ENDBRANCH   3   4
ENDBRANCH   2   3
ENDBRANCH   1   2
BRANCH   1   8
ATOM      8  N   UNL     1       4.600  45.924  55.193  1.00  0.00    -0.354 N 
ATOM      9  H   UNL     1       4.332  46.878  54.964  1.00  0.00     0.163 HD
BRANCH   8  10
ATOM     10  C   UNL     1       3.703  45.121  54.497  1.00  0.00     0.226 A 
ATOM     11  N   UNL     1       4.212  44.471  53.456  1.00  0.00    -0.193 NA
ATOM     12  N   UNL     1       2.436  45.031  54.886  1.00  0.00    -0.191 NA
ATOM     13  C   UNL     1       3.383  43.688  52.737  1.00  0.00     0.164 A 
ATOM     14  C   UNL     1       1.622  44.259  54.177  1.00  0.00     0.185 A 
ATOM     15  C   UNL     1       2.035  43.533  53.053  1.00  0.00     0.150 A 
ATOM     16  N   UNL     1       0.350  44.176  54.586  1.00  0.00    -0.233 NA
ATOM     17  N   UNL     1       1.190  42.723  52.343  1.00  0.00    -0.247 NA
ATOM     18  C   UNL     1      -0.494  43.390  53.879  1.00  0.00     0.133 A 
ATOM     19  C   UNL     1      -0.084  42.674  52.777  1.00  0.00     0.132 A 
BRANCH  13  20
ATOM     20  N   UNL     1       3.857  42.997  51.588  1.00  0.00    -0.338 N 
ATOM     21  H   UNL     1       3.363  42.112  51.478  1.00  0.00     0.168 HD
BRANCH  20  22
ATOM     22  C   UNL     1       5.021  43.134  50.819  1.00  0.00     0.040 A 
ATOM     23  C   UNL     1       5.682  44.376  50.812  1.00  0.00     0.029 A 
ATOM     24  C   UNL     1       5.584  42.088  50.076  1.00  0.00     0.029 A 
ATOM     25  C   UNL     1       6.851  44.571  50.070  1.00  0.00     0.041 A 
ATOM     26  C   UNL     1       6.754  42.277  49.334  1.00  0.00     0.041 A 
ATOM     27  C   UNL     1       7.375  43.519  49.335  1.00  0.00     0.123 A 
ATOM     28  F   UNL     1       8.494  43.700  48.623  1.00  0.00    -0.207 F 
ENDBRANCH  20  22
ENDBRANCH  13  20
ENDBRANCH   8  10
ENDBRANCH   1   8
TORSDOF 7
ENDMDL
MODEL 13
REMARK VINA RESULT:    -7.397      2.959      6.505
REMARK INTER + INTRA:         -11.597
REMARK INTER:                 -10.955
REMARK INTRA:                  -0.642
REMARK UNBOUND:                -1.174
REMARK SMILES C[NH+](C)CCCNc1nc(Nc2ccc(F)cc2)c2nccnc2n1
REMARK SMILES IDX 6 1 5 2 4 3 2 4 1 5 3 6 7 8 8 10 9 11 25 12 10 13 24 14
REMARK SMILES IDX 19 15 23 16 20 17 22 18 21 19 11 20 12 22 13 23 18 24 14 25
REMARK SMILES IDX 17 26 15 27 16 28
REMARK H PARENT 2 7 7 9 11 21
ROOT
ATOM      1  C   UNL     1       5.663  42.125  50.107  1.00  0.00     0.122 C 
ENDROOT
BRANCH   1   2
ATOM      2  C   UNL     1       5.780  41.184  48.906  1.00  0.00     0.083 C 
BRANCH   2   3
ATOM      3  C   UNL     1       5.799  41.978  47.607  1.00  0.00     0.263 C 
BRANCH   3   4
ATOM      4  N   UNL     1       5.188  41.176  46.472  1.00  0.00    -0.340 N 
ATOM      5  C   UNL     1       5.048  41.950  45.188  1.00  0.00     0.332 C 
ATOM      6  C   UNL     1       3.869  40.569  46.879  1.00  0.00     0.332 C 
ATOM      7  H   UNL     1       5.819  40.384  46.280  1.00  0.00     0.347 HD
ENDBRANCH   3   4
ENDBRANCH   2   3
ENDBRANCH   1   2
BRANCH   1   8
ATOM      8  N   UNL     1       4.462  41.794  50.844  1.00  0.00    -0.354 N 
ATOM      9  H   UNL     1       4.490  40.969  51.438  1.00  0.00     0.163 HD
BRANCH   8  10
ATOM     10  C   UNL     1       3.980  42.810  51.661  1.00  0.00     0.226 A 
ATOM     11  N   UNL     1       4.709  43.920  51.677  1.00  0.00    -0.193 NA
ATOM     12  N   UNL     1       2.858  42.644  52.354  1.00  0.00    -0.191 NA
ATOM     13  C   UNL     1       4.294  44.934  52.464  1.00  0.00     0.164 A 
ATOM     14  C   UNL     1       2.452  43.642  53.128  1.00  0.00     0.185 A 
ATOM     15  C   UNL     1       3.138  44.858  53.239  1.00  0.00     0.150 A 
ATOM     16  N   UNL     1       1.318  43.459  53.815  1.00  0.00    -0.233 NA
ATOM     17  N   UNL     1       2.697  45.889  54.023  1.00  0.00    -0.247 NA
ATOM     18  C   UNL     1       0.884  44.469  54.605  1.00  0.00     0.133 A 
ATOM     19  C   UNL     1       1.560  45.664  54.709  1.00  0.00     0.132 A 
BRANCH  13  20
ATOM     20  N   UNL     1       5.050  46.134  52.555  1.00  0.00    -0.338 N 
ATOM     21  H   UNL     1       4.514  46.920  52.190  1.00  0.00     0.168 HD
BRANCH  20  22
ATOM     22  C   UNL     1       6.421  46.374  52.732  1.00  0.00     0.040 A 
ATOM     23  C   UNL     1       7.270  46.287  51.614  1.00  0.00     0.029 A 
ATOM     24  C   UNL     1       6.991  46.727  53.962  1.00  0.00     0.029 A 
ATOM     25  C   UNL     1       8.644  46.521  51.727  1.00  0.00     0.041 A 
ATOM     26  C   UNL     1       8.364  46.965  54.080  1.00  0.00     0.041 A 
ATOM     27  C   UNL     1       9.179  46.856  52.961  1.00  0.00     0.123 A 
ATOM     28  F   UNL     1      10.493  47.082  53.075  1.00  0.00    -0.207 F 
ENDBRANCH  20  22
ENDBRANCH  13  20
ENDBRANCH   8  10
ENDBRANCH   1   8
TORSDOF 7
ENDMDL
MODEL 14
REMARK VINA RESULT:    -7.247      2.741      6.281
REMARK INTER + INTRA:         -11.387
REMARK INTER:                 -10.185
REMARK INTRA:                  -1.201
REMARK UNBOUND:                -1.174
REMARK SMILES C[NH+](C)CCCNc1nc(Nc2ccc(F)cc2)c2nccnc2n1
REMARK SMILES IDX 6 1 5 2 4 3 2 4 1 5 3 6 7 8 8 10 9 11 25 12 10 13 24 14
REMARK SMILES IDX 19 15 23 16 20 17 22 18 21 19 11 20 12 22 13 23 18 24 14 25
REMARK SMILES IDX 17 26 15 27 16 28
REMARK H PARENT 2 7 7 9 11 21
ROOT
ATOM      1  C   UNL     1       3.634  41.210  49.662  1.00  0.00     0.122 C 
ENDROOT
BRANCH   1   2
ATOM      2  C   UNL     1       4.891  40.822  48.880  1.00  0.00     0.083 C 
BRANCH   2   3
ATOM      3  C   UNL     1       5.645  42.067  48.432  1.00  0.00     0.263 C 
BRANCH   3   4
ATOM      4  N   UNL     1       6.693  42.464  49.456  1.00  0.00    -0.340 N 
ATOM      5  C   UNL     1       7.750  43.389  48.916  1.00  0.00     0.332 C 
ATOM      6  C   UNL     1       7.319  41.250  50.096  1.00  0.00     0.332 C 
ATOM      7  H   UNL     1       6.209  42.968  50.213  1.00  0.00     0.347 HD
ENDBRANCH   3   4
ENDBRANCH   2   3
ENDBRANCH   1   2
BRANCH   1   8
ATOM      8  N   UNL     1       3.955  41.243  51.073  1.00  0.00    -0.354 N 
ATOM      9  H   UNL     1       4.912  41.028  51.341  1.00  0.00     0.163 HD
BRANCH   8  10
ATOM     10  C   UNL     1       3.665  42.445  51.709  1.00  0.00     0.226 A 
ATOM     11  N   UNL     1       4.471  43.457  51.408  1.00  0.00    -0.193 NA
ATOM     12  N   UNL     1       2.637  42.535  52.546  1.00  0.00    -0.191 NA
ATOM     13  C   UNL     1       4.243  44.643  52.007  1.00  0.00     0.164 A 
ATOM     14  C   UNL     1       2.414  43.703  53.134  1.00  0.00     0.185 A 
ATOM     15  C   UNL     1       3.199  44.840  52.909  1.00  0.00     0.150 A 
ATOM     16  N   UNL     1       1.372  43.776  53.970  1.00  0.00    -0.233 NA
ATOM     17  N   UNL     1       2.946  46.046  53.504  1.00  0.00    -0.247 NA
ATOM     18  C   UNL     1       1.125  44.961  54.576  1.00  0.00     0.133 A 
ATOM     19  C   UNL     1       1.897  46.078  54.348  1.00  0.00     0.132 A 
BRANCH  13  20
ATOM     20  N   UNL     1       5.094  45.754  51.757  1.00  0.00    -0.338 N 
ATOM     21  H   UNL     1       4.822  46.222  50.894  1.00  0.00     0.168 HD
BRANCH  20  22
ATOM     22  C   UNL     1       6.355  46.108  52.259  1.00  0.00     0.040 A 
ATOM     23  C   UNL     1       7.449  46.134  51.375  1.00  0.00     0.029 A 
ATOM     24  C   UNL     1       6.582  46.470  53.593  1.00  0.00     0.029 A 
ATOM     25  C   UNL     1       8.729  46.485  51.815  1.00  0.00     0.041 A 
ATOM     26  C   UNL     1       7.859  46.825  54.039  1.00  0.00     0.041 A 
ATOM     27  C   UNL     1       8.922  46.825  53.146  1.00  0.00     0.123 A 
ATOM     28  F   UNL     1      10.145  47.163  53.573  1.00  0.00    -0.207 F 
ENDBRANCH  20  22
ENDBRANCH  13  20
ENDBRANCH   8  10
ENDBRANCH   1   8
TORSDOF 7
ENDMDL
MODEL 15
REMARK VINA RESULT:    -7.159      2.303      4.986
REMARK INTER + INTRA:         -11.263
REMARK INTER:                 -10.647
REMARK INTRA:                  -0.616
REMARK UNBOUND:                -1.174
REMARK SMILES C[NH+](C)CCCNc1nc(Nc2ccc(F)cc2)c2nccnc2n1
REMARK SMILES IDX 6 1 5 2 4 3 2 4 1 5 3 6 7 8 8 10 9 11 25 12 10 13 24 14
REMARK SMILES IDX 19 15 23 16 20 17 22 18 21 19 11 20 12 22 13 23 18 24 14 25
REMARK SMILES IDX 17 26 15 27 16 28
REMARK H PARENT 2 7 7 9 11 21
ROOT
ATOM      1  C   UNL     1       6.221  43.893  49.811  1.00  0.00     0.122 C 
ENDROOT
BRANCH   1   2
ATOM      2  C   UNL     1       6.968  42.558  49.769  1.00  0.00     0.083 C 
BRANCH   2   3
ATOM      3  C   UNL     1       6.045  41.418  50.178  1.00  0.00     0.263 C 
BRANCH   3   4
ATOM      4  N   UNL     1       4.591  41.851  50.125  1.00  0.00    -0.340 N 
ATOM      5  C   UNL     1       3.993  42.138  51.476  1.00  0.00     0.332 C 
ATOM      6  C   UNL     1       3.751  40.854  49.367  1.00  0.00     0.332 C 
ATOM      7  H   UNL     1       4.551  42.728  49.584  1.00  0.00     0.347 HD
ENDBRANCH   3   4
ENDBRANCH   2   3
ENDBRANCH   1   2
BRANCH   1   8
ATOM      8  N   UNL     1       7.187  44.970  49.758  1.00  0.00    -0.354 N 
ATOM      9  H   UNL     1       7.024  45.711  49.082  1.00  0.00     0.163 HD
BRANCH   8  10
ATOM     10  C   UNL     1       7.398  45.624  50.967  1.00  0.00     0.226 A 
ATOM     11  N   UNL     1       6.301  46.048  51.583  1.00  0.00    -0.193 NA
ATOM     12  N   UNL     1       8.630  45.783  51.441  1.00  0.00    -0.191 NA
ATOM     13  C   UNL     1       6.450  46.702  52.753  1.00  0.00     0.164 A 
ATOM     14  C   UNL     1       8.773  46.425  52.593  1.00  0.00     0.185 A 
ATOM     15  C   UNL     1       7.696  46.931  53.332  1.00  0.00     0.150 A 
ATOM     16  N   UNL     1      10.019  46.572  53.058  1.00  0.00    -0.233 NA
ATOM     17  N   UNL     1       7.856  47.573  54.530  1.00  0.00    -0.247 NA
ATOM     18  C   UNL     1      10.186  47.221  54.235  1.00  0.00     0.133 A 
ATOM     19  C   UNL     1       9.124  47.713  54.960  1.00  0.00     0.132 A 
BRANCH  13  20
ATOM     20  N   UNL     1       5.317  47.216  53.442  1.00  0.00    -0.338 N 
ATOM     21  H   UNL     1       5.571  48.051  53.967  1.00  0.00     0.168 HD
BRANCH  20  22
ATOM     22  C   UNL     1       4.081  46.647  53.781  1.00  0.00     0.040 A 
ATOM     23  C   UNL     1       3.034  46.703  52.844  1.00  0.00     0.029 A 
ATOM     24  C   UNL     1       3.838  45.994  54.997  1.00  0.00     0.029 A 
ATOM     25  C   UNL     1       1.781  46.147  53.122  1.00  0.00     0.041 A 
ATOM     26  C   UNL     1       2.588  45.435  55.279  1.00  0.00     0.041 A 
ATOM     27  C   UNL     1       1.570  45.520  54.340  1.00  0.00     0.123 A 
ATOM     28  F   UNL     1       0.373  44.986  54.612  1.00  0.00    -0.207 F 
ENDBRANCH  20  22
ENDBRANCH  13  20
ENDBRANCH   8  10
ENDBRANCH   1   8
TORSDOF 7
ENDMDL
MODEL 16
REMARK VINA RESULT:    -7.024      2.811      6.619
REMARK INTER + INTRA:         -11.072
REMARK INTER:                 -10.373
REMARK INTRA:                  -0.698
REMARK UNBOUND:                -1.174
REMARK SMILES C[NH+](C)CCCNc1nc(Nc2ccc(F)cc2)c2nccnc2n1
REMARK SMILES IDX 6 1 5 2 4 3 2 4 1 5 3 6 7 8 8 10 9 11 25 12 10 13 24 14
REMARK SMILES IDX 19 15 23 16 20 17 22 18 21 19 11 20 12 22 13 23 18 24 14 25
REMARK SMILES IDX 17 26 15 27 16 28
REMARK H PARENT 2 7 7 9 11 21
ROOT
ATOM      1  C   UNL     1       5.847  46.750  53.871  1.00  0.00     0.122 C 
ENDROOT
BRANCH   1   2
ATOM      2  C   UNL     1       7.320  47.058  54.151  1.00  0.00     0.083 C 
BRANCH   2   3
ATOM      3  C   UNL     1       8.033  47.461  52.867  1.00  0.00     0.263 C 
BRANCH   3   4
ATOM      4  N   UNL     1       9.540  47.400  53.041  1.00  0.00    -0.340 N 
ATOM      5  C   UNL     1      10.217  46.410  52.131  1.00  0.00     0.332 C 
ATOM      6  C   UNL     1       9.914  47.149  54.480  1.00  0.00     0.332 C 
ATOM      7  H   UNL     1       9.914  48.331  52.807  1.00  0.00     0.347 HD
ENDBRANCH   3   4
ENDBRANCH   2   3
ENDBRANCH   1   2
BRANCH   1   8
ATOM      8  N   UNL     1       5.652  46.665  52.440  1.00  0.00    -0.354 N 
ATOM      9  H   UNL     1       6.414  46.978  51.844  1.00  0.00     0.163 HD
BRANCH   8  10
ATOM     10  C   UNL     1       5.324  45.398  51.970  1.00  0.00     0.226 A 
ATOM     11  N   UNL     1       4.328  44.795  52.609  1.00  0.00    -0.193 NA
ATOM     12  N   UNL     1       5.981  44.868  50.943  1.00  0.00    -0.191 NA
ATOM     13  C   UNL     1       3.978  43.557  52.203  1.00  0.00     0.164 A 
ATOM     14  C   UNL     1       5.634  43.651  50.545  1.00  0.00     0.185 A 
ATOM     15  C   UNL     1       4.610  42.908  51.144  1.00  0.00     0.150 A 
ATOM     16  N   UNL     1       6.303  43.136  49.506  1.00  0.00    -0.233 NA
ATOM     17  N   UNL     1       4.246  41.662  50.710  1.00  0.00    -0.247 NA
ATOM     18  C   UNL     1       5.959  41.897  49.082  1.00  0.00     0.133 A 
ATOM     19  C   UNL     1       4.949  41.171  49.671  1.00  0.00     0.132 A 
BRANCH  13  20
ATOM     20  N   UNL     1       2.947  42.842  52.871  1.00  0.00    -0.338 N 
ATOM     21  H   UNL     1       3.157  41.846  52.884  1.00  0.00     0.168 HD
BRANCH  20  22
ATOM     22  C   UNL     1       1.627  43.181  53.203  1.00  0.00     0.040 A 
ATOM     23  C   UNL     1       0.583  42.686  52.401  1.00  0.00     0.029 A 
ATOM     24  C   UNL     1       1.285  43.966  54.312  1.00  0.00     0.029 A 
ATOM     25  C   UNL     1      -0.754  42.984  52.685  1.00  0.00     0.041 A 
ATOM     26  C   UNL     1      -0.049  44.265  54.603  1.00  0.00     0.041 A 
ATOM     27  C   UNL     1      -1.057  43.774  53.783  1.00  0.00     0.123 A 
ATOM     28  F   UNL     1      -2.334  44.062  54.060  1.00  0.00    -0.207 F 
ENDBRANCH  20  22
ENDBRANCH  13  20
ENDBRANCH   8  10
ENDBRANCH   1   8
TORSDOF 7
ENDMDL
MODEL 17
REMARK VINA RESULT:    -7.023      1.785      5.753
REMARK INTER + INTRA:         -11.071
REMARK INTER:                 -10.287
REMARK INTRA:                  -0.784
REMARK UNBOUND:                -1.174
REMARK SMILES C[NH+](C)CCCNc1nc(Nc2ccc(F)cc2)c2nccnc2n1
REMARK SMILES IDX 6 1 5 2 4 3 2 4 1 5 3 6 7 8 8 10 9 11 25 12 10 13 24 14
REMARK SMILES IDX 19 15 23 16 20 17 22 18 21 19 11 20 12 22 13 23 18 24 14 25
REMARK SMILES IDX 17 26 15 27 16 28
REMARK H PARENT 2 7 7 9 11 21
ROOT
ATOM      1  C   UNL     1       5.390  47.179  54.423  1.00  0.00     0.122 C 
ENDROOT
BRANCH   1   2
ATOM      2  C   UNL     1       6.821  46.649  54.543  1.00  0.00     0.083 C 
BRANCH   2   3
ATOM      3  C   UNL     1       7.281  46.054  53.219  1.00  0.00     0.263 C 
BRANCH   3   4
ATOM      4  N   UNL     1       8.573  46.700  52.753  1.00  0.00    -0.340 N 
ATOM      5  C   UNL     1       9.532  47.013  53.870  1.00  0.00     0.332 C 
ATOM      6  C   UNL     1       8.301  47.928  51.920  1.00  0.00     0.332 C 
ATOM      7  H   UNL     1       9.045  46.030  52.128  1.00  0.00     0.347 HD
ENDBRANCH   3   4
ENDBRANCH   2   3
ENDBRANCH   1   2
BRANCH   1   8
ATOM      8  N   UNL     1       4.566  46.525  55.417  1.00  0.00    -0.354 N 
ATOM      9  H   UNL     1       4.183  47.103  56.161  1.00  0.00     0.163 HD
BRANCH   8  10
ATOM     10  C   UNL     1       3.478  45.827  54.906  1.00  0.00     0.226 A 
ATOM     11  N   UNL     1       3.660  45.289  53.705  1.00  0.00    -0.193 NA
ATOM     12  N   UNL     1       2.354  45.720  55.609  1.00  0.00    -0.191 NA
ATOM     13  C   UNL     1       2.631  44.613  53.156  1.00  0.00     0.164 A 
ATOM     14  C   UNL     1       1.344  45.052  55.067  1.00  0.00     0.185 A 
ATOM     15  C   UNL     1       1.408  44.451  53.804  1.00  0.00     0.150 A 
ATOM     16  N   UNL     1       0.222  44.951  55.790  1.00  0.00    -0.233 NA
ATOM     17  N   UNL     1       0.366  43.747  53.264  1.00  0.00    -0.247 NA
ATOM     18  C   UNL     1      -0.818  44.269  55.255  1.00  0.00     0.133 A 
ATOM     19  C   UNL     1      -0.750  43.676  54.015  1.00  0.00     0.132 A 
BRANCH  13  20
ATOM     20  N   UNL     1       2.750  44.048  51.857  1.00  0.00    -0.338 N 
ATOM     21  H   UNL     1       1.843  44.033  51.393  1.00  0.00     0.168 HD
BRANCH  20  22
ATOM     22  C   UNL     1       3.743  43.258  51.259  1.00  0.00     0.040 A 
ATOM     23  C   UNL     1       4.966  43.860  50.914  1.00  0.00     0.029 A 
ATOM     24  C   UNL     1       3.594  41.887  51.011  1.00  0.00     0.029 A 
ATOM     25  C   UNL     1       5.996  43.123  50.322  1.00  0.00     0.041 A 
ATOM     26  C   UNL     1       4.622  41.144  50.421  1.00  0.00     0.041 A 
ATOM     27  C   UNL     1       5.812  41.771  50.078  1.00  0.00     0.123 A 
ATOM     28  F   UNL     1       6.794  41.060  49.511  1.00  0.00    -0.207 F 
ENDBRANCH  20  22
ENDBRANCH  13  20
ENDBRANCH   8  10
ENDBRANCH   1   8
TORSDOF 7
ENDMDL
MODEL 18
REMARK VINA RESULT:    -6.962      2.068      6.014
REMARK INTER + INTRA:         -10.985
REMARK INTER:                 -10.312
REMARK INTRA:                  -0.673
REMARK UNBOUND:                -1.174
REMARK SMILES C[NH+](C)CCCNc1nc(Nc2ccc(F)cc2)c2nccnc2n1
REMARK SMILES IDX 6 1 5 2 4 3 2 4 1 5 3 6 7 8 8 10 9 11 25 12 10 13 24 14
REMARK SMILES IDX 19 15 23 16 20 17 22 18 21 19 11 20 12 22 13 23 18 24 14 25
REMARK SMILES IDX 17 26 15 27 16 28
REMARK H PARENT 2 7 7 9 11 21
ROOT
ATOM      1  C   UNL     1       4.972  45.897  55.255  1.00  0.00     0.122 C 
ENDROOT
BRANCH   1   2
ATOM      2  C   UNL     1       5.412  47.172  54.532  1.00  0.00     0.083 C 
BRANCH   2   3
ATOM      3  C   UNL     1       6.024  46.834  53.180  1.00  0.00     0.263 C 
BRANCH   3   4
ATOM      4  N   UNL     1       7.398  47.463  53.034  1.00  0.00    -0.340 N 
ATOM      5  C   UNL     1       8.084  47.129  51.736  1.00  0.00     0.332 C 
ATOM      6  C   UNL     1       8.281  47.126  54.209  1.00  0.00     0.332 C 
ATOM      7  H   UNL     1       7.273  48.485  53.055  1.00  0.00     0.347 HD
ENDBRANCH   3   4
ENDBRANCH   2   3
ENDBRANCH   1   2
BRANCH   1   8
ATOM      8  N   UNL     1       3.602  46.059  55.694  1.00  0.00    -0.354 N 
ATOM      9  H   UNL     1       3.228  47.004  55.720  1.00  0.00     0.163 HD
BRANCH   8  10
ATOM     10  C   UNL     1       2.668  45.321  54.975  1.00  0.00     0.226 A 
ATOM     11  N   UNL     1       3.175  44.480  54.081  1.00  0.00    -0.193 NA
ATOM     12  N   UNL     1       1.368  45.471  55.206  1.00  0.00    -0.191 NA
ATOM     13  C   UNL     1       2.312  43.749  53.346  1.00  0.00     0.164 A 
ATOM     14  C   UNL     1       0.521  44.750  54.482  1.00  0.00     0.185 A 
ATOM     15  C   UNL     1       0.930  43.838  53.501  1.00  0.00     0.150 A 
ATOM     16  N   UNL     1      -0.784  44.910  54.732  1.00  0.00    -0.233 NA
ATOM     17  N   UNL     1       0.048  43.084  52.776  1.00  0.00    -0.247 NA
ATOM     18  C   UNL     1      -1.663  44.179  54.007  1.00  0.00     0.133 A 
ATOM     19  C   UNL     1      -1.257  43.281  53.046  1.00  0.00     0.132 A 
BRANCH  13  20
ATOM     20  N   UNL     1       2.790  42.860  52.344  1.00  0.00    -0.338 N 
ATOM     21  H   UNL     1       2.353  41.945  52.445  1.00  0.00     0.168 HD
BRANCH  20  22
ATOM     22  C   UNL     1       3.914  42.899  51.507  1.00  0.00     0.040 A 
ATOM     23  C   UNL     1       4.319  41.714  50.867  1.00  0.00     0.029 A 
ATOM     24  C   UNL     1       4.644  44.066  51.247  1.00  0.00     0.029 A 
ATOM     25  C   UNL     1       5.428  41.691  50.016  1.00  0.00     0.041 A 
ATOM     26  C   UNL     1       5.753  44.050  50.395  1.00  0.00     0.041 A 
ATOM     27  C   UNL     1       6.137  42.861  49.790  1.00  0.00     0.123 A 
ATOM     28  F   UNL     1       7.199  42.846  48.976  1.00  0.00    -0.207 F 
ENDBRANCH  20  22
ENDBRANCH  13  20
ENDBRANCH   8  10
ENDBRANCH   1   8
TORSDOF 7
ENDMDL
