MODEL 1
REMARK VINA RESULT:    -8.371      0.000      0.000
REMARK INTER + INTRA:         -12.664
REMARK INTER:                 -11.307
REMARK INTRA:                  -1.357
REMARK UNBOUND:                -1.357
REMARK SMILES CC(C)CCNc1nc(Nc2ccccc2Cl)c2cnn(C)c2n1
REMARK SMILES IDX 6 1 5 3 4 4 2 5 1 6 3 7 7 8 8 9 24 10 9 11 23 12 18 13 21 14
REMARK SMILES IDX 19 15 20 16 22 17 10 18 11 20 12 21 16 22 13 23 15 24 14 25
REMARK SMILES IDX 17 26
REMARK H PARENT 6 2 10 19
ROOT
ATOM      1  N   UNL     1       2.336  45.489  51.923  1.00  0.00    -0.354 N 
ATOM      2  H   UNL     1       1.896  45.919  51.116  1.00  0.00     0.163 HD
ENDROOT
BRANCH   1   3
ATOM      3  C   UNL     1       2.492  46.378  53.065  1.00  0.00     0.116 C 
BRANCH   3   4
ATOM      4  C   UNL     1       2.854  45.565  54.312  1.00  0.00     0.024 C 
BRANCH   4   5
ATOM      5  C   UNL     1       4.149  45.997  55.026  1.00  0.00    -0.016 C 
ATOM      6  C   UNL     1       4.628  47.377  54.577  1.00  0.00     0.007 C 
ATOM      7  C   UNL     1       5.270  44.968  54.877  1.00  0.00     0.007 C 
ENDBRANCH   4   5
ENDBRANCH   3   4
ENDBRANCH   1   3
BRANCH   1   8
ATOM      8  C   UNL     1       3.514  44.934  51.434  1.00  0.00     0.226 A 
ATOM      9  N   UNL     1       4.627  45.687  51.338  1.00  0.00    -0.195 NA
ATOM     10  N   UNL     1       3.411  43.645  51.084  1.00  0.00    -0.193 NA
ATOM     11  C   UNL     1       5.784  45.163  50.848  1.00  0.00     0.147 A 
ATOM     12  C   UNL     1       4.556  43.145  50.599  1.00  0.00     0.165 A 
ATOM     13  C   UNL     1       5.749  43.821  50.447  1.00  0.00     0.082 A 
ATOM     14  N   UNL     1       4.782  41.871  50.153  1.00  0.00    -0.250 N 
ATOM     15  C   UNL     1       6.626  42.862  49.899  1.00  0.00     0.149 A 
ATOM     16  N   UNL     1       6.046  41.672  49.710  1.00  0.00    -0.179 NA
ATOM     17  C   UNL     1       3.838  40.784  50.118  1.00  0.00     0.176 C 
BRANCH  11  18
ATOM     18  N   UNL     1       6.950  45.926  50.710  1.00  0.00    -0.338 N 
ATOM     19  H   UNL     1       7.121  46.267  49.772  1.00  0.00     0.168 HD
BRANCH  18  20
ATOM     20  C   UNL     1       7.932  46.347  51.629  1.00  0.00     0.058 A 
ATOM     21  C   UNL     1       7.666  47.234  52.676  1.00  0.00     0.027 A 
ATOM     22  C   UNL     1       9.259  45.884  51.495  1.00  0.00     0.064 A 
ATOM     23  C   UNL     1       8.674  47.645  53.557  1.00  0.00     0.002 A 
ATOM     24  C   UNL     1      10.271  46.293  52.371  1.00  0.00     0.023 A 
ATOM     25  C   UNL     1       9.975  47.177  53.404  1.00  0.00     0.002 A 
ATOM     26  Cl  UNL     1       9.680  44.777  50.228  1.00  0.00    -0.082 Cl
ENDBRANCH  18  20
ENDBRANCH  11  18
ENDBRANCH   1   8
TORSDOF 6
ENDMDL
MODEL 2
REMARK VINA RESULT:    -8.361      1.992      5.217
REMARK INTER + INTRA:         -12.650
REMARK INTER:                 -11.632
REMARK INTRA:                  -1.018
REMARK UNBOUND:                -1.357
REMARK SMILES CC(C)CCNc1nc(Nc2ccccc2Cl)c2cnn(C)c2n1
REMARK SMILES IDX 6 1 5 3 4 4 2 5 1 6 3 7 7 8 8 9 24 10 9 11 23 12 18 13 21 14
REMARK SMILES IDX 19 15 20 16 22 17 10 18 11 20 12 21 16 22 13 23 15 24 14 25
REMARK SMILES IDX 17 26
REMARK H PARENT 6 2 10 19
ROOT
ATOM      1  N   UNL     1       4.514  46.979  54.975  1.00  0.00    -0.354 N 
ATOM      2  H   UNL     1       4.867  47.643  55.656  1.00  0.00     0.163 HD
ENDROOT
BRANCH   1   3
ATOM      3  C   UNL     1       3.914  45.787  55.556  1.00  0.00     0.116 C 
BRANCH   3   4
ATOM      4  C   UNL     1       2.448  45.679  55.126  1.00  0.00     0.024 C 
BRANCH   4   5
ATOM      5  C   UNL     1       2.207  44.988  53.771  1.00  0.00    -0.016 C 
ATOM      6  C   UNL     1       1.688  45.956  52.708  1.00  0.00     0.007 C 
ATOM      7  C   UNL     1       1.281  43.778  53.887  1.00  0.00     0.007 C 
ENDBRANCH   4   5
ENDBRANCH   3   4
ENDBRANCH   1   3
BRANCH   1   8
ATOM      8  C   UNL     1       5.581  46.751  54.111  1.00  0.00     0.226 A 
ATOM      9  N   UNL     1       5.377  46.125  52.936  1.00  0.00    -0.195 NA
ATOM     10  N   UNL     1       6.760  47.193  54.567  1.00  0.00    -0.193 NA
ATOM     11  C   UNL     1       6.413  45.881  52.087  1.00  0.00     0.147 A 
ATOM     12  C   UNL     1       7.770  46.941  53.723  1.00  0.00     0.165 A 
ATOM     13  C   UNL     1       7.682  46.303  52.502  1.00  0.00     0.082 A 
ATOM     14  N   UNL     1       9.091  47.258  53.890  1.00  0.00    -0.250 N 
ATOM     15  C   UNL     1       9.008  46.286  52.021  1.00  0.00     0.149 A 
ATOM     16  N   UNL     1       9.876  46.860  52.862  1.00  0.00    -0.179 NA
ATOM     17  C   UNL     1       9.683  47.943  55.011  1.00  0.00     0.176 C 
BRANCH  11  18
ATOM     18  N   UNL     1       6.238  45.209  50.871  1.00  0.00    -0.338 N 
ATOM     19  H   UNL     1       6.487  45.751  50.052  1.00  0.00     0.168 HD
BRANCH  18  20
ATOM     20  C   UNL     1       5.809  43.906  50.550  1.00  0.00     0.058 A 
ATOM     21  C   UNL     1       4.633  43.345  51.056  1.00  0.00     0.027 A 
ATOM     22  C   UNL     1       6.597  43.100  49.699  1.00  0.00     0.064 A 
ATOM     23  C   UNL     1       4.250  42.038  50.730  1.00  0.00     0.002 A 
ATOM     24  C   UNL     1       6.220  41.793  49.372  1.00  0.00     0.023 A 
ATOM     25  C   UNL     1       5.043  41.262  49.891  1.00  0.00     0.002 A 
ATOM     26  Cl  UNL     1       8.070  43.715  49.022  1.00  0.00    -0.082 Cl
ENDBRANCH  18  20
ENDBRANCH  11  18
ENDBRANCH   1   8
TORSDOF 6
ENDMDL
MODEL 3
REMARK VINA RESULT:    -8.319      1.979      2.451
REMARK INTER + INTRA:         -12.594
REMARK INTER:                 -11.705
REMARK INTRA:                  -0.890
REMARK UNBOUND:                -1.357
REMARK SMILES CC(C)CCNc1nc(Nc2ccccc2Cl)c2cnn(C)c2n1
REMARK SMILES IDX 6 1 5 3 4 4 2 5 1 6 3 7 7 8 8 9 24 10 9 11 23 12 18 13 21 14
REMARK SMILES IDX 19 15 20 16 22 17 10 18 11 20 12 21 16 22 13 23 15 24 14 25
REMARK SMILES IDX 17 26
REMARK H PARENT 6 2 10 19
ROOT
ATOM      1  N   UNL     1       2.827  43.032  53.064  1.00  0.00    -0.354 N 
ATOM      2  H   UNL     1       2.585  42.102  52.736  1.00  0.00     0.163 HD
ENDROOT
BRANCH   1   3
ATOM      3  C   UNL     1       1.713  43.968  53.085  1.00  0.00     0.116 C 
BRANCH   3   4
ATOM      4  C   UNL     1       1.105  44.022  54.490  1.00  0.00     0.024 C 
BRANCH   4   5
ATOM      5  C   UNL     1       1.342  45.336  55.259  1.00  0.00    -0.016 C 
ATOM      6  C   UNL     1       2.828  45.649  55.433  1.00  0.00     0.007 C 
ATOM      7  C   UNL     1       0.632  45.358  56.613  1.00  0.00     0.007 C 
ENDBRANCH   4   5
ENDBRANCH   3   4
ENDBRANCH   1   3
BRANCH   1   8
ATOM      8  C   UNL     1       3.914  43.415  52.286  1.00  0.00     0.226 A 
ATOM      9  N   UNL     1       4.541  44.583  52.528  1.00  0.00    -0.195 NA
ATOM     10  N   UNL     1       4.235  42.541  51.322  1.00  0.00    -0.193 NA
ATOM     11  C   UNL     1       5.597  44.979  51.766  1.00  0.00     0.147 A 
ATOM     12  C   UNL     1       5.273  42.947  50.578  1.00  0.00     0.165 A 
ATOM     13  C   UNL     1       5.982  44.121  50.727  1.00  0.00     0.082 A 
ATOM     14  N   UNL     1       5.843  42.292  49.520  1.00  0.00    -0.250 N 
ATOM     15  C   UNL     1       6.954  44.074  49.706  1.00  0.00     0.149 A 
ATOM     16  N   UNL     1       6.875  42.966  48.961  1.00  0.00    -0.179 NA
ATOM     17  C   UNL     1       5.455  41.014  48.981  1.00  0.00     0.176 C 
BRANCH  11  18
ATOM     18  N   UNL     1       6.252  46.198  51.975  1.00  0.00    -0.338 N 
ATOM     19  H   UNL     1       5.721  47.014  51.693  1.00  0.00     0.168 HD
BRANCH  18  20
ATOM     20  C   UNL     1       7.504  46.530  52.531  1.00  0.00     0.058 A 
ATOM     21  C   UNL     1       8.695  46.501  51.799  1.00  0.00     0.027 A 
ATOM     22  C   UNL     1       7.590  46.890  53.894  1.00  0.00     0.064 A 
ATOM     23  C   UNL     1       9.922  46.818  52.393  1.00  0.00     0.002 A 
ATOM     24  C   UNL     1       8.815  47.206  54.492  1.00  0.00     0.023 A 
ATOM     25  C   UNL     1       9.983  47.168  53.738  1.00  0.00     0.002 A 
ATOM     26  Cl  UNL     1       6.164  46.957  54.877  1.00  0.00    -0.082 Cl
ENDBRANCH  18  20
ENDBRANCH  11  18
ENDBRANCH   1   8
TORSDOF 6
ENDMDL
MODEL 4
REMARK VINA RESULT:    -8.280      2.311      5.277
REMARK INTER + INTRA:         -12.541
REMARK INTER:                 -12.018
REMARK INTRA:                  -0.523
REMARK UNBOUND:                -1.357
REMARK SMILES CC(C)CCNc1nc(Nc2ccccc2Cl)c2cnn(C)c2n1
REMARK SMILES IDX 6 1 5 3 4 4 2 5 1 6 3 7 7 8 8 9 24 10 9 11 23 12 18 13 21 14
REMARK SMILES IDX 19 15 20 16 22 17 10 18 11 20 12 21 16 22 13 23 15 24 14 25
REMARK SMILES IDX 17 26
REMARK H PARENT 6 2 10 19
ROOT
ATOM      1  N   UNL     1       5.801  47.194  54.859  1.00  0.00    -0.354 N 
ATOM      2  H   UNL     1       5.535  48.082  54.446  1.00  0.00     0.163 HD
ENDROOT
BRANCH   1   3
ATOM      3  C   UNL     1       7.190  46.822  54.634  1.00  0.00     0.116 C 
BRANCH   3   4
ATOM      4  C   UNL     1       7.708  47.490  53.357  1.00  0.00     0.024 C 
BRANCH   4   5
ATOM      5  C   UNL     1       9.241  47.514  53.202  1.00  0.00    -0.016 C 
ATOM      6  C   UNL     1       9.729  46.567  52.105  1.00  0.00     0.007 C 
ATOM      7  C   UNL     1       9.967  47.226  54.515  1.00  0.00     0.007 C 
ENDBRANCH   4   5
ENDBRANCH   3   4
ENDBRANCH   1   3
BRANCH   1   8
ATOM      8  C   UNL     1       4.856  46.286  54.392  1.00  0.00     0.226 A 
ATOM      9  N   UNL     1       5.072  45.617  53.243  1.00  0.00    -0.195 NA
ATOM     10  N   UNL     1       3.772  46.172  55.171  1.00  0.00    -0.193 NA
ATOM     11  C   UNL     1       4.151  44.736  52.765  1.00  0.00     0.147 A 
ATOM     12  C   UNL     1       2.873  45.305  54.685  1.00  0.00     0.165 A 
ATOM     13  C   UNL     1       2.982  44.574  53.520  1.00  0.00     0.082 A 
ATOM     14  N   UNL     1       1.667  44.965  55.234  1.00  0.00    -0.250 N 
ATOM     15  C   UNL     1       1.785  43.830  53.461  1.00  0.00     0.149 A 
ATOM     16  N   UNL     1       0.973  44.065  54.498  1.00  0.00    -0.179 NA
ATOM     17  C   UNL     1       1.103  45.461  56.464  1.00  0.00     0.176 C 
BRANCH  11  18
ATOM     18  N   UNL     1       4.333  44.046  51.561  1.00  0.00    -0.338 N 
ATOM     19  H   UNL     1       3.481  43.676  51.155  1.00  0.00     0.168 HD
BRANCH  18  20
ATOM     20  C   UNL     1       5.470  43.782  50.771  1.00  0.00     0.058 A 
ATOM     21  C   UNL     1       6.435  44.750  50.476  1.00  0.00     0.027 A 
ATOM     22  C   UNL     1       5.657  42.495  50.222  1.00  0.00     0.064 A 
ATOM     23  C   UNL     1       7.541  44.455  49.671  1.00  0.00     0.002 A 
ATOM     24  C   UNL     1       6.760  42.195  49.415  1.00  0.00     0.023 A 
ATOM     25  C   UNL     1       7.703  43.180  49.140  1.00  0.00     0.002 A 
ATOM     26  Cl  UNL     1       4.514  41.230  50.538  1.00  0.00    -0.082 Cl
ENDBRANCH  18  20
ENDBRANCH  11  18
ENDBRANCH   1   8
TORSDOF 6
ENDMDL
MODEL 5
REMARK VINA RESULT:    -8.263      2.155      5.027
REMARK INTER + INTRA:         -12.519
REMARK INTER:                 -11.728
REMARK INTRA:                  -0.791
REMARK UNBOUND:                -1.357
REMARK SMILES CC(C)CCNc1nc(Nc2ccccc2Cl)c2cnn(C)c2n1
REMARK SMILES IDX 6 1 5 3 4 4 2 5 1 6 3 7 7 8 8 9 24 10 9 11 23 12 18 13 21 14
REMARK SMILES IDX 19 15 20 16 22 17 10 18 11 20 12 21 16 22 13 23 15 24 14 25
REMARK SMILES IDX 17 26
REMARK H PARENT 6 2 10 19
ROOT
ATOM      1  N   UNL     1       6.034  41.391  49.358  1.00  0.00    -0.354 N 
ATOM      2  H   UNL     1       7.021  41.499  49.147  1.00  0.00     0.163 HD
ENDROOT
BRANCH   1   3
ATOM      3  C   UNL     1       5.194  41.162  48.191  1.00  0.00     0.116 C 
BRANCH   3   4
ATOM      4  C   UNL     1       5.772  41.903  46.980  1.00  0.00     0.024 C 
BRANCH   4   5
ATOM      5  C   UNL     1       5.200  41.478  45.614  1.00  0.00    -0.016 C 
ATOM      6  C   UNL     1       5.109  42.647  44.633  1.00  0.00     0.007 C 
ATOM      7  C   UNL     1       3.847  40.779  45.738  1.00  0.00     0.007 C 
ENDBRANCH   4   5
ENDBRANCH   3   4
ENDBRANCH   1   3
BRANCH   1   8
ATOM      8  C   UNL     1       5.706  42.509  50.118  1.00  0.00     0.226 A 
ATOM      9  N   UNL     1       6.501  43.597  50.098  1.00  0.00    -0.195 NA
ATOM     10  N   UNL     1       4.583  42.376  50.834  1.00  0.00    -0.193 NA
ATOM     11  C   UNL     1       6.202  44.693  50.847  1.00  0.00     0.147 A 
ATOM     12  C   UNL     1       4.305  43.461  51.571  1.00  0.00     0.165 A 
ATOM     13  C   UNL     1       5.047  44.623  51.635  1.00  0.00     0.082 A 
ATOM     14  N   UNL     1       3.239  43.645  52.409  1.00  0.00    -0.250 N 
ATOM     15  C   UNL     1       4.340  45.438  52.544  1.00  0.00     0.149 A 
ATOM     16  N   UNL     1       3.239  44.850  53.026  1.00  0.00    -0.179 NA
ATOM     17  C   UNL     1       2.174  42.712  52.675  1.00  0.00     0.176 C 
BRANCH  11  18
ATOM     18  N   UNL     1       7.022  45.829  50.868  1.00  0.00    -0.338 N 
ATOM     19  H   UNL     1       6.910  46.443  50.070  1.00  0.00     0.168 HD
BRANCH  18  20
ATOM     20  C   UNL     1       7.962  46.313  51.799  1.00  0.00     0.058 A 
ATOM     21  C   UNL     1       7.621  47.165  52.854  1.00  0.00     0.027 A 
ATOM     22  C   UNL     1       9.322  45.955  51.671  1.00  0.00     0.064 A 
ATOM     23  C   UNL     1       8.588  47.642  53.747  1.00  0.00     0.002 A 
ATOM     24  C   UNL     1      10.292  46.431  52.560  1.00  0.00     0.023 A 
ATOM     25  C   UNL     1       9.922  47.277  53.600  1.00  0.00     0.002 A 
ATOM     26  Cl  UNL     1       9.836  44.899  50.395  1.00  0.00    -0.082 Cl
ENDBRANCH  18  20
ENDBRANCH  11  18
ENDBRANCH   1   8
TORSDOF 6
ENDMDL
MODEL 6
REMARK VINA RESULT:    -8.237      1.634      4.587
REMARK INTER + INTRA:         -12.484
REMARK INTER:                 -11.473
REMARK INTRA:                  -1.010
REMARK UNBOUND:                -1.357
REMARK SMILES CC(C)CCNc1nc(Nc2ccccc2Cl)c2cnn(C)c2n1
REMARK SMILES IDX 6 1 5 3 4 4 2 5 1 6 3 7 7 8 8 9 24 10 9 11 23 12 18 13 21 14
REMARK SMILES IDX 19 15 20 16 22 17 10 18 11 20 12 21 16 22 13 23 15 24 14 25
REMARK SMILES IDX 17 26
REMARK H PARENT 6 2 10 19
ROOT
ATOM      1  N   UNL     1       3.189  42.576  51.151  1.00  0.00    -0.354 N 
ATOM      2  H   UNL     1       2.332  42.270  51.600  1.00  0.00     0.163 HD
ENDROOT
BRANCH   1   3
ATOM      3  C   UNL     1       4.188  41.529  50.994  1.00  0.00     0.116 C 
BRANCH   3   4
ATOM      4  C   UNL     1       4.315  41.147  49.516  1.00  0.00     0.024 C 
BRANCH   4   5
ATOM      5  C   UNL     1       5.747  41.171  48.950  1.00  0.00    -0.016 C 
ATOM      6  C   UNL     1       6.789  41.502  50.018  1.00  0.00     0.007 C 
ATOM      7  C   UNL     1       5.889  42.116  47.757  1.00  0.00     0.007 C 
ENDBRANCH   4   5
ENDBRANCH   3   4
ENDBRANCH   1   3
BRANCH   1   8
ATOM      8  C   UNL     1       3.599  43.687  51.880  1.00  0.00     0.226 A 
ATOM      9  N   UNL     1       4.586  44.476  51.413  1.00  0.00    -0.195 NA
ATOM     10  N   UNL     1       2.940  43.860  53.034  1.00  0.00    -0.193 NA
ATOM     11  C   UNL     1       5.008  45.559  52.122  1.00  0.00     0.147 A 
ATOM     12  C   UNL     1       3.370  44.927  53.722  1.00  0.00     0.165 A 
ATOM     13  C   UNL     1       4.374  45.797  53.348  1.00  0.00     0.082 A 
ATOM     14  N   UNL     1       2.911  45.375  54.931  1.00  0.00    -0.250 N 
ATOM     15  C   UNL     1       4.440  46.729  54.405  1.00  0.00     0.149 A 
ATOM     16  N   UNL     1       3.557  46.478  55.377  1.00  0.00    -0.179 NA
ATOM     17  C   UNL     1       1.856  44.801  55.725  1.00  0.00     0.176 C 
BRANCH  11  18
ATOM     18  N   UNL     1       6.049  46.383  51.676  1.00  0.00    -0.338 N 
ATOM     19  H   UNL     1       5.789  47.026  50.938  1.00  0.00     0.168 HD
BRANCH  18  20
ATOM     20  C   UNL     1       7.395  46.521  52.070  1.00  0.00     0.058 A 
ATOM     21  C   UNL     1       7.792  47.281  53.174  1.00  0.00     0.027 A 
ATOM     22  C   UNL     1       8.412  45.891  51.319  1.00  0.00     0.064 A 
ATOM     23  C   UNL     1       9.142  47.411  53.522  1.00  0.00     0.002 A 
ATOM     24  C   UNL     1       9.762  46.020  51.661  1.00  0.00     0.023 A 
ATOM     25  C   UNL     1      10.126  46.783  52.765  1.00  0.00     0.002 A 
ATOM     26  Cl  UNL     1       8.012  44.925  49.936  1.00  0.00    -0.082 Cl
ENDBRANCH  18  20
ENDBRANCH  11  18
ENDBRANCH   1   8
TORSDOF 6
ENDMDL
MODEL 7
REMARK VINA RESULT:    -8.137      2.022      5.596
REMARK INTER + INTRA:         -12.347
REMARK INTER:                 -11.561
REMARK INTRA:                  -0.786
REMARK UNBOUND:                -1.357
REMARK SMILES CC(C)CCNc1nc(Nc2ccccc2Cl)c2cnn(C)c2n1
REMARK SMILES IDX 6 1 5 3 4 4 2 5 1 6 3 7 7 8 8 9 24 10 9 11 23 12 18 13 21 14
REMARK SMILES IDX 19 15 20 16 22 17 10 18 11 20 12 21 16 22 13 23 15 24 14 25
REMARK SMILES IDX 17 26
REMARK H PARENT 6 2 10 19
ROOT
ATOM      1  N   UNL     1       5.973  47.180  54.913  1.00  0.00    -0.354 N 
ATOM      2  H   UNL     1       5.769  48.118  54.584  1.00  0.00     0.163 HD
ENDROOT
BRANCH   1   3
ATOM      3  C   UNL     1       7.303  46.701  54.567  1.00  0.00     0.116 C 
BRANCH   3   4
ATOM      4  C   UNL     1       7.899  47.575  53.458  1.00  0.00     0.024 C 
BRANCH   4   5
ATOM      5  C   UNL     1       9.435  47.538  53.345  1.00  0.00    -0.016 C 
ATOM      6  C   UNL     1       9.916  46.542  52.290  1.00  0.00     0.007 C 
ATOM      7  C   UNL     1      10.114  47.263  54.686  1.00  0.00     0.007 C 
ENDBRANCH   4   5
ENDBRANCH   3   4
ENDBRANCH   1   3
BRANCH   1   8
ATOM      8  C   UNL     1       4.918  46.401  54.449  1.00  0.00     0.226 A 
ATOM      9  N   UNL     1       4.969  45.859  53.217  1.00  0.00    -0.195 NA
ATOM     10  N   UNL     1       3.907  46.273  55.318  1.00  0.00    -0.193 NA
ATOM     11  C   UNL     1       3.939  45.106  52.743  1.00  0.00     0.147 A 
ATOM     12  C   UNL     1       2.898  45.533  54.835  1.00  0.00     0.165 A 
ATOM     13  C   UNL     1       2.837  44.938  53.591  1.00  0.00     0.082 A 
ATOM     14  N   UNL     1       1.725  45.216  55.464  1.00  0.00    -0.250 N 
ATOM     15  C   UNL     1       1.584  44.292  53.575  1.00  0.00     0.149 A 
ATOM     16  N   UNL     1       0.895  44.459  54.709  1.00  0.00    -0.179 NA
ATOM     17  C   UNL     1       1.322  45.602  56.792  1.00  0.00     0.176 C 
BRANCH  11  18
ATOM     18  N   UNL     1       3.950  44.551  51.457  1.00  0.00    -0.338 N 
ATOM     19  H   UNL     1       3.324  45.001  50.800  1.00  0.00     0.168 HD
BRANCH  18  20
ATOM     20  C   UNL     1       4.685  43.499  50.875  1.00  0.00     0.058 A 
ATOM     21  C   UNL     1       4.216  42.184  50.814  1.00  0.00     0.027 A 
ATOM     22  C   UNL     1       5.967  43.753  50.340  1.00  0.00     0.064 A 
ATOM     23  C   UNL     1       4.984  41.161  50.245  1.00  0.00     0.002 A 
ATOM     24  C   UNL     1       6.741  42.735  49.773  1.00  0.00     0.023 A 
ATOM     25  C   UNL     1       6.246  41.435  49.727  1.00  0.00     0.002 A 
ATOM     26  Cl  UNL     1       6.629  45.356  50.368  1.00  0.00    -0.082 Cl
ENDBRANCH  18  20
ENDBRANCH  11  18
ENDBRANCH   1   8
TORSDOF 6
ENDMDL
MODEL 8
REMARK VINA RESULT:    -8.080      2.407      5.199
REMARK INTER + INTRA:         -12.271
REMARK INTER:                 -11.622
REMARK INTRA:                  -0.649
REMARK UNBOUND:                -1.357
REMARK SMILES CC(C)CCNc1nc(Nc2ccccc2Cl)c2cnn(C)c2n1
REMARK SMILES IDX 6 1 5 3 4 4 2 5 1 6 3 7 7 8 8 9 24 10 9 11 23 12 18 13 21 14
REMARK SMILES IDX 19 15 20 16 22 17 10 18 11 20 12 21 16 22 13 23 15 24 14 25
REMARK SMILES IDX 17 26
REMARK H PARENT 6 2 10 19
ROOT
ATOM      1  N   UNL     1       6.197  41.606  49.541  1.00  0.00    -0.354 N 
ATOM      2  H   UNL     1       7.144  41.888  49.312  1.00  0.00     0.163 HD
ENDROOT
BRANCH   1   3
ATOM      3  C   UNL     1       5.408  41.173  48.397  1.00  0.00     0.116 C 
BRANCH   3   4
ATOM      4  C   UNL     1       5.851  41.931  47.142  1.00  0.00     0.024 C 
BRANCH   4   5
ATOM      5  C   UNL     1       5.230  41.437  45.821  1.00  0.00    -0.016 C 
ATOM      6  C   UNL     1       5.133  42.547  44.774  1.00  0.00     0.007 C 
ATOM      7  C   UNL     1       3.867  40.777  46.026  1.00  0.00     0.007 C 
ENDBRANCH   4   5
ENDBRANCH   3   4
ENDBRANCH   1   3
BRANCH   1   8
ATOM      8  C   UNL     1       5.670  42.674  50.260  1.00  0.00     0.226 A 
ATOM      9  N   UNL     1       6.382  43.809  50.404  1.00  0.00    -0.195 NA
ATOM     10  N   UNL     1       4.450  42.448  50.765  1.00  0.00    -0.193 NA
ATOM     11  C   UNL     1       5.886  44.858  51.116  1.00  0.00     0.147 A 
ATOM     12  C   UNL     1       3.978  43.487  51.467  1.00  0.00     0.165 A 
ATOM     13  C   UNL     1       4.619  44.689  51.688  1.00  0.00     0.082 A 
ATOM     14  N   UNL     1       2.774  43.576  52.110  1.00  0.00    -0.250 N 
ATOM     15  C   UNL     1       3.714  45.427  52.478  1.00  0.00     0.149 A 
ATOM     16  N   UNL     1       2.588  44.757  52.746  1.00  0.00    -0.179 NA
ATOM     17  C   UNL     1       1.743  42.571  52.164  1.00  0.00     0.176 C 
BRANCH  11  18
ATOM     18  N   UNL     1       6.613  46.040  51.306  1.00  0.00    -0.338 N 
ATOM     19  H   UNL     1       6.233  46.848  50.828  1.00  0.00     0.168 HD
BRANCH  18  20
ATOM     20  C   UNL     1       7.763  46.345  52.061  1.00  0.00     0.058 A 
ATOM     21  C   UNL     1       9.062  46.174  51.574  1.00  0.00     0.027 A 
ATOM     22  C   UNL     1       7.625  46.827  53.382  1.00  0.00     0.064 A 
ATOM     23  C   UNL     1      10.181  46.471  52.362  1.00  0.00     0.002 A 
ATOM     24  C   UNL     1       8.740  47.122  54.174  1.00  0.00     0.023 A 
ATOM     25  C   UNL     1      10.020  46.942  53.661  1.00  0.00     0.002 A 
ATOM     26  Cl  UNL     1       6.052  47.074  54.067  1.00  0.00    -0.082 Cl
ENDBRANCH  18  20
ENDBRANCH  11  18
ENDBRANCH   1   8
TORSDOF 6
ENDMDL
MODEL 9
REMARK VINA RESULT:    -8.055      2.628      6.190
REMARK INTER + INTRA:         -12.237
REMARK INTER:                 -11.561
REMARK INTRA:                  -0.676
REMARK UNBOUND:                -1.357
REMARK SMILES CC(C)CCNc1nc(Nc2ccccc2Cl)c2cnn(C)c2n1
REMARK SMILES IDX 6 1 5 3 4 4 2 5 1 6 3 7 7 8 8 9 24 10 9 11 23 12 18 13 21 14
REMARK SMILES IDX 19 15 20 16 22 17 10 18 11 20 12 21 16 22 13 23 15 24 14 25
REMARK SMILES IDX 17 26
REMARK H PARENT 6 2 10 19
ROOT
ATOM      1  N   UNL     1       7.358  45.929  50.925  1.00  0.00    -0.354 N 
ATOM      2  H   UNL     1       8.265  45.478  50.982  1.00  0.00     0.163 HD
ENDROOT
BRANCH   1   3
ATOM      3  C   UNL     1       7.172  47.022  51.867  1.00  0.00     0.116 C 
BRANCH   3   4
ATOM      4  C   UNL     1       8.533  47.602  52.266  1.00  0.00     0.024 C 
BRANCH   4   5
ATOM      5  C   UNL     1       9.507  46.605  52.922  1.00  0.00    -0.016 C 
ATOM      6  C   UNL     1      10.112  47.149  54.216  1.00  0.00     0.007 C 
ATOM      7  C   UNL     1      10.611  46.152  51.967  1.00  0.00     0.007 C 
ENDBRANCH   4   5
ENDBRANCH   3   4
ENDBRANCH   1   3
BRANCH   1   8
ATOM      8  C   UNL     1       6.436  44.892  51.024  1.00  0.00     0.226 A 
ATOM      9  N   UNL     1       6.536  43.819  50.216  1.00  0.00    -0.195 NA
ATOM     10  N   UNL     1       5.492  45.084  51.955  1.00  0.00    -0.193 NA
ATOM     11  C   UNL     1       5.633  42.802  50.291  1.00  0.00     0.147 A 
ATOM     12  C   UNL     1       4.608  44.077  52.013  1.00  0.00     0.165 A 
ATOM     13  C   UNL     1       4.607  42.939  51.234  1.00  0.00     0.082 A 
ATOM     14  N   UNL     1       3.529  43.967  52.848  1.00  0.00    -0.250 N 
ATOM     15  C   UNL     1       3.482  42.213  51.679  1.00  0.00     0.149 A 
ATOM     16  N   UNL     1       2.815  42.833  52.659  1.00  0.00    -0.179 NA
ATOM     17  C   UNL     1       3.113  44.909  53.855  1.00  0.00     0.176 C 
BRANCH  11  18
ATOM     18  N   UNL     1       5.695  41.686  49.447  1.00  0.00    -0.338 N 
ATOM     19  H   UNL     1       6.133  40.871  49.860  1.00  0.00     0.168 HD
BRANCH  18  20
ATOM     20  C   UNL     1       5.239  41.453  48.134  1.00  0.00     0.058 A 
ATOM     21  C   UNL     1       5.846  42.013  47.006  1.00  0.00     0.027 A 
ATOM     22  C   UNL     1       4.107  40.636  47.922  1.00  0.00     0.064 A 
ATOM     23  C   UNL     1       5.352  41.773  45.719  1.00  0.00     0.002 A 
ATOM     24  C   UNL     1       3.607  40.396  46.637  1.00  0.00     0.023 A 
ATOM     25  C   UNL     1       4.233  40.967  45.534  1.00  0.00     0.002 A 
ATOM     26  Cl  UNL     1       3.293  39.896  49.262  1.00  0.00    -0.082 Cl
ENDBRANCH  18  20
ENDBRANCH  11  18
ENDBRANCH   1   8
TORSDOF 6
ENDMDL
MODEL 10
REMARK VINA RESULT:    -8.035      2.866      6.187
REMARK INTER + INTRA:         -12.210
REMARK INTER:                 -11.461
REMARK INTRA:                  -0.748
REMARK UNBOUND:                -1.357
REMARK SMILES CC(C)CCNc1nc(Nc2ccccc2Cl)c2cnn(C)c2n1
REMARK SMILES IDX 6 1 5 3 4 4 2 5 1 6 3 7 7 8 8 9 24 10 9 11 23 12 18 13 21 14
REMARK SMILES IDX 19 15 20 16 22 17 10 18 11 20 12 21 16 22 13 23 15 24 14 25
REMARK SMILES IDX 17 26
REMARK H PARENT 6 2 10 19
ROOT
ATOM      1  N   UNL     1       5.838  46.684  52.428  1.00  0.00    -0.354 N 
ATOM      2  H   UNL     1       5.854  47.191  51.549  1.00  0.00     0.163 HD
ENDROOT
BRANCH   1   3
ATOM      3  C   UNL     1       7.083  46.749  53.179  1.00  0.00     0.116 C 
BRANCH   3   4
ATOM      4  C   UNL     1       8.092  47.632  52.437  1.00  0.00     0.024 C 
BRANCH   4   5
ATOM      5  C   UNL     1       9.574  47.320  52.722  1.00  0.00    -0.016 C 
ATOM      6  C   UNL     1      10.073  46.103  51.942  1.00  0.00     0.007 C 
ATOM      7  C   UNL     1       9.860  47.150  54.214  1.00  0.00     0.007 C 
ENDBRANCH   4   5
ENDBRANCH   3   4
ENDBRANCH   1   3
BRANCH   1   8
ATOM      8  C   UNL     1       5.407  45.404  52.096  1.00  0.00     0.226 A 
ATOM      9  N   UNL     1       4.385  44.839  52.768  1.00  0.00    -0.195 NA
ATOM     10  N   UNL     1       6.095  44.835  51.097  1.00  0.00    -0.193 NA
ATOM     11  C   UNL     1       3.961  43.582  52.465  1.00  0.00     0.147 A 
ATOM     12  C   UNL     1       5.669  43.596  50.814  1.00  0.00     0.165 A 
ATOM     13  C   UNL     1       4.643  42.917  51.438  1.00  0.00     0.082 A 
ATOM     14  N   UNL     1       6.158  42.749  49.857  1.00  0.00    -0.250 N 
ATOM     15  C   UNL     1       4.601  41.669  50.782  1.00  0.00     0.149 A 
ATOM     16  N   UNL     1       5.524  41.554  49.820  1.00  0.00    -0.179 NA
ATOM     17  C   UNL     1       7.235  43.010  48.936  1.00  0.00     0.176 C 
BRANCH  11  18
ATOM     18  N   UNL     1       2.920  42.957  53.162  1.00  0.00    -0.338 N 
ATOM     19  H   UNL     1       3.215  42.202  53.770  1.00  0.00     0.168 HD
BRANCH  18  20
ATOM     20  C   UNL     1       1.530  43.186  53.214  1.00  0.00     0.058 A 
ATOM     21  C   UNL     1       0.634  42.649  52.284  1.00  0.00     0.027 A 
ATOM     22  C   UNL     1       0.994  44.008  54.229  1.00  0.00     0.064 A 
ATOM     23  C   UNL     1      -0.738  42.915  52.357  1.00  0.00     0.002 A 
ATOM     24  C   UNL     1      -0.377  44.279  54.305  1.00  0.00     0.023 A 
ATOM     25  C   UNL     1      -1.243  43.730  53.365  1.00  0.00     0.002 A 
ATOM     26  Cl  UNL     1       2.029  44.712  55.428  1.00  0.00    -0.082 Cl
ENDBRANCH  18  20
ENDBRANCH  11  18
ENDBRANCH   1   8
TORSDOF 6
ENDMDL
MODEL 11
REMARK VINA RESULT:    -8.008      2.878      6.134
REMARK INTER + INTRA:         -12.174
REMARK INTER:                 -11.730
REMARK INTRA:                  -0.444
REMARK UNBOUND:                -1.357
REMARK SMILES CC(C)CCNc1nc(Nc2ccccc2Cl)c2cnn(C)c2n1
REMARK SMILES IDX 6 1 5 3 4 4 2 5 1 6 3 7 7 8 8 9 24 10 9 11 23 12 18 13 21 14
REMARK SMILES IDX 19 15 20 16 22 17 10 18 11 20 12 21 16 22 13 23 15 24 14 25
REMARK SMILES IDX 17 26
REMARK H PARENT 6 2 10 19
ROOT
ATOM      1  N   UNL     1       5.762  46.767  52.789  1.00  0.00    -0.354 N 
ATOM      2  H   UNL     1       5.673  47.343  51.958  1.00  0.00     0.163 HD
ENDROOT
BRANCH   1   3
ATOM      3  C   UNL     1       7.103  46.735  53.355  1.00  0.00     0.116 C 
BRANCH   3   4
ATOM      4  C   UNL     1       8.054  47.564  52.486  1.00  0.00     0.024 C 
BRANCH   4   5
ATOM      5  C   UNL     1       9.554  47.356  52.769  1.00  0.00    -0.016 C 
ATOM      6  C   UNL     1      10.147  46.211  51.947  1.00  0.00     0.007 C 
ATOM      7  C   UNL     1       9.847  47.152  54.255  1.00  0.00     0.007 C 
ENDBRANCH   4   5
ENDBRANCH   3   4
ENDBRANCH   1   3
BRANCH   1   8
ATOM      8  C   UNL     1       5.238  45.531  52.426  1.00  0.00     0.226 A 
ATOM      9  N   UNL     1       4.159  45.039  53.066  1.00  0.00    -0.195 NA
ATOM     10  N   UNL     1       5.899  44.924  51.432  1.00  0.00    -0.193 NA
ATOM     11  C   UNL     1       3.643  43.825  52.732  1.00  0.00     0.147 A 
ATOM     12  C   UNL     1       5.382  43.728  51.118  1.00  0.00     0.165 A 
ATOM     13  C   UNL     1       4.292  43.124  51.708  1.00  0.00     0.082 A 
ATOM     14  N   UNL     1       5.823  42.860  50.156  1.00  0.00    -0.250 N 
ATOM     15  C   UNL     1       4.165  41.894  51.030  1.00  0.00     0.149 A 
ATOM     16  N   UNL     1       5.097  41.720  50.085  1.00  0.00    -0.179 NA
ATOM     17  C   UNL     1       6.937  43.048  49.263  1.00  0.00     0.176 C 
BRANCH  11  18
ATOM     18  N   UNL     1       2.540  43.275  53.397  1.00  0.00    -0.338 N 
ATOM     19  H   UNL     1       2.490  42.263  53.362  1.00  0.00     0.168 HD
BRANCH  18  20
ATOM     20  C   UNL     1       1.486  43.846  54.138  1.00  0.00     0.058 A 
ATOM     21  C   UNL     1       1.693  44.751  55.183  1.00  0.00     0.027 A 
ATOM     22  C   UNL     1       0.151  43.489  53.845  1.00  0.00     0.064 A 
ATOM     23  C   UNL     1       0.620  45.282  55.910  1.00  0.00     0.002 A 
ATOM     24  C   UNL     1      -0.924  44.015  54.570  1.00  0.00     0.023 A 
ATOM     25  C   UNL     1      -0.686  44.914  55.605  1.00  0.00     0.002 A 
ATOM     26  Cl  UNL     1      -0.200  42.377  52.561  1.00  0.00    -0.082 Cl
ENDBRANCH  18  20
ENDBRANCH  11  18
ENDBRANCH   1   8
TORSDOF 6
ENDMDL
MODEL 12
REMARK VINA RESULT:    -7.974      2.013      4.682
REMARK INTER + INTRA:         -12.128
REMARK INTER:                 -11.454
REMARK INTRA:                  -0.674
REMARK UNBOUND:                -1.357
REMARK SMILES CC(C)CCNc1nc(Nc2ccccc2Cl)c2cnn(C)c2n1
REMARK SMILES IDX 6 1 5 3 4 4 2 5 1 6 3 7 7 8 8 9 24 10 9 11 23 12 18 13 21 14
REMARK SMILES IDX 19 15 20 16 22 17 10 18 11 20 12 21 16 22 13 23 15 24 14 25
REMARK SMILES IDX 17 26
REMARK H PARENT 6 2 10 19
ROOT
ATOM      1  N   UNL     1       4.566  41.891  51.670  1.00  0.00    -0.354 N 
ATOM      2  H   UNL     1       5.407  41.728  52.214  1.00  0.00     0.163 HD
ENDROOT
BRANCH   1   3
ATOM      3  C   UNL     1       4.629  41.390  50.305  1.00  0.00     0.116 C 
BRANCH   3   4
ATOM      4  C   UNL     1       6.066  41.486  49.782  1.00  0.00     0.024 C 
BRANCH   4   5
ATOM      5  C   UNL     1       6.324  42.621  48.772  1.00  0.00    -0.016 C 
ATOM      6  C   UNL     1       6.147  42.162  47.324  1.00  0.00     0.007 C 
ATOM      7  C   UNL     1       7.695  43.271  48.960  1.00  0.00     0.007 C 
ENDBRANCH   4   5
ENDBRANCH   3   4
ENDBRANCH   1   3
BRANCH   1   8
ATOM      8  C   UNL     1       4.319  43.255  51.795  1.00  0.00     0.226 A 
ATOM      9  N   UNL     1       5.313  44.143  51.600  1.00  0.00    -0.195 NA
ATOM     10  N   UNL     1       3.055  43.556  52.121  1.00  0.00    -0.193 NA
ATOM     11  C   UNL     1       5.090  45.479  51.733  1.00  0.00     0.147 A 
ATOM     12  C   UNL     1       2.853  44.874  52.252  1.00  0.00     0.165 A 
ATOM     13  C   UNL     1       3.793  45.871  52.086  1.00  0.00     0.082 A 
ATOM     14  N   UNL     1       1.684  45.507  52.578  1.00  0.00    -0.250 N 
ATOM     15  C   UNL     1       3.085  47.064  52.340  1.00  0.00     0.149 A 
ATOM     16  N   UNL     1       1.800  46.854  52.646  1.00  0.00    -0.179 NA
ATOM     17  C   UNL     1       0.409  44.890  52.842  1.00  0.00     0.176 C 
BRANCH  11  18
ATOM     18  N   UNL     1       6.108  46.425  51.563  1.00  0.00    -0.338 N 
ATOM     19  H   UNL     1       5.873  47.189  50.941  1.00  0.00     0.168 HD
BRANCH  18  20
ATOM     20  C   UNL     1       7.401  46.549  52.111  1.00  0.00     0.058 A 
ATOM     21  C   UNL     1       8.567  46.412  51.353  1.00  0.00     0.027 A 
ATOM     22  C   UNL     1       7.554  46.803  53.492  1.00  0.00     0.064 A 
ATOM     23  C   UNL     1       9.834  46.522  51.937  1.00  0.00     0.002 A 
ATOM     24  C   UNL     1       8.818  46.912  54.082  1.00  0.00     0.023 A 
ATOM     25  C   UNL     1       9.960  46.770  53.300  1.00  0.00     0.002 A 
ATOM     26  Cl  UNL     1       6.163  46.994  54.510  1.00  0.00    -0.082 Cl
ENDBRANCH  18  20
ENDBRANCH  11  18
ENDBRANCH   1   8
TORSDOF 6
ENDMDL
MODEL 13
REMARK VINA RESULT:    -7.875      2.044      5.376
REMARK INTER + INTRA:         -11.993
REMARK INTER:                 -11.172
REMARK INTRA:                  -0.821
REMARK UNBOUND:                -1.357
REMARK SMILES CC(C)CCNc1nc(Nc2ccccc2Cl)c2cnn(C)c2n1
REMARK SMILES IDX 6 1 5 3 4 4 2 5 1 6 3 7 7 8 8 9 24 10 9 11 23 12 18 13 21 14
REMARK SMILES IDX 19 15 20 16 22 17 10 18 11 20 12 21 16 22 13 23 15 24 14 25
REMARK SMILES IDX 17 26
REMARK H PARENT 6 2 10 19
ROOT
ATOM      1  N   UNL     1       8.038  46.253  50.661  1.00  0.00    -0.354 N 
ATOM      2  H   UNL     1       8.735  45.522  50.565  1.00  0.00     0.163 HD
ENDROOT
BRANCH   1   3
ATOM      3  C   UNL     1       8.400  47.306  51.598  1.00  0.00     0.116 C 
BRANCH   3   4
ATOM      4  C   UNL     1       9.592  46.858  52.449  1.00  0.00     0.024 C 
BRANCH   4   5
ATOM      5  C   UNL     1       9.281  46.608  53.938  1.00  0.00    -0.016 C 
ATOM      6  C   UNL     1       7.863  47.038  54.315  1.00  0.00     0.007 C 
ATOM      7  C   UNL     1      10.302  47.265  54.867  1.00  0.00     0.007 C 
ENDBRANCH   4   5
ENDBRANCH   3   4
ENDBRANCH   1   3
BRANCH   1   8
ATOM      8  C   UNL     1       6.853  45.582  50.946  1.00  0.00     0.226 A 
ATOM      9  N   UNL     1       5.864  46.210  51.612  1.00  0.00    -0.195 NA
ATOM     10  N   UNL     1       6.823  44.314  50.515  1.00  0.00    -0.193 NA
ATOM     11  C   UNL     1       4.705  45.562  51.911  1.00  0.00     0.147 A 
ATOM     12  C   UNL     1       5.677  43.689  50.822  1.00  0.00     0.165 A 
ATOM     13  C   UNL     1       4.605  44.226  51.504  1.00  0.00     0.082 A 
ATOM     14  N   UNL     1       5.333  42.397  50.529  1.00  0.00    -0.250 N 
ATOM     15  C   UNL     1       3.671  43.171  51.570  1.00  0.00     0.149 A 
ATOM     16  N   UNL     1       4.106  42.050  50.984  1.00  0.00    -0.179 NA
ATOM     17  C   UNL     1       6.125  41.428  49.817  1.00  0.00     0.176 C 
BRANCH  11  18
ATOM     18  N   UNL     1       3.669  46.178  52.625  1.00  0.00    -0.338 N 
ATOM     19  H   UNL     1       3.604  47.180  52.489  1.00  0.00     0.168 HD
BRANCH  18  20
ATOM     20  C   UNL     1       2.668  45.679  53.482  1.00  0.00     0.058 A 
ATOM     21  C   UNL     1       1.336  45.522  53.087  1.00  0.00     0.027 A 
ATOM     22  C   UNL     1       2.994  45.333  54.812  1.00  0.00     0.064 A 
ATOM     23  C   UNL     1       0.365  45.041  53.974  1.00  0.00     0.002 A 
ATOM     24  C   UNL     1       2.027  44.854  55.703  1.00  0.00     0.023 A 
ATOM     25  C   UNL     1       0.710  44.709  55.281  1.00  0.00     0.002 A 
ATOM     26  Cl  UNL     1       4.622  45.490  55.386  1.00  0.00    -0.082 Cl
ENDBRANCH  18  20
ENDBRANCH  11  18
ENDBRANCH   1   8
TORSDOF 6
ENDMDL
MODEL 14
REMARK VINA RESULT:    -7.828      2.277      5.332
REMARK INTER + INTRA:         -11.930
REMARK INTER:                 -10.904
REMARK INTRA:                  -1.026
REMARK UNBOUND:                -1.357
REMARK SMILES CC(C)CCNc1nc(Nc2ccccc2Cl)c2cnn(C)c2n1
REMARK SMILES IDX 6 1 5 3 4 4 2 5 1 6 3 7 7 8 8 9 24 10 9 11 23 12 18 13 21 14
REMARK SMILES IDX 19 15 20 16 22 17 10 18 11 20 12 21 16 22 13 23 15 24 14 25
REMARK SMILES IDX 17 26
REMARK H PARENT 6 2 10 19
ROOT
ATOM      1  N   UNL     1       8.059  46.308  50.591  1.00  0.00    -0.354 N 
ATOM      2  H   UNL     1       8.761  45.585  50.474  1.00  0.00     0.163 HD
ENDROOT
BRANCH   1   3
ATOM      3  C   UNL     1       8.400  47.319  51.580  1.00  0.00     0.116 C 
BRANCH   3   4
ATOM      4  C   UNL     1       9.588  46.844  52.423  1.00  0.00     0.024 C 
BRANCH   4   5
ATOM      5  C   UNL     1       9.279  46.584  53.910  1.00  0.00    -0.016 C 
ATOM      6  C   UNL     1       7.829  46.913  54.268  1.00  0.00     0.007 C 
ATOM      7  C   UNL     1      10.239  47.321  54.844  1.00  0.00     0.007 C 
ENDBRANCH   4   5
ENDBRANCH   3   4
ENDBRANCH   1   3
BRANCH   1   8
ATOM      8  C   UNL     1       6.873  45.620  50.826  1.00  0.00     0.226 A 
ATOM      9  N   UNL     1       5.837  46.242  51.422  1.00  0.00    -0.195 NA
ATOM     10  N   UNL     1       6.890  44.343  50.421  1.00  0.00    -0.193 NA
ATOM     11  C   UNL     1       4.675  45.578  51.671  1.00  0.00     0.147 A 
ATOM     12  C   UNL     1       5.741  43.702  50.678  1.00  0.00     0.165 A 
ATOM     13  C   UNL     1       4.622  44.232  51.288  1.00  0.00     0.082 A 
ATOM     14  N   UNL     1       5.437  42.398  50.396  1.00  0.00    -0.250 N 
ATOM     15  C   UNL     1       3.705  43.161  51.327  1.00  0.00     0.149 A 
ATOM     16  N   UNL     1       4.193  42.037  50.790  1.00  0.00    -0.179 NA
ATOM     17  C   UNL     1       6.286  41.430  49.750  1.00  0.00     0.176 C 
BRANCH  11  18
ATOM     18  N   UNL     1       3.590  46.189  52.313  1.00  0.00    -0.338 N 
ATOM     19  H   UNL     1       3.203  46.984  51.819  1.00  0.00     0.168 HD
BRANCH  18  20
ATOM     20  C   UNL     1       2.899  45.902  53.507  1.00  0.00     0.058 A 
ATOM     21  C   UNL     1       3.486  46.009  54.772  1.00  0.00     0.027 A 
ATOM     22  C   UNL     1       1.558  45.463  53.451  1.00  0.00     0.064 A 
ATOM     23  C   UNL     1       2.773  45.696  55.935  1.00  0.00     0.002 A 
ATOM     24  C   UNL     1       0.842  45.146  54.611  1.00  0.00     0.023 A 
ATOM     25  C   UNL     1       1.453  45.263  55.855  1.00  0.00     0.002 A 
ATOM     26  Cl  UNL     1       0.749  45.304  51.926  1.00  0.00    -0.082 Cl
ENDBRANCH  18  20
ENDBRANCH  11  18
ENDBRANCH   1   8
TORSDOF 6
ENDMDL
MODEL 15
REMARK VINA RESULT:    -7.690      1.370      2.004
REMARK INTER + INTRA:         -11.745
REMARK INTER:                 -10.808
REMARK INTRA:                  -0.937
REMARK UNBOUND:                -1.357
REMARK SMILES CC(C)CCNc1nc(Nc2ccccc2Cl)c2cnn(C)c2n1
REMARK SMILES IDX 6 1 5 3 4 4 2 5 1 6 3 7 7 8 8 9 24 10 9 11 23 12 18 13 21 14
REMARK SMILES IDX 19 15 20 16 22 17 10 18 11 20 12 21 16 22 13 23 15 24 14 25
REMARK SMILES IDX 17 26
REMARK H PARENT 6 2 10 19
ROOT
ATOM      1  N   UNL     1       2.387  45.296  52.408  1.00  0.00    -0.354 N 
ATOM      2  H   UNL     1       2.145  46.140  51.900  1.00  0.00     0.163 HD
ENDROOT
BRANCH   1   3
ATOM      3  C   UNL     1       2.501  45.476  53.848  1.00  0.00     0.116 C 
BRANCH   3   4
ATOM      4  C   UNL     1       1.555  44.510  54.570  1.00  0.00     0.024 C 
BRANCH   4   5
ATOM      5  C   UNL     1       0.448  43.895  53.693  1.00  0.00    -0.016 C 
ATOM      6  C   UNL     1      -0.953  44.258  54.187  1.00  0.00     0.007 C 
ATOM      7  C   UNL     1       0.587  42.379  53.554  1.00  0.00     0.007 C 
ENDBRANCH   4   5
ENDBRANCH   3   4
ENDBRANCH   1   3
BRANCH   1   8
ATOM      8  C   UNL     1       3.528  44.813  51.775  1.00  0.00     0.226 A 
ATOM      9  N   UNL     1       4.616  45.597  51.652  1.00  0.00    -0.195 NA
ATOM     10  N   UNL     1       3.415  43.556  51.325  1.00  0.00    -0.193 NA
ATOM     11  C   UNL     1       5.735  45.144  51.023  1.00  0.00     0.147 A 
ATOM     12  C   UNL     1       4.523  43.126  50.704  1.00  0.00     0.165 A 
ATOM     13  C   UNL     1       5.687  43.841  50.512  1.00  0.00     0.082 A 
ATOM     14  N   UNL     1       4.731  41.900  50.132  1.00  0.00    -0.250 N 
ATOM     15  C   UNL     1       6.529  42.953  49.810  1.00  0.00     0.149 A 
ATOM     16  N   UNL     1       5.955  41.769  49.569  1.00  0.00    -0.179 NA
ATOM     17  C   UNL     1       3.804  40.798  50.082  1.00  0.00     0.176 C 
BRANCH  11  18
ATOM     18  N   UNL     1       6.872  45.943  50.854  1.00  0.00    -0.338 N 
ATOM     19  H   UNL     1       6.980  46.330  49.924  1.00  0.00     0.168 HD
BRANCH  18  20
ATOM     20  C   UNL     1       7.896  46.349  51.734  1.00  0.00     0.058 A 
ATOM     21  C   UNL     1       7.674  47.204  52.818  1.00  0.00     0.027 A 
ATOM     22  C   UNL     1       9.219  45.904  51.520  1.00  0.00     0.064 A 
ATOM     23  C   UNL     1       8.722  47.601  53.658  1.00  0.00     0.002 A 
ATOM     24  C   UNL     1      10.269  46.300  52.356  1.00  0.00     0.023 A 
ATOM     25  C   UNL     1      10.018  47.151  53.427  1.00  0.00     0.002 A 
ATOM     26  Cl  UNL     1       9.585  44.838  50.203  1.00  0.00    -0.082 Cl
ENDBRANCH  18  20
ENDBRANCH  11  18
ENDBRANCH   1   8
TORSDOF 6
ENDMDL
MODEL 16
REMARK VINA RESULT:    -7.681      1.724      5.040
REMARK INTER + INTRA:         -11.732
REMARK INTER:                 -10.980
REMARK INTRA:                  -0.753
REMARK UNBOUND:                -1.357
REMARK SMILES CC(C)CCNc1nc(Nc2ccccc2Cl)c2cnn(C)c2n1
REMARK SMILES IDX 6 1 5 3 4 4 2 5 1 6 3 7 7 8 8 9 24 10 9 11 23 12 18 13 21 14
REMARK SMILES IDX 19 15 20 16 22 17 10 18 11 20 12 21 16 22 13 23 15 24 14 25
REMARK SMILES IDX 17 26
REMARK H PARENT 6 2 10 19
ROOT
ATOM      1  N   UNL     1       4.447  41.216  50.795  1.00  0.00    -0.354 N 
ATOM      2  H   UNL     1       5.424  41.058  50.571  1.00  0.00     0.163 HD
ENDROOT
BRANCH   1   3
ATOM      3  C   UNL     1       3.526  40.890  49.716  1.00  0.00     0.116 C 
BRANCH   3   4
ATOM      4  C   UNL     1       4.294  40.758  48.398  1.00  0.00     0.024 C 
BRANCH   4   5
ATOM      5  C   UNL     1       3.437  40.393  47.170  1.00  0.00    -0.016 C 
ATOM      6  C   UNL     1       3.063  38.911  47.142  1.00  0.00     0.007 C 
ATOM      7  C   UNL     1       4.098  40.800  45.854  1.00  0.00     0.007 C 
ENDBRANCH   4   5
ENDBRANCH   3   4
ENDBRANCH   1   3
BRANCH   1   8
ATOM      8  C   UNL     1       4.393  42.530  51.250  1.00  0.00     0.226 A 
ATOM      9  N   UNL     1       5.318  43.423  50.849  1.00  0.00    -0.195 NA
ATOM     10  N   UNL     1       3.379  42.779  52.089  1.00  0.00    -0.193 NA
ATOM     11  C   UNL     1       5.286  44.708  51.296  1.00  0.00     0.147 A 
ATOM     12  C   UNL     1       3.364  44.046  52.524  1.00  0.00     0.165 A 
ATOM     13  C   UNL     1       4.260  45.041  52.190  1.00  0.00     0.082 A 
ATOM     14  N   UNL     1       2.468  44.618  53.387  1.00  0.00    -0.250 N 
ATOM     15  C   UNL     1       3.814  46.169  52.909  1.00  0.00     0.149 A 
ATOM     16  N   UNL     1       2.726  45.921  53.646  1.00  0.00    -0.179 NA
ATOM     17  C   UNL     1       1.336  43.980  54.009  1.00  0.00     0.176 C 
BRANCH  11  18
ATOM     18  N   UNL     1       6.249  45.653  50.919  1.00  0.00    -0.338 N 
ATOM     19  H   UNL     1       6.032  46.156  50.067  1.00  0.00     0.168 HD
BRANCH  18  20
ATOM     20  C   UNL     1       7.459  46.074  51.506  1.00  0.00     0.058 A 
ATOM     21  C   UNL     1       7.516  46.985  52.565  1.00  0.00     0.027 A 
ATOM     22  C   UNL     1       8.686  45.584  51.007  1.00  0.00     0.064 A 
ATOM     23  C   UNL     1       8.739  47.394  53.109  1.00  0.00     0.002 A 
ATOM     24  C   UNL     1       9.911  45.991  51.546  1.00  0.00     0.023 A 
ATOM     25  C   UNL     1       9.936  46.900  52.599  1.00  0.00     0.002 A 
ATOM     26  Cl  UNL     1       8.711  44.447  49.699  1.00  0.00    -0.082 Cl
ENDBRANCH  18  20
ENDBRANCH  11  18
ENDBRANCH   1   8
TORSDOF 6
ENDMDL
MODEL 17
REMARK VINA RESULT:    -7.631      1.862      5.771
REMARK INTER + INTRA:         -11.664
REMARK INTER:                 -10.886
REMARK INTRA:                  -0.778
REMARK UNBOUND:                -1.357
REMARK SMILES CC(C)CCNc1nc(Nc2ccccc2Cl)c2cnn(C)c2n1
REMARK SMILES IDX 6 1 5 3 4 4 2 5 1 6 3 7 7 8 8 9 24 10 9 11 23 12 18 13 21 14
REMARK SMILES IDX 19 15 20 16 22 17 10 18 11 20 12 21 16 22 13 23 15 24 14 25
REMARK SMILES IDX 17 26
REMARK H PARENT 6 2 10 19
ROOT
ATOM      1  N   UNL     1       6.144  46.813  52.091  1.00  0.00    -0.354 N 
ATOM      2  H   UNL     1       5.636  47.454  51.490  1.00  0.00     0.163 HD
ENDROOT
BRANCH   1   3
ATOM      3  C   UNL     1       7.538  46.623  51.720  1.00  0.00     0.116 C 
BRANCH   3   4
ATOM      4  C   UNL     1       8.405  47.696  52.387  1.00  0.00     0.024 C 
BRANCH   4   5
ATOM      5  C   UNL     1       9.812  47.234  52.813  1.00  0.00    -0.016 C 
ATOM      6  C   UNL     1      10.244  45.953  52.100  1.00  0.00     0.007 C 
ATOM      7  C   UNL     1       9.940  47.070  54.327  1.00  0.00     0.007 C 
ENDBRANCH   4   5
ENDBRANCH   3   4
ENDBRANCH   1   3
BRANCH   1   8
ATOM      8  C   UNL     1       5.370  45.657  52.116  1.00  0.00     0.226 A 
ATOM      9  N   UNL     1       5.782  44.554  51.462  1.00  0.00    -0.195 NA
ATOM     10  N   UNL     1       4.235  45.772  52.818  1.00  0.00    -0.193 NA
ATOM     11  C   UNL     1       5.029  43.420  51.466  1.00  0.00     0.147 A 
ATOM     12  C   UNL     1       3.503  44.649  52.808  1.00  0.00     0.165 A 
ATOM     13  C   UNL     1       3.818  43.468  52.168  1.00  0.00     0.082 A 
ATOM     14  N   UNL     1       2.298  44.438  53.421  1.00  0.00    -0.250 N 
ATOM     15  C   UNL     1       2.734  42.614  52.458  1.00  0.00     0.149 A 
ATOM     16  N   UNL     1       1.798  43.197  53.216  1.00  0.00    -0.179 NA
ATOM     17  C   UNL     1       1.556  45.378  54.221  1.00  0.00     0.176 C 
BRANCH  11  18
ATOM     18  N   UNL     1       5.416  42.266  50.773  1.00  0.00    -0.338 N 
ATOM     19  H   UNL     1       6.056  41.666  51.281  1.00  0.00     0.168 HD
BRANCH  18  20
ATOM     20  C   UNL     1       5.069  41.745  49.510  1.00  0.00     0.058 A 
ATOM     21  C   UNL     1       3.989  40.881  49.312  1.00  0.00     0.027 A 
ATOM     22  C   UNL     1       5.846  42.080  48.379  1.00  0.00     0.064 A 
ATOM     23  C   UNL     1       3.688  40.369  48.044  1.00  0.00     0.002 A 
ATOM     24  C   UNL     1       5.551  41.569  47.110  1.00  0.00     0.023 A 
ATOM     25  C   UNL     1       4.469  40.711  46.945  1.00  0.00     0.002 A 
ATOM     26  Cl  UNL     1       7.203  43.149  48.530  1.00  0.00    -0.082 Cl
ENDBRANCH  18  20
ENDBRANCH  11  18
ENDBRANCH   1   8
TORSDOF 6
ENDMDL
MODEL 18
REMARK VINA RESULT:    -7.546      2.554      6.663
REMARK INTER + INTRA:         -11.550
REMARK INTER:                 -10.474
REMARK INTRA:                  -1.076
REMARK UNBOUND:                -1.357
REMARK SMILES CC(C)CCNc1nc(Nc2ccccc2Cl)c2cnn(C)c2n1
REMARK SMILES IDX 6 1 5 3 4 4 2 5 1 6 3 7 7 8 8 9 24 10 9 11 23 12 18 13 21 14
REMARK SMILES IDX 19 15 20 16 22 17 10 18 11 20 12 21 16 22 13 23 15 24 14 25
REMARK SMILES IDX 17 26
REMARK H PARENT 6 2 10 19
ROOT
ATOM      1  N   UNL     1       7.882  45.174  49.651  1.00  0.00    -0.354 N 
ATOM      2  H   UNL     1       7.273  45.558  48.936  1.00  0.00     0.163 HD
ENDROOT
BRANCH   1   3
ATOM      3  C   UNL     1       8.055  43.731  49.578  1.00  0.00     0.116 C 
BRANCH   3   4
ATOM      4  C   UNL     1       6.906  43.108  48.778  1.00  0.00     0.024 C 
BRANCH   4   5
ATOM      5  C   UNL     1       6.139  41.980  49.494  1.00  0.00    -0.016 C 
ATOM      6  C   UNL     1       5.323  41.126  48.524  1.00  0.00     0.007 C 
ATOM      7  C   UNL     1       5.250  42.502  50.622  1.00  0.00     0.007 C 
ENDBRANCH   4   5
ENDBRANCH   3   4
ENDBRANCH   1   3
BRANCH   1   8
ATOM      8  C   UNL     1       7.370  45.654  50.852  1.00  0.00     0.226 A 
ATOM      9  N   UNL     1       6.037  45.718  51.041  1.00  0.00    -0.195 NA
ATOM     10  N   UNL     1       8.303  46.030  51.736  1.00  0.00    -0.193 NA
ATOM     11  C   UNL     1       5.520  46.198  52.205  1.00  0.00     0.147 A 
ATOM     12  C   UNL     1       7.779  46.505  52.874  1.00  0.00     0.165 A 
ATOM     13  C   UNL     1       6.437  46.625  53.174  1.00  0.00     0.082 A 
ATOM     14  N   UNL     1       8.455  46.971  53.969  1.00  0.00    -0.250 N 
ATOM     15  C   UNL     1       6.418  47.177  54.472  1.00  0.00     0.149 A 
ATOM     16  N   UNL     1       7.642  47.397  54.964  1.00  0.00    -0.179 NA
ATOM     17  C   UNL     1       9.884  47.043  54.140  1.00  0.00     0.176 C 
BRANCH  11  18
ATOM     18  N   UNL     1       4.141  46.302  52.422  1.00  0.00    -0.338 N 
ATOM     19  H   UNL     1       3.818  47.239  52.635  1.00  0.00     0.168 HD
BRANCH  18  20
ATOM     20  C   UNL     1       3.091  45.363  52.376  1.00  0.00     0.058 A 
ATOM     21  C   UNL     1       2.442  45.003  51.191  1.00  0.00     0.027 A 
ATOM     22  C   UNL     1       2.640  44.759  53.570  1.00  0.00     0.064 A 
ATOM     23  C   UNL     1       1.389  44.081  51.188  1.00  0.00     0.002 A 
ATOM     24  C   UNL     1       1.587  43.838  53.573  1.00  0.00     0.023 A 
ATOM     25  C   UNL     1       0.961  43.500  52.377  1.00  0.00     0.002 A 
ATOM     26  Cl  UNL     1       3.389  45.142  55.086  1.00  0.00    -0.082 Cl
ENDBRANCH  18  20
ENDBRANCH  11  18
ENDBRANCH   1   8
TORSDOF 6
ENDMDL
MODEL 19
REMARK VINA RESULT:    -7.490      2.805      3.608
REMARK INTER + INTRA:         -11.474
REMARK INTER:                 -10.819
REMARK INTRA:                  -0.655
REMARK UNBOUND:                -1.357
REMARK SMILES CC(C)CCNc1nc(Nc2ccccc2Cl)c2cnn(C)c2n1
REMARK SMILES IDX 6 1 5 3 4 4 2 5 1 6 3 7 7 8 8 9 24 10 9 11 23 12 18 13 21 14
REMARK SMILES IDX 19 15 20 16 22 17 10 18 11 20 12 21 16 22 13 23 15 24 14 25
REMARK SMILES IDX 17 26
REMARK H PARENT 6 2 10 19
ROOT
ATOM      1  N   UNL     1       2.809  45.986  56.344  1.00  0.00    -0.354 N 
ATOM      2  H   UNL     1       3.442  45.583  57.027  1.00  0.00     0.163 HD
ENDROOT
BRANCH   1   3
ATOM      3  C   UNL     1       1.423  45.566  56.493  1.00  0.00     0.116 C 
BRANCH   3   4
ATOM      4  C   UNL     1       0.767  46.332  57.646  1.00  0.00     0.024 C 
BRANCH   4   5
ATOM      5  C   UNL     1      -0.671  46.816  57.382  1.00  0.00    -0.016 C 
ATOM      6  C   UNL     1      -1.235  47.626  58.549  1.00  0.00     0.007 C 
ATOM      7  C   UNL     1      -1.617  45.670  57.024  1.00  0.00     0.007 C 
ENDBRANCH   4   5
ENDBRANCH   3   4
ENDBRANCH   1   3
BRANCH   1   8
ATOM      8  C   UNL     1       3.388  45.707  55.111  1.00  0.00     0.226 A 
ATOM      9  N   UNL     1       4.426  46.443  54.670  1.00  0.00    -0.195 NA
ATOM     10  N   UNL     1       2.818  44.688  54.454  1.00  0.00    -0.193 NA
ATOM     11  C   UNL     1       4.995  46.192  53.459  1.00  0.00     0.147 A 
ATOM     12  C   UNL     1       3.386  44.456  53.262  1.00  0.00     0.165 A 
ATOM     13  C   UNL     1       4.443  45.148  52.707  1.00  0.00     0.082 A 
ATOM     14  N   UNL     1       3.040  43.496  52.351  1.00  0.00    -0.250 N 
ATOM     15  C   UNL     1       4.650  44.524  51.459  1.00  0.00     0.149 A 
ATOM     16  N   UNL     1       3.797  43.519  51.229  1.00  0.00    -0.179 NA
ATOM     17  C   UNL     1       1.993  42.515  52.480  1.00  0.00     0.176 C 
BRANCH  11  18
ATOM     18  N   UNL     1       6.058  46.956  52.961  1.00  0.00    -0.338 N 
ATOM     19  H   UNL     1       5.781  47.702  52.333  1.00  0.00     0.168 HD
BRANCH  18  20
ATOM     20  C   UNL     1       7.449  46.918  53.179  1.00  0.00     0.058 A 
ATOM     21  C   UNL     1       8.045  47.335  54.373  1.00  0.00     0.027 A 
ATOM     22  C   UNL     1       8.306  46.462  52.154  1.00  0.00     0.064 A 
ATOM     23  C   UNL     1       9.434  47.301  54.546  1.00  0.00     0.002 A 
ATOM     24  C   UNL     1       9.695  46.429  52.320  1.00  0.00     0.023 A 
ATOM     25  C   UNL     1      10.258  46.850  53.520  1.00  0.00     0.002 A 
ATOM     26  Cl  UNL     1       7.655  45.921  50.640  1.00  0.00    -0.082 Cl
ENDBRANCH  18  20
ENDBRANCH  11  18
ENDBRANCH   1   8
TORSDOF 6
ENDMDL
