MODEL 1
REMARK VINA RESULT:    -8.019      0.000      0.000
REMARK INTER + INTRA:         -13.438
REMARK INTER:                 -12.003
REMARK INTRA:                  -1.434
REMARK UNBOUND:                -1.434
REMARK SMILES CCOCCCNc1nc(Nc2ccccc2O)c2cnn(C)c2n1
REMARK SMILES IDX 6 1 5 2 4 3 3 4 2 5 1 6 7 7 8 9 9 10 25 11 10 12 24 13 19 14
REMARK SMILES IDX 22 15 20 16 21 17 23 18 11 19 12 21 13 22 17 23 14 24 16 25
REMARK SMILES IDX 15 26 18 27
REMARK H PARENT 7 8 11 20 18 28
ROOT
ATOM      1  C   UNL     1       2.013  45.484  54.421  1.00  0.00     0.118 C 
ENDROOT
BRANCH   1   2
ATOM      2  C   UNL     1       0.827  45.044  55.284  1.00  0.00     0.050 C 
BRANCH   2   3
ATOM      3  C   UNL     1      -0.095  44.091  54.529  1.00  0.00     0.162 C 
BRANCH   3   4
ATOM      4  O   UNL     1       0.628  43.059  53.861  1.00  0.00    -0.382 OA
BRANCH   4   5
ATOM      5  C   UNL     1      -0.071  42.512  52.744  1.00  0.00     0.156 C 
ATOM      6  C   UNL     1       0.586  43.022  51.477  1.00  0.00     0.035 C 
ENDBRANCH   4   5
ENDBRANCH   3   4
ENDBRANCH   2   3
ENDBRANCH   1   2
BRANCH   1   7
ATOM      7  N   UNL     1       3.103  44.522  54.483  1.00  0.00    -0.354 N 
ATOM      8  H   UNL     1       3.698  44.575  55.300  1.00  0.00     0.163 HD
BRANCH   7   9
ATOM      9  C   UNL     1       3.916  44.398  53.370  1.00  0.00     0.226 A 
ATOM     10  N   UNL     1       4.755  45.434  53.173  1.00  0.00    -0.195 NA
ATOM     11  N   UNL     1       3.826  43.310  52.594  1.00  0.00    -0.193 NA
ATOM     12  C   UNL     1       5.605  45.429  52.119  1.00  0.00     0.147 A 
ATOM     13  C   UNL     1       4.680  43.329  51.562  1.00  0.00     0.165 A 
ATOM     14  C   UNL     1       5.582  44.330  51.261  1.00  0.00     0.082 A 
ATOM     15  N   UNL     1       4.844  42.373  50.596  1.00  0.00    -0.250 N 
ATOM     16  C   UNL     1       6.229  43.881  50.092  1.00  0.00     0.149 A 
ATOM     17  N   UNL     1       5.779  42.692  49.672  1.00  0.00    -0.179 NA
ATOM     18  C   UNL     1       4.137  41.122  50.488  1.00  0.00     0.176 C 
BRANCH  12  19
ATOM     19  N   UNL     1       6.456  46.540  51.989  1.00  0.00    -0.336 N 
ATOM     20  H   UNL     1       5.889  47.375  52.120  1.00  0.00     0.168 HD
BRANCH  19  21
ATOM     21  C   UNL     1       7.716  46.678  52.608  1.00  0.00     0.082 A 
ATOM     22  C   UNL     1       8.864  46.499  51.826  1.00  0.00     0.030 A 
ATOM     23  C   UNL     1       7.877  47.100  53.938  1.00  0.00     0.139 A 
ATOM     24  C   UNL     1      10.138  46.665  52.377  1.00  0.00     0.002 A 
ATOM     25  C   UNL     1       9.144  47.262  54.493  1.00  0.00     0.048 A 
ATOM     26  C   UNL     1      10.277  47.038  53.713  1.00  0.00     0.004 A 
BRANCH  23  27
ATOM     27  O   UNL     1       6.815  47.397  54.747  1.00  0.00    -0.506 OA
ATOM     28  H   UNL     1       6.857  48.342  54.971  1.00  0.00     0.293 HD
ENDBRANCH  23  27
ENDBRANCH  19  21
ENDBRANCH  12  19
ENDBRANCH   7   9
ENDBRANCH   1   7
TORSDOF 9
ENDMDL
MODEL 2
REMARK VINA RESULT:    -8.008      1.500      2.257
REMARK INTER + INTRA:         -13.422
REMARK INTER:                 -11.752
REMARK INTRA:                  -1.670
REMARK UNBOUND:                -1.434
REMARK SMILES CCOCCCNc1nc(Nc2ccccc2O)c2cnn(C)c2n1
REMARK SMILES IDX 6 1 5 2 4 3 3 4 2 5 1 6 7 7 8 9 9 10 25 11 10 12 24 13 19 14
REMARK SMILES IDX 22 15 20 16 21 17 23 18 11 19 12 21 13 22 17 23 14 24 16 25
REMARK SMILES IDX 15 26 18 27
REMARK H PARENT 7 8 11 20 18 28
ROOT
ATOM      1  C   UNL     1       1.291  45.277  52.437  1.00  0.00     0.118 C 
ENDROOT
BRANCH   1   2
ATOM      2  C   UNL     1       1.025  44.900  53.897  1.00  0.00     0.050 C 
BRANCH   2   3
ATOM      3  C   UNL     1       1.960  45.639  54.850  1.00  0.00     0.162 C 
BRANCH   3   4
ATOM      4  O   UNL     1       3.150  44.899  55.118  1.00  0.00    -0.382 OA
BRANCH   4   5
ATOM      5  C   UNL     1       4.296  45.725  55.316  1.00  0.00     0.156 C 
ATOM      6  C   UNL     1       5.534  44.885  55.073  1.00  0.00     0.035 C 
ENDBRANCH   4   5
ENDBRANCH   3   4
ENDBRANCH   2   3
ENDBRANCH   1   2
BRANCH   1   7
ATOM      7  N   UNL     1       2.549  45.994  52.293  1.00  0.00    -0.354 N 
ATOM      8  H   UNL     1       2.493  46.909  51.862  1.00  0.00     0.163 HD
BRANCH   7   9
ATOM      9  C   UNL     1       3.614  45.318  51.723  1.00  0.00     0.226 A 
ATOM     10  N   UNL     1       4.723  46.064  51.555  1.00  0.00    -0.195 NA
ATOM     11  N   UNL     1       3.484  44.027  51.389  1.00  0.00    -0.193 NA
ATOM     12  C   UNL     1       5.835  45.515  51.010  1.00  0.00     0.147 A 
ATOM     13  C   UNL     1       4.599  43.508  50.856  1.00  0.00     0.165 A 
ATOM     14  C   UNL     1       5.790  44.171  50.637  1.00  0.00     0.082 A 
ATOM     15  N   UNL     1       4.797  42.227  50.421  1.00  0.00    -0.250 N 
ATOM     16  C   UNL     1       6.633  43.201  50.059  1.00  0.00     0.149 A 
ATOM     17  N   UNL     1       6.033  42.012  49.914  1.00  0.00    -0.179 NA
ATOM     18  C   UNL     1       3.847  41.143  50.455  1.00  0.00     0.176 C 
BRANCH  12  19
ATOM     19  N   UNL     1       6.954  46.354  50.879  1.00  0.00    -0.336 N 
ATOM     20  H   UNL     1       6.629  47.237  50.491  1.00  0.00     0.168 HD
BRANCH  19  21
ATOM     21  C   UNL     1       7.936  46.564  51.871  1.00  0.00     0.082 A 
ATOM     22  C   UNL     1       9.245  46.140  51.611  1.00  0.00     0.030 A 
ATOM     23  C   UNL     1       7.692  47.281  53.053  1.00  0.00     0.139 A 
ATOM     24  C   UNL     1      10.266  46.359  52.539  1.00  0.00     0.002 A 
ATOM     25  C   UNL     1       8.705  47.498  53.985  1.00  0.00     0.048 A 
ATOM     26  C   UNL     1       9.993  47.032  53.730  1.00  0.00     0.004 A 
BRANCH  23  27
ATOM     27  O   UNL     1       6.470  47.821  53.345  1.00  0.00    -0.506 OA
ATOM     28  H   UNL     1       6.317  47.730  54.301  1.00  0.00     0.293 HD
ENDBRANCH  23  27
ENDBRANCH  19  21
ENDBRANCH  12  19
ENDBRANCH   7   9
ENDBRANCH   1   7
TORSDOF 9
ENDMDL
MODEL 3
REMARK VINA RESULT:    -7.925      2.441      5.158
REMARK INTER + INTRA:         -13.298
REMARK INTER:                 -11.906
REMARK INTRA:                  -1.392
REMARK UNBOUND:                -1.434
REMARK SMILES CCOCCCNc1nc(Nc2ccccc2O)c2cnn(C)c2n1
REMARK SMILES IDX 6 1 5 2 4 3 3 4 2 5 1 6 7 7 8 9 9 10 25 11 10 12 24 13 19 14
REMARK SMILES IDX 22 15 20 16 21 17 23 18 11 19 12 21 13 22 17 23 14 24 16 25
REMARK SMILES IDX 15 26 18 27
REMARK H PARENT 7 8 11 20 18 28
ROOT
ATOM      1  C   UNL     1       4.076  45.657  55.351  1.00  0.00     0.118 C 
ENDROOT
BRANCH   1   2
ATOM      2  C   UNL     1       2.560  45.870  55.364  1.00  0.00     0.050 C 
BRANCH   2   3
ATOM      3  C   UNL     1       1.963  45.756  53.965  1.00  0.00     0.162 C 
BRANCH   3   4
ATOM      4  O   UNL     1       2.400  46.808  53.106  1.00  0.00    -0.382 OA
BRANCH   4   5
ATOM      5  C   UNL     1       2.599  46.389  51.757  1.00  0.00     0.156 C 
ATOM      6  C   UNL     1       1.884  45.066  51.560  1.00  0.00     0.035 C 
ENDBRANCH   4   5
ENDBRANCH   3   4
ENDBRANCH   2   3
ENDBRANCH   1   2
BRANCH   1   7
ATOM      7  N   UNL     1       4.783  46.880  55.001  1.00  0.00    -0.354 N 
ATOM      8  H   UNL     1       4.217  47.626  54.615  1.00  0.00     0.163 HD
BRANCH   7   9
ATOM      9  C   UNL     1       5.924  46.765  54.226  1.00  0.00     0.226 A 
ATOM     10  N   UNL     1       5.708  46.301  52.980  1.00  0.00    -0.195 NA
ATOM     11  N   UNL     1       7.115  47.106  54.736  1.00  0.00    -0.193 NA
ATOM     12  C   UNL     1       6.746  46.148  52.123  1.00  0.00     0.147 A 
ATOM     13  C   UNL     1       8.123  46.948  53.867  1.00  0.00     0.165 A 
ATOM     14  C   UNL     1       8.023  46.485  52.571  1.00  0.00     0.082 A 
ATOM     15  N   UNL     1       9.450  47.211  54.071  1.00  0.00    -0.250 N 
ATOM     16  C   UNL     1       9.348  46.499  52.089  1.00  0.00     0.149 A 
ATOM     17  N   UNL     1      10.228  46.932  53.000  1.00  0.00    -0.179 NA
ATOM     18  C   UNL     1      10.054  47.733  55.271  1.00  0.00     0.176 C 
BRANCH  12  19
ATOM     19  N   UNL     1       6.438  45.671  50.838  1.00  0.00    -0.336 N 
ATOM     20  H   UNL     1       7.016  46.184  50.175  1.00  0.00     0.168 HD
BRANCH  19  21
ATOM     21  C   UNL     1       6.335  44.311  50.476  1.00  0.00     0.082 A 
ATOM     22  C   UNL     1       5.193  43.603  50.872  1.00  0.00     0.030 A 
ATOM     23  C   UNL     1       7.261  43.665  49.642  1.00  0.00     0.139 A 
ATOM     24  C   UNL     1       5.019  42.265  50.507  1.00  0.00     0.002 A 
ATOM     25  C   UNL     1       7.095  42.331  49.279  1.00  0.00     0.048 A 
ATOM     26  C   UNL     1       5.974  41.627  49.717  1.00  0.00     0.004 A 
BRANCH  23  27
ATOM     27  O   UNL     1       8.353  44.306  49.124  1.00  0.00    -0.506 OA
ATOM     28  H   UNL     1       8.232  45.263  49.249  1.00  0.00     0.293 HD
ENDBRANCH  23  27
ENDBRANCH  19  21
ENDBRANCH  12  19
ENDBRANCH   7   9
ENDBRANCH   1   7
TORSDOF 9
ENDMDL
MODEL 4
REMARK VINA RESULT:    -7.881      1.024      1.920
REMARK INTER + INTRA:         -13.232
REMARK INTER:                 -12.113
REMARK INTRA:                  -1.118
REMARK UNBOUND:                -1.434
REMARK SMILES CCOCCCNc1nc(Nc2ccccc2O)c2cnn(C)c2n1
REMARK SMILES IDX 6 1 5 2 4 3 3 4 2 5 1 6 7 7 8 9 9 10 25 11 10 12 24 13 19 14
REMARK SMILES IDX 22 15 20 16 21 17 23 18 11 19 12 21 13 22 17 23 14 24 16 25
REMARK SMILES IDX 15 26 18 27
REMARK H PARENT 7 8 11 20 18 28
ROOT
ATOM      1  C   UNL     1       1.744  43.144  52.493  1.00  0.00     0.118 C 
ENDROOT
BRANCH   1   2
ATOM      2  C   UNL     1       0.721  42.682  53.535  1.00  0.00     0.050 C 
BRANCH   2   3
ATOM      3  C   UNL     1       0.010  43.864  54.188  1.00  0.00     0.162 C 
BRANCH   3   4
ATOM      4  O   UNL     1       0.868  44.994  54.335  1.00  0.00    -0.382 OA
BRANCH   4   5
ATOM      5  C   UNL     1       1.367  45.155  55.662  1.00  0.00     0.156 C 
ATOM      6  C   UNL     1       2.765  45.734  55.576  1.00  0.00     0.035 C 
ENDBRANCH   4   5
ENDBRANCH   3   4
ENDBRANCH   2   3
ENDBRANCH   1   2
BRANCH   1   7
ATOM      7  N   UNL     1       3.059  43.338  53.085  1.00  0.00    -0.354 N 
ATOM      8  H   UNL     1       3.103  43.978  53.869  1.00  0.00     0.163 HD
BRANCH   7   9
ATOM      9  C   UNL     1       4.111  43.629  52.236  1.00  0.00     0.226 A 
ATOM     10  N   UNL     1       4.687  44.828  52.450  1.00  0.00    -0.195 NA
ATOM     11  N   UNL     1       4.478  42.744  51.300  1.00  0.00    -0.193 NA
ATOM     12  C   UNL     1       5.731  45.227  51.685  1.00  0.00     0.147 A 
ATOM     13  C   UNL     1       5.515  43.161  50.560  1.00  0.00     0.165 A 
ATOM     14  C   UNL     1       6.182  44.363  50.687  1.00  0.00     0.082 A 
ATOM     15  N   UNL     1       6.131  42.496  49.536  1.00  0.00    -0.250 N 
ATOM     16  C   UNL     1       7.174  44.323  49.686  1.00  0.00     0.149 A 
ATOM     17  N   UNL     1       7.145  43.192  48.971  1.00  0.00    -0.179 NA
ATOM     18  C   UNL     1       5.805  41.184  49.035  1.00  0.00     0.176 C 
BRANCH  12  19
ATOM     19  N   UNL     1       6.283  46.485  51.978  1.00  0.00    -0.336 N 
ATOM     20  H   UNL     1       5.540  47.060  52.369  1.00  0.00     0.168 HD
BRANCH  19  21
ATOM     21  C   UNL     1       7.504  46.703  52.650  1.00  0.00     0.082 A 
ATOM     22  C   UNL     1       8.694  46.598  51.920  1.00  0.00     0.030 A 
ATOM     23  C   UNL     1       7.580  47.134  53.984  1.00  0.00     0.139 A 
ATOM     24  C   UNL     1       9.929  46.844  52.524  1.00  0.00     0.002 A 
ATOM     25  C   UNL     1       8.808  47.376  54.594  1.00  0.00     0.048 A 
ATOM     26  C   UNL     1       9.986  47.226  53.864  1.00  0.00     0.004 A 
BRANCH  23  27
ATOM     27  O   UNL     1       6.466  47.362  54.746  1.00  0.00    -0.506 OA
ATOM     28  H   UNL     1       5.934  48.049  54.309  1.00  0.00     0.293 HD
ENDBRANCH  23  27
ENDBRANCH  19  21
ENDBRANCH  12  19
ENDBRANCH   7   9
ENDBRANCH   1   7
TORSDOF 9
ENDMDL
MODEL 5
REMARK VINA RESULT:    -7.800      2.066      4.871
REMARK INTER + INTRA:         -13.110
REMARK INTER:                 -11.656
REMARK INTRA:                  -1.454
REMARK UNBOUND:                -1.434
REMARK SMILES CCOCCCNc1nc(Nc2ccccc2O)c2cnn(C)c2n1
REMARK SMILES IDX 6 1 5 2 4 3 3 4 2 5 1 6 7 7 8 9 9 10 25 11 10 12 24 13 19 14
REMARK SMILES IDX 22 15 20 16 21 17 23 18 11 19 12 21 13 22 17 23 14 24 16 25
REMARK SMILES IDX 15 26 18 27
REMARK H PARENT 7 8 11 20 18 28
ROOT
ATOM      1  C   UNL     1       3.626  46.633  54.570  1.00  0.00     0.118 C 
ENDROOT
BRANCH   1   2
ATOM      2  C   UNL     1       3.213  45.483  55.493  1.00  0.00     0.050 C 
BRANCH   2   3
ATOM      3  C   UNL     1       1.855  44.907  55.102  1.00  0.00     0.162 C 
BRANCH   3   4
ATOM      4  O   UNL     1       1.691  44.830  53.687  1.00  0.00    -0.382 OA
BRANCH   4   5
ATOM      5  C   UNL     1       0.583  44.023  53.291  1.00  0.00     0.156 C 
ATOM      6  C   UNL     1       0.970  42.568  53.464  1.00  0.00     0.035 C 
ENDBRANCH   4   5
ENDBRANCH   3   4
ENDBRANCH   2   3
ENDBRANCH   1   2
BRANCH   1   7
ATOM      7  N   UNL     1       4.910  47.195  54.959  1.00  0.00    -0.354 N 
ATOM      8  H   UNL     1       4.915  48.183  55.180  1.00  0.00     0.163 HD
BRANCH   7   9
ATOM      9  C   UNL     1       6.000  46.933  54.148  1.00  0.00     0.226 A 
ATOM     10  N   UNL     1       5.687  46.437  52.935  1.00  0.00    -0.195 NA
ATOM     11  N   UNL     1       7.239  47.178  54.595  1.00  0.00    -0.193 NA
ATOM     12  C   UNL     1       6.668  46.144  52.047  1.00  0.00     0.147 A 
ATOM     13  C   UNL     1       8.189  46.883  53.696  1.00  0.00     0.165 A 
ATOM     14  C   UNL     1       7.990  46.373  52.429  1.00  0.00     0.082 A 
ATOM     15  N   UNL     1       9.543  47.024  53.836  1.00  0.00    -0.250 N 
ATOM     16  C   UNL     1       9.288  46.235  51.896  1.00  0.00     0.149 A 
ATOM     17  N   UNL     1      10.243  46.621  52.751  1.00  0.00    -0.179 NA
ATOM     18  C   UNL     1      10.246  47.538  54.984  1.00  0.00     0.176 C 
BRANCH  12  19
ATOM     19  N   UNL     1       6.260  45.641  50.801  1.00  0.00    -0.336 N 
ATOM     20  H   UNL     1       6.886  46.027  50.097  1.00  0.00     0.168 HD
BRANCH  19  21
ATOM     21  C   UNL     1       5.956  44.291  50.526  1.00  0.00     0.082 A 
ATOM     22  C   UNL     1       6.864  43.547  49.762  1.00  0.00     0.030 A 
ATOM     23  C   UNL     1       4.849  43.625  51.076  1.00  0.00     0.139 A 
ATOM     24  C   UNL     1       6.634  42.195  49.494  1.00  0.00     0.002 A 
ATOM     25  C   UNL     1       4.612  42.279  50.808  1.00  0.00     0.048 A 
ATOM     26  C   UNL     1       5.504  41.564  50.010  1.00  0.00     0.004 A 
BRANCH  23  27
ATOM     27  O   UNL     1       3.964  44.244  51.916  1.00  0.00    -0.506 OA
ATOM     28  H   UNL     1       3.080  44.199  51.513  1.00  0.00     0.293 HD
ENDBRANCH  23  27
ENDBRANCH  19  21
ENDBRANCH  12  19
ENDBRANCH   7   9
ENDBRANCH   1   7
TORSDOF 9
ENDMDL
MODEL 6
REMARK VINA RESULT:    -7.784      2.350      5.207
REMARK INTER + INTRA:         -13.086
REMARK INTER:                 -12.287
REMARK INTRA:                  -0.799
REMARK UNBOUND:                -1.434
REMARK SMILES CCOCCCNc1nc(Nc2ccccc2O)c2cnn(C)c2n1
REMARK SMILES IDX 6 1 5 2 4 3 3 4 2 5 1 6 7 7 8 9 9 10 25 11 10 12 24 13 19 14
REMARK SMILES IDX 22 15 20 16 21 17 23 18 11 19 12 21 13 22 17 23 14 24 16 25
REMARK SMILES IDX 15 26 18 27
REMARK H PARENT 7 8 11 20 18 28
ROOT
ATOM      1  C   UNL     1       3.283  47.536  52.610  1.00  0.00     0.118 C 
ENDROOT
BRANCH   1   2
ATOM      2  C   UNL     1       2.236  46.461  52.916  1.00  0.00     0.050 C 
BRANCH   2   3
ATOM      3  C   UNL     1       2.514  45.768  54.247  1.00  0.00     0.162 C 
BRANCH   3   4
ATOM      4  O   UNL     1       2.511  44.347  54.125  1.00  0.00    -0.382 OA
BRANCH   4   5
ATOM      5  C   UNL     1       1.834  43.882  52.959  1.00  0.00     0.156 C 
ATOM      6  C   UNL     1       0.989  42.685  53.346  1.00  0.00     0.035 C 
ENDBRANCH   4   5
ENDBRANCH   3   4
ENDBRANCH   2   3
ENDBRANCH   1   2
BRANCH   1   7
ATOM      7  N   UNL     1       4.342  47.549  53.608  1.00  0.00    -0.354 N 
ATOM      8  H   UNL     1       4.424  48.395  54.158  1.00  0.00     0.163 HD
BRANCH   7   9
ATOM      9  C   UNL     1       5.612  47.178  53.204  1.00  0.00     0.226 A 
ATOM     10  N   UNL     1       5.645  46.425  52.086  1.00  0.00    -0.195 NA
ATOM     11  N   UNL     1       6.679  47.570  53.911  1.00  0.00    -0.193 NA
ATOM     12  C   UNL     1       6.830  46.002  51.587  1.00  0.00     0.147 A 
ATOM     13  C   UNL     1       7.839  47.141  53.394  1.00  0.00     0.165 A 
ATOM     14  C   UNL     1       7.996  46.369  52.260  1.00  0.00     0.082 A 
ATOM     15  N   UNL     1       9.101  47.373  53.868  1.00  0.00    -0.250 N 
ATOM     16  C   UNL     1       9.389  46.187  52.148  1.00  0.00     0.149 A 
ATOM     17  N   UNL     1      10.072  46.787  53.130  1.00  0.00    -0.179 NA
ATOM     18  C   UNL     1       9.461  48.148  55.029  1.00  0.00     0.176 C 
BRANCH  12  19
ATOM     19  N   UNL     1       6.782  45.232  50.413  1.00  0.00    -0.336 N 
ATOM     20  H   UNL     1       7.678  45.336  49.942  1.00  0.00     0.168 HD
BRANCH  19  21
ATOM     21  C   UNL     1       6.315  43.903  50.329  1.00  0.00     0.082 A 
ATOM     22  C   UNL     1       5.087  43.590  50.926  1.00  0.00     0.030 A 
ATOM     23  C   UNL     1       6.961  42.907  49.579  1.00  0.00     0.139 A 
ATOM     24  C   UNL     1       4.557  42.300  50.838  1.00  0.00     0.002 A 
ATOM     25  C   UNL     1       6.440  41.619  49.492  1.00  0.00     0.048 A 
ATOM     26  C   UNL     1       5.238  41.313  50.128  1.00  0.00     0.004 A 
BRANCH  23  27
ATOM     27  O   UNL     1       8.112  43.147  48.879  1.00  0.00    -0.506 OA
ATOM     28  H   UNL     1       8.702  42.383  48.992  1.00  0.00     0.293 HD
ENDBRANCH  23  27
ENDBRANCH  19  21
ENDBRANCH  12  19
ENDBRANCH   7   9
ENDBRANCH   1   7
TORSDOF 9
ENDMDL
MODEL 7
REMARK VINA RESULT:    -7.756      1.963      2.920
REMARK INTER + INTRA:         -13.044
REMARK INTER:                 -11.782
REMARK INTRA:                  -1.262
REMARK UNBOUND:                -1.434
REMARK SMILES CCOCCCNc1nc(Nc2ccccc2O)c2cnn(C)c2n1
REMARK SMILES IDX 6 1 5 2 4 3 3 4 2 5 1 6 7 7 8 9 9 10 25 11 10 12 24 13 19 14
REMARK SMILES IDX 22 15 20 16 21 17 23 18 11 19 12 21 13 22 17 23 14 24 16 25
REMARK SMILES IDX 15 26 18 27
REMARK H PARENT 7 8 11 20 18 28
ROOT
ATOM      1  C   UNL     1       1.811  45.624  52.356  1.00  0.00     0.118 C 
ENDROOT
BRANCH   1   2
ATOM      2  C   UNL     1       1.705  45.683  53.883  1.00  0.00     0.050 C 
BRANCH   2   3
ATOM      3  C   UNL     1       3.026  45.320  54.554  1.00  0.00     0.162 C 
BRANCH   3   4
ATOM      4  O   UNL     1       3.821  46.470  54.836  1.00  0.00    -0.382 OA
BRANCH   4   5
ATOM      5  C   UNL     1       5.216  46.185  54.919  1.00  0.00     0.156 C 
ATOM      6  C   UNL     1       5.415  44.706  54.652  1.00  0.00     0.035 C 
ENDBRANCH   4   5
ENDBRANCH   3   4
ENDBRANCH   2   3
ENDBRANCH   1   2
BRANCH   1   7
ATOM      7  N   UNL     1       3.037  46.249  51.883  1.00  0.00    -0.354 N 
ATOM      8  H   UNL     1       2.922  47.023  51.239  1.00  0.00     0.163 HD
BRANCH   7   9
ATOM      9  C   UNL     1       4.030  45.424  51.385  1.00  0.00     0.226 A 
ATOM     10  N   UNL     1       5.212  46.037  51.175  1.00  0.00    -0.195 NA
ATOM     11  N   UNL     1       3.771  44.130  51.155  1.00  0.00    -0.193 NA
ATOM     12  C   UNL     1       6.265  45.334  50.692  1.00  0.00     0.147 A 
ATOM     13  C   UNL     1       4.830  43.458  50.683  1.00  0.00     0.165 A 
ATOM     14  C   UNL     1       6.084  43.977  50.429  1.00  0.00     0.082 A 
ATOM     15  N   UNL     1       4.899  42.131  50.356  1.00  0.00    -0.250 N 
ATOM     16  C   UNL     1       6.827  42.881  49.945  1.00  0.00     0.149 A 
ATOM     17  N   UNL     1       6.109  41.752  49.887  1.00  0.00    -0.179 NA
ATOM     18  C   UNL     1       3.842  41.157  50.464  1.00  0.00     0.176 C 
BRANCH  12  19
ATOM     19  N   UNL     1       7.465  46.041  50.511  1.00  0.00    -0.336 N 
ATOM     20  H   UNL     1       7.274  46.804  49.864  1.00  0.00     0.168 HD
BRANCH  19  21
ATOM     21  C   UNL     1       8.331  46.456  51.544  1.00  0.00     0.082 A 
ATOM     22  C   UNL     1       7.804  47.237  52.581  1.00  0.00     0.030 A 
ATOM     23  C   UNL     1       9.665  46.028  51.647  1.00  0.00     0.139 A 
ATOM     24  C   UNL     1       8.606  47.641  53.651  1.00  0.00     0.002 A 
ATOM     25  C   UNL     1      10.470  46.432  52.709  1.00  0.00     0.048 A 
ATOM     26  C   UNL     1       9.942  47.245  53.711  1.00  0.00     0.004 A 
BRANCH  23  27
ATOM     27  O   UNL     1      10.236  45.182  50.737  1.00  0.00    -0.506 OA
ATOM     28  H   UNL     1      10.609  44.424  51.218  1.00  0.00     0.293 HD
ENDBRANCH  23  27
ENDBRANCH  19  21
ENDBRANCH  12  19
ENDBRANCH   7   9
ENDBRANCH   1   7
TORSDOF 9
ENDMDL
MODEL 8
REMARK VINA RESULT:    -7.726      1.084      1.222
REMARK INTER + INTRA:         -13.000
REMARK INTER:                 -11.461
REMARK INTRA:                  -1.539
REMARK UNBOUND:                -1.434
REMARK SMILES CCOCCCNc1nc(Nc2ccccc2O)c2cnn(C)c2n1
REMARK SMILES IDX 6 1 5 2 4 3 3 4 2 5 1 6 7 7 8 9 9 10 25 11 10 12 24 13 19 14
REMARK SMILES IDX 22 15 20 16 21 17 23 18 11 19 12 21 13 22 17 23 14 24 16 25
REMARK SMILES IDX 15 26 18 27
REMARK H PARENT 7 8 11 20 18 28
ROOT
ATOM      1  C   UNL     1       2.767  46.416  53.640  1.00  0.00     0.118 C 
ENDROOT
BRANCH   1   2
ATOM      2  C   UNL     1       2.884  45.381  54.763  1.00  0.00     0.050 C 
BRANCH   2   3
ATOM      3  C   UNL     1       1.564  44.651  54.996  1.00  0.00     0.162 C 
BRANCH   3   4
ATOM      4  O   UNL     1       1.431  43.502  54.162  1.00  0.00    -0.382 OA
BRANCH   4   5
ATOM      5  C   UNL     1       0.114  43.332  53.641  1.00  0.00     0.156 C 
ATOM      6  C   UNL     1       0.224  42.679  52.278  1.00  0.00     0.035 C 
ENDBRANCH   4   5
ENDBRANCH   3   4
ENDBRANCH   2   3
ENDBRANCH   1   2
BRANCH   1   7
ATOM      7  N   UNL     1       2.546  45.779  52.350  1.00  0.00    -0.354 N 
ATOM      8  H   UNL     1       1.750  45.155  52.293  1.00  0.00     0.163 HD
BRANCH   7   9
ATOM      9  C   UNL     1       3.623  45.155  51.746  1.00  0.00     0.226 A 
ATOM     10  N   UNL     1       4.710  45.937  51.597  1.00  0.00    -0.195 NA
ATOM     11  N   UNL     1       3.526  43.874  51.368  1.00  0.00    -0.193 NA
ATOM     12  C   UNL     1       5.831  45.439  51.023  1.00  0.00     0.147 A 
ATOM     13  C   UNL     1       4.649  43.405  50.806  1.00  0.00     0.165 A 
ATOM     14  C   UNL     1       5.819  44.109  50.602  1.00  0.00     0.082 A 
ATOM     15  N   UNL     1       4.879  42.146  50.324  1.00  0.00    -0.250 N 
ATOM     16  C   UNL     1       6.683  43.183  49.982  1.00  0.00     0.149 A 
ATOM     17  N   UNL     1       6.115  41.985  49.799  1.00  0.00    -0.179 NA
ATOM     18  C   UNL     1       3.959  41.036  50.327  1.00  0.00     0.176 C 
BRANCH  12  19
ATOM     19  N   UNL     1       6.925  46.313  50.913  1.00  0.00    -0.336 N 
ATOM     20  H   UNL     1       6.578  47.189  50.527  1.00  0.00     0.168 HD
BRANCH  19  21
ATOM     21  C   UNL     1       7.887  46.546  51.918  1.00  0.00     0.082 A 
ATOM     22  C   UNL     1       9.221  46.214  51.652  1.00  0.00     0.030 A 
ATOM     23  C   UNL     1       7.594  47.200  53.125  1.00  0.00     0.139 A 
ATOM     24  C   UNL     1      10.222  46.460  52.595  1.00  0.00     0.002 A 
ATOM     25  C   UNL     1       8.587  47.444  54.072  1.00  0.00     0.048 A 
ATOM     26  C   UNL     1       9.903  47.068  53.808  1.00  0.00     0.004 A 
BRANCH  23  27
ATOM     27  O   UNL     1       6.339  47.651  53.429  1.00  0.00    -0.506 OA
ATOM     28  H   UNL     1       6.269  47.728  54.396  1.00  0.00     0.293 HD
ENDBRANCH  23  27
ENDBRANCH  19  21
ENDBRANCH  12  19
ENDBRANCH   7   9
ENDBRANCH   1   7
TORSDOF 9
ENDMDL
MODEL 9
REMARK VINA RESULT:    -7.558      2.089      4.618
REMARK INTER + INTRA:         -12.748
REMARK INTER:                 -11.454
REMARK INTRA:                  -1.295
REMARK UNBOUND:                -1.434
REMARK SMILES CCOCCCNc1nc(Nc2ccccc2O)c2cnn(C)c2n1
REMARK SMILES IDX 6 1 5 2 4 3 3 4 2 5 1 6 7 7 8 9 9 10 25 11 10 12 24 13 19 14
REMARK SMILES IDX 22 15 20 16 21 17 23 18 11 19 12 21 13 22 17 23 14 24 16 25
REMARK SMILES IDX 15 26 18 27
REMARK H PARENT 7 8 11 20 18 28
ROOT
ATOM      1  C   UNL     1       4.091  41.953  51.103  1.00  0.00     0.118 C 
ENDROOT
BRANCH   1   2
ATOM      2  C   UNL     1       3.788  41.094  49.872  1.00  0.00     0.050 C 
BRANCH   2   3
ATOM      3  C   UNL     1       4.988  41.013  48.933  1.00  0.00     0.162 C 
BRANCH   3   4
ATOM      4  O   UNL     1       6.115  41.727  49.437  1.00  0.00    -0.382 OA
BRANCH   4   5
ATOM      5  C   UNL     1       6.643  42.674  48.509  1.00  0.00     0.156 C 
ATOM      6  C   UNL     1       7.649  43.542  49.238  1.00  0.00     0.035 C 
ENDBRANCH   4   5
ENDBRANCH   3   4
ENDBRANCH   2   3
ENDBRANCH   1   2
BRANCH   1   7
ATOM      7  N   UNL     1       4.104  43.370  50.773  1.00  0.00    -0.354 N 
ATOM      8  H   UNL     1       4.777  43.658  50.073  1.00  0.00     0.163 HD
BRANCH   7   9
ATOM      9  C   UNL     1       4.162  44.274  51.819  1.00  0.00     0.226 A 
ATOM     10  N   UNL     1       5.122  45.211  51.694  1.00  0.00    -0.195 NA
ATOM     11  N   UNL     1       3.303  44.170  52.841  1.00  0.00    -0.193 NA
ATOM     12  C   UNL     1       5.278  46.156  52.652  1.00  0.00     0.147 A 
ATOM     13  C   UNL     1       3.476  45.119  53.772  1.00  0.00     0.165 A 
ATOM     14  C   UNL     1       4.421  46.125  53.752  1.00  0.00     0.082 A 
ATOM     15  N   UNL     1       2.763  45.295  54.926  1.00  0.00    -0.250 N 
ATOM     16  C   UNL     1       4.196  46.844  54.943  1.00  0.00     0.149 A 
ATOM     17  N   UNL     1       3.192  46.339  55.672  1.00  0.00    -0.179 NA
ATOM     18  C   UNL     1       1.653  44.501  55.388  1.00  0.00     0.176 C 
BRANCH  12  19
ATOM     19  N   UNL     1       6.293  47.105  52.444  1.00  0.00    -0.336 N 
ATOM     20  H   UNL     1       6.037  47.944  52.959  1.00  0.00     0.168 HD
BRANCH  19  21
ATOM     21  C   UNL     1       7.678  46.851  52.541  1.00  0.00     0.082 A 
ATOM     22  C   UNL     1       8.374  46.506  51.375  1.00  0.00     0.030 A 
ATOM     23  C   UNL     1       8.413  47.041  53.721  1.00  0.00     0.139 A 
ATOM     24  C   UNL     1       9.753  46.285  51.405  1.00  0.00     0.002 A 
ATOM     25  C   UNL     1       9.787  46.817  53.758  1.00  0.00     0.048 A 
ATOM     26  C   UNL     1      10.458  46.432  52.598  1.00  0.00     0.004 A 
BRANCH  23  27
ATOM     27  O   UNL     1       7.836  47.475  54.883  1.00  0.00    -0.506 OA
ATOM     28  H   UNL     1       7.906  46.763  55.542  1.00  0.00     0.293 HD
ENDBRANCH  23  27
ENDBRANCH  19  21
ENDBRANCH  12  19
ENDBRANCH   7   9
ENDBRANCH   1   7
TORSDOF 9
ENDMDL
MODEL 10
REMARK VINA RESULT:    -7.503      2.493      4.805
REMARK INTER + INTRA:         -12.666
REMARK INTER:                 -11.755
REMARK INTRA:                  -0.911
REMARK UNBOUND:                -1.434
REMARK SMILES CCOCCCNc1nc(Nc2ccccc2O)c2cnn(C)c2n1
REMARK SMILES IDX 6 1 5 2 4 3 3 4 2 5 1 6 7 7 8 9 9 10 25 11 10 12 24 13 19 14
REMARK SMILES IDX 22 15 20 16 21 17 23 18 11 19 12 21 13 22 17 23 14 24 16 25
REMARK SMILES IDX 15 26 18 27
REMARK H PARENT 7 8 11 20 18 28
ROOT
ATOM      1  C   UNL     1       4.058  41.235  50.108  1.00  0.00     0.118 C 
ENDROOT
BRANCH   1   2
ATOM      2  C   UNL     1       4.476  40.894  48.675  1.00  0.00     0.050 C 
BRANCH   2   3
ATOM      3  C   UNL     1       5.848  41.471  48.337  1.00  0.00     0.162 C 
BRANCH   3   4
ATOM      4  O   UNL     1       5.835  42.209  47.116  1.00  0.00    -0.382 OA
BRANCH   4   5
ATOM      5  C   UNL     1       5.395  41.441  45.997  1.00  0.00     0.156 C 
ATOM      6  C   UNL     1       5.083  42.394  44.861  1.00  0.00     0.035 C 
ENDBRANCH   4   5
ENDBRANCH   3   4
ENDBRANCH   2   3
ENDBRANCH   1   2
BRANCH   1   7
ATOM      7  N   UNL     1       5.060  42.052  50.776  1.00  0.00    -0.354 N 
ATOM      8  H   UNL     1       5.737  41.553  51.340  1.00  0.00     0.163 HD
BRANCH   7   9
ATOM      9  C   UNL     1       4.620  43.143  51.505  1.00  0.00     0.226 A 
ATOM     10  N   UNL     1       5.401  44.235  51.401  1.00  0.00    -0.195 NA
ATOM     11  N   UNL     1       3.499  43.052  52.232  1.00  0.00    -0.193 NA
ATOM     12  C   UNL     1       5.074  45.370  52.064  1.00  0.00     0.147 A 
ATOM     13  C   UNL     1       3.196  44.189  52.875  1.00  0.00     0.165 A 
ATOM     14  C   UNL     1       3.917  45.366  52.843  1.00  0.00     0.082 A 
ATOM     15  N   UNL     1       2.122  44.428  53.687  1.00  0.00    -0.250 N 
ATOM     16  C   UNL     1       3.195  46.243  53.678  1.00  0.00     0.149 A 
ATOM     17  N   UNL     1       2.103  45.677  54.206  1.00  0.00    -0.179 NA
ATOM     18  C   UNL     1       1.066  43.505  54.020  1.00  0.00     0.176 C 
BRANCH  12  19
ATOM     19  N   UNL     1       5.932  46.469  51.896  1.00  0.00    -0.336 N 
ATOM     20  H   UNL     1       5.391  47.311  52.084  1.00  0.00     0.168 HD
BRANCH  19  21
ATOM     21  C   UNL     1       7.236  46.574  52.425  1.00  0.00     0.082 A 
ATOM     22  C   UNL     1       8.322  46.374  51.563  1.00  0.00     0.030 A 
ATOM     23  C   UNL     1       7.501  46.984  53.741  1.00  0.00     0.139 A 
ATOM     24  C   UNL     1       9.634  46.505  52.023  1.00  0.00     0.002 A 
ATOM     25  C   UNL     1       8.807  47.112  54.207  1.00  0.00     0.048 A 
ATOM     26  C   UNL     1       9.877  46.867  53.347  1.00  0.00     0.004 A 
BRANCH  23  27
ATOM     27  O   UNL     1       6.506  47.300  54.625  1.00  0.00    -0.506 OA
ATOM     28  H   UNL     1       5.809  46.625  54.554  1.00  0.00     0.293 HD
ENDBRANCH  23  27
ENDBRANCH  19  21
ENDBRANCH  12  19
ENDBRANCH   7   9
ENDBRANCH   1   7
TORSDOF 9
ENDMDL
MODEL 11
REMARK VINA RESULT:    -7.456      2.766      4.995
REMARK INTER + INTRA:         -12.595
REMARK INTER:                 -11.788
REMARK INTRA:                  -0.807
REMARK UNBOUND:                -1.434
REMARK SMILES CCOCCCNc1nc(Nc2ccccc2O)c2cnn(C)c2n1
REMARK SMILES IDX 6 1 5 2 4 3 3 4 2 5 1 6 7 7 8 9 9 10 25 11 10 12 24 13 19 14
REMARK SMILES IDX 22 15 20 16 21 17 23 18 11 19 12 21 13 22 17 23 14 24 16 25
REMARK SMILES IDX 15 26 18 27
REMARK H PARENT 7 8 11 20 18 28
ROOT
ATOM      1  C   UNL     1       5.384  41.312  48.153  1.00  0.00     0.118 C 
ENDROOT
BRANCH   1   2
ATOM      2  C   UNL     1       5.775  41.932  46.809  1.00  0.00     0.050 C 
BRANCH   2   3
ATOM      3  C   UNL     1       4.899  41.412  45.672  1.00  0.00     0.162 C 
BRANCH   3   4
ATOM      4  O   UNL     1       3.678  40.849  46.148  1.00  0.00    -0.382 OA
BRANCH   4   5
ATOM      5  C   UNL     1       3.402  39.560  45.605  1.00  0.00     0.156 C 
ATOM      6  C   UNL     1       2.842  38.688  46.712  1.00  0.00     0.035 C 
ENDBRANCH   4   5
ENDBRANCH   3   4
ENDBRANCH   2   3
ENDBRANCH   1   2
BRANCH   1   7
ATOM      7  N   UNL     1       6.272  41.748  49.220  1.00  0.00    -0.354 N 
ATOM      8  H   UNL     1       6.697  41.013  49.773  1.00  0.00     0.163 HD
BRANCH   7   9
ATOM      9  C   UNL     1       5.806  42.720  50.088  1.00  0.00     0.226 A 
ATOM     10  N   UNL     1       6.531  43.855  50.095  1.00  0.00    -0.195 NA
ATOM     11  N   UNL     1       4.717  42.486  50.831  1.00  0.00    -0.193 NA
ATOM     12  C   UNL     1       6.174  44.884  50.901  1.00  0.00     0.147 A 
ATOM     13  C   UNL     1       4.384  43.520  51.615  1.00  0.00     0.165 A 
ATOM     14  C   UNL     1       5.047  44.727  51.707  1.00  0.00     0.082 A 
ATOM     15  N   UNL     1       3.328  43.605  52.481  1.00  0.00    -0.250 N 
ATOM     16  C   UNL     1       4.314  45.461  52.662  1.00  0.00     0.149 A 
ATOM     17  N   UNL     1       3.268  44.781  53.148  1.00  0.00    -0.179 NA
ATOM     18  C   UNL     1       2.328  42.596  52.729  1.00  0.00     0.176 C 
BRANCH  12  19
ATOM     19  N   UNL     1       6.974  46.038  50.843  1.00  0.00    -0.336 N 
ATOM     20  H   UNL     1       6.363  46.821  50.622  1.00  0.00     0.168 HD
BRANCH  19  21
ATOM     21  C   UNL     1       7.947  46.404  51.797  1.00  0.00     0.082 A 
ATOM     22  C   UNL     1       9.264  45.966  51.605  1.00  0.00     0.030 A 
ATOM     23  C   UNL     1       7.687  47.281  52.862  1.00  0.00     0.139 A 
ATOM     24  C   UNL     1      10.276  46.333  52.496  1.00  0.00     0.002 A 
ATOM     25  C   UNL     1       8.691  47.646  53.756  1.00  0.00     0.048 A 
ATOM     26  C   UNL     1       9.988  47.167  53.575  1.00  0.00     0.004 A 
BRANCH  23  27
ATOM     27  O   UNL     1       6.456  47.839  53.068  1.00  0.00    -0.506 OA
ATOM     28  H   UNL     1       6.127  47.541  53.934  1.00  0.00     0.293 HD
ENDBRANCH  23  27
ENDBRANCH  19  21
ENDBRANCH  12  19
ENDBRANCH   7   9
ENDBRANCH   1   7
TORSDOF 9
ENDMDL
MODEL 12
REMARK VINA RESULT:    -7.431      2.653      7.645
REMARK INTER + INTRA:         -12.558
REMARK INTER:                 -11.780
REMARK INTRA:                  -0.777
REMARK UNBOUND:                -1.434
REMARK SMILES CCOCCCNc1nc(Nc2ccccc2O)c2cnn(C)c2n1
REMARK SMILES IDX 6 1 5 2 4 3 3 4 2 5 1 6 7 7 8 9 9 10 25 11 10 12 24 13 19 14
REMARK SMILES IDX 22 15 20 16 21 17 23 18 11 19 12 21 13 22 17 23 14 24 16 25
REMARK SMILES IDX 15 26 18 27
REMARK H PARENT 7 8 11 20 18 28
ROOT
ATOM      1  C   UNL     1       7.674  46.692  51.599  1.00  0.00     0.118 C 
ENDROOT
BRANCH   1   2
ATOM      2  C   UNL     1       9.092  47.268  51.640  1.00  0.00     0.050 C 
BRANCH   2   3
ATOM      3  C   UNL     1      10.020  46.421  52.506  1.00  0.00     0.162 C 
BRANCH   3   4
ATOM      4  O   UNL     1       9.549  46.308  53.847  1.00  0.00    -0.382 OA
BRANCH   4   5
ATOM      5  C   UNL     1       9.562  47.546  54.556  1.00  0.00     0.156 C 
ATOM      6  C   UNL     1      10.626  47.465  55.633  1.00  0.00     0.035 C 
ENDBRANCH   4   5
ENDBRANCH   3   4
ENDBRANCH   2   3
ENDBRANCH   1   2
BRANCH   1   7
ATOM      7  N   UNL     1       7.550  45.652  50.589  1.00  0.00    -0.354 N 
ATOM      8  H   UNL     1       7.520  45.967  49.627  1.00  0.00     0.163 HD
BRANCH   7   9
ATOM      9  C   UNL     1       6.556  44.704  50.759  1.00  0.00     0.226 A 
ATOM     10  N   UNL     1       6.647  43.645  49.932  1.00  0.00    -0.195 NA
ATOM     11  N   UNL     1       5.611  44.887  51.690  1.00  0.00    -0.193 NA
ATOM     12  C   UNL     1       5.735  42.646  50.003  1.00  0.00     0.147 A 
ATOM     13  C   UNL     1       4.723  43.884  51.742  1.00  0.00     0.165 A 
ATOM     14  C   UNL     1       4.716  42.754  50.950  1.00  0.00     0.082 A 
ATOM     15  N   UNL     1       3.649  43.762  52.580  1.00  0.00    -0.250 N 
ATOM     16  C   UNL     1       3.592  42.024  51.387  1.00  0.00     0.149 A 
ATOM     17  N   UNL     1       2.928  42.636  52.376  1.00  0.00    -0.179 NA
ATOM     18  C   UNL     1       3.244  44.688  53.608  1.00  0.00     0.176 C 
BRANCH  12  19
ATOM     19  N   UNL     1       5.905  41.571  49.115  1.00  0.00    -0.336 N 
ATOM     20  H   UNL     1       5.888  40.715  49.666  1.00  0.00     0.168 HD
BRANCH  19  21
ATOM     21  C   UNL     1       5.216  41.405  47.895  1.00  0.00     0.082 A 
ATOM     22  C   UNL     1       5.796  41.920  46.729  1.00  0.00     0.030 A 
ATOM     23  C   UNL     1       4.040  40.649  47.773  1.00  0.00     0.139 A 
ATOM     24  C   UNL     1       5.179  41.749  45.487  1.00  0.00     0.002 A 
ATOM     25  C   UNL     1       3.418  40.479  46.538  1.00  0.00     0.048 A 
ATOM     26  C   UNL     1       3.986  41.035  45.393  1.00  0.00     0.004 A 
BRANCH  23  27
ATOM     27  O   UNL     1       3.456  40.023  48.840  1.00  0.00    -0.506 OA
ATOM     28  H   UNL     1       4.156  39.775  49.468  1.00  0.00     0.293 HD
ENDBRANCH  23  27
ENDBRANCH  19  21
ENDBRANCH  12  19
ENDBRANCH   7   9
ENDBRANCH   1   7
TORSDOF 9
ENDMDL
MODEL 13
REMARK VINA RESULT:    -7.391      1.871      6.585
REMARK INTER + INTRA:         -12.498
REMARK INTER:                 -12.199
REMARK INTRA:                  -0.299
REMARK UNBOUND:                -1.434
REMARK SMILES CCOCCCNc1nc(Nc2ccccc2O)c2cnn(C)c2n1
REMARK SMILES IDX 6 1 5 2 4 3 3 4 2 5 1 6 7 7 8 9 9 10 25 11 10 12 24 13 19 14
REMARK SMILES IDX 22 15 20 16 21 17 23 18 11 19 12 21 13 22 17 23 14 24 16 25
REMARK SMILES IDX 15 26 18 27
REMARK H PARENT 7 8 11 20 18 28
ROOT
ATOM      1  C   UNL     1       6.517  45.900  53.990  1.00  0.00     0.118 C 
ENDROOT
BRANCH   1   2
ATOM      2  C   UNL     1       6.416  47.179  53.154  1.00  0.00     0.050 C 
BRANCH   2   3
ATOM      3  C   UNL     1       7.790  47.667  52.703  1.00  0.00     0.162 C 
BRANCH   3   4
ATOM      4  O   UNL     1       8.622  48.024  53.805  1.00  0.00    -0.382 OA
BRANCH   4   5
ATOM      5  C   UNL     1       9.881  47.355  53.802  1.00  0.00     0.156 C 
ATOM      6  C   UNL     1      10.054  46.675  52.457  1.00  0.00     0.035 C 
ENDBRANCH   4   5
ENDBRANCH   3   4
ENDBRANCH   2   3
ENDBRANCH   1   2
BRANCH   1   7
ATOM      7  N   UNL     1       5.505  45.865  55.035  1.00  0.00    -0.354 N 
ATOM      8  H   UNL     1       5.790  45.460  55.918  1.00  0.00     0.163 HD
BRANCH   7   9
ATOM      9  C   UNL     1       4.262  45.349  54.711  1.00  0.00     0.226 A 
ATOM     10  N   UNL     1       4.224  44.676  53.544  1.00  0.00    -0.195 NA
ATOM     11  N   UNL     1       3.224  45.539  55.536  1.00  0.00    -0.193 NA
ATOM     12  C   UNL     1       3.065  44.120  53.118  1.00  0.00     0.147 A 
ATOM     13  C   UNL     1       2.092  44.976  55.093  1.00  0.00     0.165 A 
ATOM     14  C   UNL     1       1.933  44.265  53.920  1.00  0.00     0.082 A 
ATOM     15  N   UNL     1       0.865  44.979  55.699  1.00  0.00    -0.250 N 
ATOM     16  C   UNL     1       0.573  43.896  53.913  1.00  0.00     0.149 A 
ATOM     17  N   UNL     1      -0.090  44.335  54.990  1.00  0.00    -0.179 NA
ATOM     18  C   UNL     1       0.526  45.583  56.963  1.00  0.00     0.176 C 
BRANCH  12  19
ATOM     19  N   UNL     1       3.110  43.425  51.898  1.00  0.00    -0.336 N 
ATOM     20  H   UNL     1       2.347  43.773  51.321  1.00  0.00     0.168 HD
BRANCH  19  21
ATOM     21  C   UNL     1       4.271  43.204  51.128  1.00  0.00     0.082 A 
ATOM     22  C   UNL     1       5.155  44.273  50.936  1.00  0.00     0.030 A 
ATOM     23  C   UNL     1       4.642  41.940  50.642  1.00  0.00     0.139 A 
ATOM     24  C   UNL     1       6.340  44.102  50.217  1.00  0.00     0.002 A 
ATOM     25  C   UNL     1       5.820  41.764  49.920  1.00  0.00     0.048 A 
ATOM     26  C   UNL     1       6.668  42.848  49.702  1.00  0.00     0.004 A 
BRANCH  23  27
ATOM     27  O   UNL     1       3.893  40.819  50.868  1.00  0.00    -0.506 OA
ATOM     28  H   UNL     1       2.961  41.034  50.690  1.00  0.00     0.293 HD
ENDBRANCH  23  27
ENDBRANCH  19  21
ENDBRANCH  12  19
ENDBRANCH   7   9
ENDBRANCH   1   7
TORSDOF 9
ENDMDL
MODEL 14
REMARK VINA RESULT:    -7.386      2.098      5.792
REMARK INTER + INTRA:         -12.491
REMARK INTER:                 -11.049
REMARK INTRA:                  -1.442
REMARK UNBOUND:                -1.434
REMARK SMILES CCOCCCNc1nc(Nc2ccccc2O)c2cnn(C)c2n1
REMARK SMILES IDX 6 1 5 2 4 3 3 4 2 5 1 6 7 7 8 9 9 10 25 11 10 12 24 13 19 14
REMARK SMILES IDX 22 15 20 16 21 17 23 18 11 19 12 21 13 22 17 23 14 24 16 25
REMARK SMILES IDX 15 26 18 27
REMARK H PARENT 7 8 11 20 18 28
ROOT
ATOM      1  C   UNL     1       6.900  43.051  49.402  1.00  0.00     0.118 C 
ENDROOT
BRANCH   1   2
ATOM      2  C   UNL     1       6.603  41.598  49.783  1.00  0.00     0.050 C 
BRANCH   2   3
ATOM      3  C   UNL     1       5.121  41.267  49.632  1.00  0.00     0.162 C 
BRANCH   3   4
ATOM      4  O   UNL     1       4.466  41.141  50.892  1.00  0.00    -0.382 OA
BRANCH   4   5
ATOM      5  C   UNL     1       3.280  41.926  50.993  1.00  0.00     0.156 C 
ATOM      6  C   UNL     1       3.308  42.661  52.318  1.00  0.00     0.035 C 
ENDBRANCH   4   5
ENDBRANCH   3   4
ENDBRANCH   2   3
ENDBRANCH   1   2
BRANCH   1   7
ATOM      7  N   UNL     1       5.918  43.962  49.971  1.00  0.00    -0.354 N 
ATOM      8  H   UNL     1       5.292  44.410  49.312  1.00  0.00     0.163 HD
BRANCH   7   9
ATOM      9  C   UNL     1       6.371  44.928  50.853  1.00  0.00     0.226 A 
ATOM     10  N   UNL     1       5.398  45.550  51.546  1.00  0.00    -0.195 NA
ATOM     11  N   UNL     1       7.684  45.172  50.959  1.00  0.00    -0.193 NA
ATOM     12  C   UNL     1       5.715  46.513  52.445  1.00  0.00     0.147 A 
ATOM     13  C   UNL     1       7.969  46.126  51.857  1.00  0.00     0.165 A 
ATOM     14  C   UNL     1       7.062  46.829  52.624  1.00  0.00     0.082 A 
ATOM     15  N   UNL     1       9.204  46.601  52.206  1.00  0.00    -0.250 N 
ATOM     16  C   UNL     1       7.854  47.707  53.391  1.00  0.00     0.149 A 
ATOM     17  N   UNL     1       9.162  47.582  53.136  1.00  0.00    -0.179 NA
ATOM     18  C   UNL     1      10.477  46.165  51.689  1.00  0.00     0.176 C 
BRANCH  12  19
ATOM     19  N   UNL     1       4.646  47.107  53.136  1.00  0.00    -0.336 N 
ATOM     20  H   UNL     1       4.420  47.977  52.659  1.00  0.00     0.168 HD
BRANCH  19  21
ATOM     21  C   UNL     1       3.476  46.439  53.558  1.00  0.00     0.082 A 
ATOM     22  C   UNL     1       2.372  46.424  52.696  1.00  0.00     0.030 A 
ATOM     23  C   UNL     1       3.403  45.691  54.744  1.00  0.00     0.139 A 
ATOM     24  C   UNL     1       1.202  45.744  53.043  1.00  0.00     0.002 A 
ATOM     25  C   UNL     1       2.237  45.015  55.097  1.00  0.00     0.048 A 
ATOM     26  C   UNL     1       1.133  45.046  54.248  1.00  0.00     0.004 A 
BRANCH  23  27
ATOM     27  O   UNL     1       4.464  45.565  55.597  1.00  0.00    -0.506 OA
ATOM     28  H   UNL     1       5.164  46.173  55.305  1.00  0.00     0.293 HD
ENDBRANCH  23  27
ENDBRANCH  19  21
ENDBRANCH  12  19
ENDBRANCH   7   9
ENDBRANCH   1   7
TORSDOF 9
ENDMDL
MODEL 15
REMARK VINA RESULT:    -7.368      2.307      5.658
REMARK INTER + INTRA:         -12.464
REMARK INTER:                 -11.723
REMARK INTRA:                  -0.741
REMARK UNBOUND:                -1.434
REMARK SMILES CCOCCCNc1nc(Nc2ccccc2O)c2cnn(C)c2n1
REMARK SMILES IDX 6 1 5 2 4 3 3 4 2 5 1 6 7 7 8 9 9 10 25 11 10 12 24 13 19 14
REMARK SMILES IDX 22 15 20 16 21 17 23 18 11 19 12 21 13 22 17 23 14 24 16 25
REMARK SMILES IDX 15 26 18 27
REMARK H PARENT 7 8 11 20 18 28
ROOT
ATOM      1  C   UNL     1       5.518  44.945  55.137  1.00  0.00     0.118 C 
ENDROOT
BRANCH   1   2
ATOM      2  C   UNL     1       6.023  46.371  54.901  1.00  0.00     0.050 C 
BRANCH   2   3
ATOM      3  C   UNL     1       7.262  46.390  54.010  1.00  0.00     0.162 C 
BRANCH   3   4
ATOM      4  O   UNL     1       7.939  47.644  54.057  1.00  0.00    -0.382 OA
BRANCH   4   5
ATOM      5  C   UNL     1       8.767  47.881  52.919  1.00  0.00     0.156 C 
ATOM      6  C   UNL     1       9.880  46.853  52.920  1.00  0.00     0.035 C 
ENDBRANCH   4   5
ENDBRANCH   3   4
ENDBRANCH   2   3
ENDBRANCH   1   2
BRANCH   1   7
ATOM      7  N   UNL     1       4.065  44.894  55.181  1.00  0.00    -0.354 N 
ATOM      8  H   UNL     1       3.660  44.413  55.975  1.00  0.00     0.163 HD
BRANCH   7   9
ATOM      9  C   UNL     1       3.400  44.474  54.043  1.00  0.00     0.226 A 
ATOM     10  N   UNL     1       4.186  43.880  53.124  1.00  0.00    -0.195 NA
ATOM     11  N   UNL     1       2.080  44.671  53.929  1.00  0.00    -0.193 NA
ATOM     12  C   UNL     1       3.652  43.421  51.967  1.00  0.00     0.147 A 
ATOM     13  C   UNL     1       1.577  44.204  52.777  1.00  0.00     0.165 A 
ATOM     14  C   UNL     1       2.281  43.581  51.767  1.00  0.00     0.082 A 
ATOM     15  N   UNL     1       0.274  44.240  52.360  1.00  0.00    -0.250 N 
ATOM     16  C   UNL     1       1.310  43.292  50.787  1.00  0.00     0.149 A 
ATOM     17  N   UNL     1       0.083  43.700  51.135  1.00  0.00    -0.179 NA
ATOM     18  C   UNL     1      -0.851  44.781  53.081  1.00  0.00     0.176 C 
BRANCH  12  19
ATOM     19  N   UNL     1       4.535  42.805  51.065  1.00  0.00    -0.336 N 
ATOM     20  H   UNL     1       3.974  42.389  50.324  1.00  0.00     0.168 HD
BRANCH  19  21
ATOM     21  C   UNL     1       5.710  43.389  50.546  1.00  0.00     0.082 A 
ATOM     22  C   UNL     1       5.997  44.717  50.884  1.00  0.00     0.030 A 
ATOM     23  C   UNL     1       6.662  42.672  49.805  1.00  0.00     0.139 A 
ATOM     24  C   UNL     1       7.167  45.334  50.432  1.00  0.00     0.002 A 
ATOM     25  C   UNL     1       7.828  43.283  49.347  1.00  0.00     0.048 A 
ATOM     26  C   UNL     1       8.078  44.618  49.657  1.00  0.00     0.004 A 
BRANCH  23  27
ATOM     27  O   UNL     1       6.516  41.344  49.513  1.00  0.00    -0.506 OA
ATOM     28  H   UNL     1       7.356  41.017  49.148  1.00  0.00     0.293 HD
ENDBRANCH  23  27
ENDBRANCH  19  21
ENDBRANCH  12  19
ENDBRANCH   7   9
ENDBRANCH   1   7
TORSDOF 9
ENDMDL
MODEL 16
REMARK VINA RESULT:    -7.352      1.479      6.386
REMARK INTER + INTRA:         -12.440
REMARK INTER:                 -11.284
REMARK INTRA:                  -1.156
REMARK UNBOUND:                -1.434
REMARK SMILES CCOCCCNc1nc(Nc2ccccc2O)c2cnn(C)c2n1
REMARK SMILES IDX 6 1 5 2 4 3 3 4 2 5 1 6 7 7 8 9 9 10 25 11 10 12 24 13 19 14
REMARK SMILES IDX 22 15 20 16 21 17 23 18 11 19 12 21 13 22 17 23 14 24 16 25
REMARK SMILES IDX 15 26 18 27
REMARK H PARENT 7 8 11 20 18 28
ROOT
ATOM      1  C   UNL     1       3.994  47.042  53.286  1.00  0.00     0.118 C 
ENDROOT
BRANCH   1   2
ATOM      2  C   UNL     1       4.737  47.457  54.560  1.00  0.00     0.050 C 
BRANCH   2   3
ATOM      3  C   UNL     1       6.062  46.715  54.705  1.00  0.00     0.162 C 
BRANCH   3   4
ATOM      4  O   UNL     1       7.167  47.493  54.249  1.00  0.00    -0.382 OA
BRANCH   4   5
ATOM      5  C   UNL     1       8.208  46.710  53.668  1.00  0.00     0.156 C 
ATOM      6  C   UNL     1       9.520  47.441  53.867  1.00  0.00     0.035 C 
ENDBRANCH   4   5
ENDBRANCH   3   4
ENDBRANCH   2   3
ENDBRANCH   1   2
BRANCH   1   7
ATOM      7  N   UNL     1       4.919  46.651  52.233  1.00  0.00    -0.354 N 
ATOM      8  H   UNL     1       4.916  47.229  51.401  1.00  0.00     0.163 HD
BRANCH   7   9
ATOM      9  C   UNL     1       4.916  45.327  51.833  1.00  0.00     0.226 A 
ATOM     10  N   UNL     1       3.966  44.569  52.416  1.00  0.00    -0.195 NA
ATOM     11  N   UNL     1       5.811  44.899  50.933  1.00  0.00    -0.193 NA
ATOM     12  C   UNL     1       3.858  43.255  52.103  1.00  0.00     0.147 A 
ATOM     13  C   UNL     1       5.680  43.598  50.639  1.00  0.00     0.165 A 
ATOM     14  C   UNL     1       4.750  42.727  51.169  1.00  0.00     0.082 A 
ATOM     15  N   UNL     1       6.426  42.861  49.760  1.00  0.00    -0.250 N 
ATOM     16  C   UNL     1       5.030  41.492  50.550  1.00  0.00     0.149 A 
ATOM     17  N   UNL     1       6.058  41.561  49.695  1.00  0.00    -0.179 NA
ATOM     18  C   UNL     1       7.515  43.333  48.942  1.00  0.00     0.176 C 
BRANCH  12  19
ATOM     19  N   UNL     1       2.837  42.536  52.745  1.00  0.00    -0.336 N 
ATOM     20  H   UNL     1       3.246  42.091  53.564  1.00  0.00     0.168 HD
BRANCH  19  21
ATOM     21  C   UNL     1       1.545  43.029  53.026  1.00  0.00     0.082 A 
ATOM     22  C   UNL     1       0.476  42.576  52.242  1.00  0.00     0.030 A 
ATOM     23  C   UNL     1       1.260  43.858  54.122  1.00  0.00     0.139 A 
ATOM     24  C   UNL     1      -0.831  42.999  52.502  1.00  0.00     0.002 A 
ATOM     25  C   UNL     1      -0.039  44.287  54.382  1.00  0.00     0.048 A 
ATOM     26  C   UNL     1      -1.086  43.861  53.567  1.00  0.00     0.004 A 
BRANCH  23  27
ATOM     27  O   UNL     1       2.224  44.269  55.001  1.00  0.00    -0.506 OA
ATOM     28  H   UNL     1       2.998  44.563  54.490  1.00  0.00     0.293 HD
ENDBRANCH  23  27
ENDBRANCH  19  21
ENDBRANCH  12  19
ENDBRANCH   7   9
ENDBRANCH   1   7
TORSDOF 9
ENDMDL
MODEL 17
REMARK VINA RESULT:    -7.342      2.977      6.256
REMARK INTER + INTRA:         -12.425
REMARK INTER:                 -11.103
REMARK INTRA:                  -1.322
REMARK UNBOUND:                -1.434
REMARK SMILES CCOCCCNc1nc(Nc2ccccc2O)c2cnn(C)c2n1
REMARK SMILES IDX 6 1 5 2 4 3 3 4 2 5 1 6 7 7 8 9 9 10 25 11 10 12 24 13 19 14
REMARK SMILES IDX 22 15 20 16 21 17 23 18 11 19 12 21 13 22 17 23 14 24 16 25
REMARK SMILES IDX 15 26 18 27
REMARK H PARENT 7 8 11 20 18 28
ROOT
ATOM      1  C   UNL     1       1.904  42.981  52.226  1.00  0.00     0.118 C 
ENDROOT
BRANCH   1   2
ATOM      2  C   UNL     1       1.345  43.578  53.521  1.00  0.00     0.050 C 
BRANCH   2   3
ATOM      3  C   UNL     1       1.895  44.978  53.778  1.00  0.00     0.162 C 
BRANCH   3   4
ATOM      4  O   UNL     1       1.632  45.868  52.694  1.00  0.00    -0.382 OA
BRANCH   4   5
ATOM      5  C   UNL     1       2.738  46.709  52.374  1.00  0.00     0.156 C 
ATOM      6  C   UNL     1       3.141  46.437  50.938  1.00  0.00     0.035 C 
ENDBRANCH   4   5
ENDBRANCH   3   4
ENDBRANCH   2   3
ENDBRANCH   1   2
BRANCH   1   7
ATOM      7  N   UNL     1       3.178  42.316  52.452  1.00  0.00    -0.354 N 
ATOM      8  H   UNL     1       3.496  42.277  53.413  1.00  0.00     0.163 HD
BRANCH   7   9
ATOM      9  C   UNL     1       4.251  42.693  51.663  1.00  0.00     0.226 A 
ATOM     10  N   UNL     1       4.518  41.852  50.645  1.00  0.00    -0.195 NA
ATOM     11  N   UNL     1       4.924  43.816  51.945  1.00  0.00    -0.193 NA
ATOM     12  C   UNL     1       5.542  42.115  49.798  1.00  0.00     0.147 A 
ATOM     13  C   UNL     1       5.929  44.053  51.091  1.00  0.00     0.165 A 
ATOM     14  C   UNL     1       6.295  43.269  50.016  1.00  0.00     0.082 A 
ATOM     15  N   UNL     1       6.797  45.111  51.096  1.00  0.00    -0.250 N 
ATOM     16  C   UNL     1       7.398  43.939  49.449  1.00  0.00     0.149 A 
ATOM     17  N   UNL     1       7.719  45.060  50.107  1.00  0.00    -0.179 NA
ATOM     18  C   UNL     1       6.809  46.217  52.021  1.00  0.00     0.176 C 
BRANCH  12  19
ATOM     19  N   UNL     1       5.750  41.197  48.756  1.00  0.00    -0.336 N 
ATOM     20  H   UNL     1       5.789  40.268  49.170  1.00  0.00     0.168 HD
BRANCH  19  21
ATOM     21  C   UNL     1       5.046  41.179  47.533  1.00  0.00     0.082 A 
ATOM     22  C   UNL     1       5.649  41.760  46.410  1.00  0.00     0.030 A 
ATOM     23  C   UNL     1       3.826  40.507  47.358  1.00  0.00     0.139 A 
ATOM     24  C   UNL     1       5.016  41.735  45.165  1.00  0.00     0.002 A 
ATOM     25  C   UNL     1       3.188  40.483  46.120  1.00  0.00     0.048 A 
ATOM     26  C   UNL     1       3.782  41.103  45.022  1.00  0.00     0.004 A 
BRANCH  23  27
ATOM     27  O   UNL     1       3.212  39.825  48.372  1.00  0.00    -0.506 OA
ATOM     28  H   UNL     1       2.567  39.212  47.981  1.00  0.00     0.293 HD
ENDBRANCH  23  27
ENDBRANCH  19  21
ENDBRANCH  12  19
ENDBRANCH   7   9
ENDBRANCH   1   7
TORSDOF 9
ENDMDL
MODEL 18
REMARK VINA RESULT:    -7.330      2.087      6.494
REMARK INTER + INTRA:         -12.407
REMARK INTER:                 -11.528
REMARK INTRA:                  -0.879
REMARK UNBOUND:                -1.434
REMARK SMILES CCOCCCNc1nc(Nc2ccccc2O)c2cnn(C)c2n1
REMARK SMILES IDX 6 1 5 2 4 3 3 4 2 5 1 6 7 7 8 9 9 10 25 11 10 12 24 13 19 14
REMARK SMILES IDX 22 15 20 16 21 17 23 18 11 19 12 21 13 22 17 23 14 24 16 25
REMARK SMILES IDX 15 26 18 27
REMARK H PARENT 7 8 11 20 18 28
ROOT
ATOM      1  C   UNL     1       5.563  45.405  54.936  1.00  0.00     0.118 C 
ENDROOT
BRANCH   1   2
ATOM      2  C   UNL     1       6.078  46.804  54.586  1.00  0.00     0.050 C 
BRANCH   2   3
ATOM      3  C   UNL     1       7.535  46.771  54.133  1.00  0.00     0.162 C 
BRANCH   3   4
ATOM      4  O   UNL     1       8.358  47.642  54.906  1.00  0.00    -0.382 OA
BRANCH   4   5
ATOM      5  C   UNL     1       9.748  47.513  54.611  1.00  0.00     0.156 C 
ATOM      6  C   UNL     1       9.886  46.888  53.237  1.00  0.00     0.035 C 
ENDBRANCH   4   5
ENDBRANCH   3   4
ENDBRANCH   2   3
ENDBRANCH   1   2
BRANCH   1   7
ATOM      7  N   UNL     1       4.314  45.467  55.681  1.00  0.00    -0.354 N 
ATOM      8  H   UNL     1       4.324  45.045  56.602  1.00  0.00     0.163 HD
BRANCH   7   9
ATOM      9  C   UNL     1       3.159  45.060  55.037  1.00  0.00     0.226 A 
ATOM     10  N   UNL     1       3.336  44.690  53.754  1.00  0.00    -0.195 NA
ATOM     11  N   UNL     1       1.993  45.058  55.696  1.00  0.00    -0.193 NA
ATOM     12  C   UNL     1       2.281  44.267  53.017  1.00  0.00     0.147 A 
ATOM     13  C   UNL     1       0.967  44.632  54.945  1.00  0.00     0.165 A 
ATOM     14  C   UNL     1       1.027  44.228  53.627  1.00  0.00     0.082 A 
ATOM     15  N   UNL     1      -0.343  44.504  55.318  1.00  0.00    -0.250 N 
ATOM     16  C   UNL     1      -0.302  43.888  53.302  1.00  0.00     0.149 A 
ATOM     17  N   UNL     1      -1.148  44.062  54.325  1.00  0.00    -0.179 NA
ATOM     18  C   UNL     1      -0.906  44.788  56.614  1.00  0.00     0.176 C 
BRANCH  12  19
ATOM     19  N   UNL     1       2.549  43.888  51.691  1.00  0.00    -0.336 N 
ATOM     20  H   UNL     1       2.158  44.605  51.084  1.00  0.00     0.168 HD
BRANCH  19  21
ATOM     21  C   UNL     1       3.795  43.435  51.209  1.00  0.00     0.082 A 
ATOM     22  C   UNL     1       3.940  42.073  50.919  1.00  0.00     0.030 A 
ATOM     23  C   UNL     1       4.857  44.298  50.894  1.00  0.00     0.139 A 
ATOM     24  C   UNL     1       5.139  41.576  50.399  1.00  0.00     0.002 A 
ATOM     25  C   UNL     1       6.055  43.808  50.381  1.00  0.00     0.048 A 
ATOM     26  C   UNL     1       6.199  42.443  50.138  1.00  0.00     0.004 A 
BRANCH  23  27
ATOM     27  O   UNL     1       4.770  45.654  51.048  1.00  0.00    -0.506 OA
ATOM     28  H   UNL     1       4.994  46.073  50.199  1.00  0.00     0.293 HD
ENDBRANCH  23  27
ENDBRANCH  19  21
ENDBRANCH  12  19
ENDBRANCH   7   9
ENDBRANCH   1   7
TORSDOF 9
ENDMDL
MODEL 19
REMARK VINA RESULT:    -7.315      1.611      7.206
REMARK INTER + INTRA:         -12.384
REMARK INTER:                 -11.506
REMARK INTRA:                  -0.878
REMARK UNBOUND:                -1.434
REMARK SMILES CCOCCCNc1nc(Nc2ccccc2O)c2cnn(C)c2n1
REMARK SMILES IDX 6 1 5 2 4 3 3 4 2 5 1 6 7 7 8 9 9 10 25 11 10 12 24 13 19 14
REMARK SMILES IDX 22 15 20 16 21 17 23 18 11 19 12 21 13 22 17 23 14 24 16 25
REMARK SMILES IDX 15 26 18 27
REMARK H PARENT 7 8 11 20 18 28
ROOT
ATOM      1  C   UNL     1       7.351  47.323  52.006  1.00  0.00     0.118 C 
ENDROOT
BRANCH   1   2
ATOM      2  C   UNL     1       8.524  47.899  52.804  1.00  0.00     0.050 C 
BRANCH   2   3
ATOM      3  C   UNL     1       9.736  46.972  52.772  1.00  0.00     0.162 C 
BRANCH   3   4
ATOM      4  O   UNL     1      10.170  46.608  54.081  1.00  0.00    -0.382 OA
BRANCH   4   5
ATOM      5  C   UNL     1       9.857  47.586  55.072  1.00  0.00     0.156 C 
ATOM      6  C   UNL     1      10.960  47.578  56.112  1.00  0.00     0.035 C 
ENDBRANCH   4   5
ENDBRANCH   3   4
ENDBRANCH   2   3
ENDBRANCH   1   2
BRANCH   1   7
ATOM      7  N   UNL     1       6.304  46.823  52.884  1.00  0.00    -0.354 N 
ATOM      8  H   UNL     1       6.540  46.759  53.867  1.00  0.00     0.163 HD
BRANCH   7   9
ATOM      9  C   UNL     1       5.665  45.650  52.521  1.00  0.00     0.226 A 
ATOM     10  N   UNL     1       4.565  45.367  53.245  1.00  0.00    -0.195 NA
ATOM     11  N   UNL     1       6.154  44.905  51.521  1.00  0.00    -0.193 NA
ATOM     12  C   UNL     1       3.849  44.247  52.983  1.00  0.00     0.147 A 
ATOM     13  C   UNL     1       5.426  43.806  51.281  1.00  0.00     0.165 A 
ATOM     14  C   UNL     1       4.286  43.414  51.952  1.00  0.00     0.082 A 
ATOM     15  N   UNL     1       5.649  42.849  50.329  1.00  0.00    -0.250 N 
ATOM     16  C   UNL     1       3.910  42.205  51.333  1.00  0.00     0.149 A 
ATOM     17  N   UNL     1       4.741  41.846  50.347  1.00  0.00    -0.179 NA
ATOM     18  C   UNL     1       6.717  42.822  49.361  1.00  0.00     0.176 C 
BRANCH  12  19
ATOM     19  N   UNL     1       2.709  44.027  53.773  1.00  0.00    -0.336 N 
ATOM     20  H   UNL     1       2.790  44.621  54.597  1.00  0.00     0.168 HD
BRANCH  19  21
ATOM     21  C   UNL     1       1.381  43.995  53.298  1.00  0.00     0.082 A 
ATOM     22  C   UNL     1       0.651  42.809  53.446  1.00  0.00     0.030 A 
ATOM     23  C   UNL     1       0.718  45.124  52.792  1.00  0.00     0.139 A 
ATOM     24  C   UNL     1      -0.681  42.732  53.031  1.00  0.00     0.002 A 
ATOM     25  C   UNL     1      -0.608  45.053  52.372  1.00  0.00     0.048 A 
ATOM     26  C   UNL     1      -1.308  43.853  52.486  1.00  0.00     0.004 A 
BRANCH  23  27
ATOM     27  O   UNL     1       1.319  46.350  52.705  1.00  0.00    -0.506 OA
ATOM     28  H   UNL     1       1.138  46.837  53.526  1.00  0.00     0.293 HD
ENDBRANCH  23  27
ENDBRANCH  19  21
ENDBRANCH  12  19
ENDBRANCH   7   9
ENDBRANCH   1   7
TORSDOF 9
ENDMDL
