MODEL 1
REMARK VINA RESULT:    -8.354      0.000      0.000
REMARK INTER + INTRA:         -12.196
REMARK INTER:                 -11.528
REMARK INTRA:                  -0.667
REMARK UNBOUND:                -0.667
REMARK SMILES OCCNc1nc(NC[C@H]2CCCO2)c2ccccc2n1
REMARK SMILES IDX 4 1 3 3 2 4 1 5 5 7 6 8 21 9 7 10 20 11 15 12 19 13 16 14
REMARK SMILES IDX 18 15 17 16 8 17 9 19 10 20 11 21 14 22 12 23 13 24
REMARK H PARENT 4 2 1 6 8 18
ROOT
ATOM      1  N   UNL     1       2.237  43.419  53.549  1.00  0.00    -0.352 N 
ATOM      2  H   UNL     1       2.613  42.874  54.320  1.00  0.00     0.163 HD
ENDROOT
BRANCH   1   3
ATOM      3  C   UNL     1       1.727  44.726  53.953  1.00  0.00     0.144 C 
BRANCH   3   4
ATOM      4  C   UNL     1       1.952  44.924  55.455  1.00  0.00     0.177 C 
BRANCH   4   5
ATOM      5  O   UNL     1       3.340  44.847  55.779  1.00  0.00    -0.395 OA
ATOM      6  H   UNL     1       3.387  44.344  56.611  1.00  0.00     0.210 HD
ENDBRANCH   4   5
ENDBRANCH   3   4
ENDBRANCH   1   3
BRANCH   1   7
ATOM      7  C   UNL     1       3.296  43.486  52.648  1.00  0.00     0.225 A 
ATOM      8  N   UNL     1       3.917  44.666  52.593  1.00  0.00    -0.195 NA
ATOM      9  N   UNL     1       3.632  42.424  51.913  1.00  0.00    -0.213 NA
ATOM     10  C   UNL     1       4.956  44.796  51.755  1.00  0.00     0.139 A 
ATOM     11  C   UNL     1       4.678  42.542  51.092  1.00  0.00     0.078 A 
ATOM     12  C   UNL     1       5.408  43.727  50.964  1.00  0.00     0.043 A 
ATOM     13  C   UNL     1       5.058  41.442  50.333  1.00  0.00     0.029 A 
ATOM     14  C   UNL     1       6.523  43.771  50.085  1.00  0.00     0.014 A 
ATOM     15  C   UNL     1       6.148  41.485  49.459  1.00  0.00     0.002 A 
ATOM     16  C   UNL     1       6.886  42.654  49.337  1.00  0.00     0.001 A 
BRANCH  10  17
ATOM     17  N   UNL     1       5.624  46.041  51.679  1.00  0.00    -0.367 N 
ATOM     18  H   UNL     1       4.925  46.772  51.783  1.00  0.00     0.162 HD
BRANCH  17  19
ATOM     19  C   UNL     1       6.730  46.242  52.623  1.00  0.00     0.146 C 
BRANCH  19  20
ATOM     20  C   UNL     1       7.895  47.067  52.042  1.00  0.00     0.137 C 
ATOM     21  C   UNL     1       8.701  47.825  53.094  1.00  0.00     0.036 C 
ATOM     22  O   UNL     1       8.822  46.155  51.404  1.00  0.00    -0.376 OA
ATOM     23  C   UNL     1       9.819  46.867  53.419  1.00  0.00     0.031 C 
ATOM     24  C   UNL     1      10.087  46.240  52.071  1.00  0.00     0.160 C 
ENDBRANCH  19  20
ENDBRANCH  17  19
ENDBRANCH  10  17
ENDBRANCH   1   7
TORSDOF 7
ENDMDL
MODEL 2
REMARK VINA RESULT:    -8.236      0.981      1.210
REMARK INTER + INTRA:         -12.033
REMARK INTER:                 -11.113
REMARK INTRA:                  -0.920
REMARK UNBOUND:                -0.667
REMARK SMILES OCCNc1nc(NC[C@H]2CCCO2)c2ccccc2n1
REMARK SMILES IDX 4 1 3 3 2 4 1 5 5 7 6 8 21 9 7 10 20 11 15 12 19 13 16 14
REMARK SMILES IDX 18 15 17 16 8 17 9 19 10 20 11 21 14 22 12 23 13 24
REMARK H PARENT 4 2 1 6 8 18
ROOT
ATOM      1  N   UNL     1       2.215  43.483  53.553  1.00  0.00    -0.352 N 
ATOM      2  H   UNL     1       2.582  42.899  54.300  1.00  0.00     0.163 HD
ENDROOT
BRANCH   1   3
ATOM      3  C   UNL     1       1.708  44.771  54.019  1.00  0.00     0.144 C 
BRANCH   3   4
ATOM      4  C   UNL     1       1.983  44.920  55.518  1.00  0.00     0.177 C 
BRANCH   4   5
ATOM      5  O   UNL     1       3.383  44.863  55.790  1.00  0.00    -0.395 OA
ATOM      6  H   UNL     1       3.559  43.945  56.061  1.00  0.00     0.210 HD
ENDBRANCH   4   5
ENDBRANCH   3   4
ENDBRANCH   1   3
BRANCH   1   7
ATOM      7  C   UNL     1       3.282  43.590  52.665  1.00  0.00     0.225 A 
ATOM      8  N   UNL     1       3.871  44.787  52.632  1.00  0.00    -0.195 NA
ATOM      9  N   UNL     1       3.654  42.547  51.921  1.00  0.00    -0.213 NA
ATOM     10  C   UNL     1       4.915  44.956  51.807  1.00  0.00     0.139 A 
ATOM     11  C   UNL     1       4.706  42.703  51.113  1.00  0.00     0.078 A 
ATOM     12  C   UNL     1       5.405  43.910  51.009  1.00  0.00     0.043 A 
ATOM     13  C   UNL     1       5.124  41.623  50.345  1.00  0.00     0.029 A 
ATOM     14  C   UNL     1       6.527  43.994  50.142  1.00  0.00     0.014 A 
ATOM     15  C   UNL     1       6.221  41.707  49.484  1.00  0.00     0.002 A 
ATOM     16  C   UNL     1       6.928  42.897  49.385  1.00  0.00     0.001 A 
BRANCH  10  17
ATOM     17  N   UNL     1       5.549  46.219  51.753  1.00  0.00    -0.367 N 
ATOM     18  H   UNL     1       4.925  46.856  51.264  1.00  0.00     0.162 HD
BRANCH  17  19
ATOM     19  C   UNL     1       5.970  46.788  53.039  1.00  0.00     0.146 C 
BRANCH  19  20
ATOM     20  C   UNL     1       7.279  46.183  53.583  1.00  0.00     0.137 C 
ATOM     21  C   UNL     1       8.445  46.248  52.601  1.00  0.00     0.036 C 
ATOM     22  O   UNL     1       7.685  46.951  54.743  1.00  0.00    -0.376 OA
ATOM     23  C   UNL     1       9.132  47.537  52.976  1.00  0.00     0.031 C 
ATOM     24  C   UNL     1       8.957  47.553  54.476  1.00  0.00     0.160 C 
ENDBRANCH  19  20
ENDBRANCH  17  19
ENDBRANCH  10  17
ENDBRANCH   1   7
TORSDOF 7
ENDMDL
MODEL 3
REMARK VINA RESULT:    -8.232      1.243      1.303
REMARK INTER + INTRA:         -12.027
REMARK INTER:                 -11.234
REMARK INTRA:                  -0.793
REMARK UNBOUND:                -0.667
REMARK SMILES OCCNc1nc(NC[C@H]2CCCO2)c2ccccc2n1
REMARK SMILES IDX 4 1 3 3 2 4 1 5 5 7 6 8 21 9 7 10 20 11 15 12 19 13 16 14
REMARK SMILES IDX 18 15 17 16 8 17 9 19 10 20 11 21 14 22 12 23 13 24
REMARK H PARENT 4 2 1 6 8 18
ROOT
ATOM      1  N   UNL     1       2.858  44.212  54.001  1.00  0.00    -0.352 N 
ATOM      2  H   UNL     1       3.182  44.955  54.614  1.00  0.00     0.163 HD
ENDROOT
BRANCH   1   3
ATOM      3  C   UNL     1       1.490  44.404  53.528  1.00  0.00     0.144 C 
BRANCH   3   4
ATOM      4  C   UNL     1       0.650  43.169  53.868  1.00  0.00     0.177 C 
BRANCH   4   5
ATOM      5  O   UNL     1       1.318  41.971  53.473  1.00  0.00    -0.395 OA
ATOM      6  H   UNL     1       0.777  41.595  52.755  1.00  0.00     0.210 HD
ENDBRANCH   4   5
ENDBRANCH   3   4
ENDBRANCH   1   3
BRANCH   1   7
ATOM      7  C   UNL     1       3.804  44.192  52.980  1.00  0.00     0.225 A 
ATOM      8  N   UNL     1       4.491  45.325  52.824  1.00  0.00    -0.195 NA
ATOM      9  N   UNL     1       3.979  43.097  52.237  1.00  0.00    -0.213 NA
ATOM     10  C   UNL     1       5.429  45.370  51.866  1.00  0.00     0.139 A 
ATOM     11  C   UNL     1       4.925  43.129  51.296  1.00  0.00     0.078 A 
ATOM     12  C   UNL     1       5.712  44.259  51.054  1.00  0.00     0.043 A 
ATOM     13  C   UNL     1       5.138  41.993  50.524  1.00  0.00     0.029 A 
ATOM     14  C   UNL     1       6.714  44.212  50.049  1.00  0.00     0.014 A 
ATOM     15  C   UNL     1       6.116  41.947  49.527  1.00  0.00     0.002 A 
ATOM     16  C   UNL     1       6.910  43.061  49.291  1.00  0.00     0.001 A 
BRANCH  10  17
ATOM     17  N   UNL     1       6.164  46.564  51.681  1.00  0.00    -0.367 N 
ATOM     18  H   UNL     1       5.549  47.237  51.229  1.00  0.00     0.162 HD
BRANCH  17  19
ATOM     19  C   UNL     1       6.773  47.143  52.885  1.00  0.00     0.146 C 
BRANCH  19  20
ATOM     20  C   UNL     1       8.136  47.814  52.625  1.00  0.00     0.137 C 
ATOM     21  C   UNL     1       9.120  47.683  53.784  1.00  0.00     0.036 C 
ATOM     22  O   UNL     1       8.756  47.157  51.493  1.00  0.00    -0.376 OA
ATOM     23  C   UNL     1       9.900  46.443  53.428  1.00  0.00     0.031 C 
ATOM     24  C   UNL     1       9.982  46.555  51.924  1.00  0.00     0.160 C 
ENDBRANCH  19  20
ENDBRANCH  17  19
ENDBRANCH  10  17
ENDBRANCH   1   7
TORSDOF 7
ENDMDL
MODEL 4
REMARK VINA RESULT:    -8.129      2.190      5.219
REMARK INTER + INTRA:         -11.885
REMARK INTER:                 -11.309
REMARK INTRA:                  -0.576
REMARK UNBOUND:                -0.667
REMARK SMILES OCCNc1nc(NC[C@H]2CCCO2)c2ccccc2n1
REMARK SMILES IDX 4 1 3 3 2 4 1 5 5 7 6 8 21 9 7 10 20 11 15 12 19 13 16 14
REMARK SMILES IDX 18 15 17 16 8 17 9 19 10 20 11 21 14 22 12 23 13 24
REMARK H PARENT 4 2 1 6 8 18
ROOT
ATOM      1  N   UNL     1       4.091  47.311  53.679  1.00  0.00    -0.352 N 
ATOM      2  H   UNL     1       3.810  48.065  53.058  1.00  0.00     0.163 HD
ENDROOT
BRANCH   1   3
ATOM      3  C   UNL     1       3.182  46.169  53.655  1.00  0.00     0.144 C 
BRANCH   3   4
ATOM      4  C   UNL     1       3.425  45.293  54.888  1.00  0.00     0.177 C 
BRANCH   4   5
ATOM      5  O   UNL     1       3.390  46.072  56.084  1.00  0.00    -0.395 OA
ATOM      6  H   UNL     1       4.258  46.511  56.134  1.00  0.00     0.210 HD
ENDBRANCH   4   5
ENDBRANCH   3   4
ENDBRANCH   1   3
BRANCH   1   7
ATOM      7  C   UNL     1       5.383  47.006  53.260  1.00  0.00     0.225 A 
ATOM      8  N   UNL     1       5.461  46.345  52.104  1.00  0.00    -0.195 NA
ATOM      9  N   UNL     1       6.438  47.367  53.993  1.00  0.00    -0.213 NA
ATOM     10  C   UNL     1       6.678  46.030  51.635  1.00  0.00     0.139 A 
ATOM     11  C   UNL     1       7.653  47.075  53.521  1.00  0.00     0.078 A 
ATOM     12  C   UNL     1       7.851  46.396  52.315  1.00  0.00     0.043 A 
ATOM     13  C   UNL     1       8.766  47.461  54.258  1.00  0.00     0.029 A 
ATOM     14  C   UNL     1       9.173  46.138  51.867  1.00  0.00     0.014 A 
ATOM     15  C   UNL     1      10.068  47.199  53.825  1.00  0.00     0.002 A 
ATOM     16  C   UNL     1      10.273  46.538  52.622  1.00  0.00     0.001 A 
BRANCH  10  17
ATOM     17  N   UNL     1       6.781  45.325  50.413  1.00  0.00    -0.367 N 
ATOM     18  H   UNL     1       7.767  45.144  50.245  1.00  0.00     0.162 HD
BRANCH  17  19
ATOM     19  C   UNL     1       6.001  44.085  50.314  1.00  0.00     0.146 C 
BRANCH  19  20
ATOM     20  C   UNL     1       6.771  42.922  49.658  1.00  0.00     0.137 C 
ATOM     21  C   UNL     1       6.310  41.540  50.113  1.00  0.00     0.036 C 
ATOM     22  O   UNL     1       6.539  42.974  48.228  1.00  0.00    -0.376 OA
ATOM     23  C   UNL     1       5.282  41.167  49.075  1.00  0.00     0.031 C 
ATOM     24  C   UNL     1       5.877  41.770  47.824  1.00  0.00     0.160 C 
ENDBRANCH  19  20
ENDBRANCH  17  19
ENDBRANCH  10  17
ENDBRANCH   1   7
TORSDOF 7
ENDMDL
MODEL 5
REMARK VINA RESULT:    -8.119      1.945      5.059
REMARK INTER + INTRA:         -11.872
REMARK INTER:                 -11.042
REMARK INTRA:                  -0.830
REMARK UNBOUND:                -0.667
REMARK SMILES OCCNc1nc(NC[C@H]2CCCO2)c2ccccc2n1
REMARK SMILES IDX 4 1 3 3 2 4 1 5 5 7 6 8 21 9 7 10 20 11 15 12 19 13 16 14
REMARK SMILES IDX 18 15 17 16 8 17 9 19 10 20 11 21 14 22 12 23 13 24
REMARK H PARENT 4 2 1 6 8 18
ROOT
ATOM      1  N   UNL     1       4.159  47.083  54.926  1.00  0.00    -0.352 N 
ATOM      2  H   UNL     1       3.465  47.452  54.281  1.00  0.00     0.163 HD
ENDROOT
BRANCH   1   3
ATOM      3  C   UNL     1       3.722  45.876  55.622  1.00  0.00     0.144 C 
BRANCH   3   4
ATOM      4  C   UNL     1       2.542  45.249  54.873  1.00  0.00     0.177 C 
BRANCH   4   5
ATOM      5  O   UNL     1       2.986  44.214  53.995  1.00  0.00    -0.395 OA
ATOM      6  H   UNL     1       2.905  43.388  54.504  1.00  0.00     0.210 HD
ENDBRANCH   4   5
ENDBRANCH   3   4
ENDBRANCH   1   3
BRANCH   1   7
ATOM      7  C   UNL     1       5.282  46.891  54.126  1.00  0.00     0.225 A 
ATOM      8  N   UNL     1       5.032  46.402  52.910  1.00  0.00    -0.195 NA
ATOM      9  N   UNL     1       6.500  47.188  54.582  1.00  0.00    -0.213 NA
ATOM     10  C   UNL     1       6.069  46.205  52.081  1.00  0.00     0.139 A 
ATOM     11  C   UNL     1       7.534  47.013  53.755  1.00  0.00     0.078 A 
ATOM     12  C   UNL     1       7.386  46.519  52.456  1.00  0.00     0.043 A 
ATOM     13  C   UNL     1       8.809  47.336  54.203  1.00  0.00     0.029 A 
ATOM     14  C   UNL     1       8.530  46.379  51.626  1.00  0.00     0.014 A 
ATOM     15  C   UNL     1       9.938  47.190  53.393  1.00  0.00     0.002 A 
ATOM     16  C   UNL     1       9.797  46.712  52.097  1.00  0.00     0.001 A 
BRANCH  10  17
ATOM     17  N   UNL     1       5.825  45.682  50.790  1.00  0.00    -0.367 N 
ATOM     18  H   UNL     1       6.718  45.382  50.406  1.00  0.00     0.162 HD
BRANCH  17  19
ATOM     19  C   UNL     1       4.833  44.603  50.705  1.00  0.00     0.146 C 
BRANCH  19  20
ATOM     20  C   UNL     1       5.356  43.243  51.206  1.00  0.00     0.137 C 
ATOM     21  C   UNL     1       4.296  42.146  51.237  1.00  0.00     0.036 C 
ATOM     22  O   UNL     1       6.382  42.787  50.290  1.00  0.00    -0.376 OA
ATOM     23  C   UNL     1       4.460  41.477  49.896  1.00  0.00     0.031 C 
ATOM     24  C   UNL     1       5.956  41.554  49.697  1.00  0.00     0.160 C 
ENDBRANCH  19  20
ENDBRANCH  17  19
ENDBRANCH  10  17
ENDBRANCH   1   7
TORSDOF 7
ENDMDL
MODEL 6
REMARK VINA RESULT:    -7.907      1.605      2.126
REMARK INTER + INTRA:         -11.579
REMARK INTER:                 -10.788
REMARK INTRA:                  -0.791
REMARK UNBOUND:                -0.667
REMARK SMILES OCCNc1nc(NC[C@H]2CCCO2)c2ccccc2n1
REMARK SMILES IDX 4 1 3 3 2 4 1 5 5 7 6 8 21 9 7 10 20 11 15 12 19 13 16 14
REMARK SMILES IDX 18 15 17 16 8 17 9 19 10 20 11 21 14 22 12 23 13 24
REMARK H PARENT 4 2 1 6 8 18
ROOT
ATOM      1  N   UNL     1       2.907  44.793  55.694  1.00  0.00    -0.352 N 
ATOM      2  H   UNL     1       3.284  45.475  56.347  1.00  0.00     0.163 HD
ENDROOT
BRANCH   1   3
ATOM      3  C   UNL     1       1.490  44.991  55.401  1.00  0.00     0.144 C 
BRANCH   3   4
ATOM      4  C   UNL     1       0.822  45.728  56.566  1.00  0.00     0.177 C 
BRANCH   4   5
ATOM      5  O   UNL     1       1.789  46.146  57.529  1.00  0.00    -0.395 OA
ATOM      6  H   UNL     1       1.478  47.011  57.852  1.00  0.00     0.210 HD
ENDBRANCH   4   5
ENDBRANCH   3   4
ENDBRANCH   1   3
BRANCH   1   7
ATOM      7  C   UNL     1       3.730  44.916  54.579  1.00  0.00     0.225 A 
ATOM      8  N   UNL     1       4.555  45.964  54.598  1.00  0.00    -0.195 NA
ATOM      9  N   UNL     1       3.667  44.026  53.586  1.00  0.00    -0.213 NA
ATOM     10  C   UNL     1       5.387  46.135  53.560  1.00  0.00     0.139 A 
ATOM     11  C   UNL     1       4.507  44.180  52.559  1.00  0.00     0.078 A 
ATOM     12  C   UNL     1       5.420  45.235  52.482  1.00  0.00     0.043 A 
ATOM     13  C   UNL     1       4.472  43.253  51.525  1.00  0.00     0.029 A 
ATOM     14  C   UNL     1       6.296  45.321  51.368  1.00  0.00     0.014 A 
ATOM     15  C   UNL     1       5.325  43.341  50.422  1.00  0.00     0.002 A 
ATOM     16  C   UNL     1       6.245  44.378  50.345  1.00  0.00     0.001 A 
BRANCH  10  17
ATOM     17  N   UNL     1       6.265  47.244  53.559  1.00  0.00    -0.367 N 
ATOM     18  H   UNL     1       5.730  48.060  53.849  1.00  0.00     0.162 HD
BRANCH  17  19
ATOM     19  C   UNL     1       7.483  47.107  54.367  1.00  0.00     0.146 C 
BRANCH  19  20
ATOM     20  C   UNL     1       8.719  47.782  53.740  1.00  0.00     0.137 C 
ATOM     21  C   UNL     1       9.973  46.913  53.757  1.00  0.00     0.036 C 
ATOM     22  O   UNL     1       8.431  48.047  52.344  1.00  0.00    -0.376 OA
ATOM     23  C   UNL     1       9.929  46.227  52.416  1.00  0.00     0.031 C 
ATOM     24  C   UNL     1       9.357  47.312  51.535  1.00  0.00     0.160 C 
ENDBRANCH  19  20
ENDBRANCH  17  19
ENDBRANCH  10  17
ENDBRANCH   1   7
TORSDOF 7
ENDMDL
MODEL 7
REMARK VINA RESULT:    -7.854      2.390      5.710
REMARK INTER + INTRA:         -11.506
REMARK INTER:                 -10.799
REMARK INTRA:                  -0.707
REMARK UNBOUND:                -0.667
REMARK SMILES OCCNc1nc(NC[C@H]2CCCO2)c2ccccc2n1
REMARK SMILES IDX 4 1 3 3 2 4 1 5 5 7 6 8 21 9 7 10 20 11 15 12 19 13 16 14
REMARK SMILES IDX 18 15 17 16 8 17 9 19 10 20 11 21 14 22 12 23 13 24
REMARK H PARENT 4 2 1 6 8 18
ROOT
ATOM      1  N   UNL     1       7.663  43.231  48.877  1.00  0.00    -0.352 N 
ATOM      2  H   UNL     1       8.429  42.641  49.191  1.00  0.00     0.163 HD
ENDROOT
BRANCH   1   3
ATOM      3  C   UNL     1       6.391  42.522  48.766  1.00  0.00     0.144 C 
BRANCH   3   4
ATOM      4  C   UNL     1       6.273  41.497  49.899  1.00  0.00     0.177 C 
BRANCH   4   5
ATOM      5  O   UNL     1       7.499  40.787  50.076  1.00  0.00    -0.395 OA
ATOM      6  H   UNL     1       7.581  40.210  49.297  1.00  0.00     0.210 HD
ENDBRANCH   4   5
ENDBRANCH   3   4
ENDBRANCH   1   3
BRANCH   1   7
ATOM      7  C   UNL     1       7.645  44.268  49.806  1.00  0.00     0.225 A 
ATOM      8  N   UNL     1       6.431  44.729  50.114  1.00  0.00    -0.195 NA
ATOM      9  N   UNL     1       8.782  44.735  50.325  1.00  0.00    -0.213 NA
ATOM     10  C   UNL     1       6.340  45.720  51.014  1.00  0.00     0.139 A 
ATOM     11  C   UNL     1       8.696  45.708  51.235  1.00  0.00     0.078 A 
ATOM     12  C   UNL     1       7.476  46.257  51.642  1.00  0.00     0.043 A 
ATOM     13  C   UNL     1       9.867  46.195  51.804  1.00  0.00     0.029 A 
ATOM     14  C   UNL     1       7.462  47.275  52.631  1.00  0.00     0.014 A 
ATOM     15  C   UNL     1       9.857  47.205  52.770  1.00  0.00     0.002 A 
ATOM     16  C   UNL     1       8.649  47.745  53.188  1.00  0.00     0.001 A 
BRANCH  10  17
ATOM     17  N   UNL     1       5.063  46.226  51.349  1.00  0.00    -0.367 N 
ATOM     18  H   UNL     1       4.653  46.614  50.503  1.00  0.00     0.162 HD
BRANCH  17  19
ATOM     19  C   UNL     1       4.138  45.281  51.988  1.00  0.00     0.146 C 
BRANCH  19  20
ATOM     20  C   UNL     1       3.378  45.877  53.189  1.00  0.00     0.137 C 
ATOM     21  C   UNL     1       3.479  45.041  54.461  1.00  0.00     0.036 C 
ATOM     22  O   UNL     1       3.965  47.164  53.503  1.00  0.00    -0.376 OA
ATOM     23  C   UNL     1       4.659  45.651  55.175  1.00  0.00     0.031 C 
ATOM     24  C   UNL     1       4.502  47.114  54.831  1.00  0.00     0.160 C 
ENDBRANCH  19  20
ENDBRANCH  17  19
ENDBRANCH  10  17
ENDBRANCH   1   7
TORSDOF 7
ENDMDL
MODEL 8
REMARK VINA RESULT:    -7.828      1.273      1.749
REMARK INTER + INTRA:         -11.470
REMARK INTER:                 -10.726
REMARK INTRA:                  -0.744
REMARK UNBOUND:                -0.667
REMARK SMILES OCCNc1nc(NC[C@H]2CCCO2)c2ccccc2n1
REMARK SMILES IDX 4 1 3 3 2 4 1 5 5 7 6 8 21 9 7 10 20 11 15 12 19 13 16 14
REMARK SMILES IDX 18 15 17 16 8 17 9 19 10 20 11 21 14 22 12 23 13 24
REMARK H PARENT 4 2 1 6 8 18
ROOT
ATOM      1  N   UNL     1       3.827  46.056  53.753  1.00  0.00    -0.352 N 
ATOM      2  H   UNL     1       2.945  46.329  53.327  1.00  0.00     0.163 HD
ENDROOT
BRANCH   1   3
ATOM      3  C   UNL     1       3.665  45.299  54.991  1.00  0.00     0.144 C 
BRANCH   3   4
ATOM      4  C   UNL     1       2.181  44.999  55.220  1.00  0.00     0.177 C 
BRANCH   4   5
ATOM      5  O   UNL     1       1.785  43.817  54.524  1.00  0.00    -0.395 OA
ATOM      6  H   UNL     1       1.090  44.100  53.904  1.00  0.00     0.210 HD
ENDBRANCH   4   5
ENDBRANCH   3   4
ENDBRANCH   1   3
BRANCH   1   7
ATOM      7  C   UNL     1       4.472  45.345  52.744  1.00  0.00     0.225 A 
ATOM      8  N   UNL     1       5.512  45.971  52.189  1.00  0.00    -0.195 NA
ATOM      9  N   UNL     1       4.049  44.130  52.392  1.00  0.00    -0.213 NA
ATOM     10  C   UNL     1       6.188  45.337  51.219  1.00  0.00     0.139 A 
ATOM     11  C   UNL     1       4.731  43.486  51.441  1.00  0.00     0.078 A 
ATOM     12  C   UNL     1       5.842  44.042  50.801  1.00  0.00     0.043 A 
ATOM     13  C   UNL     1       4.320  42.210  51.073  1.00  0.00     0.029 A 
ATOM     14  C   UNL     1       6.530  43.287  49.813  1.00  0.00     0.014 A 
ATOM     15  C   UNL     1       4.987  41.470  50.094  1.00  0.00     0.002 A 
ATOM     16  C   UNL     1       6.100  42.010  49.463  1.00  0.00     0.001 A 
BRANCH  10  17
ATOM     17  N   UNL     1       7.290  45.986  50.614  1.00  0.00    -0.367 N 
ATOM     18  H   UNL     1       7.080  46.980  50.580  1.00  0.00     0.162 HD
BRANCH  17  19
ATOM     19  C   UNL     1       8.600  45.752  51.234  1.00  0.00     0.146 C 
BRANCH  19  20
ATOM     20  C   UNL     1       9.285  47.038  51.735  1.00  0.00     0.137 C 
ATOM     21  C   UNL     1       8.339  48.009  52.437  1.00  0.00     0.036 C 
ATOM     22  O   UNL     1      10.284  46.667  52.716  1.00  0.00    -0.376 OA
ATOM     23  C   UNL     1       8.475  47.623  53.888  1.00  0.00     0.031 C 
ATOM     24  C   UNL     1       9.939  47.259  53.974  1.00  0.00     0.160 C 
ENDBRANCH  19  20
ENDBRANCH  17  19
ENDBRANCH  10  17
ENDBRANCH   1   7
TORSDOF 7
ENDMDL
MODEL 9
REMARK VINA RESULT:    -7.765      2.193      5.222
REMARK INTER + INTRA:         -11.383
REMARK INTER:                 -10.546
REMARK INTRA:                  -0.838
REMARK UNBOUND:                -0.667
REMARK SMILES OCCNc1nc(NC[C@H]2CCCO2)c2ccccc2n1
REMARK SMILES IDX 4 1 3 3 2 4 1 5 5 7 6 8 21 9 7 10 20 11 15 12 19 13 16 14
REMARK SMILES IDX 18 15 17 16 8 17 9 19 10 20 11 21 14 22 12 23 13 24
REMARK H PARENT 4 2 1 6 8 18
ROOT
ATOM      1  N   UNL     1       3.998  47.272  53.540  1.00  0.00    -0.352 N 
ATOM      2  H   UNL     1       3.779  48.129  53.040  1.00  0.00     0.163 HD
ENDROOT
BRANCH   1   3
ATOM      3  C   UNL     1       3.126  46.155  53.189  1.00  0.00     0.144 C 
BRANCH   3   4
ATOM      4  C   UNL     1       3.356  44.996  54.164  1.00  0.00     0.177 C 
BRANCH   4   5
ATOM      5  O   UNL     1       3.638  43.786  53.461  1.00  0.00    -0.395 OA
ATOM      6  H   UNL     1       2.920  43.173  53.698  1.00  0.00     0.210 HD
ENDBRANCH   4   5
ENDBRANCH   3   4
ENDBRANCH   1   3
BRANCH   1   7
ATOM      7  C   UNL     1       5.339  47.049  53.237  1.00  0.00     0.225 A 
ATOM      8  N   UNL     1       5.565  46.514  52.036  1.00  0.00    -0.195 NA
ATOM      9  N   UNL     1       6.295  47.364  54.113  1.00  0.00    -0.213 NA
ATOM     10  C   UNL     1       6.837  46.286  51.674  1.00  0.00     0.139 A 
ATOM     11  C   UNL     1       7.563  47.158  53.751  1.00  0.00     0.078 A 
ATOM     12  C   UNL     1       7.915  46.614  52.512  1.00  0.00     0.043 A 
ATOM     13  C   UNL     1       8.575  47.498  54.640  1.00  0.00     0.029 A 
ATOM     14  C   UNL     1       9.287  46.443  52.188  1.00  0.00     0.014 A 
ATOM     15  C   UNL     1       9.926  47.321  54.329  1.00  0.00     0.002 A 
ATOM     16  C   UNL     1      10.284  46.794  53.095  1.00  0.00     0.001 A 
BRANCH  10  17
ATOM     17  N   UNL     1       7.098  45.714  50.407  1.00  0.00    -0.367 N 
ATOM     18  H   UNL     1       7.961  46.121  50.057  1.00  0.00     0.162 HD
BRANCH  17  19
ATOM     19  C   UNL     1       7.158  44.247  50.359  1.00  0.00     0.146 C 
BRANCH  19  20
ATOM     20  C   UNL     1       5.888  43.596  49.777  1.00  0.00     0.137 C 
ATOM     21  C   UNL     1       6.162  42.365  48.919  1.00  0.00     0.036 C 
ATOM     22  O   UNL     1       5.066  43.143  50.881  1.00  0.00    -0.376 OA
ATOM     23  C   UNL     1       6.038  41.230  49.904  1.00  0.00     0.031 C 
ATOM     24  C   UNL     1       4.923  41.720  50.798  1.00  0.00     0.160 C 
ENDBRANCH  19  20
ENDBRANCH  17  19
ENDBRANCH  10  17
ENDBRANCH   1   7
TORSDOF 7
ENDMDL
MODEL 10
REMARK VINA RESULT:    -7.743      2.095      5.994
REMARK INTER + INTRA:         -11.353
REMARK INTER:                 -10.580
REMARK INTRA:                  -0.773
REMARK UNBOUND:                -0.667
REMARK SMILES OCCNc1nc(NC[C@H]2CCCO2)c2ccccc2n1
REMARK SMILES IDX 4 1 3 3 2 4 1 5 5 7 6 8 21 9 7 10 20 11 15 12 19 13 16 14
REMARK SMILES IDX 18 15 17 16 8 17 9 19 10 20 11 21 14 22 12 23 13 24
REMARK H PARENT 4 2 1 6 8 18
ROOT
ATOM      1  N   UNL     1       5.993  44.176  49.801  1.00  0.00    -0.352 N 
ATOM      2  H   UNL     1       5.873  44.882  49.080  1.00  0.00     0.163 HD
ENDROOT
BRANCH   1   3
ATOM      3  C   UNL     1       6.854  43.069  49.393  1.00  0.00     0.144 C 
BRANCH   3   4
ATOM      4  C   UNL     1       6.289  41.752  49.934  1.00  0.00     0.177 C 
BRANCH   4   5
ATOM      5  O   UNL     1       7.318  40.771  50.066  1.00  0.00    -0.395 OA
ATOM      6  H   UNL     1       6.925  39.937  49.752  1.00  0.00     0.210 HD
ENDBRANCH   4   5
ENDBRANCH   3   4
ENDBRANCH   1   3
BRANCH   1   7
ATOM      7  C   UNL     1       6.484  44.895  50.887  1.00  0.00     0.225 A 
ATOM      8  N   UNL     1       5.609  45.094  51.874  1.00  0.00    -0.195 NA
ATOM      9  N   UNL     1       7.744  45.335  50.897  1.00  0.00    -0.213 NA
ATOM     10  C   UNL     1       6.021  45.769  52.958  1.00  0.00     0.139 A 
ATOM     11  C   UNL     1       8.165  45.990  51.982  1.00  0.00     0.078 A 
ATOM     12  C   UNL     1       7.338  46.243  53.080  1.00  0.00     0.043 A 
ATOM     13  C   UNL     1       9.480  46.438  52.022  1.00  0.00     0.029 A 
ATOM     14  C   UNL     1       7.863  46.928  54.207  1.00  0.00     0.014 A 
ATOM     15  C   UNL     1       9.996  47.121  53.126  1.00  0.00     0.002 A 
ATOM     16  C   UNL     1       9.185  47.365  54.225  1.00  0.00     0.001 A 
BRANCH  10  17
ATOM     17  N   UNL     1       5.107  45.995  54.014  1.00  0.00    -0.367 N 
ATOM     18  H   UNL     1       5.624  46.410  54.785  1.00  0.00     0.162 HD
BRANCH  17  19
ATOM     19  C   UNL     1       3.925  46.802  53.686  1.00  0.00     0.146 C 
BRANCH  19  20
ATOM     20  C   UNL     1       2.596  46.036  53.826  1.00  0.00     0.137 C 
ATOM     21  C   UNL     1       1.712  46.098  52.584  1.00  0.00     0.036 C 
ATOM     22  O   UNL     1       2.901  44.634  54.034  1.00  0.00    -0.376 OA
ATOM     23  C   UNL     1       2.105  44.857  51.825  1.00  0.00     0.031 C 
ATOM     24  C   UNL     1       2.354  43.877  52.948  1.00  0.00     0.160 C 
ENDBRANCH  19  20
ENDBRANCH  17  19
ENDBRANCH  10  17
ENDBRANCH   1   7
TORSDOF 7
ENDMDL
MODEL 11
REMARK VINA RESULT:    -7.612      2.206      2.810
REMARK INTER + INTRA:         -11.172
REMARK INTER:                 -10.508
REMARK INTRA:                  -0.664
REMARK UNBOUND:                -0.667
REMARK SMILES OCCNc1nc(NC[C@H]2CCCO2)c2ccccc2n1
REMARK SMILES IDX 4 1 3 3 2 4 1 5 5 7 6 8 21 9 7 10 20 11 15 12 19 13 16 14
REMARK SMILES IDX 18 15 17 16 8 17 9 19 10 20 11 21 14 22 12 23 13 24
REMARK H PARENT 4 2 1 6 8 18
ROOT
ATOM      1  N   UNL     1       2.274  42.280  53.066  1.00  0.00    -0.352 N 
ATOM      2  H   UNL     1       2.720  41.999  53.935  1.00  0.00     0.163 HD
ENDROOT
BRANCH   1   3
ATOM      3  C   UNL     1       1.180  43.229  53.255  1.00  0.00     0.144 C 
BRANCH   3   4
ATOM      4  C   UNL     1      -0.150  42.557  52.898  1.00  0.00     0.177 C 
BRANCH   4   5
ATOM      5  O   UNL     1      -0.214  41.234  53.431  1.00  0.00    -0.395 OA
ATOM      6  H   UNL     1      -0.459  40.663  52.682  1.00  0.00     0.210 HD
ENDBRANCH   4   5
ENDBRANCH   3   4
ENDBRANCH   1   3
BRANCH   1   7
ATOM      7  C   UNL     1       3.326  42.785  52.306  1.00  0.00     0.225 A 
ATOM      8  N   UNL     1       3.497  44.105  52.386  1.00  0.00    -0.195 NA
ATOM      9  N   UNL     1       4.082  41.970  51.567  1.00  0.00    -0.213 NA
ATOM     10  C   UNL     1       4.502  44.657  51.688  1.00  0.00     0.139 A 
ATOM     11  C   UNL     1       5.096  42.511  50.887  1.00  0.00     0.078 A 
ATOM     12  C   UNL     1       5.374  43.881  50.907  1.00  0.00     0.043 A 
ATOM     13  C   UNL     1       5.909  41.678  50.127  1.00  0.00     0.029 A 
ATOM     14  C   UNL     1       6.483  44.380  50.174  1.00  0.00     0.014 A 
ATOM     15  C   UNL     1       6.994  42.167  49.396  1.00  0.00     0.002 A 
ATOM     16  C   UNL     1       7.285  43.525  49.422  1.00  0.00     0.001 A 
BRANCH  10  17
ATOM     17  N   UNL     1       4.697  46.056  51.754  1.00  0.00    -0.367 N 
ATOM     18  H   UNL     1       4.681  46.414  50.803  1.00  0.00     0.162 HD
BRANCH  17  19
ATOM     19  C   UNL     1       3.761  46.801  52.606  1.00  0.00     0.146 C 
BRANCH  19  20
ATOM     20  C   UNL     1       4.402  47.349  53.896  1.00  0.00     0.137 C 
ATOM     21  C   UNL     1       4.290  46.406  55.091  1.00  0.00     0.036 C 
ATOM     22  O   UNL     1       5.820  47.529  53.656  1.00  0.00    -0.376 OA
ATOM     23  C   UNL     1       5.580  45.628  55.031  1.00  0.00     0.031 C 
ATOM     24  C   UNL     1       6.551  46.680  54.549  1.00  0.00     0.160 C 
ENDBRANCH  19  20
ENDBRANCH  17  19
ENDBRANCH  10  17
ENDBRANCH   1   7
TORSDOF 7
ENDMDL
MODEL 12
REMARK VINA RESULT:    -7.603      2.169      5.578
REMARK INTER + INTRA:         -11.159
REMARK INTER:                 -10.358
REMARK INTRA:                  -0.801
REMARK UNBOUND:                -0.667
REMARK SMILES OCCNc1nc(NC[C@H]2CCCO2)c2ccccc2n1
REMARK SMILES IDX 4 1 3 3 2 4 1 5 5 7 6 8 21 9 7 10 20 11 15 12 19 13 16 14
REMARK SMILES IDX 18 15 17 16 8 17 9 19 10 20 11 21 14 22 12 23 13 24
REMARK H PARENT 4 2 1 6 8 18
ROOT
ATOM      1  N   UNL     1       8.981  47.606  52.446  1.00  0.00    -0.352 N 
ATOM      2  H   UNL     1       8.287  48.259  52.798  1.00  0.00     0.163 HD
ENDROOT
BRANCH   1   3
ATOM      3  C   UNL     1       9.923  47.153  53.465  1.00  0.00     0.144 C 
BRANCH   3   4
ATOM      4  C   UNL     1       9.523  47.729  54.827  1.00  0.00     0.177 C 
BRANCH   4   5
ATOM      5  O   UNL     1       8.107  47.688  55.004  1.00  0.00    -0.395 OA
ATOM      6  H   UNL     1       7.885  46.747  55.120  1.00  0.00     0.210 HD
ENDBRANCH   4   5
ENDBRANCH   3   4
ENDBRANCH   1   3
BRANCH   1   7
ATOM      7  C   UNL     1       8.218  46.580  51.895  1.00  0.00     0.225 A 
ATOM      8  N   UNL     1       7.021  46.403  52.456  1.00  0.00    -0.195 NA
ATOM      9  N   UNL     1       8.689  45.852  50.880  1.00  0.00    -0.213 NA
ATOM     10  C   UNL     1       6.227  45.439  51.965  1.00  0.00     0.139 A 
ATOM     11  C   UNL     1       7.895  44.905  50.374  1.00  0.00     0.078 A 
ATOM     12  C   UNL     1       6.618  44.642  50.877  1.00  0.00     0.043 A 
ATOM     13  C   UNL     1       8.357  44.149  49.303  1.00  0.00     0.029 A 
ATOM     14  C   UNL     1       5.823  43.632  50.273  1.00  0.00     0.014 A 
ATOM     15  C   UNL     1       7.582  43.147  48.714  1.00  0.00     0.002 A 
ATOM     16  C   UNL     1       6.307  42.889  49.199  1.00  0.00     0.001 A 
BRANCH  10  17
ATOM     17  N   UNL     1       4.957  45.232  52.551  1.00  0.00    -0.367 N 
ATOM     18  H   UNL     1       5.087  44.641  53.368  1.00  0.00     0.162 HD
BRANCH  17  19
ATOM     19  C   UNL     1       4.199  46.440  52.899  1.00  0.00     0.146 C 
BRANCH  19  20
ATOM     20  C   UNL     1       2.925  46.635  52.053  1.00  0.00     0.137 C 
ATOM     21  C   UNL     1       2.710  45.552  51.000  1.00  0.00     0.036 C 
ATOM     22  O   UNL     1       1.780  46.569  52.939  1.00  0.00    -0.376 OA
ATOM     23  C   UNL     1       1.832  44.555  51.712  1.00  0.00     0.031 C 
ATOM     24  C   UNL     1       0.960  45.460  52.551  1.00  0.00     0.160 C 
ENDBRANCH  19  20
ENDBRANCH  17  19
ENDBRANCH  10  17
ENDBRANCH   1   7
TORSDOF 7
ENDMDL
MODEL 13
REMARK VINA RESULT:    -7.577      2.008      5.144
REMARK INTER + INTRA:         -11.123
REMARK INTER:                 -10.190
REMARK INTRA:                  -0.933
REMARK UNBOUND:                -0.667
REMARK SMILES OCCNc1nc(NC[C@H]2CCCO2)c2ccccc2n1
REMARK SMILES IDX 4 1 3 3 2 4 1 5 5 7 6 8 21 9 7 10 20 11 15 12 19 13 16 14
REMARK SMILES IDX 18 15 17 16 8 17 9 19 10 20 11 21 14 22 12 23 13 24
REMARK H PARENT 4 2 1 6 8 18
ROOT
ATOM      1  N   UNL     1       8.213  47.490  52.319  1.00  0.00    -0.352 N 
ATOM      2  H   UNL     1       7.582  47.978  52.949  1.00  0.00     0.163 HD
ENDROOT
BRANCH   1   3
ATOM      3  C   UNL     1       9.521  47.213  52.904  1.00  0.00     0.144 C 
BRANCH   3   4
ATOM      4  C   UNL     1       9.504  47.570  54.394  1.00  0.00     0.177 C 
BRANCH   4   5
ATOM      5  O   UNL     1       8.171  47.795  54.851  1.00  0.00    -0.395 OA
ATOM      6  H   UNL     1       8.006  48.745  54.717  1.00  0.00     0.210 HD
ENDBRANCH   4   5
ENDBRANCH   3   4
ENDBRANCH   1   3
BRANCH   1   7
ATOM      7  C   UNL     1       7.504  46.344  51.969  1.00  0.00     0.225 A 
ATOM      8  N   UNL     1       6.537  45.996  52.819  1.00  0.00    -0.195 NA
ATOM      9  N   UNL     1       7.803  45.674  50.854  1.00  0.00    -0.213 NA
ATOM     10  C   UNL     1       5.805  44.908  52.535  1.00  0.00     0.139 A 
ATOM     11  C   UNL     1       7.065  44.602  50.556  1.00  0.00     0.078 A 
ATOM     12  C   UNL     1       6.020  44.155  51.369  1.00  0.00     0.043 A 
ATOM     13  C   UNL     1       7.346  43.902  49.389  1.00  0.00     0.029 A 
ATOM     14  C   UNL     1       5.265  43.018  50.976  1.00  0.00     0.014 A 
ATOM     15  C   UNL     1       6.612  42.777  49.005  1.00  0.00     0.002 A 
ATOM     16  C   UNL     1       5.564  42.335  49.800  1.00  0.00     0.001 A 
BRANCH  10  17
ATOM     17  N   UNL     1       4.779  44.519  53.427  1.00  0.00    -0.367 N 
ATOM     18  H   UNL     1       5.191  43.897  54.118  1.00  0.00     0.162 HD
BRANCH  17  19
ATOM     19  C   UNL     1       4.043  45.608  54.082  1.00  0.00     0.146 C 
BRANCH  19  20
ATOM     20  C   UNL     1       2.726  45.979  53.371  1.00  0.00     0.137 C 
ATOM     21  C   UNL     1       2.864  47.126  52.374  1.00  0.00     0.036 C 
ATOM     22  O   UNL     1       2.286  44.829  52.606  1.00  0.00    -0.376 OA
ATOM     23  C   UNL     1       3.122  46.413  51.070  1.00  0.00     0.031 C 
ATOM     24  C   UNL     1       2.258  45.183  51.217  1.00  0.00     0.160 C 
ENDBRANCH  19  20
ENDBRANCH  17  19
ENDBRANCH  10  17
ENDBRANCH   1   7
TORSDOF 7
ENDMDL
MODEL 14
REMARK VINA RESULT:    -7.522      2.149      4.436
REMARK INTER + INTRA:         -11.047
REMARK INTER:                 -10.119
REMARK INTRA:                  -0.928
REMARK UNBOUND:                -0.667
REMARK SMILES OCCNc1nc(NC[C@H]2CCCO2)c2ccccc2n1
REMARK SMILES IDX 4 1 3 3 2 4 1 5 5 7 6 8 21 9 7 10 20 11 15 12 19 13 16 14
REMARK SMILES IDX 18 15 17 16 8 17 9 19 10 20 11 21 14 22 12 23 13 24
REMARK H PARENT 4 2 1 6 8 18
ROOT
ATOM      1  N   UNL     1       4.548  42.107  50.634  1.00  0.00    -0.352 N 
ATOM      2  H   UNL     1       3.903  42.376  49.896  1.00  0.00     0.163 HD
ENDROOT
BRANCH   1   3
ATOM      3  C   UNL     1       5.802  41.550  50.136  1.00  0.00     0.144 C 
BRANCH   3   4
ATOM      4  C   UNL     1       5.787  41.537  48.604  1.00  0.00     0.177 C 
BRANCH   4   5
ATOM      5  O   UNL     1       6.556  42.618  48.076  1.00  0.00    -0.395 OA
ATOM      6  H   UNL     1       6.519  42.517  47.109  1.00  0.00     0.210 HD
ENDBRANCH   4   5
ENDBRANCH   3   4
ENDBRANCH   1   3
BRANCH   1   7
ATOM      7  C   UNL     1       4.710  43.277  51.371  1.00  0.00     0.225 A 
ATOM      8  N   UNL     1       5.625  44.122  50.893  1.00  0.00    -0.195 NA
ATOM      9  N   UNL     1       3.982  43.496  52.467  1.00  0.00    -0.213 NA
ATOM     10  C   UNL     1       5.823  45.277  51.548  1.00  0.00     0.139 A 
ATOM     11  C   UNL     1       4.161  44.652  53.111  1.00  0.00     0.078 A 
ATOM     12  C   UNL     1       5.083  45.615  52.692  1.00  0.00     0.043 A 
ATOM     13  C   UNL     1       3.398  44.910  54.244  1.00  0.00     0.029 A 
ATOM     14  C   UNL     1       5.202  46.831  53.417  1.00  0.00     0.014 A 
ATOM     15  C   UNL     1       3.520  46.100  54.965  1.00  0.00     0.002 A 
ATOM     16  C   UNL     1       4.425  47.067  54.548  1.00  0.00     0.001 A 
BRANCH  10  17
ATOM     17  N   UNL     1       6.793  46.184  51.061  1.00  0.00    -0.367 N 
ATOM     18  H   UNL     1       6.676  47.059  51.566  1.00  0.00     0.162 HD
BRANCH  17  19
ATOM     19  C   UNL     1       8.189  45.733  51.119  1.00  0.00     0.146 C 
BRANCH  19  20
ATOM     20  C   UNL     1       9.176  46.832  51.558  1.00  0.00     0.137 C 
ATOM     21  C   UNL     1       8.515  48.005  52.276  1.00  0.00     0.036 C 
ATOM     22  O   UNL     1      10.108  46.253  52.504  1.00  0.00    -0.376 OA
ATOM     23  C   UNL     1       8.626  47.619  53.730  1.00  0.00     0.031 C 
ATOM     24  C   UNL     1       9.969  46.927  53.760  1.00  0.00     0.160 C 
ENDBRANCH  19  20
ENDBRANCH  17  19
ENDBRANCH  10  17
ENDBRANCH   1   7
TORSDOF 7
ENDMDL
MODEL 15
REMARK VINA RESULT:    -7.480      1.940      4.597
REMARK INTER + INTRA:         -10.990
REMARK INTER:                 -10.292
REMARK INTRA:                  -0.698
REMARK UNBOUND:                -0.667
REMARK SMILES OCCNc1nc(NC[C@H]2CCCO2)c2ccccc2n1
REMARK SMILES IDX 4 1 3 3 2 4 1 5 5 7 6 8 21 9 7 10 20 11 15 12 19 13 16 14
REMARK SMILES IDX 18 15 17 16 8 17 9 19 10 20 11 21 14 22 12 23 13 24
REMARK H PARENT 4 2 1 6 8 18
ROOT
ATOM      1  N   UNL     1       5.812  43.532  50.715  1.00  0.00    -0.352 N 
ATOM      2  H   UNL     1       6.805  43.551  50.934  1.00  0.00     0.163 HD
ENDROOT
BRANCH   1   3
ATOM      3  C   UNL     1       5.303  42.190  50.444  1.00  0.00     0.144 C 
BRANCH   3   4
ATOM      4  C   UNL     1       6.202  41.497  49.416  1.00  0.00     0.177 C 
BRANCH   4   5
ATOM      5  O   UNL     1       7.283  40.818  50.056  1.00  0.00    -0.395 OA
ATOM      6  H   UNL     1       6.881  40.055  50.508  1.00  0.00     0.210 HD
ENDBRANCH   4   5
ENDBRANCH   3   4
ENDBRANCH   1   3
BRANCH   1   7
ATOM      7  C   UNL     1       5.221  44.141  51.818  1.00  0.00     0.225 A 
ATOM      8  N   UNL     1       5.905  45.164  52.332  1.00  0.00    -0.195 NA
ATOM      9  N   UNL     1       4.052  43.702  52.291  1.00  0.00    -0.213 NA
ATOM     10  C   UNL     1       5.385  45.807  53.389  1.00  0.00     0.139 A 
ATOM     11  C   UNL     1       3.520  44.351  53.331  1.00  0.00     0.078 A 
ATOM     12  C   UNL     1       4.145  45.443  53.940  1.00  0.00     0.043 A 
ATOM     13  C   UNL     1       2.295  43.923  53.827  1.00  0.00     0.029 A 
ATOM     14  C   UNL     1       3.508  46.095  55.029  1.00  0.00     0.014 A 
ATOM     15  C   UNL     1       1.670  44.556  54.905  1.00  0.00     0.002 A 
ATOM     16  C   UNL     1       2.278  45.650  55.506  1.00  0.00     0.001 A 
BRANCH  10  17
ATOM     17  N   UNL     1       6.098  46.890  53.953  1.00  0.00    -0.367 N 
ATOM     18  H   UNL     1       5.528  47.279  54.700  1.00  0.00     0.162 HD
BRANCH  17  19
ATOM     19  C   UNL     1       7.453  46.593  54.435  1.00  0.00     0.146 C 
BRANCH  19  20
ATOM     20  C   UNL     1       8.527  47.557  53.893  1.00  0.00     0.137 C 
ATOM     21  C   UNL     1       9.797  46.862  53.411  1.00  0.00     0.036 C 
ATOM     22  O   UNL     1       7.979  48.242  52.739  1.00  0.00    -0.376 OA
ATOM     23  C   UNL     1       9.536  46.660  51.940  1.00  0.00     0.031 C 
ATOM     24  C   UNL     1       8.770  47.914  51.590  1.00  0.00     0.160 C 
ENDBRANCH  19  20
ENDBRANCH  17  19
ENDBRANCH  10  17
ENDBRANCH   1   7
TORSDOF 7
ENDMDL
MODEL 16
REMARK VINA RESULT:    -7.332      1.782      5.240
REMARK INTER + INTRA:         -10.786
REMARK INTER:                 -10.004
REMARK INTRA:                  -0.782
REMARK UNBOUND:                -0.667
REMARK SMILES OCCNc1nc(NC[C@H]2CCCO2)c2ccccc2n1
REMARK SMILES IDX 4 1 3 3 2 4 1 5 5 7 6 8 21 9 7 10 20 11 15 12 19 13 16 14
REMARK SMILES IDX 18 15 17 16 8 17 9 19 10 20 11 21 14 22 12 23 13 24
REMARK H PARENT 4 2 1 6 8 18
ROOT
ATOM      1  N   UNL     1       8.004  46.787  51.424  1.00  0.00    -0.352 N 
ATOM      2  H   UNL     1       7.348  47.559  51.343  1.00  0.00     0.163 HD
ENDROOT
BRANCH   1   3
ATOM      3  C   UNL     1       8.803  46.828  52.646  1.00  0.00     0.144 C 
BRANCH   3   4
ATOM      4  C   UNL     1      10.260  46.485  52.320  1.00  0.00     0.177 C 
BRANCH   4   5
ATOM      5  O   UNL     1      10.339  45.598  51.205  1.00  0.00    -0.395 OA
ATOM      6  H   UNL     1      10.296  44.701  51.581  1.00  0.00     0.210 HD
ENDBRANCH   4   5
ENDBRANCH   3   4
ENDBRANCH   1   3
BRANCH   1   7
ATOM      7  C   UNL     1       7.197  45.658  51.322  1.00  0.00     0.225 A 
ATOM      8  N   UNL     1       6.331  45.490  52.322  1.00  0.00    -0.195 NA
ATOM      9  N   UNL     1       7.314  44.830  50.280  1.00  0.00    -0.213 NA
ATOM     10  C   UNL     1       5.512  44.428  52.280  1.00  0.00     0.139 A 
ATOM     11  C   UNL     1       6.488  43.783  50.223  1.00  0.00     0.078 A 
ATOM     12  C   UNL     1       5.535  43.518  51.211  1.00  0.00     0.043 A 
ATOM     13  C   UNL     1       6.579  42.920  49.137  1.00  0.00     0.029 A 
ATOM     14  C   UNL     1       4.677  42.395  51.070  1.00  0.00     0.014 A 
ATOM     15  C   UNL     1       5.743  41.809  49.002  1.00  0.00     0.002 A 
ATOM     16  C   UNL     1       4.785  41.547  49.971  1.00  0.00     0.001 A 
BRANCH  10  17
ATOM     17  N   UNL     1       4.591  44.229  53.335  1.00  0.00    -0.367 N 
ATOM     18  H   UNL     1       5.041  43.637  54.029  1.00  0.00     0.162 HD
BRANCH  17  19
ATOM     19  C   UNL     1       4.050  45.443  53.959  1.00  0.00     0.146 C 
BRANCH  19  20
ATOM     20  C   UNL     1       2.744  45.942  53.309  1.00  0.00     0.137 C 
ATOM     21  C   UNL     1       2.943  47.097  52.331  1.00  0.00     0.036 C 
ATOM     22  O   UNL     1       2.178  44.853  52.538  1.00  0.00    -0.376 OA
ATOM     23  C   UNL     1       3.089  46.396  51.004  1.00  0.00     0.031 C 
ATOM     24  C   UNL     1       2.127  45.241  51.160  1.00  0.00     0.160 C 
ENDBRANCH  19  20
ENDBRANCH  17  19
ENDBRANCH  10  17
ENDBRANCH   1   7
TORSDOF 7
ENDMDL
MODEL 17
REMARK VINA RESULT:    -7.316      1.702      5.536
REMARK INTER + INTRA:         -10.763
REMARK INTER:                 -10.089
REMARK INTRA:                  -0.675
REMARK UNBOUND:                -0.667
REMARK SMILES OCCNc1nc(NC[C@H]2CCCO2)c2ccccc2n1
REMARK SMILES IDX 4 1 3 3 2 4 1 5 5 7 6 8 21 9 7 10 20 11 15 12 19 13 16 14
REMARK SMILES IDX 18 15 17 16 8 17 9 19 10 20 11 21 14 22 12 23 13 24
REMARK H PARENT 4 2 1 6 8 18
ROOT
ATOM      1  N   UNL     1       8.242  47.847  52.334  1.00  0.00    -0.352 N 
ATOM      2  H   UNL     1       7.510  48.324  52.852  1.00  0.00     0.163 HD
ENDROOT
BRANCH   1   3
ATOM      3  C   UNL     1       9.420  47.539  53.141  1.00  0.00     0.144 C 
BRANCH   3   4
ATOM      4  C   UNL     1       9.135  47.863  54.611  1.00  0.00     0.177 C 
BRANCH   4   5
ATOM      5  O   UNL     1       7.791  47.529  54.956  1.00  0.00    -0.395 OA
ATOM      6  H   UNL     1       7.850  47.046  55.800  1.00  0.00     0.210 HD
ENDBRANCH   4   5
ENDBRANCH   3   4
ENDBRANCH   1   3
BRANCH   1   7
ATOM      7  C   UNL     1       7.604  46.720  51.824  1.00  0.00     0.225 A 
ATOM      8  N   UNL     1       6.408  46.459  52.355  1.00  0.00    -0.195 NA
ATOM      9  N   UNL     1       8.183  45.983  50.874  1.00  0.00    -0.213 NA
ATOM     10  C   UNL     1       5.732  45.394  51.900  1.00  0.00     0.139 A 
ATOM     11  C   UNL     1       7.505  44.933  50.403  1.00  0.00     0.078 A 
ATOM     12  C   UNL     1       6.240  44.576  50.878  1.00  0.00     0.043 A 
ATOM     13  C   UNL     1       8.080  44.164  49.398  1.00  0.00     0.029 A 
ATOM     14  C   UNL     1       5.571  43.458  50.313  1.00  0.00     0.014 A 
ATOM     15  C   UNL     1       7.429  43.057  48.848  1.00  0.00     0.002 A 
ATOM     16  C   UNL     1       6.166  42.704  49.305  1.00  0.00     0.001 A 
BRANCH  10  17
ATOM     17  N   UNL     1       4.465  45.098  52.455  1.00  0.00    -0.367 N 
ATOM     18  H   UNL     1       4.181  44.186  52.105  1.00  0.00     0.162 HD
BRANCH  17  19
ATOM     19  C   UNL     1       4.372  45.145  53.919  1.00  0.00     0.146 C 
BRANCH  19  20
ATOM     20  C   UNL     1       3.095  45.839  54.435  1.00  0.00     0.137 C 
ATOM     21  C   UNL     1       2.034  46.059  53.360  1.00  0.00     0.036 C 
ATOM     22  O   UNL     1       2.487  44.983  55.433  1.00  0.00    -0.376 OA
ATOM     23  C   UNL     1       1.165  44.833  53.486  1.00  0.00     0.031 C 
ATOM     24  C   UNL     1       1.185  44.594  54.977  1.00  0.00     0.160 C 
ENDBRANCH  19  20
ENDBRANCH  17  19
ENDBRANCH  10  17
ENDBRANCH   1   7
TORSDOF 7
ENDMDL
MODEL 18
REMARK VINA RESULT:    -7.272      1.662      5.554
REMARK INTER + INTRA:         -10.703
REMARK INTER:                  -9.828
REMARK INTRA:                  -0.875
REMARK UNBOUND:                -0.667
REMARK SMILES OCCNc1nc(NC[C@H]2CCCO2)c2ccccc2n1
REMARK SMILES IDX 4 1 3 3 2 4 1 5 5 7 6 8 21 9 7 10 20 11 15 12 19 13 16 14
REMARK SMILES IDX 18 15 17 16 8 17 9 19 10 20 11 21 14 22 12 23 13 24
REMARK H PARENT 4 2 1 6 8 18
ROOT
ATOM      1  N   UNL     1       6.994  47.567  52.452  1.00  0.00    -0.352 N 
ATOM      2  H   UNL     1       6.787  47.640  53.444  1.00  0.00     0.163 HD
ENDROOT
BRANCH   1   3
ATOM      3  C   UNL     1       8.408  47.753  52.137  1.00  0.00     0.144 C 
BRANCH   3   4
ATOM      4  C   UNL     1       9.250  47.512  53.393  1.00  0.00     0.177 C 
BRANCH   4   5
ATOM      5  O   UNL     1       8.804  48.332  54.473  1.00  0.00    -0.395 OA
ATOM      6  H   UNL     1       8.292  49.050  54.061  1.00  0.00     0.210 HD
ENDBRANCH   4   5
ENDBRANCH   3   4
ENDBRANCH   1   3
BRANCH   1   7
ATOM      7  C   UNL     1       6.506  46.309  52.107  1.00  0.00     0.225 A 
ATOM      8  N   UNL     1       5.600  45.805  52.947  1.00  0.00    -0.195 NA
ATOM      9  N   UNL     1       6.939  45.690  51.007  1.00  0.00    -0.213 NA
ATOM     10  C   UNL     1       5.078  44.602  52.668  1.00  0.00     0.139 A 
ATOM     11  C   UNL     1       6.408  44.501  50.713  1.00  0.00     0.078 A 
ATOM     12  C   UNL     1       5.443  43.885  51.516  1.00  0.00     0.043 A 
ATOM     13  C   UNL     1       6.829  43.848  49.561  1.00  0.00     0.029 A 
ATOM     14  C   UNL     1       4.909  42.628  51.128  1.00  0.00     0.014 A 
ATOM     15  C   UNL     1       6.313  42.606  49.182  1.00  0.00     0.002 A 
ATOM     16  C   UNL     1       5.345  41.995  49.967  1.00  0.00     0.001 A 
BRANCH  10  17
ATOM     17  N   UNL     1       4.121  44.048  53.549  1.00  0.00    -0.367 N 
ATOM     18  H   UNL     1       4.624  43.634  54.330  1.00  0.00     0.162 HD
BRANCH  17  19
ATOM     19  C   UNL     1       3.077  44.962  54.030  1.00  0.00     0.146 C 
BRANCH  19  20
ATOM     20  C   UNL     1       1.652  44.545  53.615  1.00  0.00     0.137 C 
ATOM     21  C   UNL     1       1.087  45.351  52.449  1.00  0.00     0.036 C 
ATOM     22  O   UNL     1       1.695  43.167  53.170  1.00  0.00    -0.376 OA
ATOM     23  C   UNL     1       1.454  44.515  51.249  1.00  0.00     0.031 C 
ATOM     24  C   UNL     1       1.300  43.114  51.793  1.00  0.00     0.160 C 
ENDBRANCH  19  20
ENDBRANCH  17  19
ENDBRANCH  10  17
ENDBRANCH   1   7
TORSDOF 7
ENDMDL
MODEL 19
REMARK VINA RESULT:    -7.161      2.349      5.060
REMARK INTER + INTRA:         -10.550
REMARK INTER:                  -9.739
REMARK INTRA:                  -0.811
REMARK UNBOUND:                -0.667
REMARK SMILES OCCNc1nc(NC[C@H]2CCCO2)c2ccccc2n1
REMARK SMILES IDX 4 1 3 3 2 4 1 5 5 7 6 8 21 9 7 10 20 11 15 12 19 13 16 14
REMARK SMILES IDX 18 15 17 16 8 17 9 19 10 20 11 21 14 22 12 23 13 24
REMARK H PARENT 4 2 1 6 8 18
ROOT
ATOM      1  N   UNL     1       4.981  47.366  53.231  1.00  0.00    -0.352 N 
ATOM      2  H   UNL     1       4.405  47.980  52.662  1.00  0.00     0.163 HD
ENDROOT
BRANCH   1   3
ATOM      3  C   UNL     1       4.345  46.969  54.484  1.00  0.00     0.144 C 
BRANCH   3   4
ATOM      4  C   UNL     1       5.197  45.902  55.178  1.00  0.00     0.177 C 
BRANCH   4   5
ATOM      5  O   UNL     1       4.425  44.736  55.463  1.00  0.00    -0.395 OA
ATOM      6  H   UNL     1       4.004  44.490  54.620  1.00  0.00     0.210 HD
ENDBRANCH   4   5
ENDBRANCH   3   4
ENDBRANCH   1   3
BRANCH   1   7
ATOM      7  C   UNL     1       5.258  46.297  52.383  1.00  0.00     0.225 A 
ATOM      8  N   UNL     1       4.286  45.389  52.281  1.00  0.00    -0.195 NA
ATOM      9  N   UNL     1       6.424  46.227  51.737  1.00  0.00    -0.213 NA
ATOM     10  C   UNL     1       4.482  44.339  51.469  1.00  0.00     0.139 A 
ATOM     11  C   UNL     1       6.617  45.195  50.912  1.00  0.00     0.078 A 
ATOM     12  C   UNL     1       5.661  44.192  50.721  1.00  0.00     0.043 A 
ATOM     13  C   UNL     1       7.816  45.113  50.214  1.00  0.00     0.029 A 
ATOM     14  C   UNL     1       5.929  43.136  49.811  1.00  0.00     0.014 A 
ATOM     15  C   UNL     1       8.087  44.069  49.326  1.00  0.00     0.002 A 
ATOM     16  C   UNL     1       7.137  43.077  49.121  1.00  0.00     0.001 A 
BRANCH  10  17
ATOM     17  N   UNL     1       3.466  43.363  51.353  1.00  0.00    -0.367 N 
ATOM     18  H   UNL     1       3.814  42.627  50.743  1.00  0.00     0.162 HD
BRANCH  17  19
ATOM     19  C   UNL     1       2.961  42.799  52.612  1.00  0.00     0.146 C 
BRANCH  19  20
ATOM     20  C   UNL     1       1.456  43.044  52.839  1.00  0.00     0.137 C 
ATOM     21  C   UNL     1       1.138  43.767  54.144  1.00  0.00     0.036 C 
ATOM     22  O   UNL     1       0.971  43.899  51.774  1.00  0.00    -0.376 OA
ATOM     23  C   UNL     1       1.096  45.216  53.727  1.00  0.00     0.031 C 
ATOM     24  C   UNL     1       0.488  45.120  52.347  1.00  0.00     0.160 C 
ENDBRANCH  19  20
ENDBRANCH  17  19
ENDBRANCH  10  17
ENDBRANCH   1   7
TORSDOF 7
ENDMDL
MODEL 20
REMARK VINA RESULT:    -7.154      1.939      4.528
REMARK INTER + INTRA:         -10.540
REMARK INTER:                  -9.724
REMARK INTRA:                  -0.816
REMARK UNBOUND:                -0.667
REMARK SMILES OCCNc1nc(NC[C@H]2CCCO2)c2ccccc2n1
REMARK SMILES IDX 4 1 3 3 2 4 1 5 5 7 6 8 21 9 7 10 20 11 15 12 19 13 16 14
REMARK SMILES IDX 18 15 17 16 8 17 9 19 10 20 11 21 14 22 12 23 13 24
REMARK H PARENT 4 2 1 6 8 18
ROOT
ATOM      1  N   UNL     1       8.123  46.676  50.830  1.00  0.00    -0.352 N 
ATOM      2  H   UNL     1       7.580  47.530  50.934  1.00  0.00     0.163 HD
ENDROOT
BRANCH   1   3
ATOM      3  C   UNL     1       9.169  46.525  51.837  1.00  0.00     0.144 C 
BRANCH   3   4
ATOM      4  C   UNL     1       9.005  47.602  52.915  1.00  0.00     0.177 C 
BRANCH   4   5
ATOM      5  O   UNL     1       7.797  48.338  52.722  1.00  0.00    -0.395 OA
ATOM      6  H   UNL     1       8.064  49.274  52.691  1.00  0.00     0.210 HD
ENDBRANCH   4   5
ENDBRANCH   3   4
ENDBRANCH   1   3
BRANCH   1   7
ATOM      7  C   UNL     1       7.162  45.670  50.868  1.00  0.00     0.225 A 
ATOM      8  N   UNL     1       6.044  45.980  51.528  1.00  0.00    -0.195 NA
ATOM      9  N   UNL     1       7.383  44.496  50.272  1.00  0.00    -0.213 NA
ATOM     10  C   UNL     1       5.070  45.060  51.591  1.00  0.00     0.139 A 
ATOM     11  C   UNL     1       6.409  43.584  50.316  1.00  0.00     0.078 A 
ATOM     12  C   UNL     1       5.193  43.807  50.969  1.00  0.00     0.043 A 
ATOM     13  C   UNL     1       6.611  42.362  49.685  1.00  0.00     0.029 A 
ATOM     14  C   UNL     1       4.196  42.796  50.954  1.00  0.00     0.014 A 
ATOM     15  C   UNL     1       5.636  41.361  49.678  1.00  0.00     0.002 A 
ATOM     16  C   UNL     1       4.421  41.581  50.313  1.00  0.00     0.001 A 
BRANCH  10  17
ATOM     17  N   UNL     1       3.881  45.367  52.292  1.00  0.00    -0.367 N 
ATOM     18  H   UNL     1       3.807  44.720  53.073  1.00  0.00     0.162 HD
BRANCH  17  19
ATOM     19  C   UNL     1       3.740  46.755  52.751  1.00  0.00     0.146 C 
BRANCH  19  20
ATOM     20  C   UNL     1       4.086  46.950  54.241  1.00  0.00     0.137 C 
ATOM     21  C   UNL     1       3.956  45.680  55.077  1.00  0.00     0.036 C 
ATOM     22  O   UNL     1       5.474  47.354  54.334  1.00  0.00    -0.376 OA
ATOM     23  C   UNL     1       5.351  45.109  55.045  1.00  0.00     0.031 C 
ATOM     24  C   UNL     1       6.196  46.361  55.072  1.00  0.00     0.160 C 
ENDBRANCH  19  20
ENDBRANCH  17  19
ENDBRANCH  10  17
ENDBRANCH   1   7
TORSDOF 7
ENDMDL
