MODEL 1
REMARK VINA RESULT:    -8.624      0.000      0.000
REMARK INTER + INTRA:         -12.532
REMARK INTER:                 -11.649
REMARK INTRA:                  -0.883
REMARK UNBOUND:                -0.883
REMARK SMILES CCCCNc1nc(Nc2ccc(F)cc2Cl)c2cnn(C)c2n1
REMARK SMILES IDX 5 1 4 3 3 4 2 5 1 6 6 7 7 8 24 9 8 10 23 11 18 12 21 13
REMARK SMILES IDX 19 14 20 15 22 16 9 17 10 19 11 20 16 21 12 22 15 23 13 24
REMARK SMILES IDX 17 25 14 26
REMARK H PARENT 5 2 9 18
ROOT
ATOM      1  N   UNL     1       4.895  46.926  54.982  1.00  0.00    -0.354 N 
ATOM      2  H   UNL     1       5.149  47.576  55.718  1.00  0.00     0.163 HD
ENDROOT
BRANCH   1   3
ATOM      3  C   UNL     1       4.217  45.717  55.415  1.00  0.00     0.116 C 
BRANCH   3   4
ATOM      4  C   UNL     1       2.711  45.788  55.146  1.00  0.00     0.021 C 
BRANCH   4   5
ATOM      5  C   UNL     1       2.355  45.137  53.810  1.00  0.00    -0.002 C 
ATOM      6  C   UNL     1       1.994  46.178  52.762  1.00  0.00     0.004 C 
ENDBRANCH   4   5
ENDBRANCH   3   4
ENDBRANCH   1   3
BRANCH   1   7
ATOM      7  C   UNL     1       6.016  46.769  54.182  1.00  0.00     0.226 A 
ATOM      8  N   UNL     1       5.757  46.315  52.942  1.00  0.00    -0.195 NA
ATOM      9  N   UNL     1       7.227  47.071  54.664  1.00  0.00    -0.193 NA
ATOM     10  C   UNL     1       6.768  46.123  52.057  1.00  0.00     0.147 A 
ATOM     11  C   UNL     1       8.210  46.865  53.776  1.00  0.00     0.165 A 
ATOM     12  C   UNL     1       8.068  46.403  52.481  1.00  0.00     0.082 A 
ATOM     13  N   UNL     1       9.550  47.066  53.964  1.00  0.00    -0.250 N 
ATOM     14  C   UNL     1       9.387  46.366  51.982  1.00  0.00     0.149 A 
ATOM     15  N   UNL     1      10.298  46.771  52.876  1.00  0.00    -0.179 NA
ATOM     16  C   UNL     1      10.195  47.540  55.161  1.00  0.00     0.176 C 
BRANCH  10  17
ATOM     17  N   UNL     1       6.385  45.651  50.780  1.00  0.00    -0.338 N 
ATOM     18  H   UNL     1       7.232  45.802  50.227  1.00  0.00     0.168 HD
BRANCH  17  19
ATOM     19  C   UNL     1       5.871  44.353  50.539  1.00  0.00     0.059 A 
ATOM     20  C   UNL     1       4.636  44.008  51.111  1.00  0.00     0.031 A 
ATOM     21  C   UNL     1       6.567  43.383  49.791  1.00  0.00     0.067 A 
ATOM     22  C   UNL     1       4.107  42.729  50.935  1.00  0.00     0.041 A 
ATOM     23  C   UNL     1       6.039  42.105  49.616  1.00  0.00     0.062 A 
ATOM     24  C   UNL     1       4.815  41.792  50.190  1.00  0.00     0.124 A 
ATOM     25  Cl  UNL     1       8.085  43.749  49.049  1.00  0.00    -0.082 Cl
ATOM     26  F   UNL     1       4.304  40.565  50.023  1.00  0.00    -0.207 F 
ENDBRANCH  17  19
ENDBRANCH  10  17
ENDBRANCH   1   7
TORSDOF 6
ENDMDL
MODEL 2
REMARK VINA RESULT:    -8.559      2.915      5.509
REMARK INTER + INTRA:         -12.443
REMARK INTER:                 -11.228
REMARK INTRA:                  -1.215
REMARK UNBOUND:                -0.883
REMARK SMILES CCCCNc1nc(Nc2ccc(F)cc2Cl)c2cnn(C)c2n1
REMARK SMILES IDX 5 1 4 3 3 4 2 5 1 6 6 7 7 8 24 9 8 10 23 11 18 12 21 13
REMARK SMILES IDX 19 14 20 15 22 16 9 17 10 19 11 20 16 21 12 22 15 23 13 24
REMARK SMILES IDX 17 25 14 26
REMARK H PARENT 5 2 9 18
ROOT
ATOM      1  N   UNL     1       2.749  45.732  52.286  1.00  0.00    -0.354 N 
ATOM      2  H   UNL     1       2.279  46.288  51.579  1.00  0.00     0.163 HD
ENDROOT
BRANCH   1   3
ATOM      3  C   UNL     1       3.076  46.427  53.519  1.00  0.00     0.116 C 
BRANCH   3   4
ATOM      4  C   UNL     1       3.378  45.446  54.655  1.00  0.00     0.021 C 
BRANCH   4   5
ATOM      5  C   UNL     1       4.753  45.712  55.266  1.00  0.00    -0.002 C 
ATOM      6  C   UNL     1       5.774  44.679  54.812  1.00  0.00     0.004 C 
ENDBRANCH   4   5
ENDBRANCH   3   4
ENDBRANCH   1   3
BRANCH   1   7
ATOM      7  C   UNL     1       3.780  45.060  51.648  1.00  0.00     0.226 A 
ATOM      8  N   UNL     1       4.880  45.803  51.429  1.00  0.00    -0.195 NA
ATOM      9  N   UNL     1       3.630  43.773  51.314  1.00  0.00    -0.193 NA
ATOM     10  C   UNL     1       5.963  45.262  50.817  1.00  0.00     0.147 A 
ATOM     11  C   UNL     1       4.709  43.262  50.704  1.00  0.00     0.165 A 
ATOM     12  C   UNL     1       5.889  43.924  50.423  1.00  0.00     0.082 A 
ATOM     13  N   UNL     1       4.866  41.987  50.233  1.00  0.00    -0.250 N 
ATOM     14  C   UNL     1       6.686  42.952  49.783  1.00  0.00     0.149 A 
ATOM     15  N   UNL     1       6.074  41.767  49.665  1.00  0.00    -0.179 NA
ATOM     16  C   UNL     1       3.902  40.918  50.287  1.00  0.00     0.176 C 
BRANCH  10  17
ATOM     17  N   UNL     1       7.067  46.128  50.643  1.00  0.00    -0.338 N 
ATOM     18  H   UNL     1       6.622  46.983  50.300  1.00  0.00     0.168 HD
BRANCH  17  19
ATOM     19  C   UNL     1       7.994  46.440  51.667  1.00  0.00     0.059 A 
ATOM     20  C   UNL     1       7.585  47.301  52.698  1.00  0.00     0.031 A 
ATOM     21  C   UNL     1       9.319  45.961  51.669  1.00  0.00     0.067 A 
ATOM     22  C   UNL     1       8.475  47.669  53.708  1.00  0.00     0.041 A 
ATOM     23  C   UNL     1      10.208  46.329  52.678  1.00  0.00     0.062 A 
ATOM     24  C   UNL     1       9.776  47.180  53.686  1.00  0.00     0.124 A 
ATOM     25  Cl  UNL     1       9.881  44.887  50.437  1.00  0.00    -0.082 Cl
ATOM     26  F   UNL     1      10.627  47.534  54.657  1.00  0.00    -0.207 F 
ENDBRANCH  17  19
ENDBRANCH  10  17
ENDBRANCH   1   7
TORSDOF 6
ENDMDL
MODEL 3
REMARK VINA RESULT:    -8.549      3.221      6.764
REMARK INTER + INTRA:         -12.430
REMARK INTER:                 -11.659
REMARK INTRA:                  -0.771
REMARK UNBOUND:                -0.883
REMARK SMILES CCCCNc1nc(Nc2ccc(F)cc2Cl)c2cnn(C)c2n1
REMARK SMILES IDX 5 1 4 3 3 4 2 5 1 6 6 7 7 8 24 9 8 10 23 11 18 12 21 13
REMARK SMILES IDX 19 14 20 15 22 16 9 17 10 19 11 20 16 21 12 22 15 23 13 24
REMARK SMILES IDX 17 25 14 26
REMARK H PARENT 5 2 9 18
ROOT
ATOM      1  N   UNL     1       6.223  41.554  49.325  1.00  0.00    -0.354 N 
ATOM      2  H   UNL     1       7.196  41.756  49.120  1.00  0.00     0.163 HD
ENDROOT
BRANCH   1   3
ATOM      3  C   UNL     1       5.403  41.183  48.185  1.00  0.00     0.116 C 
BRANCH   3   4
ATOM      4  C   UNL     1       5.778  41.985  46.935  1.00  0.00     0.021 C 
BRANCH   4   5
ATOM      5  C   UNL     1       5.006  41.497  45.711  1.00  0.00    -0.002 C 
ATOM      6  C   UNL     1       5.188  42.434  44.527  1.00  0.00     0.004 C 
ENDBRANCH   4   5
ENDBRANCH   3   4
ENDBRANCH   1   3
BRANCH   1   7
ATOM      7  C   UNL     1       5.759  42.585  50.126  1.00  0.00     0.226 A 
ATOM      8  N   UNL     1       6.508  43.701  50.091  1.00  0.00    -0.195 NA
ATOM      9  N   UNL     1       4.642  42.419  50.846  1.00  0.00    -0.193 NA
ATOM     10  C   UNL     1       6.159  44.786  50.827  1.00  0.00     0.147 A 
ATOM     11  C   UNL     1       4.321  43.499  51.571  1.00  0.00     0.165 A 
ATOM     12  C   UNL     1       5.011  44.697  51.617  1.00  0.00     0.082 A 
ATOM     13  N   UNL     1       3.252  43.643  52.412  1.00  0.00    -0.250 N 
ATOM     14  C   UNL     1       4.267  45.488  52.517  1.00  0.00     0.149 A 
ATOM     15  N   UNL     1       3.191  44.857  53.005  1.00  0.00    -0.179 NA
ATOM     16  C   UNL     1       2.241  42.660  52.704  1.00  0.00     0.176 C 
BRANCH  10  17
ATOM     17  N   UNL     1       7.011  45.908  50.710  1.00  0.00    -0.338 N 
ATOM     18  H   UNL     1       6.349  46.671  50.547  1.00  0.00     0.168 HD
BRANCH  17  19
ATOM     19  C   UNL     1       7.956  46.288  51.694  1.00  0.00     0.059 A 
ATOM     20  C   UNL     1       7.539  47.145  52.725  1.00  0.00     0.031 A 
ATOM     21  C   UNL     1       9.304  45.879  51.656  1.00  0.00     0.067 A 
ATOM     22  C   UNL     1       8.442  47.578  53.696  1.00  0.00     0.041 A 
ATOM     23  C   UNL     1      10.207  46.313  52.626  1.00  0.00     0.062 A 
ATOM     24  C   UNL     1       9.767  47.158  53.635  1.00  0.00     0.124 A 
ATOM     25  Cl  UNL     1       9.879  44.813  50.423  1.00  0.00    -0.082 Cl
ATOM     26  F   UNL     1      10.631  47.575  54.569  1.00  0.00    -0.207 F 
ENDBRANCH  17  19
ENDBRANCH  10  17
ENDBRANCH   1   7
TORSDOF 6
ENDMDL
MODEL 4
REMARK VINA RESULT:    -8.397      2.286      5.308
REMARK INTER + INTRA:         -12.225
REMARK INTER:                 -12.042
REMARK INTRA:                  -0.183
REMARK UNBOUND:                -0.883
REMARK SMILES CCCCNc1nc(Nc2ccc(F)cc2Cl)c2cnn(C)c2n1
REMARK SMILES IDX 5 1 4 3 3 4 2 5 1 6 6 7 7 8 24 9 8 10 23 11 18 12 21 13
REMARK SMILES IDX 19 14 20 15 22 16 9 17 10 19 11 20 16 21 12 22 15 23 13 24
REMARK SMILES IDX 17 25 14 26
REMARK H PARENT 5 2 9 18
ROOT
ATOM      1  N   UNL     1       6.400  46.393  54.951  1.00  0.00    -0.354 N 
ATOM      2  H   UNL     1       6.153  47.272  55.392  1.00  0.00     0.163 HD
ENDROOT
BRANCH   1   3
ATOM      3  C   UNL     1       7.468  46.458  53.969  1.00  0.00     0.116 C 
BRANCH   3   4
ATOM      4  C   UNL     1       8.534  47.485  54.363  1.00  0.00     0.021 C 
BRANCH   4   5
ATOM      5  C   UNL     1       9.925  47.039  53.913  1.00  0.00    -0.002 C 
ATOM      6  C   UNL     1       9.935  46.643  52.445  1.00  0.00     0.004 C 
ENDBRANCH   4   5
ENDBRANCH   3   4
ENDBRANCH   1   3
BRANCH   1   7
ATOM      7  C   UNL     1       5.213  45.797  54.553  1.00  0.00     0.226 A 
ATOM      8  N   UNL     1       5.264  45.200  53.348  1.00  0.00    -0.195 NA
ATOM      9  N   UNL     1       4.143  45.840  55.356  1.00  0.00    -0.193 NA
ATOM     10  C   UNL     1       4.170  44.575  52.845  1.00  0.00     0.147 A 
ATOM     11  C   UNL     1       3.073  45.224  54.836  1.00  0.00     0.165 A 
ATOM     12  C   UNL     1       3.004  44.581  53.614  1.00  0.00     0.082 A 
ATOM     13  N   UNL     1       1.833  45.103  55.400  1.00  0.00    -0.250 N 
ATOM     14  C   UNL     1       1.677  44.110  53.546  1.00  0.00     0.149 A 
ATOM     15  N   UNL     1       0.954  44.420  54.631  1.00  0.00    -0.179 NA
ATOM     16  C   UNL     1       1.408  45.617  56.676  1.00  0.00     0.176 C 
BRANCH  10  17
ATOM     17  N   UNL     1       4.335  43.975  51.575  1.00  0.00    -0.338 N 
ATOM     18  H   UNL     1       3.598  44.423  51.024  1.00  0.00     0.168 HD
BRANCH  17  19
ATOM     19  C   UNL     1       5.553  43.980  50.853  1.00  0.00     0.059 A 
ATOM     20  C   UNL     1       6.279  45.179  50.776  1.00  0.00     0.031 A 
ATOM     21  C   UNL     1       6.042  42.847  50.172  1.00  0.00     0.067 A 
ATOM     22  C   UNL     1       7.465  45.244  50.044  1.00  0.00     0.041 A 
ATOM     23  C   UNL     1       7.226  42.912  49.439  1.00  0.00     0.062 A 
ATOM     24  C   UNL     1       7.925  44.110  49.383  1.00  0.00     0.124 A 
ATOM     25  Cl  UNL     1       5.203  41.337  50.238  1.00  0.00    -0.082 Cl
ATOM     26  F   UNL     1       9.063  44.176  48.682  1.00  0.00    -0.207 F 
ENDBRANCH  17  19
ENDBRANCH  10  17
ENDBRANCH   1   7
TORSDOF 6
ENDMDL
MODEL 5
REMARK VINA RESULT:    -8.311      2.607      5.822
REMARK INTER + INTRA:         -12.108
REMARK INTER:                 -11.419
REMARK INTRA:                  -0.689
REMARK UNBOUND:                -0.883
REMARK SMILES CCCCNc1nc(Nc2ccc(F)cc2Cl)c2cnn(C)c2n1
REMARK SMILES IDX 5 1 4 3 3 4 2 5 1 6 6 7 7 8 24 9 8 10 23 11 18 12 21 13
REMARK SMILES IDX 19 14 20 15 22 16 9 17 10 19 11 20 16 21 12 22 15 23 13 24
REMARK SMILES IDX 17 25 14 26
REMARK H PARENT 5 2 9 18
ROOT
ATOM      1  N   UNL     1       8.777  47.447  51.655  1.00  0.00    -0.354 N 
ATOM      2  H   UNL     1       8.854  47.955  50.781  1.00  0.00     0.163 HD
ENDROOT
BRANCH   1   3
ATOM      3  C   UNL     1       9.998  46.821  52.131  1.00  0.00     0.116 C 
BRANCH   3   4
ATOM      4  C   UNL     1       9.865  46.358  53.585  1.00  0.00     0.021 C 
BRANCH   4   5
ATOM      5  C   UNL     1       9.639  47.542  54.524  1.00  0.00    -0.002 C 
ATOM      6  C   UNL     1      10.599  47.510  55.703  1.00  0.00     0.004 C 
ENDBRANCH   4   5
ENDBRANCH   3   4
ENDBRANCH   1   3
BRANCH   1   7
ATOM      7  C   UNL     1       7.654  46.641  51.553  1.00  0.00     0.226 A 
ATOM      8  N   UNL     1       6.578  47.094  52.222  1.00  0.00    -0.195 NA
ATOM      9  N   UNL     1       7.702  45.520  50.823  1.00  0.00    -0.193 NA
ATOM     10  C   UNL     1       5.412  46.399  52.198  1.00  0.00     0.147 A 
ATOM     11  C   UNL     1       6.543  44.847  50.821  1.00  0.00     0.165 A 
ATOM     12  C   UNL     1       5.377  45.209  51.468  1.00  0.00     0.082 A 
ATOM     13  N   UNL     1       6.273  43.667  50.183  1.00  0.00    -0.250 N 
ATOM     14  C   UNL     1       4.471  44.176  51.151  1.00  0.00     0.149 A 
ATOM     15  N   UNL     1       5.006  43.232  50.365  1.00  0.00    -0.179 NA
ATOM     16  C   UNL     1       7.181  42.890  49.378  1.00  0.00     0.176 C 
BRANCH  10  17
ATOM     17  N   UNL     1       4.344  46.968  52.929  1.00  0.00    -0.338 N 
ATOM     18  H   UNL     1       3.996  47.684  52.286  1.00  0.00     0.168 HD
BRANCH  17  19
ATOM     19  C   UNL     1       3.262  46.221  53.455  1.00  0.00     0.059 A 
ATOM     20  C   UNL     1       2.030  46.267  52.783  1.00  0.00     0.031 A 
ATOM     21  C   UNL     1       3.357  45.474  54.646  1.00  0.00     0.067 A 
ATOM     22  C   UNL     1       0.924  45.579  53.283  1.00  0.00     0.041 A 
ATOM     23  C   UNL     1       2.251  44.788  55.147  1.00  0.00     0.062 A 
ATOM     24  C   UNL     1       1.046  44.848  54.460  1.00  0.00     0.124 A 
ATOM     25  Cl  UNL     1       4.848  45.365  55.514  1.00  0.00    -0.082 Cl
ATOM     26  F   UNL     1      -0.017  44.190  54.937  1.00  0.00    -0.207 F 
ENDBRANCH  17  19
ENDBRANCH  10  17
ENDBRANCH   1   7
TORSDOF 6
ENDMDL
MODEL 6
REMARK VINA RESULT:    -8.291      3.023      6.389
REMARK INTER + INTRA:         -12.082
REMARK INTER:                 -11.179
REMARK INTRA:                  -0.903
REMARK UNBOUND:                -0.883
REMARK SMILES CCCCNc1nc(Nc2ccc(F)cc2Cl)c2cnn(C)c2n1
REMARK SMILES IDX 5 1 4 3 3 4 2 5 1 6 6 7 7 8 24 9 8 10 23 11 18 12 21 13
REMARK SMILES IDX 19 14 20 15 22 16 9 17 10 19 11 20 16 21 12 22 15 23 13 24
REMARK SMILES IDX 17 25 14 26
REMARK H PARENT 5 2 9 18
ROOT
ATOM      1  N   UNL     1       4.519  41.555  50.880  1.00  0.00    -0.354 N 
ATOM      2  H   UNL     1       4.559  40.910  51.661  1.00  0.00     0.163 HD
ENDROOT
BRANCH   1   3
ATOM      3  C   UNL     1       5.639  41.500  49.958  1.00  0.00     0.116 C 
BRANCH   3   4
ATOM      4  C   UNL     1       5.187  41.133  48.541  1.00  0.00     0.021 C 
BRANCH   4   5
ATOM      5  C   UNL     1       5.883  42.001  47.495  1.00  0.00    -0.002 C 
ATOM      6  C   UNL     1       5.408  41.667  46.089  1.00  0.00     0.004 C 
ENDBRANCH   4   5
ENDBRANCH   3   4
ENDBRANCH   1   3
BRANCH   1   7
ATOM      7  C   UNL     1       4.193  42.797  51.402  1.00  0.00     0.226 A 
ATOM      8  N   UNL     1       4.998  43.799  51.003  1.00  0.00    -0.195 NA
ATOM      9  N   UNL     1       3.143  42.921  52.223  1.00  0.00    -0.193 NA
ATOM     10  C   UNL     1       4.783  45.066  51.439  1.00  0.00     0.147 A 
ATOM     11  C   UNL     1       2.956  44.178  52.647  1.00  0.00     0.165 A 
ATOM     12  C   UNL     1       3.714  45.284  52.310  1.00  0.00     0.082 A 
ATOM     13  N   UNL     1       1.983  44.628  53.497  1.00  0.00    -0.250 N 
ATOM     14  C   UNL     1       3.106  46.345  53.013  1.00  0.00     0.149 A 
ATOM     15  N   UNL     1       2.048  45.957  53.738  1.00  0.00    -0.179 NA
ATOM     16  C   UNL     1       0.950  43.843  54.124  1.00  0.00     0.176 C 
BRANCH  10  17
ATOM     17  N   UNL     1       5.682  46.043  50.953  1.00  0.00    -0.338 N 
ATOM     18  H   UNL     1       5.107  46.889  50.951  1.00  0.00     0.168 HD
BRANCH  17  19
ATOM     19  C   UNL     1       6.943  46.315  51.538  1.00  0.00     0.059 A 
ATOM     20  C   UNL     1       6.998  47.206  52.622  1.00  0.00     0.031 A 
ATOM     21  C   UNL     1       8.146  45.767  51.050  1.00  0.00     0.067 A 
ATOM     22  C   UNL     1       8.221  47.536  53.207  1.00  0.00     0.041 A 
ATOM     23  C   UNL     1       9.368  46.098  51.633  1.00  0.00     0.062 A 
ATOM     24  C   UNL     1       9.392  46.979  52.706  1.00  0.00     0.124 A 
ATOM     25  Cl  UNL     1       8.146  44.653  49.728  1.00  0.00    -0.082 Cl
ATOM     26  F   UNL     1      10.564  47.297  53.269  1.00  0.00    -0.207 F 
ENDBRANCH  17  19
ENDBRANCH  10  17
ENDBRANCH   1   7
TORSDOF 6
ENDMDL
MODEL 7
REMARK VINA RESULT:    -8.271      3.174      5.662
REMARK INTER + INTRA:         -12.055
REMARK INTER:                 -11.229
REMARK INTRA:                  -0.826
REMARK UNBOUND:                -0.883
REMARK SMILES CCCCNc1nc(Nc2ccc(F)cc2Cl)c2cnn(C)c2n1
REMARK SMILES IDX 5 1 4 3 3 4 2 5 1 6 6 7 7 8 24 9 8 10 23 11 18 12 21 13
REMARK SMILES IDX 19 14 20 15 22 16 9 17 10 19 11 20 16 21 12 22 15 23 13 24
REMARK SMILES IDX 17 25 14 26
REMARK H PARENT 5 2 9 18
ROOT
ATOM      1  N   UNL     1       2.895  43.785  53.063  1.00  0.00    -0.354 N 
ATOM      2  H   UNL     1       2.250  43.174  52.573  1.00  0.00     0.163 HD
ENDROOT
BRANCH   1   3
ATOM      3  C   UNL     1       2.312  44.981  53.644  1.00  0.00     0.116 C 
BRANCH   3   4
ATOM      4  C   UNL     1       2.261  44.899  55.172  1.00  0.00     0.021 C 
BRANCH   4   5
ATOM      5  C   UNL     1       0.822  44.966  55.682  1.00  0.00    -0.002 C 
ATOM      6  C   UNL     1       0.747  45.619  57.053  1.00  0.00     0.004 C 
ENDBRANCH   4   5
ENDBRANCH   3   4
ENDBRANCH   1   3
BRANCH   1   7
ATOM      7  C   UNL     1       3.993  43.957  52.234  1.00  0.00     0.226 A 
ATOM      8  N   UNL     1       4.617  45.141  52.372  1.00  0.00    -0.195 NA
ATOM      9  N   UNL     1       4.355  42.979  51.395  1.00  0.00    -0.193 NA
ATOM     10  C   UNL     1       5.709  45.432  51.621  1.00  0.00     0.147 A 
ATOM     11  C   UNL     1       5.430  43.292  50.659  1.00  0.00     0.165 A 
ATOM     12  C   UNL     1       6.150  44.471  50.710  1.00  0.00     0.082 A 
ATOM     13  N   UNL     1       6.036  42.516  49.710  1.00  0.00    -0.250 N 
ATOM     14  C   UNL     1       7.167  44.295  49.749  1.00  0.00     0.149 A 
ATOM     15  N   UNL     1       7.110  43.106  49.135  1.00  0.00    -0.179 NA
ATOM     16  C   UNL     1       5.645  41.194  49.292  1.00  0.00     0.176 C 
BRANCH  10  17
ATOM     17  N   UNL     1       6.291  46.700  51.851  1.00  0.00    -0.338 N 
ATOM     18  H   UNL     1       5.505  47.237  52.226  1.00  0.00     0.168 HD
BRANCH  17  19
ATOM     19  C   UNL     1       7.445  46.907  52.645  1.00  0.00     0.059 A 
ATOM     20  C   UNL     1       8.701  46.871  52.019  1.00  0.00     0.031 A 
ATOM     21  C   UNL     1       7.388  47.100  54.040  1.00  0.00     0.067 A 
ATOM     22  C   UNL     1       9.870  47.031  52.765  1.00  0.00     0.041 A 
ATOM     23  C   UNL     1       8.555  47.258  54.785  1.00  0.00     0.062 A 
ATOM     24  C   UNL     1       9.784  47.222  54.140  1.00  0.00     0.124 A 
ATOM     25  Cl  UNL     1       5.873  47.168  54.869  1.00  0.00    -0.082 Cl
ATOM     26  F   UNL     1      10.907  47.375  54.853  1.00  0.00    -0.207 F 
ENDBRANCH  17  19
ENDBRANCH  10  17
ENDBRANCH   1   7
TORSDOF 6
ENDMDL
MODEL 8
REMARK VINA RESULT:    -8.222      3.291      6.687
REMARK INTER + INTRA:         -11.988
REMARK INTER:                 -11.027
REMARK INTRA:                  -0.961
REMARK UNBOUND:                -0.883
REMARK SMILES CCCCNc1nc(Nc2ccc(F)cc2Cl)c2cnn(C)c2n1
REMARK SMILES IDX 5 1 4 3 3 4 2 5 1 6 6 7 7 8 24 9 8 10 23 11 18 12 21 13
REMARK SMILES IDX 19 14 20 15 22 16 9 17 10 19 11 20 16 21 12 22 15 23 13 24
REMARK SMILES IDX 17 25 14 26
REMARK H PARENT 5 2 9 18
ROOT
ATOM      1  N   UNL     1       4.491  41.596  51.239  1.00  0.00    -0.354 N 
ATOM      2  H   UNL     1       5.480  41.658  51.452  1.00  0.00     0.163 HD
ENDROOT
BRANCH   1   3
ATOM      3  C   UNL     1       4.162  41.220  49.875  1.00  0.00     0.116 C 
BRANCH   3   4
ATOM      4  C   UNL     1       5.396  41.251  48.968  1.00  0.00     0.021 C 
BRANCH   4   5
ATOM      5  C   UNL     1       6.660  41.573  49.764  1.00  0.00    -0.002 C 
ATOM      6  C   UNL     1       7.247  42.916  49.358  1.00  0.00     0.004 C 
ENDBRANCH   4   5
ENDBRANCH   3   4
ENDBRANCH   1   3
BRANCH   1   7
ATOM      7  C   UNL     1       3.900  42.747  51.735  1.00  0.00     0.226 A 
ATOM      8  N   UNL     1       4.598  43.875  51.510  1.00  0.00    -0.195 NA
ATOM      9  N   UNL     1       2.724  42.673  52.370  1.00  0.00    -0.193 NA
ATOM     10  C   UNL     1       4.126  45.072  51.941  1.00  0.00     0.147 A 
ATOM     11  C   UNL     1       2.282  43.865  52.793  1.00  0.00     0.165 A 
ATOM     12  C   UNL     1       2.908  45.086  52.624  1.00  0.00     0.082 A 
ATOM     13  N   UNL     1       1.126  44.123  53.479  1.00  0.00    -0.250 N 
ATOM     14  C   UNL     1       2.041  46.008  53.246  1.00  0.00     0.149 A 
ATOM     15  N   UNL     1       0.950  45.432  53.767  1.00  0.00    -0.179 NA
ATOM     16  C   UNL     1       0.136  43.164  53.898  1.00  0.00     0.176 C 
BRANCH  10  17
ATOM     17  N   UNL     1       4.935  46.193  51.645  1.00  0.00    -0.338 N 
ATOM     18  H   UNL     1       4.342  46.974  51.936  1.00  0.00     0.168 HD
BRANCH  17  19
ATOM     19  C   UNL     1       6.250  46.371  52.140  1.00  0.00     0.059 A 
ATOM     20  C   UNL     1       7.328  46.097  51.284  1.00  0.00     0.031 A 
ATOM     21  C   UNL     1       6.520  46.765  53.466  1.00  0.00     0.067 A 
ATOM     22  C   UNL     1       8.642  46.220  51.737  1.00  0.00     0.041 A 
ATOM     23  C   UNL     1       7.833  46.887  53.919  1.00  0.00     0.062 A 
ATOM     24  C   UNL     1       8.880  46.613  53.050  1.00  0.00     0.124 A 
ATOM     25  Cl  UNL     1       5.238  47.131  54.566  1.00  0.00    -0.082 Cl
ATOM     26  F   UNL     1      10.142  46.730  53.482  1.00  0.00    -0.207 F 
ENDBRANCH  17  19
ENDBRANCH  10  17
ENDBRANCH   1   7
TORSDOF 6
ENDMDL
MODEL 9
REMARK VINA RESULT:    -8.169      1.367      1.823
REMARK INTER + INTRA:         -11.917
REMARK INTER:                 -11.081
REMARK INTRA:                  -0.836
REMARK UNBOUND:                -0.883
REMARK SMILES CCCCNc1nc(Nc2ccc(F)cc2Cl)c2cnn(C)c2n1
REMARK SMILES IDX 5 1 4 3 3 4 2 5 1 6 6 7 7 8 24 9 8 10 23 11 18 12 21 13
REMARK SMILES IDX 19 14 20 15 22 16 9 17 10 19 11 20 16 21 12 22 15 23 13 24
REMARK SMILES IDX 17 25 14 26
REMARK H PARENT 5 2 9 18
ROOT
ATOM      1  N   UNL     1       4.888  47.067  55.186  1.00  0.00    -0.354 N 
ATOM      2  H   UNL     1       5.152  46.695  56.092  1.00  0.00     0.163 HD
ENDROOT
BRANCH   1   3
ATOM      3  C   UNL     1       3.605  46.622  54.673  1.00  0.00     0.116 C 
BRANCH   3   4
ATOM      4  C   UNL     1       3.162  45.308  55.322  1.00  0.00     0.021 C 
BRANCH   4   5
ATOM      5  C   UNL     1       1.666  45.067  55.123  1.00  0.00    -0.002 C 
ATOM      6  C   UNL     1       0.911  45.136  56.441  1.00  0.00     0.004 C 
ENDBRANCH   4   5
ENDBRANCH   3   4
ENDBRANCH   1   3
BRANCH   1   7
ATOM      7  C   UNL     1       5.987  46.916  54.355  1.00  0.00     0.226 A 
ATOM      8  N   UNL     1       5.690  46.518  53.104  1.00  0.00    -0.195 NA
ATOM      9  N   UNL     1       7.215  47.172  54.820  1.00  0.00    -0.193 NA
ATOM     10  C   UNL     1       6.676  46.339  52.189  1.00  0.00     0.147 A 
ATOM     11  C   UNL     1       8.173  46.980  53.902  1.00  0.00     0.165 A 
ATOM     12  C   UNL     1       7.992  46.573  52.593  1.00  0.00     0.082 A 
ATOM     13  N   UNL     1       9.521  47.145  54.067  1.00  0.00    -0.250 N 
ATOM     14  C   UNL     1       9.298  46.527  52.063  1.00  0.00     0.149 A 
ATOM     15  N   UNL     1      10.238  46.876  52.952  1.00  0.00    -0.179 NA
ATOM     16  C   UNL     1      10.203  47.556  55.267  1.00  0.00     0.176 C 
BRANCH  10  17
ATOM     17  N   UNL     1       6.254  45.927  50.904  1.00  0.00    -0.338 N 
ATOM     18  H   UNL     1       6.866  46.468  50.288  1.00  0.00     0.168 HD
BRANCH  17  19
ATOM     19  C   UNL     1       6.212  44.576  50.483  1.00  0.00     0.059 A 
ATOM     20  C   UNL     1       7.271  44.087  49.701  1.00  0.00     0.031 A 
ATOM     21  C   UNL     1       5.133  43.717  50.775  1.00  0.00     0.067 A 
ATOM     22  C   UNL     1       7.256  42.775  49.228  1.00  0.00     0.041 A 
ATOM     23  C   UNL     1       5.118  42.406  50.303  1.00  0.00     0.062 A 
ATOM     24  C   UNL     1       6.180  41.949  49.534  1.00  0.00     0.124 A 
ATOM     25  Cl  UNL     1       3.806  44.252  51.745  1.00  0.00    -0.082 Cl
ATOM     26  F   UNL     1       6.169  40.689  49.080  1.00  0.00    -0.207 F 
ENDBRANCH  17  19
ENDBRANCH  10  17
ENDBRANCH   1   7
TORSDOF 6
ENDMDL
MODEL 10
REMARK VINA RESULT:    -8.159      2.995      5.714
REMARK INTER + INTRA:         -11.904
REMARK INTER:                 -11.031
REMARK INTRA:                  -0.873
REMARK UNBOUND:                -0.883
REMARK SMILES CCCCNc1nc(Nc2ccc(F)cc2Cl)c2cnn(C)c2n1
REMARK SMILES IDX 5 1 4 3 3 4 2 5 1 6 6 7 7 8 24 9 8 10 23 11 18 12 21 13
REMARK SMILES IDX 19 14 20 15 22 16 9 17 10 19 11 20 16 21 12 22 15 23 13 24
REMARK SMILES IDX 17 25 14 26
REMARK H PARENT 5 2 9 18
ROOT
ATOM      1  N   UNL     1       6.587  47.192  52.759  1.00  0.00    -0.354 N 
ATOM      2  H   UNL     1       5.757  47.773  52.715  1.00  0.00     0.163 HD
ENDROOT
BRANCH   1   3
ATOM      3  C   UNL     1       7.818  47.817  52.306  1.00  0.00     0.116 C 
BRANCH   3   4
ATOM      4  C   UNL     1       8.871  47.859  53.418  1.00  0.00     0.021 C 
BRANCH   4   5
ATOM      5  C   UNL     1       9.777  46.630  53.369  1.00  0.00    -0.002 C 
ATOM      6  C   UNL     1      10.277  46.362  51.958  1.00  0.00     0.004 C 
ENDBRANCH   4   5
ENDBRANCH   3   4
ENDBRANCH   1   3
BRANCH   1   7
ATOM      7  C   UNL     1       6.254  45.972  52.192  1.00  0.00     0.226 A 
ATOM      8  N   UNL     1       5.209  45.354  52.771  1.00  0.00    -0.195 NA
ATOM      9  N   UNL     1       6.952  45.510  51.147  1.00  0.00    -0.193 NA
ATOM     10  C   UNL     1       4.778  44.153  52.306  1.00  0.00     0.147 A 
ATOM     11  C   UNL     1       6.514  44.321  50.711  1.00  0.00     0.165 A 
ATOM     12  C   UNL     1       5.457  43.591  51.223  1.00  0.00     0.082 A 
ATOM     13  N   UNL     1       7.019  43.583  49.675  1.00  0.00    -0.250 N 
ATOM     14  C   UNL     1       5.416  42.433  50.419  1.00  0.00     0.149 A 
ATOM     15  N   UNL     1       6.361  42.419  49.470  1.00  0.00    -0.179 NA
ATOM     16  C   UNL     1       8.135  43.925  48.831  1.00  0.00     0.176 C 
BRANCH  10  17
ATOM     17  N   UNL     1       3.669  43.596  52.982  1.00  0.00    -0.338 N 
ATOM     18  H   UNL     1       3.949  43.672  53.963  1.00  0.00     0.168 HD
BRANCH  17  19
ATOM     19  C   UNL     1       2.337  44.048  52.820  1.00  0.00     0.059 A 
ATOM     20  C   UNL     1       1.745  43.939  51.552  1.00  0.00     0.031 A 
ATOM     21  C   UNL     1       1.600  44.643  53.863  1.00  0.00     0.067 A 
ATOM     22  C   UNL     1       0.448  44.407  51.332  1.00  0.00     0.041 A 
ATOM     23  C   UNL     1       0.305  45.111  53.644  1.00  0.00     0.062 A 
ATOM     24  C   UNL     1      -0.256  44.988  52.381  1.00  0.00     0.124 A 
ATOM     25  Cl  UNL     1       2.266  44.794  55.452  1.00  0.00    -0.082 Cl
ATOM     26  F   UNL     1      -1.500  45.435  52.167  1.00  0.00    -0.207 F 
ENDBRANCH  17  19
ENDBRANCH  10  17
ENDBRANCH   1   7
TORSDOF 6
ENDMDL
MODEL 11
REMARK VINA RESULT:    -8.109      2.993      6.319
REMARK INTER + INTRA:         -11.836
REMARK INTER:                 -10.985
REMARK INTRA:                  -0.851
REMARK UNBOUND:                -0.883
REMARK SMILES CCCCNc1nc(Nc2ccc(F)cc2Cl)c2cnn(C)c2n1
REMARK SMILES IDX 5 1 4 3 3 4 2 5 1 6 6 7 7 8 24 9 8 10 23 11 18 12 21 13
REMARK SMILES IDX 19 14 20 15 22 16 9 17 10 19 11 20 16 21 12 22 15 23 13 24
REMARK SMILES IDX 17 25 14 26
REMARK H PARENT 5 2 9 18
ROOT
ATOM      1  N   UNL     1       8.007  46.201  50.658  1.00  0.00    -0.354 N 
ATOM      2  H   UNL     1       8.727  45.566  50.330  1.00  0.00     0.163 HD
ENDROOT
BRANCH   1   3
ATOM      3  C   UNL     1       8.389  47.074  51.754  1.00  0.00     0.116 C 
BRANCH   3   4
ATOM      4  C   UNL     1       9.822  46.802  52.219  1.00  0.00     0.021 C 
BRANCH   4   5
ATOM      5  C   UNL     1       9.864  46.443  53.704  1.00  0.00    -0.002 C 
ATOM      6  C   UNL     1       9.512  47.637  54.576  1.00  0.00     0.004 C 
ENDBRANCH   4   5
ENDBRANCH   3   4
ENDBRANCH   1   3
BRANCH   1   7
ATOM      7  C   UNL     1       6.855  45.449  50.824  1.00  0.00     0.226 A 
ATOM      8  N   UNL     1       5.827  46.117  51.379  1.00  0.00    -0.195 NA
ATOM      9  N   UNL     1       6.831  44.169  50.431  1.00  0.00    -0.193 NA
ATOM     10  C   UNL     1       4.639  45.495  51.591  1.00  0.00     0.147 A 
ATOM     11  C   UNL     1       5.652  43.575  50.657  1.00  0.00     0.165 A 
ATOM     12  C   UNL     1       4.529  44.153  51.220  1.00  0.00     0.082 A 
ATOM     13  N   UNL     1       5.313  42.278  50.381  1.00  0.00    -0.250 N 
ATOM     14  C   UNL     1       3.576  43.115  51.234  1.00  0.00     0.149 A 
ATOM     15  N   UNL     1       4.041  41.968  50.722  1.00  0.00    -0.179 NA
ATOM     16  C   UNL     1       6.155  41.270  49.790  1.00  0.00     0.176 C 
BRANCH  10  17
ATOM     17  N   UNL     1       3.626  46.291  52.173  1.00  0.00    -0.338 N 
ATOM     18  H   UNL     1       2.966  46.405  51.400  1.00  0.00     0.168 HD
BRANCH  17  19
ATOM     19  C   UNL     1       2.931  45.942  53.357  1.00  0.00     0.059 A 
ATOM     20  C   UNL     1       3.606  46.056  54.584  1.00  0.00     0.031 A 
ATOM     21  C   UNL     1       1.613  45.444  53.352  1.00  0.00     0.067 A 
ATOM     22  C   UNL     1       2.977  45.689  55.774  1.00  0.00     0.041 A 
ATOM     23  C   UNL     1       0.986  45.076  54.541  1.00  0.00     0.062 A 
ATOM     24  C   UNL     1       1.675  45.202  55.739  1.00  0.00     0.124 A 
ATOM     25  Cl  UNL     1       0.723  45.293  51.877  1.00  0.00    -0.082 Cl
ATOM     26  F   UNL     1       1.075  44.850  56.884  1.00  0.00    -0.207 F 
ENDBRANCH  17  19
ENDBRANCH  10  17
ENDBRANCH   1   7
TORSDOF 6
ENDMDL
MODEL 12
REMARK VINA RESULT:    -8.099      1.775      5.020
REMARK INTER + INTRA:         -11.823
REMARK INTER:                 -10.977
REMARK INTRA:                  -0.846
REMARK UNBOUND:                -0.883
REMARK SMILES CCCCNc1nc(Nc2ccc(F)cc2Cl)c2cnn(C)c2n1
REMARK SMILES IDX 5 1 4 3 3 4 2 5 1 6 6 7 7 8 24 9 8 10 23 11 18 12 21 13
REMARK SMILES IDX 19 14 20 15 22 16 9 17 10 19 11 20 16 21 12 22 15 23 13 24
REMARK SMILES IDX 17 25 14 26
REMARK H PARENT 5 2 9 18
ROOT
ATOM      1  N   UNL     1       6.220  46.856  54.949  1.00  0.00    -0.354 N 
ATOM      2  H   UNL     1       6.026  47.817  55.207  1.00  0.00     0.163 HD
ENDROOT
BRANCH   1   3
ATOM      3  C   UNL     1       7.369  46.654  54.085  1.00  0.00     0.116 C 
BRANCH   3   4
ATOM      4  C   UNL     1       8.543  47.549  54.490  1.00  0.00     0.021 C 
BRANCH   4   5
ATOM      5  C   UNL     1       9.848  47.075  53.852  1.00  0.00    -0.002 C 
ATOM      6  C   UNL     1       9.668  46.779  52.371  1.00  0.00     0.004 C 
ENDBRANCH   4   5
ENDBRANCH   3   4
ENDBRANCH   1   3
BRANCH   1   7
ATOM      7  C   UNL     1       5.018  46.300  54.539  1.00  0.00     0.226 A 
ATOM      8  N   UNL     1       4.994  45.906  53.253  1.00  0.00    -0.195 NA
ATOM      9  N   UNL     1       4.006  46.185  55.408  1.00  0.00    -0.193 NA
ATOM     10  C   UNL     1       3.877  45.341  52.729  1.00  0.00     0.147 A 
ATOM     11  C   UNL     1       2.911  45.633  54.866  1.00  0.00     0.165 A 
ATOM     12  C   UNL     1       2.767  45.193  53.564  1.00  0.00     0.082 A 
ATOM     13  N   UNL     1       1.715  45.391  55.484  1.00  0.00    -0.250 N 
ATOM     14  C   UNL     1       1.445  44.705  53.509  1.00  0.00     0.149 A 
ATOM     15  N   UNL     1       0.796  44.817  54.675  1.00  0.00    -0.179 NA
ATOM     16  C   UNL     1       1.372  45.682  56.853  1.00  0.00     0.176 C 
BRANCH  10  17
ATOM     17  N   UNL     1       3.962  44.958  51.371  1.00  0.00    -0.338 N 
ATOM     18  H   UNL     1       4.233  45.832  50.913  1.00  0.00     0.168 HD
BRANCH  17  19
ATOM     19  C   UNL     1       4.769  43.893  50.901  1.00  0.00     0.059 A 
ATOM     20  C   UNL     1       4.243  42.591  50.939  1.00  0.00     0.031 A 
ATOM     21  C   UNL     1       6.087  44.078  50.441  1.00  0.00     0.067 A 
ATOM     22  C   UNL     1       5.013  41.504  50.524  1.00  0.00     0.041 A 
ATOM     23  C   UNL     1       6.857  42.992  50.027  1.00  0.00     0.062 A 
ATOM     24  C   UNL     1       6.311  41.716  50.073  1.00  0.00     0.124 A 
ATOM     25  Cl  UNL     1       6.788  45.656  50.355  1.00  0.00    -0.082 Cl
ATOM     26  F   UNL     1       7.047  40.671  49.674  1.00  0.00    -0.207 F 
ENDBRANCH  17  19
ENDBRANCH  10  17
ENDBRANCH   1   7
TORSDOF 6
ENDMDL
MODEL 13
REMARK VINA RESULT:    -8.031      2.914      5.537
REMARK INTER + INTRA:         -11.730
REMARK INTER:                 -11.089
REMARK INTRA:                  -0.641
REMARK UNBOUND:                -0.883
REMARK SMILES CCCCNc1nc(Nc2ccc(F)cc2Cl)c2cnn(C)c2n1
REMARK SMILES IDX 5 1 4 3 3 4 2 5 1 6 6 7 7 8 24 9 8 10 23 11 18 12 21 13
REMARK SMILES IDX 19 14 20 15 22 16 9 17 10 19 11 20 16 21 12 22 15 23 13 24
REMARK SMILES IDX 17 25 14 26
REMARK H PARENT 5 2 9 18
ROOT
ATOM      1  N   UNL     1       3.292  44.583  53.910  1.00  0.00    -0.354 N 
ATOM      2  H   UNL     1       3.646  44.023  54.678  1.00  0.00     0.163 HD
ENDROOT
BRANCH   1   3
ATOM      3  C   UNL     1       1.870  44.457  53.642  1.00  0.00     0.116 C 
BRANCH   3   4
ATOM      4  C   UNL     1       1.034  45.274  54.631  1.00  0.00     0.021 C 
BRANCH   4   5
ATOM      5  C   UNL     1       1.385  44.922  56.076  1.00  0.00    -0.002 C 
ATOM      6  C   UNL     1       0.535  45.708  57.063  1.00  0.00     0.004 C 
ENDBRANCH   4   5
ENDBRANCH   3   4
ENDBRANCH   1   3
BRANCH   1   7
ATOM      7  C   UNL     1       4.154  44.391  52.842  1.00  0.00     0.226 A 
ATOM      8  N   UNL     1       5.051  45.378  52.665  1.00  0.00    -0.195 NA
ATOM      9  N   UNL     1       4.054  43.286  52.094  1.00  0.00    -0.193 NA
ATOM     10  C   UNL     1       5.957  45.309  51.656  1.00  0.00     0.147 A 
ATOM     11  C   UNL     1       4.952  43.244  51.100  1.00  0.00     0.165 A 
ATOM     12  C   UNL     1       5.916  44.193  50.818  1.00  0.00     0.082 A 
ATOM     13  N   UNL     1       5.101  42.259  50.162  1.00  0.00    -0.250 N 
ATOM     14  C   UNL     1       6.588  43.677  49.691  1.00  0.00     0.149 A 
ATOM     15  N   UNL     1       6.102  42.497  49.284  1.00  0.00    -0.179 NA
ATOM     16  C   UNL     1       4.319  41.055  50.037  1.00  0.00     0.176 C 
BRANCH  10  17
ATOM     17  N   UNL     1       6.857  46.395  51.565  1.00  0.00    -0.338 N 
ATOM     18  H   UNL     1       6.227  47.200  51.536  1.00  0.00     0.168 HD
BRANCH  17  19
ATOM     19  C   UNL     1       7.906  46.630  52.487  1.00  0.00     0.059 A 
ATOM     20  C   UNL     1       7.611  47.330  53.668  1.00  0.00     0.031 A 
ATOM     21  C   UNL     1       9.237  46.234  52.248  1.00  0.00     0.067 A 
ATOM     22  C   UNL     1       8.618  47.620  54.589  1.00  0.00     0.041 A 
ATOM     23  C   UNL     1      10.243  46.525  53.168  1.00  0.00     0.062 A 
ATOM     24  C   UNL     1       9.923  47.215  54.329  1.00  0.00     0.124 A 
ATOM     25  Cl  UNL     1       9.663  45.357  50.821  1.00  0.00    -0.082 Cl
ATOM     26  F   UNL     1      10.886  47.495  55.215  1.00  0.00    -0.207 F 
ENDBRANCH  17  19
ENDBRANCH  10  17
ENDBRANCH   1   7
TORSDOF 6
ENDMDL
MODEL 14
REMARK VINA RESULT:    -7.948      3.089      5.871
REMARK INTER + INTRA:         -11.618
REMARK INTER:                 -10.964
REMARK INTRA:                  -0.654
REMARK UNBOUND:                -0.883
REMARK SMILES CCCCNc1nc(Nc2ccc(F)cc2Cl)c2cnn(C)c2n1
REMARK SMILES IDX 5 1 4 3 3 4 2 5 1 6 6 7 7 8 24 9 8 10 23 11 18 12 21 13
REMARK SMILES IDX 19 14 20 15 22 16 9 17 10 19 11 20 16 21 12 22 15 23 13 24
REMARK SMILES IDX 17 25 14 26
REMARK H PARENT 5 2 9 18
ROOT
ATOM      1  N   UNL     1       7.957  45.287  50.442  1.00  0.00    -0.354 N 
ATOM      2  H   UNL     1       8.792  44.712  50.465  1.00  0.00     0.163 HD
ENDROOT
BRANCH   1   3
ATOM      3  C   UNL     1       7.991  46.481  51.267  1.00  0.00     0.116 C 
BRANCH   3   4
ATOM      4  C   UNL     1       9.428  46.907  51.584  1.00  0.00     0.021 C 
BRANCH   4   5
ATOM      5  C   UNL     1       9.859  46.414  52.965  1.00  0.00    -0.002 C 
ATOM      6  C   UNL     1       9.655  47.484  54.027  1.00  0.00     0.004 C 
ENDBRANCH   4   5
ENDBRANCH   3   4
ENDBRANCH   1   3
BRANCH   1   7
ATOM      7  C   UNL     1       6.878  44.434  50.611  1.00  0.00     0.226 A 
ATOM      8  N   UNL     1       6.883  43.358  49.803  1.00  0.00    -0.195 NA
ATOM      9  N   UNL     1       5.945  44.713  51.530  1.00  0.00    -0.193 NA
ATOM     10  C   UNL     1       5.884  42.442  49.872  1.00  0.00     0.147 A 
ATOM     11  C   UNL     1       4.965  43.800  51.574  1.00  0.00     0.165 A 
ATOM     12  C   UNL     1       4.862  42.661  50.798  1.00  0.00     0.082 A 
ATOM     13  N   UNL     1       3.868  43.804  52.392  1.00  0.00    -0.250 N 
ATOM     14  C   UNL     1       3.665  42.054  51.233  1.00  0.00     0.149 A 
ATOM     15  N   UNL     1       3.053  42.740  52.207  1.00  0.00    -0.179 NA
ATOM     16  C   UNL     1       3.528  44.795  53.380  1.00  0.00     0.176 C 
BRANCH  10  17
ATOM     17  N   UNL     1       5.992  41.347  48.984  1.00  0.00    -0.338 N 
ATOM     18  H   UNL     1       5.785  40.551  49.592  1.00  0.00     0.168 HD
BRANCH  17  19
ATOM     19  C   UNL     1       5.264  41.238  47.774  1.00  0.00     0.059 A 
ATOM     20  C   UNL     1       5.751  41.909  46.640  1.00  0.00     0.031 A 
ATOM     21  C   UNL     1       4.053  40.525  47.673  1.00  0.00     0.067 A 
ATOM     22  C   UNL     1       5.049  41.863  45.435  1.00  0.00     0.041 A 
ATOM     23  C   UNL     1       3.352  40.481  46.469  1.00  0.00     0.062 A 
ATOM     24  C   UNL     1       3.857  41.151  45.363  1.00  0.00     0.124 A 
ATOM     25  Cl  UNL     1       3.408  39.667  49.027  1.00  0.00    -0.082 Cl
ATOM     26  F   UNL     1       3.186  41.109  44.205  1.00  0.00    -0.207 F 
ENDBRANCH  17  19
ENDBRANCH  10  17
ENDBRANCH   1   7
TORSDOF 6
ENDMDL
MODEL 15
REMARK VINA RESULT:    -7.946      2.914      5.499
REMARK INTER + INTRA:         -11.616
REMARK INTER:                 -10.819
REMARK INTRA:                  -0.797
REMARK UNBOUND:                -0.883
REMARK SMILES CCCCNc1nc(Nc2ccc(F)cc2Cl)c2cnn(C)c2n1
REMARK SMILES IDX 5 1 4 3 3 4 2 5 1 6 6 7 7 8 24 9 8 10 23 11 18 12 21 13
REMARK SMILES IDX 19 14 20 15 22 16 9 17 10 19 11 20 16 21 12 22 15 23 13 24
REMARK SMILES IDX 17 25 14 26
REMARK H PARENT 5 2 9 18
ROOT
ATOM      1  N   UNL     1       2.963  45.207  53.525  1.00  0.00    -0.354 N 
ATOM      2  H   UNL     1       2.893  44.459  54.207  1.00  0.00     0.163 HD
ENDROOT
BRANCH   1   3
ATOM      3  C   UNL     1       1.703  45.705  53.005  1.00  0.00     0.116 C 
BRANCH   3   4
ATOM      4  C   UNL     1       0.506  45.057  53.708  1.00  0.00     0.021 C 
BRANCH   4   5
ATOM      5  C   UNL     1       0.858  43.664  54.228  1.00  0.00    -0.002 C 
ATOM      6  C   UNL     1       0.450  42.581  53.240  1.00  0.00     0.004 C 
ENDBRANCH   4   5
ENDBRANCH   3   4
ENDBRANCH   1   3
BRANCH   1   7
ATOM      7  C   UNL     1       3.917  44.817  52.598  1.00  0.00     0.226 A 
ATOM      8  N   UNL     1       4.911  45.705  52.412  1.00  0.00    -0.195 NA
ATOM      9  N   UNL     1       3.804  43.634  51.982  1.00  0.00    -0.193 NA
ATOM     10  C   UNL     1       5.911  45.440  51.534  1.00  0.00     0.147 A 
ATOM     11  C   UNL     1       4.798  43.398  51.115  1.00  0.00     0.165 A 
ATOM     12  C   UNL     1       5.866  44.231  50.837  1.00  0.00     0.082 A 
ATOM     13  N   UNL     1       4.962  42.293  50.326  1.00  0.00    -0.250 N 
ATOM     14  C   UNL     1       6.610  43.526  49.869  1.00  0.00     0.149 A 
ATOM     15  N   UNL     1       6.070  42.342  49.552  1.00  0.00    -0.179 NA
ATOM     16  C   UNL     1       4.098  41.143  50.255  1.00  0.00     0.176 C 
BRANCH  10  17
ATOM     17  N   UNL     1       6.908  46.437  51.420  1.00  0.00    -0.338 N 
ATOM     18  H   UNL     1       6.353  47.291  51.324  1.00  0.00     0.168 HD
BRANCH  17  19
ATOM     19  C   UNL     1       7.941  46.632  52.369  1.00  0.00     0.059 A 
ATOM     20  C   UNL     1       7.643  47.346  53.541  1.00  0.00     0.031 A 
ATOM     21  C   UNL     1       9.260  46.182  52.165  1.00  0.00     0.067 A 
ATOM     22  C   UNL     1       8.637  47.598  54.488  1.00  0.00     0.041 A 
ATOM     23  C   UNL     1      10.253  46.435  53.111  1.00  0.00     0.062 A 
ATOM     24  C   UNL     1       9.930  47.140  54.262  1.00  0.00     0.124 A 
ATOM     25  Cl  UNL     1       9.688  45.286  50.750  1.00  0.00    -0.082 Cl
ATOM     26  F   UNL     1      10.881  47.383  55.173  1.00  0.00    -0.207 F 
ENDBRANCH  17  19
ENDBRANCH  10  17
ENDBRANCH   1   7
TORSDOF 6
ENDMDL
MODEL 16
REMARK VINA RESULT:    -7.885      2.664      4.960
REMARK INTER + INTRA:         -11.533
REMARK INTER:                 -10.467
REMARK INTRA:                  -1.066
REMARK UNBOUND:                -0.883
REMARK SMILES CCCCNc1nc(Nc2ccc(F)cc2Cl)c2cnn(C)c2n1
REMARK SMILES IDX 5 1 4 3 3 4 2 5 1 6 6 7 7 8 24 9 8 10 23 11 18 12 21 13
REMARK SMILES IDX 19 14 20 15 22 16 9 17 10 19 11 20 16 21 12 22 15 23 13 24
REMARK SMILES IDX 17 25 14 26
REMARK H PARENT 5 2 9 18
ROOT
ATOM      1  N   UNL     1       6.470  43.427  49.439  1.00  0.00    -0.354 N 
ATOM      2  H   UNL     1       5.814  43.706  48.717  1.00  0.00     0.163 HD
ENDROOT
BRANCH   1   3
ATOM      3  C   UNL     1       6.207  42.144  50.067  1.00  0.00     0.116 C 
BRANCH   3   4
ATOM      4  C   UNL     1       5.178  41.330  49.277  1.00  0.00     0.021 C 
BRANCH   4   5
ATOM      5  C   UNL     1       3.887  41.145  50.073  1.00  0.00    -0.002 C 
ATOM      6  C   UNL     1       3.930  41.907  51.388  1.00  0.00     0.004 C 
ENDBRANCH   4   5
ENDBRANCH   3   4
ENDBRANCH   1   3
BRANCH   1   7
ATOM      7  C   UNL     1       6.633  44.518  50.278  1.00  0.00     0.226 A 
ATOM      8  N   UNL     1       5.483  45.070  50.706  1.00  0.00    -0.195 NA
ATOM      9  N   UNL     1       7.864  44.931  50.604  1.00  0.00    -0.193 NA
ATOM     10  C   UNL     1       5.504  46.143  51.537  1.00  0.00     0.147 A 
ATOM     11  C   UNL     1       7.860  45.995  51.418  1.00  0.00     0.165 A 
ATOM     12  C   UNL     1       6.749  46.647  51.920  1.00  0.00     0.082 A 
ATOM     13  N   UNL     1       8.948  46.656  51.920  1.00  0.00    -0.250 N 
ATOM     14  C   UNL     1       7.286  47.684  52.711  1.00  0.00     0.149 A 
ATOM     15  N   UNL     1       8.625  47.697  52.721  1.00  0.00    -0.179 NA
ATOM     16  C   UNL     1      10.335  46.352  51.676  1.00  0.00     0.176 C 
BRANCH  10  17
ATOM     17  N   UNL     1       4.241  46.640  51.931  1.00  0.00    -0.338 N 
ATOM     18  H   UNL     1       3.702  46.581  51.063  1.00  0.00     0.168 HD
BRANCH  17  19
ATOM     19  C   UNL     1       3.486  46.113  53.008  1.00  0.00     0.059 A 
ATOM     20  C   UNL     1       3.900  46.404  54.318  1.00  0.00     0.031 A 
ATOM     21  C   UNL     1       2.370  45.274  52.820  1.00  0.00     0.067 A 
ATOM     22  C   UNL     1       3.213  45.877  55.411  1.00  0.00     0.041 A 
ATOM     23  C   UNL     1       1.684  44.747  53.913  1.00  0.00     0.062 A 
ATOM     24  C   UNL     1       2.113  45.053  55.197  1.00  0.00     0.124 A 
ATOM     25  Cl  UNL     1       1.800  44.889  51.234  1.00  0.00    -0.082 Cl
ATOM     26  F   UNL     1       1.456  44.549  56.249  1.00  0.00    -0.207 F 
ENDBRANCH  17  19
ENDBRANCH  10  17
ENDBRANCH   1   7
TORSDOF 6
ENDMDL
MODEL 17
REMARK VINA RESULT:    -7.871      3.199      6.692
REMARK INTER + INTRA:         -11.515
REMARK INTER:                 -11.203
REMARK INTRA:                  -0.312
REMARK UNBOUND:                -0.883
REMARK SMILES CCCCNc1nc(Nc2ccc(F)cc2Cl)c2cnn(C)c2n1
REMARK SMILES IDX 5 1 4 3 3 4 2 5 1 6 6 7 7 8 24 9 8 10 23 11 18 12 21 13
REMARK SMILES IDX 19 14 20 15 22 16 9 17 10 19 11 20 16 21 12 22 15 23 13 24
REMARK SMILES IDX 17 25 14 26
REMARK H PARENT 5 2 9 18
ROOT
ATOM      1  N   UNL     1       4.254  41.403  51.321  1.00  0.00    -0.354 N 
ATOM      2  H   UNL     1       4.953  41.182  52.022  1.00  0.00     0.163 HD
ENDROOT
BRANCH   1   3
ATOM      3  C   UNL     1       4.702  41.339  49.942  1.00  0.00     0.116 C 
BRANCH   3   4
ATOM      4  C   UNL     1       6.211  41.573  49.827  1.00  0.00     0.021 C 
BRANCH   4   5
ATOM      5  C   UNL     1       6.518  42.793  48.960  1.00  0.00    -0.002 C 
ATOM      6  C   UNL     1       7.860  43.411  49.322  1.00  0.00     0.004 C 
ENDBRANCH   4   5
ENDBRANCH   3   4
ENDBRANCH   1   3
BRANCH   1   7
ATOM      7  C   UNL     1       3.634  42.574  51.728  1.00  0.00     0.226 A 
ATOM      8  N   UNL     1       4.433  43.427  52.395  1.00  0.00    -0.195 NA
ATOM      9  N   UNL     1       2.343  42.780  51.441  1.00  0.00    -0.193 NA
ATOM     10  C   UNL     1       3.948  44.613  52.843  1.00  0.00     0.147 A 
ATOM     11  C   UNL     1       1.884  43.952  51.900  1.00  0.00     0.165 A 
ATOM     12  C   UNL     1       2.605  44.905  52.596  1.00  0.00     0.082 A 
ATOM     13  N   UNL     1       0.615  44.448  51.780  1.00  0.00    -0.250 N 
ATOM     14  C   UNL     1       1.671  45.932  52.842  1.00  0.00     0.149 A 
ATOM     15  N   UNL     1       0.456  45.666  52.346  1.00  0.00    -0.179 NA
ATOM     16  C   UNL     1      -0.506  43.814  51.135  1.00  0.00     0.176 C 
BRANCH  10  17
ATOM     17  N   UNL     1       4.874  45.437  53.524  1.00  0.00    -0.338 N 
ATOM     18  H   UNL     1       4.987  44.949  54.416  1.00  0.00     0.168 HD
BRANCH  17  19
ATOM     19  C   UNL     1       6.142  45.796  53.003  1.00  0.00     0.059 A 
ATOM     20  C   UNL     1       7.213  45.944  53.899  1.00  0.00     0.031 A 
ATOM     21  C   UNL     1       6.360  46.056  51.636  1.00  0.00     0.067 A 
ATOM     22  C   UNL     1       8.471  46.334  53.440  1.00  0.00     0.041 A 
ATOM     23  C   UNL     1       7.618  46.447  51.178  1.00  0.00     0.062 A 
ATOM     24  C   UNL     1       8.659  46.582  52.085  1.00  0.00     0.124 A 
ATOM     25  Cl  UNL     1       5.088  45.878  50.480  1.00  0.00    -0.082 Cl
ATOM     26  F   UNL     1       9.868  46.957  51.648  1.00  0.00    -0.207 F 
ENDBRANCH  17  19
ENDBRANCH  10  17
ENDBRANCH   1   7
TORSDOF 6
ENDMDL
MODEL 18
REMARK VINA RESULT:    -7.835      2.325      4.481
REMARK INTER + INTRA:         -11.465
REMARK INTER:                 -10.265
REMARK INTRA:                  -1.200
REMARK UNBOUND:                -0.883
REMARK SMILES CCCCNc1nc(Nc2ccc(F)cc2Cl)c2cnn(C)c2n1
REMARK SMILES IDX 5 1 4 3 3 4 2 5 1 6 6 7 7 8 24 9 8 10 23 11 18 12 21 13
REMARK SMILES IDX 19 14 20 15 22 16 9 17 10 19 11 20 16 21 12 22 15 23 13 24
REMARK SMILES IDX 17 25 14 26
REMARK H PARENT 5 2 9 18
ROOT
ATOM      1  N   UNL     1       7.532  45.091  49.622  1.00  0.00    -0.354 N 
ATOM      2  H   UNL     1       6.847  45.425  48.953  1.00  0.00     0.163 HD
ENDROOT
BRANCH   1   3
ATOM      3  C   UNL     1       7.790  43.662  49.600  1.00  0.00     0.116 C 
BRANCH   3   4
ATOM      4  C   UNL     1       6.642  42.892  48.943  1.00  0.00     0.021 C 
BRANCH   4   5
ATOM      5  C   UNL     1       6.062  41.844  49.892  1.00  0.00    -0.002 C 
ATOM      6  C   UNL     1       4.970  42.432  50.771  1.00  0.00     0.004 C 
ENDBRANCH   4   5
ENDBRANCH   3   4
ENDBRANCH   1   3
BRANCH   1   7
ATOM      7  C   UNL     1       7.205  45.654  50.846  1.00  0.00     0.226 A 
ATOM      8  N   UNL     1       5.888  45.845  51.039  1.00  0.00    -0.195 NA
ATOM      9  N   UNL     1       8.172  45.950  51.723  1.00  0.00    -0.193 NA
ATOM     10  C   UNL     1       5.435  46.385  52.199  1.00  0.00     0.147 A 
ATOM     11  C   UNL     1       7.702  46.489  52.857  1.00  0.00     0.165 A 
ATOM     12  C   UNL     1       6.378  46.735  53.167  1.00  0.00     0.082 A 
ATOM     13  N   UNL     1       8.430  46.907  53.937  1.00  0.00    -0.250 N 
ATOM     14  C   UNL     1       6.426  47.300  54.458  1.00  0.00     0.149 A 
ATOM     15  N   UNL     1       7.672  47.407  54.939  1.00  0.00    -0.179 NA
ATOM     16  C   UNL     1       9.862  46.862  54.087  1.00  0.00     0.176 C 
BRANCH  10  17
ATOM     17  N   UNL     1       4.033  46.535  52.300  1.00  0.00    -0.338 N 
ATOM     18  H   UNL     1       3.825  47.178  51.531  1.00  0.00     0.168 HD
BRANCH  17  19
ATOM     19  C   UNL     1       3.120  45.452  52.289  1.00  0.00     0.059 A 
ATOM     20  C   UNL     1       2.463  45.147  51.086  1.00  0.00     0.031 A 
ATOM     21  C   UNL     1       2.811  44.702  53.440  1.00  0.00     0.067 A 
ATOM     22  C   UNL     1       1.526  44.114  51.033  1.00  0.00     0.041 A 
ATOM     23  C   UNL     1       1.874  43.670  53.388  1.00  0.00     0.062 A 
ATOM     24  C   UNL     1       1.242  43.388  52.185  1.00  0.00     0.124 A 
ATOM     25  Cl  UNL     1       3.595  45.017  54.948  1.00  0.00    -0.082 Cl
ATOM     26  F   UNL     1       0.342  42.397  52.131  1.00  0.00    -0.207 F 
ENDBRANCH  17  19
ENDBRANCH  10  17
ENDBRANCH   1   7
TORSDOF 6
ENDMDL
MODEL 19
REMARK VINA RESULT:    -7.764      3.026      6.369
REMARK INTER + INTRA:         -11.370
REMARK INTER:                 -10.629
REMARK INTRA:                  -0.741
REMARK UNBOUND:                -0.883
REMARK SMILES CCCCNc1nc(Nc2ccc(F)cc2Cl)c2cnn(C)c2n1
REMARK SMILES IDX 5 1 4 3 3 4 2 5 1 6 6 7 7 8 24 9 8 10 23 11 18 12 21 13
REMARK SMILES IDX 19 14 20 15 22 16 9 17 10 19 11 20 16 21 12 22 15 23 13 24
REMARK SMILES IDX 17 25 14 26
REMARK H PARENT 5 2 9 18
ROOT
ATOM      1  N   UNL     1       6.475  43.206  49.582  1.00  0.00    -0.354 N 
ATOM      2  H   UNL     1       6.290  43.549  48.646  1.00  0.00     0.163 HD
ENDROOT
BRANCH   1   3
ATOM      3  C   UNL     1       6.049  41.844  49.850  1.00  0.00     0.116 C 
BRANCH   3   4
ATOM      4  C   UNL     1       5.344  41.225  48.639  1.00  0.00     0.021 C 
BRANCH   4   5
ATOM      5  C   UNL     1       3.976  40.662  49.022  1.00  0.00    -0.002 C 
ATOM      6  C   UNL     1       3.524  41.172  50.382  1.00  0.00     0.004 C 
ENDBRANCH   4   5
ENDBRANCH   3   4
ENDBRANCH   1   3
BRANCH   1   7
ATOM      7  C   UNL     1       6.043  44.186  50.462  1.00  0.00     0.226 A 
ATOM      8  N   UNL     1       6.932  45.173  50.679  1.00  0.00    -0.195 NA
ATOM      9  N   UNL     1       4.825  44.101  51.009  1.00  0.00    -0.193 NA
ATOM     10  C   UNL     1       6.629  46.197  51.516  1.00  0.00     0.147 A 
ATOM     11  C   UNL     1       4.552  45.118  51.838  1.00  0.00     0.165 A 
ATOM     12  C   UNL     1       5.380  46.182  52.140  1.00  0.00     0.082 A 
ATOM     13  N   UNL     1       3.403  45.314  52.556  1.00  0.00    -0.250 N 
ATOM     14  C   UNL     1       4.629  46.957  53.048  1.00  0.00     0.149 A 
ATOM     15  N   UNL     1       3.421  46.439  53.306  1.00  0.00    -0.179 NA
ATOM     16  C   UNL     1       2.240  44.464  52.578  1.00  0.00     0.176 C 
BRANCH  10  17
ATOM     17  N   UNL     1       7.630  47.184  51.666  1.00  0.00    -0.338 N 
ATOM     18  H   UNL     1       7.095  48.053  51.586  1.00  0.00     0.168 HD
BRANCH  17  19
ATOM     19  C   UNL     1       8.509  47.255  52.774  1.00  0.00     0.059 A 
ATOM     20  C   UNL     1       8.114  48.006  53.892  1.00  0.00     0.031 A 
ATOM     21  C   UNL     1       9.779  46.644  52.782  1.00  0.00     0.067 A 
ATOM     22  C   UNL     1       8.961  48.138  54.993  1.00  0.00     0.041 A 
ATOM     23  C   UNL     1      10.626  46.776  53.881  1.00  0.00     0.062 A 
ATOM     24  C   UNL     1      10.208  47.522  54.975  1.00  0.00     0.124 A 
ATOM     25  Cl  UNL     1      10.320  45.694  51.443  1.00  0.00    -0.082 Cl
ATOM     26  F   UNL     1      11.019  47.650  56.033  1.00  0.00    -0.207 F 
ENDBRANCH  17  19
ENDBRANCH  10  17
ENDBRANCH   1   7
TORSDOF 6
ENDMDL
MODEL 20
REMARK VINA RESULT:    -7.638      3.533      6.466
REMARK INTER + INTRA:         -11.200
REMARK INTER:                 -10.257
REMARK INTRA:                  -0.943
REMARK UNBOUND:                -0.883
REMARK SMILES CCCCNc1nc(Nc2ccc(F)cc2Cl)c2cnn(C)c2n1
REMARK SMILES IDX 5 1 4 3 3 4 2 5 1 6 6 7 7 8 24 9 8 10 23 11 18 12 21 13
REMARK SMILES IDX 19 14 20 15 22 16 9 17 10 19 11 20 16 21 12 22 15 23 13 24
REMARK SMILES IDX 17 25 14 26
REMARK H PARENT 5 2 9 18
ROOT
ATOM      1  N   UNL     1       2.995  45.640  55.947  1.00  0.00    -0.354 N 
ATOM      2  H   UNL     1       2.502  46.324  56.511  1.00  0.00     0.163 HD
ENDROOT
BRANCH   1   3
ATOM      3  C   UNL     1       4.191  46.119  55.277  1.00  0.00     0.116 C 
BRANCH   3   4
ATOM      4  C   UNL     1       5.375  45.172  55.491  1.00  0.00     0.021 C 
BRANCH   4   5
ATOM      5  C   UNL     1       6.138  44.936  54.189  1.00  0.00    -0.002 C 
ATOM      6  C   UNL     1       7.090  46.083  53.886  1.00  0.00     0.004 C 
ENDBRANCH   4   5
ENDBRANCH   3   4
ENDBRANCH   1   3
BRANCH   1   7
ATOM      7  C   UNL     1       2.043  45.008  55.162  1.00  0.00     0.226 A 
ATOM      8  N   UNL     1       2.474  44.654  53.938  1.00  0.00    -0.195 NA
ATOM      9  N   UNL     1       0.816  44.789  55.649  1.00  0.00    -0.193 NA
ATOM     10  C   UNL     1       1.641  44.022  53.073  1.00  0.00     0.147 A 
ATOM     11  C   UNL     1       0.008  44.172  54.775  1.00  0.00     0.165 A 
ATOM     12  C   UNL     1       0.335  43.764  53.496  1.00  0.00     0.082 A 
ATOM     13  N   UNL     1      -1.300  43.820  54.965  1.00  0.00    -0.250 N 
ATOM     14  C   UNL     1      -0.851  43.178  53.007  1.00  0.00     0.149 A 
ATOM     15  N   UNL     1      -1.853  43.204  53.895  1.00  0.00    -0.179 NA
ATOM     16  C   UNL     1      -2.095  44.042  56.145  1.00  0.00     0.176 C 
BRANCH  10  17
ATOM     17  N   UNL     1       2.197  43.689  51.817  1.00  0.00    -0.338 N 
ATOM     18  H   UNL     1       1.491  44.038  51.164  1.00  0.00     0.168 HD
BRANCH  17  19
ATOM     19  C   UNL     1       3.489  44.089  51.395  1.00  0.00     0.059 A 
ATOM     20  C   UNL     1       3.744  45.460  51.237  1.00  0.00     0.031 A 
ATOM     21  C   UNL     1       4.509  43.169  51.083  1.00  0.00     0.067 A 
ATOM     22  C   UNL     1       4.988  45.902  50.786  1.00  0.00     0.041 A 
ATOM     23  C   UNL     1       5.753  43.610  50.632  1.00  0.00     0.062 A 
ATOM     24  C   UNL     1       5.978  44.972  50.488  1.00  0.00     0.124 A 
ATOM     25  Cl  UNL     1       4.264  41.468  51.270  1.00  0.00    -0.082 Cl
ATOM     26  F   UNL     1       7.172  45.399  50.056  1.00  0.00    -0.207 F 
ENDBRANCH  17  19
ENDBRANCH  10  17
ENDBRANCH   1   7
TORSDOF 6
ENDMDL
