MODEL 1
REMARK VINA RESULT:    -8.106      0.000      0.000
REMARK INTER + INTRA:         -12.916
REMARK INTER:                 -11.424
REMARK INTRA:                  -1.492
REMARK UNBOUND:                -1.492
REMARK SMILES CCCCCNc1nc(Nc2ccc(Cl)cc2Cl)c2cnn(C)c2n1
REMARK SMILES IDX 5 1 4 2 3 3 2 4 1 5 6 6 7 8 8 9 25 10 9 11 24 12 19 13 22 14
REMARK SMILES IDX 20 15 21 16 23 17 10 18 11 20 12 21 17 22 13 23 16 24 14 25
REMARK SMILES IDX 18 26 15 27
REMARK H PARENT 6 7 10 19
ROOT
ATOM      1  C   UNL     1       2.906  46.751  52.939  1.00  0.00     0.116 C 
ENDROOT
BRANCH   1   2
ATOM      2  C   UNL     1       2.705  45.768  54.096  1.00  0.00     0.021 C 
BRANCH   2   3
ATOM      3  C   UNL     1       3.666  45.959  55.276  1.00  0.00     0.002 C 
BRANCH   3   4
ATOM      4  C   UNL     1       5.133  46.115  54.874  1.00  0.00    -0.003 C 
ATOM      5  C   UNL     1       5.764  44.769  54.551  1.00  0.00     0.004 C 
ENDBRANCH   3   4
ENDBRANCH   2   3
ENDBRANCH   1   2
BRANCH   1   6
ATOM      6  N   UNL     1       2.811  46.062  51.664  1.00  0.00    -0.354 N 
ATOM      7  H   UNL     1       2.537  46.639  50.877  1.00  0.00     0.163 HD
BRANCH   6   8
ATOM      8  C   UNL     1       3.970  45.404  51.269  1.00  0.00     0.226 A 
ATOM      9  N   UNL     1       5.123  46.090  51.167  1.00  0.00    -0.195 NA
ATOM     10  N   UNL     1       3.814  44.100  51.014  1.00  0.00    -0.193 NA
ATOM     11  C   UNL     1       6.264  45.465  50.783  1.00  0.00     0.147 A 
ATOM     12  C   UNL     1       4.956  43.500  50.644  1.00  0.00     0.165 A 
ATOM     13  C   UNL     1       6.195  44.097  50.506  1.00  0.00     0.082 A 
ATOM     14  N   UNL     1       5.133  42.181  50.329  1.00  0.00    -0.250 N 
ATOM     15  C   UNL     1       7.042  43.045  50.104  1.00  0.00     0.149 A 
ATOM     16  N   UNL     1       6.405  41.873  49.988  1.00  0.00    -0.179 NA
ATOM     17  C   UNL     1       4.130  41.146  50.331  1.00  0.00     0.176 C 
BRANCH  11  18
ATOM     18  N   UNL     1       7.415  46.281  50.703  1.00  0.00    -0.338 N 
ATOM     19  H   UNL     1       7.968  45.803  49.986  1.00  0.00     0.168 HD
BRANCH  18  20
ATOM     20  C   UNL     1       8.232  46.599  51.815  1.00  0.00     0.059 A 
ATOM     21  C   UNL     1       7.726  47.472  52.787  1.00  0.00     0.029 A 
ATOM     22  C   UNL     1       9.510  46.040  52.006  1.00  0.00     0.066 A 
ATOM     23  C   UNL     1       8.477  47.785  53.922  1.00  0.00     0.023 A 
ATOM     24  C   UNL     1      10.263  46.351  53.141  1.00  0.00     0.043 A 
ATOM     25  C   UNL     1       9.741  47.221  54.093  1.00  0.00     0.042 A 
ATOM     26  Cl  UNL     1      10.201  44.969  50.838  1.00  0.00    -0.082 Cl
ATOM     27  Cl  UNL     1      10.663  47.608  55.493  1.00  0.00    -0.084 Cl
ENDBRANCH  18  20
ENDBRANCH  11  18
ENDBRANCH   6   8
ENDBRANCH   1   6
TORSDOF 7
ENDMDL
MODEL 2
REMARK VINA RESULT:    -8.003      2.252      4.835
REMARK INTER + INTRA:         -12.770
REMARK INTER:                 -11.999
REMARK INTRA:                  -0.771
REMARK UNBOUND:                -1.492
REMARK SMILES CCCCCNc1nc(Nc2ccc(Cl)cc2Cl)c2cnn(C)c2n1
REMARK SMILES IDX 5 1 4 2 3 3 2 4 1 5 6 6 7 8 8 9 25 10 9 11 24 12 19 13 22 14
REMARK SMILES IDX 20 15 21 16 23 17 10 18 11 20 12 21 17 22 13 23 16 24 14 25
REMARK SMILES IDX 18 26 15 27
REMARK H PARENT 6 7 10 19
ROOT
ATOM      1  C   UNL     1       5.789  41.222  48.976  1.00  0.00     0.116 C 
ENDROOT
BRANCH   1   2
ATOM      2  C   UNL     1       4.994  41.241  47.667  1.00  0.00     0.021 C 
BRANCH   2   3
ATOM      3  C   UNL     1       5.726  41.880  46.481  1.00  0.00     0.002 C 
BRANCH   3   4
ATOM      4  C   UNL     1       4.918  41.908  45.184  1.00  0.00    -0.003 C 
ATOM      5  C   UNL     1       5.320  40.771  44.256  1.00  0.00     0.004 C 
ENDBRANCH   3   4
ENDBRANCH   2   3
ENDBRANCH   1   2
BRANCH   1   6
ATOM      6  N   UNL     1       6.638  42.397  49.073  1.00  0.00    -0.354 N 
ATOM      7  H   UNL     1       6.756  42.920  48.213  1.00  0.00     0.163 HD
BRANCH   6   8
ATOM      8  C   UNL     1       6.245  43.323  50.031  1.00  0.00     0.226 A 
ATOM      9  N   UNL     1       6.944  44.464  50.181  1.00  0.00    -0.195 NA
ATOM     10  N   UNL     1       5.168  42.971  50.742  1.00  0.00    -0.193 NA
ATOM     11  C   UNL     1       6.575  45.380  51.112  1.00  0.00     0.147 A 
ATOM     12  C   UNL     1       4.816  43.894  51.650  1.00  0.00     0.165 A 
ATOM     13  C   UNL     1       5.453  45.097  51.893  1.00  0.00     0.082 A 
ATOM     14  N   UNL     1       3.761  43.841  52.519  1.00  0.00    -0.250 N 
ATOM     15  C   UNL     1       4.696  45.685  52.927  1.00  0.00     0.149 A 
ATOM     16  N   UNL     1       3.665  44.926  53.320  1.00  0.00    -0.179 NA
ATOM     17  C   UNL     1       2.794  42.780  52.644  1.00  0.00     0.176 C 
BRANCH  11  18
ATOM     18  N   UNL     1       7.383  46.538  51.188  1.00  0.00    -0.338 N 
ATOM     19  H   UNL     1       7.930  46.474  50.326  1.00  0.00     0.168 HD
BRANCH  18  20
ATOM     20  C   UNL     1       8.231  46.834  52.282  1.00  0.00     0.059 A 
ATOM     21  C   UNL     1       7.710  47.579  53.348  1.00  0.00     0.029 A 
ATOM     22  C   UNL     1       9.559  46.373  52.363  1.00  0.00     0.066 A 
ATOM     23  C   UNL     1       8.495  47.863  54.468  1.00  0.00     0.023 A 
ATOM     24  C   UNL     1      10.345  46.655  53.482  1.00  0.00     0.043 A 
ATOM     25  C   UNL     1       9.808  47.397  54.529  1.00  0.00     0.042 A 
ATOM     26  Cl  UNL     1      10.269  45.463  51.076  1.00  0.00    -0.082 Cl
ATOM     27  Cl  UNL     1      10.771  47.748  55.910  1.00  0.00    -0.084 Cl
ENDBRANCH  18  20
ENDBRANCH  11  18
ENDBRANCH   6   8
ENDBRANCH   1   6
TORSDOF 7
ENDMDL
MODEL 3
REMARK VINA RESULT:    -7.981      2.179      4.853
REMARK INTER + INTRA:         -12.740
REMARK INTER:                 -11.662
REMARK INTRA:                  -1.077
REMARK UNBOUND:                -1.492
REMARK SMILES CCCCCNc1nc(Nc2ccc(Cl)cc2Cl)c2cnn(C)c2n1
REMARK SMILES IDX 5 1 4 2 3 3 2 4 1 5 6 6 7 8 8 9 25 10 9 11 24 12 19 13 22 14
REMARK SMILES IDX 20 15 21 16 23 17 10 18 11 20 12 21 17 22 13 23 16 24 14 25
REMARK SMILES IDX 18 26 15 27
REMARK H PARENT 6 7 10 19
ROOT
ATOM      1  C   UNL     1       3.730  41.155  49.909  1.00  0.00     0.116 C 
ENDROOT
BRANCH   1   2
ATOM      2  C   UNL     1       4.928  41.074  48.959  1.00  0.00     0.021 C 
BRANCH   2   3
ATOM      3  C   UNL     1       6.236  41.639  49.526  1.00  0.00     0.002 C 
BRANCH   3   4
ATOM      4  C   UNL     1       6.611  43.020  48.989  1.00  0.00    -0.003 C 
ATOM      5  C   UNL     1       8.053  43.372  49.326  1.00  0.00     0.004 C 
ENDBRANCH   3   4
ENDBRANCH   2   3
ENDBRANCH   1   2
BRANCH   1   6
ATOM      6  N   UNL     1       4.164  41.524  51.245  1.00  0.00    -0.354 N 
ATOM      7  H   UNL     1       5.167  41.586  51.375  1.00  0.00     0.163 HD
BRANCH   6   8
ATOM      8  C   UNL     1       3.645  42.725  51.715  1.00  0.00     0.226 A 
ATOM      9  N   UNL     1       4.328  43.868  51.520  1.00  0.00    -0.195 NA
ATOM     10  N   UNL     1       2.470  42.618  52.346  1.00  0.00    -0.193 NA
ATOM     11  C   UNL     1       3.837  45.049  51.972  1.00  0.00     0.147 A 
ATOM     12  C   UNL     1       2.000  43.798  52.778  1.00  0.00     0.165 A 
ATOM     13  C   UNL     1       2.608  45.031  52.635  1.00  0.00     0.082 A 
ATOM     14  N   UNL     1       0.827  44.028  53.443  1.00  0.00    -0.250 N 
ATOM     15  C   UNL     1       1.714  45.930  53.251  1.00  0.00     0.149 A 
ATOM     16  N   UNL     1       0.627  45.330  53.752  1.00  0.00    -0.179 NA
ATOM     17  C   UNL     1      -0.162  43.050  53.822  1.00  0.00     0.176 C 
BRANCH  11  18
ATOM     18  N   UNL     1       4.639  46.185  51.718  1.00  0.00    -0.338 N 
ATOM     19  H   UNL     1       4.684  46.191  50.696  1.00  0.00     0.168 HD
BRANCH  18  20
ATOM     20  C   UNL     1       5.932  46.374  52.264  1.00  0.00     0.059 A 
ATOM     21  C   UNL     1       7.043  46.118  51.450  1.00  0.00     0.029 A 
ATOM     22  C   UNL     1       6.145  46.851  53.571  1.00  0.00     0.066 A 
ATOM     23  C   UNL     1       8.339  46.328  51.928  1.00  0.00     0.023 A 
ATOM     24  C   UNL     1       7.439  47.063  54.051  1.00  0.00     0.043 A 
ATOM     25  C   UNL     1       8.528  46.801  53.226  1.00  0.00     0.042 A 
ATOM     26  Cl  UNL     1       4.819  47.171  54.633  1.00  0.00    -0.082 Cl
ATOM     27  Cl  UNL     1      10.125  47.058  53.812  1.00  0.00    -0.084 Cl
ENDBRANCH  18  20
ENDBRANCH  11  18
ENDBRANCH   6   8
ENDBRANCH   1   6
TORSDOF 7
ENDMDL
MODEL 4
REMARK VINA RESULT:    -7.846      3.699      6.453
REMARK INTER + INTRA:         -12.548
REMARK INTER:                 -11.737
REMARK INTRA:                  -0.811
REMARK UNBOUND:                -1.492
REMARK SMILES CCCCCNc1nc(Nc2ccc(Cl)cc2Cl)c2cnn(C)c2n1
REMARK SMILES IDX 5 1 4 2 3 3 2 4 1 5 6 6 7 8 8 9 25 10 9 11 24 12 19 13 22 14
REMARK SMILES IDX 20 15 21 16 23 17 10 18 11 20 12 21 17 22 13 23 16 24 14 25
REMARK SMILES IDX 18 26 15 27
REMARK H PARENT 6 7 10 19
ROOT
ATOM      1  C   UNL     1       6.799  46.943  52.342  1.00  0.00     0.116 C 
ENDROOT
BRANCH   1   2
ATOM      2  C   UNL     1       8.037  47.844  52.365  1.00  0.00     0.021 C 
BRANCH   2   3
ATOM      3  C   UNL     1       9.365  47.118  52.117  1.00  0.00     0.002 C 
BRANCH   3   4
ATOM      4  C   UNL     1      10.165  46.818  53.386  1.00  0.00    -0.003 C 
ATOM      5  C   UNL     1       9.608  47.576  54.582  1.00  0.00     0.004 C 
ENDBRANCH   3   4
ENDBRANCH   2   3
ENDBRANCH   1   2
BRANCH   1   6
ATOM      6  N   UNL     1       6.861  46.024  51.219  1.00  0.00    -0.354 N 
ATOM      7  H   UNL     1       7.780  45.648  51.013  1.00  0.00     0.163 HD
BRANCH   6   8
ATOM      8  C   UNL     1       6.014  44.926  51.316  1.00  0.00     0.226 A 
ATOM      9  N   UNL     1       5.088  44.884  52.292  1.00  0.00    -0.195 NA
ATOM     10  N   UNL     1       6.215  43.980  50.392  1.00  0.00    -0.193 NA
ATOM     11  C   UNL     1       4.253  43.821  52.402  1.00  0.00     0.147 A 
ATOM     12  C   UNL     1       5.373  42.942  50.515  1.00  0.00     0.165 A 
ATOM     13  C   UNL     1       4.386  42.789  51.471  1.00  0.00     0.082 A 
ATOM     14  N   UNL     1       5.313  41.827  49.725  1.00  0.00    -0.250 N 
ATOM     15  C   UNL     1       3.796  41.546  51.161  1.00  0.00     0.149 A 
ATOM     16  N   UNL     1       4.356  40.949  50.102  1.00  0.00    -0.179 NA
ATOM     17  C   UNL     1       6.141  41.527  48.584  1.00  0.00     0.176 C 
BRANCH  11  18
ATOM     18  N   UNL     1       3.324  43.877  53.467  1.00  0.00    -0.338 N 
ATOM     19  H   UNL     1       3.598  43.070  54.033  1.00  0.00     0.168 HD
BRANCH  18  20
ATOM     20  C   UNL     1       1.919  43.889  53.285  1.00  0.00     0.059 A 
ATOM     21  C   UNL     1       1.207  42.704  53.509  1.00  0.00     0.029 A 
ATOM     22  C   UNL     1       1.207  45.052  52.936  1.00  0.00     0.066 A 
ATOM     23  C   UNL     1      -0.184  42.675  53.383  1.00  0.00     0.023 A 
ATOM     24  C   UNL     1      -0.184  45.026  52.810  1.00  0.00     0.043 A 
ATOM     25  C   UNL     1      -0.871  43.838  53.036  1.00  0.00     0.042 A 
ATOM     26  Cl  UNL     1       2.025  46.544  52.629  1.00  0.00    -0.082 Cl
ATOM     27  Cl  UNL     1      -2.584  43.799  52.882  1.00  0.00    -0.084 Cl
ENDBRANCH  18  20
ENDBRANCH  11  18
ENDBRANCH   6   8
ENDBRANCH   1   6
TORSDOF 7
ENDMDL
MODEL 5
REMARK VINA RESULT:    -7.837      2.564      5.660
REMARK INTER + INTRA:         -12.537
REMARK INTER:                 -12.248
REMARK INTRA:                  -0.289
REMARK UNBOUND:                -1.492
REMARK SMILES CCCCCNc1nc(Nc2ccc(Cl)cc2Cl)c2cnn(C)c2n1
REMARK SMILES IDX 5 1 4 2 3 3 2 4 1 5 6 6 7 8 8 9 25 10 9 11 24 12 19 13 22 14
REMARK SMILES IDX 20 15 21 16 23 17 10 18 11 20 12 21 17 22 13 23 16 24 14 25
REMARK SMILES IDX 18 26 15 27
REMARK H PARENT 6 7 10 19
ROOT
ATOM      1  C   UNL     1       6.870  46.386  54.368  1.00  0.00     0.116 C 
ENDROOT
BRANCH   1   2
ATOM      2  C   UNL     1       7.369  47.441  53.376  1.00  0.00     0.021 C 
BRANCH   2   3
ATOM      3  C   UNL     1       8.821  47.886  53.589  1.00  0.00     0.002 C 
BRANCH   3   4
ATOM      4  C   UNL     1       9.854  46.773  53.413  1.00  0.00    -0.003 C 
ATOM      5  C   UNL     1      10.040  46.419  51.945  1.00  0.00     0.004 C 
ENDBRANCH   3   4
ENDBRANCH   2   3
ENDBRANCH   1   2
BRANCH   1   6
ATOM      6  N   UNL     1       5.609  46.800  54.958  1.00  0.00    -0.354 N 
ATOM      7  H   UNL     1       5.342  47.763  54.784  1.00  0.00     0.163 HD
BRANCH   6   8
ATOM      8  C   UNL     1       4.512  46.029  54.590  1.00  0.00     0.226 A 
ATOM      9  N   UNL     1       4.541  45.339  53.435  1.00  0.00    -0.195 NA
ATOM     10  N   UNL     1       3.493  46.056  55.456  1.00  0.00    -0.193 NA
ATOM     11  C   UNL     1       3.480  44.581  53.060  1.00  0.00     0.147 A 
ATOM     12  C   UNL     1       2.458  45.294  55.069  1.00  0.00     0.165 A 
ATOM     13  C   UNL     1       2.374  44.543  53.912  1.00  0.00     0.082 A 
ATOM     14  N   UNL     1       1.279  45.100  55.735  1.00  0.00    -0.250 N 
ATOM     15  C   UNL     1       1.101  43.940  53.985  1.00  0.00     0.149 A 
ATOM     16  N   UNL     1       0.424  44.276  55.089  1.00  0.00    -0.179 NA
ATOM     17  C   UNL     1       0.894  45.671  57.001  1.00  0.00     0.176 C 
BRANCH  11  18
ATOM     18  N   UNL     1       3.614  43.903  51.827  1.00  0.00    -0.338 N 
ATOM     19  H   UNL     1       3.318  42.955  52.071  1.00  0.00     0.168 HD
BRANCH  18  20
ATOM     20  C   UNL     1       4.816  43.860  51.079  1.00  0.00     0.059 A 
ATOM     21  C   UNL     1       5.578  45.031  50.974  1.00  0.00     0.029 A 
ATOM     22  C   UNL     1       5.298  42.681  50.479  1.00  0.00     0.066 A 
ATOM     23  C   UNL     1       6.792  45.030  50.282  1.00  0.00     0.023 A 
ATOM     24  C   UNL     1       6.511  42.678  49.787  1.00  0.00     0.043 A 
ATOM     25  C   UNL     1       7.252  43.852  49.694  1.00  0.00     0.042 A 
ATOM     26  Cl  UNL     1       4.399  41.207  50.557  1.00  0.00    -0.082 Cl
ATOM     27  Cl  UNL     1       8.746  43.854  48.843  1.00  0.00    -0.084 Cl
ENDBRANCH  18  20
ENDBRANCH  11  18
ENDBRANCH   6   8
ENDBRANCH   1   6
TORSDOF 7
ENDMDL
MODEL 6
REMARK VINA RESULT:    -7.830      2.630      5.551
REMARK INTER + INTRA:         -12.527
REMARK INTER:                 -11.808
REMARK INTRA:                  -0.719
REMARK UNBOUND:                -1.492
REMARK SMILES CCCCCNc1nc(Nc2ccc(Cl)cc2Cl)c2cnn(C)c2n1
REMARK SMILES IDX 5 1 4 2 3 3 2 4 1 5 6 6 7 8 8 9 25 10 9 11 24 12 19 13 22 14
REMARK SMILES IDX 20 15 21 16 23 17 10 18 11 20 12 21 17 22 13 23 16 24 14 25
REMARK SMILES IDX 18 26 15 27
REMARK H PARENT 6 7 10 19
ROOT
ATOM      1  C   UNL     1       3.729  46.658  54.492  1.00  0.00     0.116 C 
ENDROOT
BRANCH   1   2
ATOM      2  C   UNL     1       3.377  45.312  55.131  1.00  0.00     0.021 C 
BRANCH   2   3
ATOM      3  C   UNL     1       1.885  44.959  55.107  1.00  0.00     0.002 C 
BRANCH   3   4
ATOM      4  C   UNL     1       1.346  44.598  53.722  1.00  0.00    -0.003 C 
ATOM      5  C   UNL     1       1.263  43.090  53.537  1.00  0.00     0.004 C 
ENDBRANCH   3   4
ENDBRANCH   2   3
ENDBRANCH   1   2
BRANCH   1   6
ATOM      6  N   UNL     1       5.006  47.139  54.989  1.00  0.00    -0.354 N 
ATOM      7  H   UNL     1       5.272  46.798  55.906  1.00  0.00     0.163 HD
BRANCH   6   8
ATOM      8  C   UNL     1       6.090  46.882  54.158  1.00  0.00     0.226 A 
ATOM      9  N   UNL     1       5.879  46.401  52.918  1.00  0.00    -0.195 NA
ATOM     10  N   UNL     1       7.285  47.146  54.698  1.00  0.00    -0.193 NA
ATOM     11  C   UNL     1       6.925  46.144  52.094  1.00  0.00     0.147 A 
ATOM     12  C   UNL     1       8.303  46.893  53.863  1.00  0.00     0.165 A 
ATOM     13  C   UNL     1       8.211  46.401  52.574  1.00  0.00     0.082 A 
ATOM     14  N   UNL     1       9.638  47.067  54.107  1.00  0.00    -0.250 N 
ATOM     15  C   UNL     1       9.550  46.320  52.139  1.00  0.00     0.149 A 
ATOM     16  N   UNL     1      10.428  46.719  53.067  1.00  0.00    -0.179 NA
ATOM     17  C   UNL     1      10.239  47.567  55.318  1.00  0.00     0.176 C 
BRANCH  11  18
ATOM     18  N   UNL     1       6.590  45.636  50.817  1.00  0.00    -0.338 N 
ATOM     19  H   UNL     1       6.027  46.395  50.425  1.00  0.00     0.168 HD
BRANCH  18  20
ATOM     20  C   UNL     1       5.944  44.394  50.610  1.00  0.00     0.059 A 
ATOM     21  C   UNL     1       4.701  44.179  51.219  1.00  0.00     0.029 A 
ATOM     22  C   UNL     1       6.475  43.387  49.781  1.00  0.00     0.066 A 
ATOM     23  C   UNL     1       4.004  42.985  51.013  1.00  0.00     0.023 A 
ATOM     24  C   UNL     1       5.780  42.194  49.573  1.00  0.00     0.043 A 
ATOM     25  C   UNL     1       4.548  42.001  50.189  1.00  0.00     0.042 A 
ATOM     26  Cl  UNL     1       8.011  43.581  49.013  1.00  0.00    -0.082 Cl
ATOM     27  Cl  UNL     1       3.687  40.533  49.936  1.00  0.00    -0.084 Cl
ENDBRANCH  18  20
ENDBRANCH  11  18
ENDBRANCH   6   8
ENDBRANCH   1   6
TORSDOF 7
ENDMDL
MODEL 7
REMARK VINA RESULT:    -7.817      3.106      5.722
REMARK INTER + INTRA:         -12.508
REMARK INTER:                 -11.626
REMARK INTRA:                  -0.882
REMARK UNBOUND:                -1.492
REMARK SMILES CCCCCNc1nc(Nc2ccc(Cl)cc2Cl)c2cnn(C)c2n1
REMARK SMILES IDX 5 1 4 2 3 3 2 4 1 5 6 6 7 8 8 9 25 10 9 11 24 12 19 13 22 14
REMARK SMILES IDX 20 15 21 16 23 17 10 18 11 20 12 21 17 22 13 23 16 24 14 25
REMARK SMILES IDX 18 26 15 27
REMARK H PARENT 6 7 10 19
ROOT
ATOM      1  C   UNL     1       9.138  45.728  51.254  1.00  0.00     0.116 C 
ENDROOT
BRANCH   1   2
ATOM      2  C   UNL     1       9.845  46.753  52.146  1.00  0.00     0.021 C 
BRANCH   2   3
ATOM      3  C   UNL     1       9.855  46.406  53.639  1.00  0.00     0.002 C 
BRANCH   3   4
ATOM      4  C   UNL     1       9.662  47.608  54.565  1.00  0.00    -0.003 C 
ATOM      5  C   UNL     1      10.620  47.555  55.747  1.00  0.00     0.004 C 
ENDBRANCH   3   4
ENDBRANCH   2   3
ENDBRANCH   1   2
BRANCH   1   6
ATOM      6  N   UNL     1       7.954  46.313  50.648  1.00  0.00    -0.354 N 
ATOM      7  H   UNL     1       8.013  46.480  49.650  1.00  0.00     0.163 HD
BRANCH   6   8
ATOM      8  C   UNL     1       6.782  45.593  50.845  1.00  0.00     0.226 A 
ATOM      9  N   UNL     1       5.699  46.209  51.357  1.00  0.00    -0.195 NA
ATOM     10  N   UNL     1       6.851  44.303  50.495  1.00  0.00    -0.193 NA
ATOM     11  C   UNL     1       4.547  45.522  51.555  1.00  0.00     0.147 A 
ATOM     12  C   UNL     1       5.698  43.646  50.693  1.00  0.00     0.165 A 
ATOM     13  C   UNL     1       4.527  44.169  51.207  1.00  0.00     0.082 A 
ATOM     14  N   UNL     1       5.440  42.329  50.426  1.00  0.00    -0.250 N 
ATOM     15  C   UNL     1       3.632  43.079  51.207  1.00  0.00     0.149 A 
ATOM     16  N   UNL     1       4.179  41.952  50.737  1.00  0.00    -0.179 NA
ATOM     17  C   UNL     1       6.353  41.362  49.871  1.00  0.00     0.176 C 
BRANCH  11  18
ATOM     18  N   UNL     1       3.476  46.264  52.103  1.00  0.00    -0.338 N 
ATOM     19  H   UNL     1       3.888  47.196  52.198  1.00  0.00     0.168 HD
BRANCH  18  20
ATOM     20  C   UNL     1       2.799  45.907  53.294  1.00  0.00     0.059 A 
ATOM     21  C   UNL     1       3.458  46.091  54.517  1.00  0.00     0.029 A 
ATOM     22  C   UNL     1       1.478  45.421  53.304  1.00  0.00     0.066 A 
ATOM     23  C   UNL     1       2.819  45.792  55.722  1.00  0.00     0.023 A 
ATOM     24  C   UNL     1       0.835  45.123  54.507  1.00  0.00     0.043 A 
ATOM     25  C   UNL     1       1.510  45.311  55.710  1.00  0.00     0.042 A 
ATOM     26  Cl  UNL     1       0.613  45.156  51.831  1.00  0.00    -0.082 Cl
ATOM     27  Cl  UNL     1       0.724  44.945  57.196  1.00  0.00    -0.084 Cl
ENDBRANCH  18  20
ENDBRANCH  11  18
ENDBRANCH   6   8
ENDBRANCH   1   6
TORSDOF 7
ENDMDL
MODEL 8
REMARK VINA RESULT:    -7.809      2.631      5.504
REMARK INTER + INTRA:         -12.497
REMARK INTER:                 -11.542
REMARK INTRA:                  -0.955
REMARK UNBOUND:                -1.492
REMARK SMILES CCCCCNc1nc(Nc2ccc(Cl)cc2Cl)c2cnn(C)c2n1
REMARK SMILES IDX 5 1 4 2 3 3 2 4 1 5 6 6 7 8 8 9 25 10 9 11 24 12 19 13 22 14
REMARK SMILES IDX 20 15 21 16 23 17 10 18 11 20 12 21 17 22 13 23 16 24 14 25
REMARK SMILES IDX 18 26 15 27
REMARK H PARENT 6 7 10 19
ROOT
ATOM      1  C   UNL     1       9.320  45.580  51.115  1.00  0.00     0.116 C 
ENDROOT
BRANCH   1   2
ATOM      2  C   UNL     1      10.147  46.203  52.244  1.00  0.00     0.021 C 
BRANCH   2   3
ATOM      3  C   UNL     1       9.507  47.429  52.906  1.00  0.00     0.002 C 
BRANCH   3   4
ATOM      4  C   UNL     1       9.118  47.222  54.371  1.00  0.00    -0.003 C 
ATOM      5  C   UNL     1      10.288  47.511  55.300  1.00  0.00     0.004 C 
ENDBRANCH   3   4
ENDBRANCH   2   3
ENDBRANCH   1   2
BRANCH   1   6
ATOM      6  N   UNL     1       8.134  46.376  50.854  1.00  0.00    -0.354 N 
ATOM      7  H   UNL     1       8.095  46.812  49.939  1.00  0.00     0.163 HD
BRANCH   6   8
ATOM      8  C   UNL     1       6.931  45.698  51.004  1.00  0.00     0.226 A 
ATOM      9  N   UNL     1       5.861  46.342  51.508  1.00  0.00    -0.195 NA
ATOM     10  N   UNL     1       6.959  44.416  50.620  1.00  0.00    -0.193 NA
ATOM     11  C   UNL     1       4.679  45.695  51.661  1.00  0.00     0.147 A 
ATOM     12  C   UNL     1       5.777  43.799  50.773  1.00  0.00     0.165 A 
ATOM     13  C   UNL     1       4.615  44.354  51.276  1.00  0.00     0.082 A 
ATOM     14  N   UNL     1       5.476  42.501  50.465  1.00  0.00    -0.250 N 
ATOM     15  C   UNL     1       3.680  43.301  51.225  1.00  0.00     0.149 A 
ATOM     16  N   UNL     1       4.194  42.165  50.737  1.00  0.00    -0.179 NA
ATOM     17  C   UNL     1       6.364  41.514  49.904  1.00  0.00     0.176 C 
BRANCH  11  18
ATOM     18  N   UNL     1       3.624  46.464  52.205  1.00  0.00    -0.338 N 
ATOM     19  H   UNL     1       4.056  47.388  52.293  1.00  0.00     0.168 HD
BRANCH  18  20
ATOM     20  C   UNL     1       2.941  46.130  53.399  1.00  0.00     0.059 A 
ATOM     21  C   UNL     1       1.624  45.661  53.306  1.00  0.00     0.029 A 
ATOM     22  C   UNL     1       3.545  46.206  54.669  1.00  0.00     0.066 A 
ATOM     23  C   UNL     1       0.922  45.280  54.452  1.00  0.00     0.023 A 
ATOM     24  C   UNL     1       2.846  45.824  55.816  1.00  0.00     0.043 A 
ATOM     25  C   UNL     1       1.538  45.362  55.700  1.00  0.00     0.042 A 
ATOM     26  Cl  UNL     1       5.161  46.791  54.856  1.00  0.00    -0.082 Cl
ATOM     27  Cl  UNL     1       0.671  44.891  57.109  1.00  0.00    -0.084 Cl
ENDBRANCH  18  20
ENDBRANCH  11  18
ENDBRANCH   6   8
ENDBRANCH   1   6
TORSDOF 7
ENDMDL
MODEL 9
REMARK VINA RESULT:    -7.741      2.919      5.276
REMARK INTER + INTRA:         -12.401
REMARK INTER:                 -11.024
REMARK INTRA:                  -1.377
REMARK UNBOUND:                -1.492
REMARK SMILES CCCCCNc1nc(Nc2ccc(Cl)cc2Cl)c2cnn(C)c2n1
REMARK SMILES IDX 5 1 4 2 3 3 2 4 1 5 6 6 7 8 8 9 25 10 9 11 24 12 19 13 22 14
REMARK SMILES IDX 20 15 21 16 23 17 10 18 11 20 12 21 17 22 13 23 16 24 14 25
REMARK SMILES IDX 18 26 15 27
REMARK H PARENT 6 7 10 19
ROOT
ATOM      1  C   UNL     1       4.952  41.494  50.731  1.00  0.00     0.116 C 
ENDROOT
BRANCH   1   2
ATOM      2  C   UNL     1       5.661  41.604  49.378  1.00  0.00     0.021 C 
BRANCH   2   3
ATOM      3  C   UNL     1       6.533  42.854  49.209  1.00  0.00     0.002 C 
BRANCH   3   4
ATOM      4  C   UNL     1       6.256  43.957  50.232  1.00  0.00    -0.003 C 
ATOM      5  C   UNL     1       7.343  45.022  50.204  1.00  0.00     0.004 C 
ENDBRANCH   3   4
ENDBRANCH   2   3
ENDBRANCH   1   2
BRANCH   1   6
ATOM      6  N   UNL     1       3.513  41.432  50.547  1.00  0.00    -0.354 N 
ATOM      7  H   UNL     1       3.084  40.541  50.769  1.00  0.00     0.163 HD
BRANCH   6   8
ATOM      8  C   UNL     1       2.793  42.388  51.254  1.00  0.00     0.226 A 
ATOM      9  N   UNL     1       3.393  43.078  52.242  1.00  0.00    -0.195 NA
ATOM     10  N   UNL     1       1.520  42.529  50.868  1.00  0.00    -0.193 NA
ATOM     11  C   UNL     1       2.706  44.014  52.943  1.00  0.00     0.147 A 
ATOM     12  C   UNL     1       0.862  43.466  51.568  1.00  0.00     0.165 A 
ATOM     13  C   UNL     1       1.370  44.235  52.598  1.00  0.00     0.082 A 
ATOM     14  N   UNL     1      -0.440  43.855  51.410  1.00  0.00    -0.250 N 
ATOM     15  C   UNL     1       0.288  45.051  52.986  1.00  0.00     0.149 A 
ATOM     16  N   UNL     1      -0.822  44.825  52.272  1.00  0.00    -0.179 NA
ATOM     17  C   UNL     1      -1.387  43.345  50.452  1.00  0.00     0.176 C 
BRANCH  11  18
ATOM     18  N   UNL     1       3.431  44.674  53.962  1.00  0.00    -0.338 N 
ATOM     19  H   UNL     1       2.707  45.249  54.401  1.00  0.00     0.168 HD
BRANCH  18  20
ATOM     20  C   UNL     1       4.591  45.450  53.725  1.00  0.00     0.059 A 
ATOM     21  C   UNL     1       5.829  44.944  54.143  1.00  0.00     0.029 A 
ATOM     22  C   UNL     1       4.558  46.684  53.048  1.00  0.00     0.066 A 
ATOM     23  C   UNL     1       7.007  45.653  53.896  1.00  0.00     0.023 A 
ATOM     24  C   UNL     1       5.734  47.394  52.799  1.00  0.00     0.043 A 
ATOM     25  C   UNL     1       6.953  46.873  53.224  1.00  0.00     0.042 A 
ATOM     26  Cl  UNL     1       3.063  47.373  52.521  1.00  0.00    -0.082 Cl
ATOM     27  Cl  UNL     1       8.405  47.743  52.922  1.00  0.00    -0.084 Cl
ENDBRANCH  18  20
ENDBRANCH  11  18
ENDBRANCH   6   8
ENDBRANCH   1   6
TORSDOF 7
ENDMDL
MODEL 10
REMARK VINA RESULT:    -7.724      1.857      4.761
REMARK INTER + INTRA:         -12.377
REMARK INTER:                 -11.699
REMARK INTRA:                  -0.678
REMARK UNBOUND:                -1.492
REMARK SMILES CCCCCNc1nc(Nc2ccc(Cl)cc2Cl)c2cnn(C)c2n1
REMARK SMILES IDX 5 1 4 2 3 3 2 4 1 5 6 6 7 8 8 9 25 10 9 11 24 12 19 13 22 14
REMARK SMILES IDX 20 15 21 16 23 17 10 18 11 20 12 21 17 22 13 23 16 24 14 25
REMARK SMILES IDX 18 26 15 27
REMARK H PARENT 6 7 10 19
ROOT
ATOM      1  C   UNL     1       5.925  41.785  49.918  1.00  0.00     0.116 C 
ENDROOT
BRANCH   1   2
ATOM      2  C   UNL     1       5.389  41.192  48.611  1.00  0.00     0.021 C 
BRANCH   2   3
ATOM      3  C   UNL     1       5.773  41.972  47.347  1.00  0.00     0.002 C 
BRANCH   3   4
ATOM      4  C   UNL     1       5.181  41.407  46.056  1.00  0.00    -0.003 C 
ATOM      5  C   UNL     1       5.239  42.428  44.928  1.00  0.00     0.004 C 
ENDBRANCH   3   4
ENDBRANCH   2   3
ENDBRANCH   1   2
BRANCH   1   6
ATOM      6  N   UNL     1       4.830  42.126  50.809  1.00  0.00    -0.354 N 
ATOM      7  H   UNL     1       4.804  41.614  51.683  1.00  0.00     0.163 HD
BRANCH   6   8
ATOM      8  C   UNL     1       4.755  43.470  51.152  1.00  0.00     0.226 A 
ATOM      9  N   UNL     1       5.836  44.258  51.001  1.00  0.00    -0.195 NA
ATOM     10  N   UNL     1       3.566  43.862  51.624  1.00  0.00    -0.193 NA
ATOM     11  C   UNL     1       5.781  45.573  51.331  1.00  0.00     0.147 A 
ATOM     12  C   UNL     1       3.532  45.166  51.937  1.00  0.00     0.165 A 
ATOM     13  C   UNL     1       4.572  46.070  51.823  1.00  0.00     0.082 A 
ATOM     14  N   UNL     1       2.468  45.872  52.428  1.00  0.00    -0.250 N 
ATOM     15  C   UNL     1       4.022  47.287  52.274  1.00  0.00     0.149 A 
ATOM     16  N   UNL     1       2.742  47.178  52.650  1.00  0.00    -0.179 NA
ATOM     17  C   UNL     1       1.149  45.366  52.713  1.00  0.00     0.176 C 
BRANCH  11  18
ATOM     18  N   UNL     1       6.974  46.305  51.137  1.00  0.00    -0.338 N 
ATOM     19  H   UNL     1       7.429  45.779  50.387  1.00  0.00     0.168 HD
BRANCH  18  20
ATOM     20  C   UNL     1       7.903  46.583  52.169  1.00  0.00     0.059 A 
ATOM     21  C   UNL     1       7.456  47.280  53.299  1.00  0.00     0.029 A 
ATOM     22  C   UNL     1       9.241  46.149  52.126  1.00  0.00     0.066 A 
ATOM     23  C   UNL     1       8.324  47.543  54.362  1.00  0.00     0.023 A 
ATOM     24  C   UNL     1      10.110  46.409  53.188  1.00  0.00     0.043 A 
ATOM     25  C   UNL     1       9.646  47.104  54.301  1.00  0.00     0.042 A 
ATOM     26  Cl  UNL     1       9.862  45.299  50.755  1.00  0.00    -0.082 Cl
ATOM     27  Cl  UNL     1      10.711  47.429  55.611  1.00  0.00    -0.084 Cl
ENDBRANCH  18  20
ENDBRANCH  11  18
ENDBRANCH   6   8
ENDBRANCH   1   6
TORSDOF 7
ENDMDL
MODEL 11
REMARK VINA RESULT:    -7.629      3.148      6.622
REMARK INTER + INTRA:         -12.243
REMARK INTER:                 -10.813
REMARK INTRA:                  -1.430
REMARK UNBOUND:                -1.492
REMARK SMILES CCCCCNc1nc(Nc2ccc(Cl)cc2Cl)c2cnn(C)c2n1
REMARK SMILES IDX 5 1 4 2 3 3 2 4 1 5 6 6 7 8 8 9 25 10 9 11 24 12 19 13 22 14
REMARK SMILES IDX 20 15 21 16 23 17 10 18 11 20 12 21 17 22 13 23 16 24 14 25
REMARK SMILES IDX 18 26 15 27
REMARK H PARENT 6 7 10 19
ROOT
ATOM      1  C   UNL     1       7.827  43.663  49.643  1.00  0.00     0.116 C 
ENDROOT
BRANCH   1   2
ATOM      2  C   UNL     1       6.612  42.919  49.082  1.00  0.00     0.021 C 
BRANCH   2   3
ATOM      3  C   UNL     1       6.057  41.816  49.992  1.00  0.00     0.002 C 
BRANCH   3   4
ATOM      4  C   UNL     1       4.741  42.173  50.683  1.00  0.00    -0.003 C 
ATOM      5  C   UNL     1       3.640  41.187  50.319  1.00  0.00     0.004 C 
ENDBRANCH   3   4
ENDBRANCH   2   3
ENDBRANCH   1   2
BRANCH   1   6
ATOM      6  N   UNL     1       7.610  45.098  49.597  1.00  0.00    -0.354 N 
ATOM      7  H   UNL     1       6.935  45.415  48.910  1.00  0.00     0.163 HD
BRANCH   6   8
ATOM      8  C   UNL     1       7.221  45.668  50.804  1.00  0.00     0.226 A 
ATOM      9  N   UNL     1       5.917  45.907  51.038  1.00  0.00    -0.195 NA
ATOM     10  N   UNL     1       8.225  45.939  51.645  1.00  0.00    -0.193 NA
ATOM     11  C   UNL     1       5.519  46.462  52.210  1.00  0.00     0.147 A 
ATOM     12  C   UNL     1       7.808  46.480  52.800  1.00  0.00     0.165 A 
ATOM     13  C   UNL     1       6.503  46.768  53.153  1.00  0.00     0.082 A 
ATOM     14  N   UNL     1       8.581  46.856  53.864  1.00  0.00    -0.250 N 
ATOM     15  C   UNL     1       6.609  47.314  54.448  1.00  0.00     0.149 A 
ATOM     16  N   UNL     1       7.871  47.377  54.890  1.00  0.00    -0.179 NA
ATOM     17  C   UNL     1      10.014  46.748  53.977  1.00  0.00     0.176 C 
BRANCH  11  18
ATOM     18  N   UNL     1       4.128  46.674  52.348  1.00  0.00    -0.338 N 
ATOM     19  H   UNL     1       4.080  47.219  53.213  1.00  0.00     0.168 HD
BRANCH  18  20
ATOM     20  C   UNL     1       3.172  45.630  52.377  1.00  0.00     0.059 A 
ATOM     21  C   UNL     1       2.504  45.305  51.189  1.00  0.00     0.029 A 
ATOM     22  C   UNL     1       2.901  44.877  53.535  1.00  0.00     0.066 A 
ATOM     23  C   UNL     1       1.581  44.256  51.157  1.00  0.00     0.023 A 
ATOM     24  C   UNL     1       1.981  43.827  53.505  1.00  0.00     0.043 A 
ATOM     25  C   UNL     1       1.327  43.522  52.315  1.00  0.00     0.042 A 
ATOM     26  Cl  UNL     1       3.679  45.236  55.037  1.00  0.00    -0.082 Cl
ATOM     27  Cl  UNL     1       0.192  42.231  52.271  1.00  0.00    -0.084 Cl
ENDBRANCH  18  20
ENDBRANCH  11  18
ENDBRANCH   6   8
ENDBRANCH   1   6
TORSDOF 7
ENDMDL
MODEL 12
REMARK VINA RESULT:    -7.511      2.185      4.958
REMARK INTER + INTRA:         -12.077
REMARK INTER:                 -11.244
REMARK INTRA:                  -0.833
REMARK UNBOUND:                -1.492
REMARK SMILES CCCCCNc1nc(Nc2ccc(Cl)cc2Cl)c2cnn(C)c2n1
REMARK SMILES IDX 5 1 4 2 3 3 2 4 1 5 6 6 7 8 8 9 25 10 9 11 24 12 19 13 22 14
REMARK SMILES IDX 20 15 21 16 23 17 10 18 11 20 12 21 17 22 13 23 16 24 14 25
REMARK SMILES IDX 18 26 15 27
REMARK H PARENT 6 7 10 19
ROOT
ATOM      1  C   UNL     1       4.298  41.233  49.609  1.00  0.00     0.116 C 
ENDROOT
BRANCH   1   2
ATOM      2  C   UNL     1       5.717  41.277  49.034  1.00  0.00     0.021 C 
BRANCH   2   3
ATOM      3  C   UNL     1       5.840  41.986  47.679  1.00  0.00     0.002 C 
BRANCH   3   4
ATOM      4  C   UNL     1       5.080  41.304  46.541  1.00  0.00    -0.003 C 
ATOM      5  C   UNL     1       5.188  42.101  45.249  1.00  0.00     0.004 C 
ENDBRANCH   3   4
ENDBRANCH   2   3
ENDBRANCH   1   2
BRANCH   1   6
ATOM      6  N   UNL     1       4.331  41.373  51.054  1.00  0.00    -0.354 N 
ATOM      7  H   UNL     1       5.223  41.170  51.491  1.00  0.00     0.163 HD
BRANCH   6   8
ATOM      8  C   UNL     1       3.950  42.622  51.528  1.00  0.00     0.226 A 
ATOM      9  N   UNL     1       4.715  43.697  51.263  1.00  0.00    -0.195 NA
ATOM     10  N   UNL     1       2.814  42.630  52.235  1.00  0.00    -0.193 NA
ATOM     11  C   UNL     1       4.359  44.924  51.718  1.00  0.00     0.147 A 
ATOM     12  C   UNL     1       2.477  43.855  52.667  1.00  0.00     0.165 A 
ATOM     13  C   UNL     1       3.178  45.027  52.458  1.00  0.00     0.082 A 
ATOM     14  N   UNL     1       1.374  44.199  53.400  1.00  0.00    -0.250 N 
ATOM     15  C   UNL     1       2.408  46.012  53.108  1.00  0.00     0.149 A 
ATOM     16  N   UNL     1       1.308  45.518  53.690  1.00  0.00    -0.179 NA
ATOM     17  C   UNL     1       0.331  43.318  53.864  1.00  0.00     0.176 C 
BRANCH  11  18
ATOM     18  N   UNL     1       5.237  45.981  51.387  1.00  0.00    -0.338 N 
ATOM     19  H   UNL     1       5.450  45.784  50.406  1.00  0.00     0.168 HD
BRANCH  18  20
ATOM     20  C   UNL     1       6.430  46.265  52.096  1.00  0.00     0.059 A 
ATOM     21  C   UNL     1       6.328  46.826  53.375  1.00  0.00     0.029 A 
ATOM     22  C   UNL     1       7.708  45.963  51.588  1.00  0.00     0.066 A 
ATOM     23  C   UNL     1       7.473  47.086  54.132  1.00  0.00     0.023 A 
ATOM     24  C   UNL     1       8.855  46.221  52.343  1.00  0.00     0.043 A 
ATOM     25  C   UNL     1       8.730  46.780  53.611  1.00  0.00     0.042 A 
ATOM     26  Cl  UNL     1       7.906  45.285  50.011  1.00  0.00    -0.082 Cl
ATOM     27  Cl  UNL     1      10.138  47.101  54.545  1.00  0.00    -0.084 Cl
ENDBRANCH  18  20
ENDBRANCH  11  18
ENDBRANCH   6   8
ENDBRANCH   1   6
TORSDOF 7
ENDMDL
MODEL 13
REMARK VINA RESULT:    -7.504      2.001      2.729
REMARK INTER + INTRA:         -12.067
REMARK INTER:                 -11.350
REMARK INTRA:                  -0.717
REMARK UNBOUND:                -1.492
REMARK SMILES CCCCCNc1nc(Nc2ccc(Cl)cc2Cl)c2cnn(C)c2n1
REMARK SMILES IDX 5 1 4 2 3 3 2 4 1 5 6 6 7 8 8 9 25 10 9 11 24 12 19 13 22 14
REMARK SMILES IDX 20 15 21 16 23 17 10 18 11 20 12 21 17 22 13 23 16 24 14 25
REMARK SMILES IDX 18 26 15 27
REMARK H PARENT 6 7 10 19
ROOT
ATOM      1  C   UNL     1       2.063  43.286  52.345  1.00  0.00     0.116 C 
ENDROOT
BRANCH   1   2
ATOM      2  C   UNL     1       0.888  43.737  53.217  1.00  0.00     0.021 C 
BRANCH   2   3
ATOM      3  C   UNL     1       1.285  44.518  54.476  1.00  0.00     0.002 C 
BRANCH   3   4
ATOM      4  C   UNL     1       0.114  44.867  55.395  1.00  0.00    -0.003 C 
ATOM      5  C   UNL     1       0.597  45.225  56.793  1.00  0.00     0.004 C 
ENDBRANCH   3   4
ENDBRANCH   2   3
ENDBRANCH   1   2
BRANCH   1   6
ATOM      6  N   UNL     1       3.324  43.533  53.023  1.00  0.00    -0.354 N 
ATOM      7  H   UNL     1       3.653  42.780  53.616  1.00  0.00     0.163 HD
BRANCH   6   8
ATOM      8  C   UNL     1       4.386  43.849  52.184  1.00  0.00     0.226 A 
ATOM      9  N   UNL     1       5.033  45.019  52.342  1.00  0.00    -0.195 NA
ATOM     10  N   UNL     1       4.667  42.921  51.262  1.00  0.00    -0.193 NA
ATOM     11  C   UNL     1       6.072  45.344  51.532  1.00  0.00     0.147 A 
ATOM     12  C   UNL     1       5.702  43.260  50.479  1.00  0.00     0.165 A 
ATOM     13  C   UNL     1       6.441  44.426  50.546  1.00  0.00     0.082 A 
ATOM     14  N   UNL     1       6.240  42.528  49.457  1.00  0.00    -0.250 N 
ATOM     15  C   UNL     1       7.397  44.289  49.519  1.00  0.00     0.149 A 
ATOM     16  N   UNL     1       7.281  43.138  48.845  1.00  0.00    -0.179 NA
ATOM     17  C   UNL     1       5.814  41.228  49.002  1.00  0.00     0.176 C 
BRANCH  11  18
ATOM     18  N   UNL     1       6.676  46.598  51.782  1.00  0.00    -0.338 N 
ATOM     19  H   UNL     1       7.035  46.850  50.857  1.00  0.00     0.168 HD
BRANCH  18  20
ATOM     20  C   UNL     1       7.673  46.809  52.765  1.00  0.00     0.059 A 
ATOM     21  C   UNL     1       9.017  46.742  52.377  1.00  0.00     0.029 A 
ATOM     22  C   UNL     1       7.369  47.129  54.102  1.00  0.00     0.066 A 
ATOM     23  C   UNL     1      10.037  46.983  53.301  1.00  0.00     0.023 A 
ATOM     24  C   UNL     1       8.386  47.371  55.027  1.00  0.00     0.043 A 
ATOM     25  C   UNL     1       9.715  47.298  54.620  1.00  0.00     0.042 A 
ATOM     26  Cl  UNL     1       5.731  47.211  54.650  1.00  0.00    -0.082 Cl
ATOM     27  Cl  UNL     1      10.973  47.595  55.755  1.00  0.00    -0.084 Cl
ENDBRANCH  18  20
ENDBRANCH  11  18
ENDBRANCH   6   8
ENDBRANCH   1   6
TORSDOF 7
ENDMDL
MODEL 14
REMARK VINA RESULT:    -7.500      2.906      5.928
REMARK INTER + INTRA:         -12.062
REMARK INTER:                 -11.387
REMARK INTRA:                  -0.675
REMARK UNBOUND:                -1.492
REMARK SMILES CCCCCNc1nc(Nc2ccc(Cl)cc2Cl)c2cnn(C)c2n1
REMARK SMILES IDX 5 1 4 2 3 3 2 4 1 5 6 6 7 8 8 9 25 10 9 11 24 12 19 13 22 14
REMARK SMILES IDX 20 15 21 16 23 17 10 18 11 20 12 21 17 22 13 23 16 24 14 25
REMARK SMILES IDX 18 26 15 27
REMARK H PARENT 6 7 10 19
ROOT
ATOM      1  C   UNL     1       5.589  45.428  55.177  1.00  0.00     0.116 C 
ENDROOT
BRANCH   1   2
ATOM      2  C   UNL     1       6.273  46.660  54.578  1.00  0.00     0.021 C 
BRANCH   2   3
ATOM      3  C   UNL     1       7.168  46.373  53.366  1.00  0.00     0.002 C 
BRANCH   3   4
ATOM      4  C   UNL     1       8.209  47.455  53.082  1.00  0.00    -0.003 C 
ATOM      5  C   UNL     1       9.613  46.870  53.027  1.00  0.00     0.004 C 
ENDBRANCH   3   4
ENDBRANCH   2   3
ENDBRANCH   1   2
BRANCH   1   6
ATOM      6  N   UNL     1       4.288  45.782  55.718  1.00  0.00    -0.354 N 
ATOM      7  H   UNL     1       4.099  46.776  55.782  1.00  0.00     0.163 HD
BRANCH   6   8
ATOM      8  C   UNL     1       3.206  45.230  55.044  1.00  0.00     0.226 A 
ATOM      9  N   UNL     1       3.369  44.761  53.792  1.00  0.00    -0.195 NA
ATOM     10  N   UNL     1       2.060  45.223  55.734  1.00  0.00    -0.193 NA
ATOM     11  C   UNL     1       2.324  44.219  53.119  1.00  0.00     0.147 A 
ATOM     12  C   UNL     1       1.042  44.675  55.053  1.00  0.00     0.165 A 
ATOM     13  C   UNL     1       1.089  44.162  53.770  1.00  0.00     0.082 A 
ATOM     14  N   UNL     1      -0.246  44.509  55.481  1.00  0.00    -0.250 N 
ATOM     15  C   UNL     1      -0.226  43.715  53.529  1.00  0.00     0.149 A 
ATOM     16  N   UNL     1      -1.050  43.926  54.563  1.00  0.00    -0.179 NA
ATOM     17  C   UNL     1      -0.789  44.884  56.763  1.00  0.00     0.176 C 
BRANCH  11  18
ATOM     18  N   UNL     1       2.606  43.764  51.811  1.00  0.00    -0.338 N 
ATOM     19  H   UNL     1       2.228  42.814  51.828  1.00  0.00     0.168 HD
BRANCH  18  20
ATOM     20  C   UNL     1       3.902  43.763  51.240  1.00  0.00     0.059 A 
ATOM     21  C   UNL     1       4.531  42.531  51.016  1.00  0.00     0.029 A 
ATOM     22  C   UNL     1       4.563  44.942  50.847  1.00  0.00     0.066 A 
ATOM     23  C   UNL     1       5.792  42.474  50.419  1.00  0.00     0.023 A 
ATOM     24  C   UNL     1       5.823  44.888  50.249  1.00  0.00     0.043 A 
ATOM     25  C   UNL     1       6.430  43.654  50.037  1.00  0.00     0.042 A 
ATOM     26  Cl  UNL     1       3.850  46.495  51.109  1.00  0.00    -0.082 Cl
ATOM     27  Cl  UNL     1       7.983  43.581  49.301  1.00  0.00    -0.084 Cl
ENDBRANCH  18  20
ENDBRANCH  11  18
ENDBRANCH   6   8
ENDBRANCH   1   6
TORSDOF 7
ENDMDL
MODEL 15
REMARK VINA RESULT:    -7.493      1.629      2.115
REMARK INTER + INTRA:         -12.052
REMARK INTER:                 -11.447
REMARK INTRA:                  -0.604
REMARK UNBOUND:                -1.492
REMARK SMILES CCCCCNc1nc(Nc2ccc(Cl)cc2Cl)c2cnn(C)c2n1
REMARK SMILES IDX 5 1 4 2 3 3 2 4 1 5 6 6 7 8 8 9 25 10 9 11 24 12 19 13 22 14
REMARK SMILES IDX 20 15 21 16 23 17 10 18 11 20 12 21 17 22 13 23 16 24 14 25
REMARK SMILES IDX 18 26 15 27
REMARK H PARENT 6 7 10 19
ROOT
ATOM      1  C   UNL     1       2.060  45.187  53.515  1.00  0.00     0.116 C 
ENDROOT
BRANCH   1   2
ATOM      2  C   UNL     1       1.025  44.945  54.617  1.00  0.00     0.021 C 
BRANCH   2   3
ATOM      3  C   UNL     1       1.575  45.039  56.046  1.00  0.00     0.002 C 
BRANCH   3   4
ATOM      4  C   UNL     1       0.507  45.266  57.117  1.00  0.00    -0.003 C 
ATOM      5  C   UNL     1      -0.886  45.317  56.507  1.00  0.00     0.004 C 
ENDBRANCH   3   4
ENDBRANCH   2   3
ENDBRANCH   1   2
BRANCH   1   6
ATOM      6  N   UNL     1       3.344  44.621  53.889  1.00  0.00    -0.354 N 
ATOM      7  H   UNL     1       3.307  43.701  54.314  1.00  0.00     0.163 HD
BRANCH   6   8
ATOM      8  C   UNL     1       4.265  44.526  52.853  1.00  0.00     0.226 A 
ATOM      9  N   UNL     1       5.184  45.496  52.686  1.00  0.00    -0.195 NA
ATOM     10  N   UNL     1       4.137  43.435  52.089  1.00  0.00    -0.193 NA
ATOM     11  C   UNL     1       6.090  45.419  51.680  1.00  0.00     0.147 A 
ATOM     12  C   UNL     1       5.048  43.376  51.106  1.00  0.00     0.165 A 
ATOM     13  C   UNL     1       6.036  44.306  50.838  1.00  0.00     0.082 A 
ATOM     14  N   UNL     1       5.192  42.390  50.168  1.00  0.00    -0.250 N 
ATOM     15  C   UNL     1       6.713  43.778  49.720  1.00  0.00     0.149 A 
ATOM     16  N   UNL     1       6.204  42.613  49.300  1.00  0.00    -0.179 NA
ATOM     17  C   UNL     1       4.395  41.196  50.037  1.00  0.00     0.176 C 
BRANCH  11  18
ATOM     18  N   UNL     1       7.005  46.494  51.594  1.00  0.00    -0.338 N 
ATOM     19  H   UNL     1       7.453  46.321  50.691  1.00  0.00     0.168 HD
BRANCH  18  20
ATOM     20  C   UNL     1       7.984  46.774  52.578  1.00  0.00     0.059 A 
ATOM     21  C   UNL     1       7.588  47.449  53.740  1.00  0.00     0.029 A 
ATOM     22  C   UNL     1       9.325  46.364  52.457  1.00  0.00     0.066 A 
ATOM     23  C   UNL     1       8.507  47.713  54.758  1.00  0.00     0.023 A 
ATOM     24  C   UNL     1      10.246  46.626  53.473  1.00  0.00     0.043 A 
ATOM     25  C   UNL     1       9.831  47.298  54.619  1.00  0.00     0.042 A 
ATOM     26  Cl  UNL     1       9.884  45.543  51.042  1.00  0.00    -0.082 Cl
ATOM     27  Cl  UNL     1      10.961  47.624  55.874  1.00  0.00    -0.084 Cl
ENDBRANCH  18  20
ENDBRANCH  11  18
ENDBRANCH   6   8
ENDBRANCH   1   6
TORSDOF 7
ENDMDL
MODEL 16
REMARK VINA RESULT:    -7.485      3.726      6.397
REMARK INTER + INTRA:         -12.040
REMARK INTER:                 -11.367
REMARK INTRA:                  -0.673
REMARK UNBOUND:                -1.492
REMARK SMILES CCCCCNc1nc(Nc2ccc(Cl)cc2Cl)c2cnn(C)c2n1
REMARK SMILES IDX 5 1 4 2 3 3 2 4 1 5 6 6 7 8 8 9 25 10 9 11 24 12 19 13 22 14
REMARK SMILES IDX 20 15 21 16 23 17 10 18 11 20 12 21 17 22 13 23 16 24 14 25
REMARK SMILES IDX 18 26 15 27
REMARK H PARENT 6 7 10 19
ROOT
ATOM      1  C   UNL     1       6.607  46.924  53.230  1.00  0.00     0.116 C 
ENDROOT
BRANCH   1   2
ATOM      2  C   UNL     1       7.673  47.818  52.590  1.00  0.00     0.021 C 
BRANCH   2   3
ATOM      3  C   UNL     1       8.829  47.062  51.925  1.00  0.00     0.002 C 
BRANCH   3   4
ATOM      4  C   UNL     1       9.871  46.518  52.903  1.00  0.00    -0.003 C 
ATOM      5  C   UNL     1       9.905  47.336  54.186  1.00  0.00     0.004 C 
ENDBRANCH   3   4
ENDBRANCH   2   3
ENDBRANCH   1   2
BRANCH   1   6
ATOM      6  N   UNL     1       5.489  46.736  52.322  1.00  0.00    -0.354 N 
ATOM      7  H   UNL     1       5.547  47.246  51.448  1.00  0.00     0.163 HD
BRANCH   6   8
ATOM      8  C   UNL     1       5.234  45.415  51.976  1.00  0.00     0.226 A 
ATOM      9  N   UNL     1       4.247  44.741  52.596  1.00  0.00    -0.195 NA
ATOM     10  N   UNL     1       6.033  44.922  51.022  1.00  0.00    -0.193 NA
ATOM     11  C   UNL     1       3.985  43.451  52.271  1.00  0.00     0.147 A 
ATOM     12  C   UNL     1       5.750  43.648  50.711  1.00  0.00     0.165 A 
ATOM     13  C   UNL     1       4.766  42.859  51.276  1.00  0.00     0.082 A 
ATOM     14  N   UNL     1       6.372  42.867  49.775  1.00  0.00    -0.250 N 
ATOM     15  C   UNL     1       4.885  41.625  50.605  1.00  0.00     0.149 A 
ATOM     16  N   UNL     1       5.864  41.617  49.691  1.00  0.00    -0.179 NA
ATOM     17  C   UNL     1       7.464  43.248  48.915  1.00  0.00     0.176 C 
BRANCH  11  18
ATOM     18  N   UNL     1       2.932  42.839  52.988  1.00  0.00    -0.338 N 
ATOM     19  H   UNL     1       2.886  41.914  52.554  1.00  0.00     0.168 HD
BRANCH  18  20
ATOM     20  C   UNL     1       1.632  43.388  53.100  1.00  0.00     0.059 A 
ATOM     21  C   UNL     1       1.200  43.831  54.357  1.00  0.00     0.029 A 
ATOM     22  C   UNL     1       0.776  43.550  51.994  1.00  0.00     0.066 A 
ATOM     23  C   UNL     1      -0.058  44.418  54.511  1.00  0.00     0.023 A 
ATOM     24  C   UNL     1      -0.482  44.138  52.146  1.00  0.00     0.043 A 
ATOM     25  C   UNL     1      -0.891  44.569  53.404  1.00  0.00     0.042 A 
ATOM     26  Cl  UNL     1       1.239  43.011  50.419  1.00  0.00    -0.082 Cl
ATOM     27  Cl  UNL     1      -2.440  45.293  53.597  1.00  0.00    -0.084 Cl
ENDBRANCH  18  20
ENDBRANCH  11  18
ENDBRANCH   6   8
ENDBRANCH   1   6
TORSDOF 7
ENDMDL
MODEL 17
REMARK VINA RESULT:    -7.465      2.904      6.125
REMARK INTER + INTRA:         -12.012
REMARK INTER:                 -10.775
REMARK INTRA:                  -1.238
REMARK UNBOUND:                -1.492
REMARK SMILES CCCCCNc1nc(Nc2ccc(Cl)cc2Cl)c2cnn(C)c2n1
REMARK SMILES IDX 5 1 4 2 3 3 2 4 1 5 6 6 7 8 8 9 25 10 9 11 24 12 19 13 22 14
REMARK SMILES IDX 20 15 21 16 23 17 10 18 11 20 12 21 17 22 13 23 16 24 14 25
REMARK SMILES IDX 18 26 15 27
REMARK H PARENT 6 7 10 19
ROOT
ATOM      1  C   UNL     1       7.010  42.692  49.693  1.00  0.00     0.116 C 
ENDROOT
BRANCH   1   2
ATOM      2  C   UNL     1       6.157  41.439  49.918  1.00  0.00     0.021 C 
BRANCH   2   3
ATOM      3  C   UNL     1       4.657  41.706  50.093  1.00  0.00     0.002 C 
BRANCH   3   4
ATOM      4  C   UNL     1       4.223  41.932  51.541  1.00  0.00    -0.003 C 
ATOM      5  C   UNL     1       2.908  42.694  51.612  1.00  0.00     0.004 C 
ENDBRANCH   3   4
ENDBRANCH   2   3
ENDBRANCH   1   2
BRANCH   1   6
ATOM      6  N   UNL     1       6.166  43.871  49.603  1.00  0.00    -0.354 N 
ATOM      7  H   UNL     1       5.170  43.702  49.687  1.00  0.00     0.163 HD
BRANCH   6   8
ATOM      8  C   UNL     1       6.461  44.870  50.524  1.00  0.00     0.226 A 
ATOM      9  N   UNL     1       5.458  45.524  51.141  1.00  0.00    -0.195 NA
ATOM     10  N   UNL     1       7.766  45.095  50.708  1.00  0.00    -0.193 NA
ATOM     11  C   UNL     1       5.727  46.502  52.042  1.00  0.00     0.147 A 
ATOM     12  C   UNL     1       8.009  46.059  51.609  1.00  0.00     0.165 A 
ATOM     13  C   UNL     1       7.067  46.795  52.304  1.00  0.00     0.082 A 
ATOM     14  N   UNL     1       9.229  46.513  52.027  1.00  0.00    -0.250 N 
ATOM     15  C   UNL     1       7.833  47.662  53.110  1.00  0.00     0.149 A 
ATOM     16  N   UNL     1       9.152  47.502  52.946  1.00  0.00    -0.179 NA
ATOM     17  C   UNL     1      10.523  46.049  51.592  1.00  0.00     0.176 C 
BRANCH  11  18
ATOM     18  N   UNL     1       4.601  47.126  52.625  1.00  0.00    -0.338 N 
ATOM     19  H   UNL     1       5.025  47.675  53.377  1.00  0.00     0.168 HD
BRANCH  18  20
ATOM     20  C   UNL     1       3.475  46.420  53.115  1.00  0.00     0.059 A 
ATOM     21  C   UNL     1       2.292  46.448  52.365  1.00  0.00     0.029 A 
ATOM     22  C   UNL     1       3.511  45.654  54.296  1.00  0.00     0.066 A 
ATOM     23  C   UNL     1       1.166  45.734  52.785  1.00  0.00     0.023 A 
ATOM     24  C   UNL     1       2.388  44.939  54.717  1.00  0.00     0.043 A 
ATOM     25  C   UNL     1       1.222  44.983  53.958  1.00  0.00     0.042 A 
ATOM     26  Cl  UNL     1       4.934  45.589  55.276  1.00  0.00    -0.082 Cl
ATOM     27  Cl  UNL     1      -0.165  44.104  54.472  1.00  0.00    -0.084 Cl
ENDBRANCH  18  20
ENDBRANCH  11  18
ENDBRANCH   6   8
ENDBRANCH   1   6
TORSDOF 7
ENDMDL
MODEL 18
REMARK VINA RESULT:    -7.418      1.280      1.886
REMARK INTER + INTRA:         -11.946
REMARK INTER:                 -11.152
REMARK INTRA:                  -0.794
REMARK UNBOUND:                -1.492
REMARK SMILES CCCCCNc1nc(Nc2ccc(Cl)cc2Cl)c2cnn(C)c2n1
REMARK SMILES IDX 5 1 4 2 3 3 2 4 1 5 6 6 7 8 8 9 25 10 9 11 24 12 19 13 22 14
REMARK SMILES IDX 20 15 21 16 23 17 10 18 11 20 12 21 17 22 13 23 16 24 14 25
REMARK SMILES IDX 18 26 15 27
REMARK H PARENT 6 7 10 19
ROOT
ATOM      1  C   UNL     1       2.910  46.115  53.624  1.00  0.00     0.116 C 
ENDROOT
BRANCH   1   2
ATOM      2  C   UNL     1       2.056  45.092  54.378  1.00  0.00     0.021 C 
BRANCH   2   3
ATOM      3  C   UNL     1       0.966  44.420  53.536  1.00  0.00     0.002 C 
BRANCH   3   4
ATOM      4  C   UNL     1       1.083  42.897  53.453  1.00  0.00    -0.003 C 
ATOM      5  C   UNL     1      -0.229  42.265  53.014  1.00  0.00     0.004 C 
ENDBRANCH   3   4
ENDBRANCH   2   3
ENDBRANCH   1   2
BRANCH   1   6
ATOM      6  N   UNL     1       2.831  45.886  52.192  1.00  0.00    -0.354 N 
ATOM      7  H   UNL     1       2.636  46.707  51.630  1.00  0.00     0.163 HD
BRANCH   6   8
ATOM      8  C   UNL     1       3.960  45.301  51.631  1.00  0.00     0.226 A 
ATOM      9  N   UNL     1       5.092  46.020  51.509  1.00  0.00    -0.195 NA
ATOM     10  N   UNL     1       3.801  44.029  51.249  1.00  0.00    -0.193 NA
ATOM     11  C   UNL     1       6.204  45.465  50.965  1.00  0.00     0.147 A 
ATOM     12  C   UNL     1       4.914  43.499  50.721  1.00  0.00     0.165 A 
ATOM     13  C   UNL     1       6.129  44.135  50.546  1.00  0.00     0.082 A 
ATOM     14  N   UNL     1       5.081  42.226  50.249  1.00  0.00    -0.250 N 
ATOM     15  C   UNL     1       6.953  43.151  49.962  1.00  0.00     0.149 A 
ATOM     16  N   UNL     1       6.323  41.985  49.771  1.00  0.00    -0.179 NA
ATOM     17  C   UNL     1       4.094  41.175  50.220  1.00  0.00     0.176 C 
BRANCH  11  18
ATOM     18  N   UNL     1       7.334  46.311  50.880  1.00  0.00    -0.338 N 
ATOM     19  H   UNL     1       7.876  45.869  50.133  1.00  0.00     0.168 HD
BRANCH  18  20
ATOM     20  C   UNL     1       8.175  46.613  51.978  1.00  0.00     0.059 A 
ATOM     21  C   UNL     1       7.656  47.391  53.021  1.00  0.00     0.029 A 
ATOM     22  C   UNL     1       9.491  46.126  52.086  1.00  0.00     0.066 A 
ATOM     23  C   UNL     1       8.433  47.682  54.146  1.00  0.00     0.023 A 
ATOM     24  C   UNL     1      10.269  46.415  53.210  1.00  0.00     0.043 A 
ATOM     25  C   UNL     1       9.734  47.190  54.233  1.00  0.00     0.042 A 
ATOM     26  Cl  UNL     1      10.198  45.174  50.828  1.00  0.00    -0.082 Cl
ATOM     27  Cl  UNL     1      10.688  47.550  55.619  1.00  0.00    -0.084 Cl
ENDBRANCH  18  20
ENDBRANCH  11  18
ENDBRANCH   6   8
ENDBRANCH   1   6
TORSDOF 7
ENDMDL
MODEL 19
REMARK VINA RESULT:    -7.205      3.320      5.961
REMARK INTER + INTRA:         -11.645
REMARK INTER:                 -10.494
REMARK INTRA:                  -1.151
REMARK UNBOUND:                -1.492
REMARK SMILES CCCCCNc1nc(Nc2ccc(Cl)cc2Cl)c2cnn(C)c2n1
REMARK SMILES IDX 5 1 4 2 3 3 2 4 1 5 6 6 7 8 8 9 25 10 9 11 24 12 19 13 22 14
REMARK SMILES IDX 20 15 21 16 23 17 10 18 11 20 12 21 17 22 13 23 16 24 14 25
REMARK SMILES IDX 18 26 15 27
REMARK H PARENT 6 7 10 19
ROOT
ATOM      1  C   UNL     1       2.495  42.812  51.222  1.00  0.00     0.116 C 
ENDROOT
BRANCH   1   2
ATOM      2  C   UNL     1       3.927  42.269  51.186  1.00  0.00     0.021 C 
BRANCH   2   3
ATOM      3  C   UNL     1       5.021  43.343  51.154  1.00  0.00     0.002 C 
BRANCH   3   4
ATOM      4  C   UNL     1       6.104  43.108  50.100  1.00  0.00    -0.003 C 
ATOM      5  C   UNL     1       6.271  41.625  49.802  1.00  0.00     0.004 C 
ENDBRANCH   3   4
ENDBRANCH   2   3
ENDBRANCH   1   2
BRANCH   1   6
ATOM      6  N   UNL     1       1.792  42.315  52.391  1.00  0.00    -0.354 N 
ATOM      7  H   UNL     1       2.240  41.544  52.873  1.00  0.00     0.163 HD
BRANCH   6   8
ATOM      8  C   UNL     1       1.529  43.272  53.364  1.00  0.00     0.226 A 
ATOM      9  N   UNL     1       2.505  44.114  53.751  1.00  0.00    -0.195 NA
ATOM     10  N   UNL     1       0.280  43.255  53.843  1.00  0.00    -0.193 NA
ATOM     11  C   UNL     1       2.267  45.054  54.699  1.00  0.00     0.147 A 
ATOM     12  C   UNL     1       0.065  44.197  54.773  1.00  0.00     0.165 A 
ATOM     13  C   UNL     1       0.983  45.115  55.247  1.00  0.00     0.082 A 
ATOM     14  N   UNL     1      -1.102  44.448  55.443  1.00  0.00    -0.250 N 
ATOM     15  C   UNL     1       0.262  45.866  56.198  1.00  0.00     0.149 A 
ATOM     16  N   UNL     1      -1.008  45.466  56.328  1.00  0.00    -0.179 NA
ATOM     17  C   UNL     1      -2.356  43.755  55.289  1.00  0.00     0.176 C 
BRANCH  11  18
ATOM     18  N   UNL     1       3.363  45.881  55.034  1.00  0.00    -0.338 N 
ATOM     19  H   UNL     1       2.908  46.781  55.208  1.00  0.00     0.168 HD
BRANCH  18  20
ATOM     20  C   UNL     1       4.494  46.063  54.201  1.00  0.00     0.059 A 
ATOM     21  C   UNL     1       5.706  45.472  54.584  1.00  0.00     0.029 A 
ATOM     22  C   UNL     1       4.440  46.771  52.986  1.00  0.00     0.066 A 
ATOM     23  C   UNL     1       6.840  45.588  53.777  1.00  0.00     0.023 A 
ATOM     24  C   UNL     1       5.572  46.887  52.176  1.00  0.00     0.043 A 
ATOM     25  C   UNL     1       6.766  46.294  52.576  1.00  0.00     0.042 A 
ATOM     26  Cl  UNL     1       2.982  47.538  52.463  1.00  0.00    -0.082 Cl
ATOM     27  Cl  UNL     1       8.164  46.434  51.584  1.00  0.00    -0.084 Cl
ENDBRANCH  18  20
ENDBRANCH  11  18
ENDBRANCH   6   8
ENDBRANCH   1   6
TORSDOF 7
ENDMDL
MODEL 20
REMARK VINA RESULT:    -7.091      3.300      5.874
REMARK INTER + INTRA:         -11.485
REMARK INTER:                 -10.342
REMARK INTRA:                  -1.143
REMARK UNBOUND:                -1.492
REMARK SMILES CCCCCNc1nc(Nc2ccc(Cl)cc2Cl)c2cnn(C)c2n1
REMARK SMILES IDX 5 1 4 2 3 3 2 4 1 5 6 6 7 8 8 9 25 10 9 11 24 12 19 13 22 14
REMARK SMILES IDX 20 15 21 16 23 17 10 18 11 20 12 21 17 22 13 23 16 24 14 25
REMARK SMILES IDX 18 26 15 27
REMARK H PARENT 6 7 10 19
ROOT
ATOM      1  C   UNL     1       2.783  43.590  51.656  1.00  0.00     0.116 C 
ENDROOT
BRANCH   1   2
ATOM      2  C   UNL     1       3.839  42.488  51.530  1.00  0.00     0.021 C 
BRANCH   2   3
ATOM      3  C   UNL     1       5.123  42.910  50.805  1.00  0.00     0.002 C 
BRANCH   3   4
ATOM      4  C   UNL     1       5.309  44.422  50.682  1.00  0.00    -0.003 C 
ATOM      5  C   UNL     1       6.767  44.782  50.436  1.00  0.00     0.004 C 
ENDBRANCH   3   4
ENDBRANCH   2   3
ENDBRANCH   1   2
BRANCH   1   6
ATOM      6  N   UNL     1       1.677  43.141  52.485  1.00  0.00    -0.354 N 
ATOM      7  H   UNL     1       1.696  42.161  52.743  1.00  0.00     0.163 HD
BRANCH   6   8
ATOM      8  C   UNL     1       1.516  43.844  53.673  1.00  0.00     0.226 A 
ATOM      9  N   UNL     1       2.527  44.599  54.143  1.00  0.00    -0.195 NA
ATOM     10  N   UNL     1       0.323  43.689  54.258  1.00  0.00    -0.193 NA
ATOM     11  C   UNL     1       2.388  45.292  55.300  1.00  0.00     0.147 A 
ATOM     12  C   UNL     1       0.205  44.389  55.397  1.00  0.00     0.165 A 
ATOM     13  C   UNL     1       1.168  45.196  55.974  1.00  0.00     0.082 A 
ATOM     14  N   UNL     1      -0.886  44.453  56.220  1.00  0.00    -0.250 N 
ATOM     15  C   UNL     1       0.549  45.694  57.139  1.00  0.00     0.149 A 
ATOM     16  N   UNL     1      -0.702  45.244  57.301  1.00  0.00    -0.179 NA
ATOM     17  C   UNL     1      -2.149  43.784  56.038  1.00  0.00     0.176 C 
BRANCH  11  18
ATOM     18  N   UNL     1       3.513  46.047  55.704  1.00  0.00    -0.338 N 
ATOM     19  H   UNL     1       3.079  46.892  56.083  1.00  0.00     0.168 HD
BRANCH  18  20
ATOM     20  C   UNL     1       4.579  46.394  54.838  1.00  0.00     0.059 A 
ATOM     21  C   UNL     1       4.443  47.535  54.037  1.00  0.00     0.029 A 
ATOM     22  C   UNL     1       5.784  45.669  54.785  1.00  0.00     0.066 A 
ATOM     23  C   UNL     1       5.482  47.942  53.196  1.00  0.00     0.023 A 
ATOM     24  C   UNL     1       6.825  46.074  53.946  1.00  0.00     0.043 A 
ATOM     25  C   UNL     1       6.668  47.210  53.158  1.00  0.00     0.042 A 
ATOM     26  Cl  UNL     1       6.011  44.242  55.735  1.00  0.00    -0.082 Cl
ATOM     27  Cl  UNL     1       7.946  47.714  52.123  1.00  0.00    -0.084 Cl
ENDBRANCH  18  20
ENDBRANCH  11  18
ENDBRANCH   6   8
ENDBRANCH   1   6
TORSDOF 7
ENDMDL
