MODEL 1
REMARK VINA RESULT:    -8.324      0.000      0.000
REMARK INTER + INTRA:         -12.839
REMARK INTER:                 -11.730
REMARK INTRA:                  -1.109
REMARK UNBOUND:                -1.109
REMARK SMILES COCCCNc1nc(Nc2ccc(F)c(F)c2F)c2cnn(C)c2n1
REMARK SMILES IDX 5 1 4 2 3 3 2 4 1 5 6 6 7 8 8 9 26 10 9 11 25 12 20 13 23 14
REMARK SMILES IDX 21 15 22 16 24 17 10 18 11 20 12 21 18 22 13 23 16 24 14 25
REMARK SMILES IDX 19 26 17 27 15 28
REMARK H PARENT 6 7 10 19
ROOT
ATOM      1  C   UNL     1       3.528  41.140  50.048  1.00  0.00     0.118 C 
ENDROOT
BRANCH   1   2
ATOM      2  C   UNL     1       4.379  40.847  48.815  1.00  0.00     0.050 C 
BRANCH   2   3
ATOM      3  C   UNL     1       5.840  41.207  49.059  1.00  0.00     0.161 C 
BRANCH   3   4
ATOM      4  O   UNL     1       6.145  42.512  48.569  1.00  0.00    -0.385 OA
ATOM      5  C   UNL     1       7.332  43.061  49.129  1.00  0.00     0.194 C 
ENDBRANCH   3   4
ENDBRANCH   2   3
ENDBRANCH   1   2
BRANCH   1   6
ATOM      6  N   UNL     1       4.392  41.556  51.140  1.00  0.00    -0.354 N 
ATOM      7  H   UNL     1       4.425  40.928  51.937  1.00  0.00     0.163 HD
BRANCH   6   8
ATOM      8  C   UNL     1       4.115  42.815  51.657  1.00  0.00     0.226 A 
ATOM      9  N   UNL     1       4.959  43.837  51.412  1.00  0.00    -0.195 NA
ATOM     10  N   UNL     1       2.989  42.891  52.377  1.00  0.00    -0.193 NA
ATOM     11  C   UNL     1       4.699  45.075  51.900  1.00  0.00     0.147 A 
ATOM     12  C   UNL     1       2.780  44.111  52.893  1.00  0.00     0.165 A 
ATOM     13  C   UNL     1       3.573  45.227  52.711  1.00  0.00     0.082 A 
ATOM     14  N   UNL     1       1.756  44.503  53.710  1.00  0.00    -0.250 N 
ATOM     15  C   UNL     1       2.956  46.223  53.498  1.00  0.00     0.149 A 
ATOM     16  N   UNL     1       1.834  45.800  54.088  1.00  0.00    -0.179 NA
ATOM     17  C   UNL     1       0.668  43.689  54.192  1.00  0.00     0.176 C 
BRANCH  11  18
ATOM     18  N   UNL     1       5.634  46.071  51.605  1.00  0.00    -0.337 N 
ATOM     19  H   UNL     1       5.154  46.866  51.186  1.00  0.00     0.168 HD
BRANCH  18  20
ATOM     20  C   UNL     1       6.828  46.449  52.253  1.00  0.00     0.079 A 
ATOM     21  C   UNL     1       6.890  46.844  53.596  1.00  0.00     0.032 A 
ATOM     22  C   UNL     1       8.036  46.375  51.534  1.00  0.00     0.185 A 
ATOM     23  C   UNL     1       8.117  47.158  54.195  1.00  0.00     0.045 A 
ATOM     24  C   UNL     1       9.255  46.685  52.126  1.00  0.00     0.196 A 
ATOM     25  C   UNL     1       9.290  47.074  53.455  1.00  0.00     0.162 A 
ATOM     26  F   UNL     1       8.009  46.004  50.243  1.00  0.00    -0.201 F 
ATOM     27  F   UNL     1      10.388  46.611  51.414  1.00  0.00    -0.200 F 
ATOM     28  F   UNL     1      10.457  47.378  54.039  1.00  0.00    -0.204 F 
ENDBRANCH  18  20
ENDBRANCH  11  18
ENDBRANCH   6   8
ENDBRANCH   1   6
TORSDOF 7
ENDMDL
MODEL 2
REMARK VINA RESULT:    -8.306      3.059      6.524
REMARK INTER + INTRA:         -12.814
REMARK INTER:                 -11.927
REMARK INTRA:                  -0.886
REMARK UNBOUND:                -1.109
REMARK SMILES COCCCNc1nc(Nc2ccc(F)c(F)c2F)c2cnn(C)c2n1
REMARK SMILES IDX 5 1 4 2 3 3 2 4 1 5 6 6 7 8 8 9 26 10 9 11 25 12 20 13 23 14
REMARK SMILES IDX 21 15 22 16 24 17 10 18 11 20 12 21 18 22 13 23 16 24 14 25
REMARK SMILES IDX 19 26 17 27 15 28
REMARK H PARENT 6 7 10 19
ROOT
ATOM      1  C   UNL     1       3.843  45.392  55.382  1.00  0.00     0.118 C 
ENDROOT
BRANCH   1   2
ATOM      2  C   UNL     1       2.348  45.694  55.448  1.00  0.00     0.050 C 
BRANCH   2   3
ATOM      3  C   UNL     1       1.711  45.617  54.065  1.00  0.00     0.161 C 
BRANCH   3   4
ATOM      4  O   UNL     1       2.196  46.650  53.209  1.00  0.00    -0.385 OA
ATOM      5  C   UNL     1       2.313  46.247  51.850  1.00  0.00     0.194 C 
ENDBRANCH   3   4
ENDBRANCH   2   3
ENDBRANCH   1   2
BRANCH   1   6
ATOM      6  N   UNL     1       4.574  46.631  55.177  1.00  0.00    -0.354 N 
ATOM      7  H   UNL     1       4.024  47.414  54.839  1.00  0.00     0.163 HD
BRANCH   6   8
ATOM      8  C   UNL     1       5.664  46.532  54.321  1.00  0.00     0.226 A 
ATOM      9  N   UNL     1       5.532  45.884  53.147  1.00  0.00    -0.195 NA
ATOM     10  N   UNL     1       6.783  47.115  54.767  1.00  0.00    -0.193 NA
ATOM     11  C   UNL     1       6.582  45.786  52.294  1.00  0.00     0.147 A 
ATOM     12  C   UNL     1       7.821  46.960  53.932  1.00  0.00     0.165 A 
ATOM     13  C   UNL     1       7.805  46.319  52.710  1.00  0.00     0.082 A 
ATOM     14  N   UNL     1       9.107  47.390  54.117  1.00  0.00    -0.250 N 
ATOM     15  C   UNL     1       9.142  46.383  52.265  1.00  0.00     0.149 A 
ATOM     16  N   UNL     1       9.937  47.058  53.101  1.00  0.00    -0.179 NA
ATOM     17  C   UNL     1       9.627  48.111  55.251  1.00  0.00     0.176 C 
BRANCH  11  18
ATOM     18  N   UNL     1       6.358  45.088  51.104  1.00  0.00    -0.337 N 
ATOM     19  H   UNL     1       7.146  45.238  50.476  1.00  0.00     0.168 HD
BRANCH  18  20
ATOM     20  C   UNL     1       5.695  43.869  50.851  1.00  0.00     0.079 A 
ATOM     21  C   UNL     1       4.540  43.459  51.528  1.00  0.00     0.032 A 
ATOM     22  C   UNL     1       6.184  43.039  49.824  1.00  0.00     0.185 A 
ATOM     23  C   UNL     1       3.899  42.259  51.193  1.00  0.00     0.045 A 
ATOM     24  C   UNL     1       5.551  41.848  49.489  1.00  0.00     0.196 A 
ATOM     25  C   UNL     1       4.409  41.464  50.174  1.00  0.00     0.162 A 
ATOM     26  F   UNL     1       7.293  43.403  49.159  1.00  0.00    -0.201 F 
ATOM     27  F   UNL     1       6.043  41.076  48.510  1.00  0.00    -0.200 F 
ATOM     28  F   UNL     1       3.789  40.318  49.863  1.00  0.00    -0.204 F 
ENDBRANCH  18  20
ENDBRANCH  11  18
ENDBRANCH   6   8
ENDBRANCH   1   6
TORSDOF 7
ENDMDL
MODEL 3
REMARK VINA RESULT:    -8.279      2.059      4.289
REMARK INTER + INTRA:         -12.775
REMARK INTER:                 -11.520
REMARK INTRA:                  -1.255
REMARK UNBOUND:                -1.109
REMARK SMILES COCCCNc1nc(Nc2ccc(F)c(F)c2F)c2cnn(C)c2n1
REMARK SMILES IDX 5 1 4 2 3 3 2 4 1 5 6 6 7 8 8 9 26 10 9 11 25 12 20 13 23 14
REMARK SMILES IDX 21 15 22 16 24 17 10 18 11 20 12 21 18 22 13 23 16 24 14 25
REMARK SMILES IDX 19 26 17 27 15 28
REMARK H PARENT 6 7 10 19
ROOT
ATOM      1  C   UNL     1       1.558  45.349  53.956  1.00  0.00     0.118 C 
ENDROOT
BRANCH   1   2
ATOM      2  C   UNL     1       0.664  45.272  52.720  1.00  0.00     0.050 C 
BRANCH   2   3
ATOM      3  C   UNL     1      -0.686  44.650  53.058  1.00  0.00     0.161 C 
BRANCH   3   4
ATOM      4  O   UNL     1      -0.537  43.327  53.572  1.00  0.00    -0.385 OA
ATOM      5  C   UNL     1      -0.307  42.353  52.561  1.00  0.00     0.194 C 
ENDBRANCH   3   4
ENDBRANCH   2   3
ENDBRANCH   1   2
BRANCH   1   6
ATOM      6  N   UNL     1       2.420  44.180  53.997  1.00  0.00    -0.354 N 
ATOM      7  H   UNL     1       2.866  43.996  54.891  1.00  0.00     0.163 HD
BRANCH   6   8
ATOM      8  C   UNL     1       3.440  44.172  53.053  1.00  0.00     0.226 A 
ATOM      9  N   UNL     1       4.277  45.224  52.969  1.00  0.00    -0.195 NA
ATOM     10  N   UNL     1       3.490  43.073  52.291  1.00  0.00    -0.193 NA
ATOM     11  C   UNL     1       5.284  45.229  52.060  1.00  0.00     0.147 A 
ATOM     12  C   UNL     1       4.460  43.123  51.366  1.00  0.00     0.165 A 
ATOM     13  C   UNL     1       5.372  44.144  51.185  1.00  0.00     0.082 A 
ATOM     14  N   UNL     1       4.742  42.189  50.407  1.00  0.00    -0.250 N 
ATOM     15  C   UNL     1       6.127  43.741  50.064  1.00  0.00     0.149 A 
ATOM     16  N   UNL     1       5.770  42.539  49.599  1.00  0.00    -0.179 NA
ATOM     17  C   UNL     1       4.059  40.940  50.184  1.00  0.00     0.176 C 
BRANCH  11  18
ATOM     18  N   UNL     1       6.098  46.366  52.035  1.00  0.00    -0.337 N 
ATOM     19  H   UNL     1       5.515  47.190  51.899  1.00  0.00     0.168 HD
BRANCH  18  20
ATOM     20  C   UNL     1       7.299  46.666  52.710  1.00  0.00     0.079 A 
ATOM     21  C   UNL     1       7.352  47.129  54.031  1.00  0.00     0.032 A 
ATOM     22  C   UNL     1       8.519  46.437  52.045  1.00  0.00     0.185 A 
ATOM     23  C   UNL     1       8.581  47.360  54.662  1.00  0.00     0.045 A 
ATOM     24  C   UNL     1       9.740  46.664  52.668  1.00  0.00     0.196 A 
ATOM     25  C   UNL     1       9.766  47.123  53.975  1.00  0.00     0.162 A 
ATOM     26  F   UNL     1       8.501  45.997  50.776  1.00  0.00    -0.201 F 
ATOM     27  F   UNL     1      10.885  46.442  52.007  1.00  0.00    -0.200 F 
ATOM     28  F   UNL     1      10.936  47.348  54.588  1.00  0.00    -0.204 F 
ENDBRANCH  18  20
ENDBRANCH  11  18
ENDBRANCH   6   8
ENDBRANCH   1   6
TORSDOF 7
ENDMDL
MODEL 4
REMARK VINA RESULT:    -8.266      2.204      4.523
REMARK INTER + INTRA:         -12.757
REMARK INTER:                 -11.458
REMARK INTRA:                  -1.299
REMARK UNBOUND:                -1.109
REMARK SMILES COCCCNc1nc(Nc2ccc(F)c(F)c2F)c2cnn(C)c2n1
REMARK SMILES IDX 5 1 4 2 3 3 2 4 1 5 6 6 7 8 8 9 26 10 9 11 25 12 20 13 23 14
REMARK SMILES IDX 21 15 22 16 24 17 10 18 11 20 12 21 18 22 13 23 16 24 14 25
REMARK SMILES IDX 19 26 17 27 15 28
REMARK H PARENT 6 7 10 19
ROOT
ATOM      1  C   UNL     1       1.693  44.499  53.140  1.00  0.00     0.118 C 
ENDROOT
BRANCH   1   2
ATOM      2  C   UNL     1       1.332  45.271  54.406  1.00  0.00     0.050 C 
BRANCH   2   3
ATOM      3  C   UNL     1       2.452  45.185  55.438  1.00  0.00     0.161 C 
BRANCH   3   4
ATOM      4  O   UNL     1       3.630  45.852  54.988  1.00  0.00    -0.385 OA
ATOM      5  C   UNL     1       4.828  45.154  55.303  1.00  0.00     0.194 C 
ENDBRANCH   3   4
ENDBRANCH   2   3
ENDBRANCH   1   2
BRANCH   1   6
ATOM      6  N   UNL     1       2.352  45.393  52.203  1.00  0.00    -0.354 N 
ATOM      7  H   UNL     1       1.785  45.704  51.420  1.00  0.00     0.163 HD
BRANCH   6   8
ATOM      8  C   UNL     1       3.528  44.899  51.651  1.00  0.00     0.226 A 
ATOM      9  N   UNL     1       4.610  45.696  51.565  1.00  0.00    -0.195 NA
ATOM     10  N   UNL     1       3.464  43.625  51.244  1.00  0.00    -0.193 NA
ATOM     11  C   UNL     1       5.768  45.228  51.037  1.00  0.00     0.147 A 
ATOM     12  C   UNL     1       4.604  43.200  50.680  1.00  0.00     0.165 A 
ATOM     13  C   UNL     1       5.770  43.925  50.536  1.00  0.00     0.082 A 
ATOM     14  N   UNL     1       4.848  41.975  50.122  1.00  0.00    -0.250 N 
ATOM     15  C   UNL     1       6.636  43.055  49.840  1.00  0.00     0.149 A 
ATOM     16  N   UNL     1       6.094  41.856  49.607  1.00  0.00    -0.179 NA
ATOM     17  C   UNL     1       3.931  40.867  50.024  1.00  0.00     0.176 C 
BRANCH  11  18
ATOM     18  N   UNL     1       6.836  46.128  50.977  1.00  0.00    -0.337 N 
ATOM     19  H   UNL     1       6.541  46.963  50.473  1.00  0.00     0.168 HD
BRANCH  18  20
ATOM     20  C   UNL     1       7.882  46.394  51.885  1.00  0.00     0.079 A 
ATOM     21  C   UNL     1       9.220  46.055  51.646  1.00  0.00     0.032 A 
ATOM     22  C   UNL     1       7.582  47.087  53.073  1.00  0.00     0.185 A 
ATOM     23  C   UNL     1      10.221  46.393  52.567  1.00  0.00     0.045 A 
ATOM     24  C   UNL     1       8.572  47.424  53.988  1.00  0.00     0.196 A 
ATOM     25  C   UNL     1       9.889  47.077  53.730  1.00  0.00     0.162 A 
ATOM     26  F   UNL     1       6.307  47.421  53.332  1.00  0.00    -0.201 F 
ATOM     27  F   UNL     1       8.255  48.079  55.113  1.00  0.00    -0.200 F 
ATOM     28  F   UNL     1      10.854  47.394  54.603  1.00  0.00    -0.204 F 
ENDBRANCH  18  20
ENDBRANCH  11  18
ENDBRANCH   6   8
ENDBRANCH   1   6
TORSDOF 7
ENDMDL
MODEL 5
REMARK VINA RESULT:    -8.265      2.336      4.683
REMARK INTER + INTRA:         -12.756
REMARK INTER:                 -11.656
REMARK INTRA:                  -1.099
REMARK UNBOUND:                -1.109
REMARK SMILES COCCCNc1nc(Nc2ccc(F)c(F)c2F)c2cnn(C)c2n1
REMARK SMILES IDX 5 1 4 2 3 3 2 4 1 5 6 6 7 8 8 9 26 10 9 11 25 12 20 13 23 14
REMARK SMILES IDX 21 15 22 16 24 17 10 18 11 20 12 21 18 22 13 23 16 24 14 25
REMARK SMILES IDX 19 26 17 27 15 28
REMARK H PARENT 6 7 10 19
ROOT
ATOM      1  C   UNL     1       1.360  43.393  53.745  1.00  0.00     0.118 C 
ENDROOT
BRANCH   1   2
ATOM      2  C   UNL     1       0.121  44.030  54.370  1.00  0.00     0.050 C 
BRANCH   2   3
ATOM      3  C   UNL     1       0.480  45.307  55.122  1.00  0.00     0.161 C 
BRANCH   3   4
ATOM      4  O   UNL     1       0.838  45.032  56.475  1.00  0.00    -0.385 OA
ATOM      5  C   UNL     1       0.354  46.004  57.394  1.00  0.00     0.194 C 
ENDBRANCH   3   4
ENDBRANCH   2   3
ENDBRANCH   1   2
BRANCH   1   6
ATOM      6  N   UNL     1       2.527  44.194  54.070  1.00  0.00    -0.354 N 
ATOM      7  H   UNL     1       2.345  45.171  54.278  1.00  0.00     0.163 HD
BRANCH   6   8
ATOM      8  C   UNL     1       3.527  44.190  53.105  1.00  0.00     0.226 A 
ATOM      9  N   UNL     1       4.365  45.240  53.010  1.00  0.00    -0.195 NA
ATOM     10  N   UNL     1       3.558  43.096  52.334  1.00  0.00    -0.193 NA
ATOM     11  C   UNL     1       5.352  45.249  52.080  1.00  0.00     0.147 A 
ATOM     12  C   UNL     1       4.508  43.150  51.390  1.00  0.00     0.165 A 
ATOM     13  C   UNL     1       5.419  44.170  51.196  1.00  0.00     0.082 A 
ATOM     14  N   UNL     1       4.768  42.222  50.419  1.00  0.00    -0.250 N 
ATOM     15  C   UNL     1       6.149  43.772  50.057  1.00  0.00     0.149 A 
ATOM     16  N   UNL     1       5.779  42.575  49.592  1.00  0.00    -0.179 NA
ATOM     17  C   UNL     1       4.077  40.975  50.202  1.00  0.00     0.176 C 
BRANCH  11  18
ATOM     18  N   UNL     1       6.168  46.384  52.046  1.00  0.00    -0.337 N 
ATOM     19  H   UNL     1       5.588  47.207  51.892  1.00  0.00     0.168 HD
BRANCH  18  20
ATOM     20  C   UNL     1       7.364  46.692  52.727  1.00  0.00     0.079 A 
ATOM     21  C   UNL     1       7.405  47.187  54.037  1.00  0.00     0.032 A 
ATOM     22  C   UNL     1       8.589  46.439  52.082  1.00  0.00     0.185 A 
ATOM     23  C   UNL     1       8.629  47.424  54.676  1.00  0.00     0.045 A 
ATOM     24  C   UNL     1       9.805  46.673  52.713  1.00  0.00     0.196 A 
ATOM     25  C   UNL     1       9.820  47.163  54.008  1.00  0.00     0.162 A 
ATOM     26  F   UNL     1       8.582  45.969  50.823  1.00  0.00    -0.201 F 
ATOM     27  F   UNL     1      10.955  46.427  52.070  1.00  0.00    -0.200 F 
ATOM     28  F   UNL     1      10.984  47.395  54.630  1.00  0.00    -0.204 F 
ENDBRANCH  18  20
ENDBRANCH  11  18
ENDBRANCH   6   8
ENDBRANCH   1   6
TORSDOF 7
ENDMDL
MODEL 6
REMARK VINA RESULT:    -8.245      1.040      1.621
REMARK INTER + INTRA:         -12.727
REMARK INTER:                 -11.865
REMARK INTRA:                  -0.862
REMARK UNBOUND:                -1.109
REMARK SMILES COCCCNc1nc(Nc2ccc(F)c(F)c2F)c2cnn(C)c2n1
REMARK SMILES IDX 5 1 4 2 3 3 2 4 1 5 6 6 7 8 8 9 26 10 9 11 25 12 20 13 23 14
REMARK SMILES IDX 21 15 22 16 24 17 10 18 11 20 12 21 18 22 13 23 16 24 14 25
REMARK SMILES IDX 19 26 17 27 15 28
REMARK H PARENT 6 7 10 19
ROOT
ATOM      1  C   UNL     1       5.696  41.550  49.909  1.00  0.00     0.118 C 
ENDROOT
BRANCH   1   2
ATOM      2  C   UNL     1       5.115  41.169  48.550  1.00  0.00     0.050 C 
BRANCH   2   3
ATOM      3  C   UNL     1       3.805  40.406  48.707  1.00  0.00     0.161 C 
BRANCH   3   4
ATOM      4  O   UNL     1       3.158  40.214  47.449  1.00  0.00    -0.385 OA
ATOM      5  C   UNL     1       3.000  38.844  47.101  1.00  0.00     0.194 C 
ENDBRANCH   3   4
ENDBRANCH   2   3
ENDBRANCH   1   2
BRANCH   1   6
ATOM      6  N   UNL     1       4.634  41.550  50.902  1.00  0.00    -0.354 N 
ATOM      7  H   UNL     1       3.747  41.163  50.595  1.00  0.00     0.163 HD
BRANCH   6   8
ATOM      8  C   UNL     1       4.341  42.795  51.444  1.00  0.00     0.226 A 
ATOM      9  N   UNL     1       5.183  43.826  51.239  1.00  0.00    -0.195 NA
ATOM     10  N   UNL     1       3.202  42.848  52.145  1.00  0.00    -0.193 NA
ATOM     11  C   UNL     1       4.908  45.051  51.752  1.00  0.00     0.147 A 
ATOM     12  C   UNL     1       2.977  44.054  52.686  1.00  0.00     0.165 A 
ATOM     13  C   UNL     1       3.766  45.178  52.546  1.00  0.00     0.082 A 
ATOM     14  N   UNL     1       1.935  44.421  53.493  1.00  0.00    -0.250 N 
ATOM     15  C   UNL     1       3.130  46.151  53.344  1.00  0.00     0.149 A 
ATOM     16  N   UNL     1       1.999  45.709  53.904  1.00  0.00    -0.179 NA
ATOM     17  C   UNL     1       0.844  43.590  53.935  1.00  0.00     0.176 C 
BRANCH  11  18
ATOM     18  N   UNL     1       5.843  46.059  51.498  1.00  0.00    -0.337 N 
ATOM     19  H   UNL     1       5.369  46.853  51.071  1.00  0.00     0.168 HD
BRANCH  18  20
ATOM     20  C   UNL     1       7.011  46.441  52.189  1.00  0.00     0.079 A 
ATOM     21  C   UNL     1       7.005  46.990  53.478  1.00  0.00     0.032 A 
ATOM     22  C   UNL     1       8.259  46.210  51.579  1.00  0.00     0.185 A 
ATOM     23  C   UNL     1       8.205  47.301  54.130  1.00  0.00     0.045 A 
ATOM     24  C   UNL     1       9.451  46.518  52.224  1.00  0.00     0.196 A 
ATOM     25  C   UNL     1       9.419  47.060  53.498  1.00  0.00     0.162 A 
ATOM     26  F   UNL     1       8.297  45.689  50.341  1.00  0.00    -0.201 F 
ATOM     27  F   UNL     1      10.623  46.291  51.616  1.00  0.00    -0.200 F 
ATOM     28  F   UNL     1      10.560  47.363  54.132  1.00  0.00    -0.204 F 
ENDBRANCH  18  20
ENDBRANCH  11  18
ENDBRANCH   6   8
ENDBRANCH   1   6
TORSDOF 7
ENDMDL
MODEL 7
REMARK VINA RESULT:    -8.210      1.047      1.572
REMARK INTER + INTRA:         -12.679
REMARK INTER:                 -11.428
REMARK INTRA:                  -1.251
REMARK UNBOUND:                -1.109
REMARK SMILES COCCCNc1nc(Nc2ccc(F)c(F)c2F)c2cnn(C)c2n1
REMARK SMILES IDX 5 1 4 2 3 3 2 4 1 5 6 6 7 8 8 9 26 10 9 11 25 12 20 13 23 14
REMARK SMILES IDX 21 15 22 16 24 17 10 18 11 20 12 21 18 22 13 23 16 24 14 25
REMARK SMILES IDX 19 26 17 27 15 28
REMARK H PARENT 6 7 10 19
ROOT
ATOM      1  C   UNL     1       3.521  41.166  50.016  1.00  0.00     0.118 C 
ENDROOT
BRANCH   1   2
ATOM      2  C   UNL     1       4.405  40.874  48.806  1.00  0.00     0.050 C 
BRANCH   2   3
ATOM      3  C   UNL     1       5.859  41.235  49.090  1.00  0.00     0.161 C 
BRANCH   3   4
ATOM      4  O   UNL     1       6.172  42.546  48.622  1.00  0.00    -0.385 OA
ATOM      5  C   UNL     1       7.336  43.097  49.226  1.00  0.00     0.194 C 
ENDBRANCH   3   4
ENDBRANCH   2   3
ENDBRANCH   1   2
BRANCH   1   6
ATOM      6  N   UNL     1       4.351  41.615  51.121  1.00  0.00    -0.354 N 
ATOM      7  H   UNL     1       4.403  40.983  51.914  1.00  0.00     0.163 HD
BRANCH   6   8
ATOM      8  C   UNL     1       4.009  42.856  51.643  1.00  0.00     0.226 A 
ATOM      9  N   UNL     1       4.811  43.916  51.420  1.00  0.00    -0.195 NA
ATOM     10  N   UNL     1       2.869  42.876  52.344  1.00  0.00    -0.193 NA
ATOM     11  C   UNL     1       4.488  45.137  51.913  1.00  0.00     0.147 A 
ATOM     12  C   UNL     1       2.597  44.081  52.865  1.00  0.00     0.165 A 
ATOM     13  C   UNL     1       3.342  45.233  52.706  1.00  0.00     0.082 A 
ATOM     14  N   UNL     1       1.542  44.420  53.667  1.00  0.00    -0.250 N 
ATOM     15  C   UNL     1       2.669  46.193  53.489  1.00  0.00     0.149 A 
ATOM     16  N   UNL     1       1.556  45.716  54.056  1.00  0.00    -0.179 NA
ATOM     17  C   UNL     1       0.484  43.554  54.124  1.00  0.00     0.176 C 
BRANCH  11  18
ATOM     18  N   UNL     1       5.383  46.177  51.642  1.00  0.00    -0.337 N 
ATOM     19  H   UNL     1       4.861  47.045  51.533  1.00  0.00     0.168 HD
BRANCH  18  20
ATOM     20  C   UNL     1       6.709  46.398  52.066  1.00  0.00     0.079 A 
ATOM     21  C   UNL     1       7.832  46.136  51.270  1.00  0.00     0.032 A 
ATOM     22  C   UNL     1       6.923  46.965  53.336  1.00  0.00     0.185 A 
ATOM     23  C   UNL     1       9.122  46.426  51.731  1.00  0.00     0.045 A 
ATOM     24  C   UNL     1       8.202  47.255  53.797  1.00  0.00     0.196 A 
ATOM     25  C   UNL     1       9.297  46.986  52.991  1.00  0.00     0.162 A 
ATOM     26  F   UNL     1       5.867  47.223  54.125  1.00  0.00    -0.201 F 
ATOM     27  F   UNL     1       8.375  47.789  55.014  1.00  0.00    -0.200 F 
ATOM     28  F   UNL     1      10.536  47.258  53.422  1.00  0.00    -0.204 F 
ENDBRANCH  18  20
ENDBRANCH  11  18
ENDBRANCH   6   8
ENDBRANCH   1   6
TORSDOF 7
ENDMDL
MODEL 8
REMARK VINA RESULT:    -8.071      2.161      4.605
REMARK INTER + INTRA:         -12.482
REMARK INTER:                 -11.322
REMARK INTRA:                  -1.160
REMARK UNBOUND:                -1.109
REMARK SMILES COCCCNc1nc(Nc2ccc(F)c(F)c2F)c2cnn(C)c2n1
REMARK SMILES IDX 5 1 4 2 3 3 2 4 1 5 6 6 7 8 8 9 26 10 9 11 25 12 20 13 23 14
REMARK SMILES IDX 21 15 22 16 24 17 10 18 11 20 12 21 18 22 13 23 16 24 14 25
REMARK SMILES IDX 19 26 17 27 15 28
REMARK H PARENT 6 7 10 19
ROOT
ATOM      1  C   UNL     1       2.405  46.044  53.476  1.00  0.00     0.118 C 
ENDROOT
BRANCH   1   2
ATOM      2  C   UNL     1       1.962  44.961  54.457  1.00  0.00     0.050 C 
BRANCH   2   3
ATOM      3  C   UNL     1       0.466  44.693  54.340  1.00  0.00     0.161 C 
BRANCH   3   4
ATOM      4  O   UNL     1       0.185  43.730  53.324  1.00  0.00    -0.385 OA
ATOM      5  C   UNL     1       0.860  42.493  53.519  1.00  0.00     0.194 C 
ENDBRANCH   3   4
ENDBRANCH   2   3
ENDBRANCH   1   2
BRANCH   1   6
ATOM      6  N   UNL     1       2.314  45.529  52.120  1.00  0.00    -0.354 N 
ATOM      7  H   UNL     1       1.606  44.819  51.967  1.00  0.00     0.163 HD
BRANCH   6   8
ATOM      8  C   UNL     1       3.497  45.004  51.614  1.00  0.00     0.226 A 
ATOM      9  N   UNL     1       4.593  45.783  51.539  1.00  0.00    -0.195 NA
ATOM     10  N   UNL     1       3.425  43.722  51.236  1.00  0.00    -0.193 NA
ATOM     11  C   UNL     1       5.759  45.285  51.057  1.00  0.00     0.147 A 
ATOM     12  C   UNL     1       4.574  43.266  50.715  1.00  0.00     0.165 A 
ATOM     13  C   UNL     1       5.755  43.970  50.587  1.00  0.00     0.082 A 
ATOM     14  N   UNL     1       4.815  42.024  50.194  1.00  0.00    -0.250 N 
ATOM     15  C   UNL     1       6.627  43.071  49.938  1.00  0.00     0.149 A 
ATOM     16  N   UNL     1       6.072  41.874  49.718  1.00  0.00    -0.179 NA
ATOM     17  C   UNL     1       3.884  40.928  50.097  1.00  0.00     0.176 C 
BRANCH  11  18
ATOM     18  N   UNL     1       6.842  46.167  51.006  1.00  0.00    -0.337 N 
ATOM     19  H   UNL     1       6.564  47.007  50.499  1.00  0.00     0.168 HD
BRANCH  18  20
ATOM     20  C   UNL     1       7.885  46.415  51.921  1.00  0.00     0.079 A 
ATOM     21  C   UNL     1       9.225  46.088  51.677  1.00  0.00     0.032 A 
ATOM     22  C   UNL     1       7.580  47.077  53.125  1.00  0.00     0.185 A 
ATOM     23  C   UNL     1      10.223  46.408  52.607  1.00  0.00     0.045 A 
ATOM     24  C   UNL     1       8.567  47.396  54.050  1.00  0.00     0.196 A 
ATOM     25  C   UNL     1       9.885  47.062  53.786  1.00  0.00     0.162 A 
ATOM     26  F   UNL     1       6.302  47.399  53.391  1.00  0.00    -0.201 F 
ATOM     27  F   UNL     1       8.244  48.021  55.191  1.00  0.00    -0.200 F 
ATOM     28  F   UNL     1      10.848  47.362  54.669  1.00  0.00    -0.204 F 
ENDBRANCH  18  20
ENDBRANCH  11  18
ENDBRANCH   6   8
ENDBRANCH   1   6
TORSDOF 7
ENDMDL
MODEL 9
REMARK VINA RESULT:    -7.996      1.431      2.203
REMARK INTER + INTRA:         -12.377
REMARK INTER:                 -11.477
REMARK INTRA:                  -0.900
REMARK UNBOUND:                -1.109
REMARK SMILES COCCCNc1nc(Nc2ccc(F)c(F)c2F)c2cnn(C)c2n1
REMARK SMILES IDX 5 1 4 2 3 3 2 4 1 5 6 6 7 8 8 9 26 10 9 11 25 12 20 13 23 14
REMARK SMILES IDX 21 15 22 16 24 17 10 18 11 20 12 21 18 22 13 23 16 24 14 25
REMARK SMILES IDX 19 26 17 27 15 28
REMARK H PARENT 6 7 10 19
ROOT
ATOM      1  C   UNL     1       5.573  41.576  50.059  1.00  0.00     0.118 C 
ENDROOT
BRANCH   1   2
ATOM      2  C   UNL     1       5.085  41.178  48.669  1.00  0.00     0.050 C 
BRANCH   2   3
ATOM      3  C   UNL     1       3.748  40.449  48.745  1.00  0.00     0.161 C 
BRANCH   3   4
ATOM      4  O   UNL     1       3.066  40.477  47.492  1.00  0.00    -0.385 OA
ATOM      5  C   UNL     1       3.094  39.230  46.808  1.00  0.00     0.194 C 
ENDBRANCH   3   4
ENDBRANCH   2   3
ENDBRANCH   1   2
BRANCH   1   6
ATOM      6  N   UNL     1       4.454  41.557  50.985  1.00  0.00    -0.354 N 
ATOM      7  H   UNL     1       3.593  41.156  50.625  1.00  0.00     0.163 HD
BRANCH   6   8
ATOM      8  C   UNL     1       4.107  42.796  51.509  1.00  0.00     0.226 A 
ATOM      9  N   UNL     1       4.908  43.858  51.294  1.00  0.00    -0.195 NA
ATOM     10  N   UNL     1       2.963  42.812  52.204  1.00  0.00    -0.193 NA
ATOM     11  C   UNL     1       4.581  45.078  51.790  1.00  0.00     0.147 A 
ATOM     12  C   UNL     1       2.687  44.015  52.727  1.00  0.00     0.165 A 
ATOM     13  C   UNL     1       3.431  45.169  52.576  1.00  0.00     0.082 A 
ATOM     14  N   UNL     1       1.627  44.351  53.524  1.00  0.00    -0.250 N 
ATOM     15  C   UNL     1       2.752  46.126  53.358  1.00  0.00     0.149 A 
ATOM     16  N   UNL     1       1.636  45.646  53.918  1.00  0.00    -0.179 NA
ATOM     17  C   UNL     1       0.567  43.482  53.972  1.00  0.00     0.176 C 
BRANCH  11  18
ATOM     18  N   UNL     1       5.476  46.119  51.527  1.00  0.00    -0.337 N 
ATOM     19  H   UNL     1       4.951  46.980  51.380  1.00  0.00     0.168 HD
BRANCH  18  20
ATOM     20  C   UNL     1       6.784  46.362  51.993  1.00  0.00     0.079 A 
ATOM     21  C   UNL     1       7.937  46.095  51.243  1.00  0.00     0.032 A 
ATOM     22  C   UNL     1       6.948  46.957  53.258  1.00  0.00     0.185 A 
ATOM     23  C   UNL     1       9.207  46.408  51.744  1.00  0.00     0.045 A 
ATOM     24  C   UNL     1       8.206  47.269  53.758  1.00  0.00     0.196 A 
ATOM     25  C   UNL     1       9.332  46.995  52.998  1.00  0.00     0.162 A 
ATOM     26  F   UNL     1       5.861  47.220  54.004  1.00  0.00    -0.201 F 
ATOM     27  F   UNL     1       8.330  47.830  54.969  1.00  0.00    -0.200 F 
ATOM     28  F   UNL     1      10.552  47.289  53.466  1.00  0.00    -0.204 F 
ENDBRANCH  18  20
ENDBRANCH  11  18
ENDBRANCH   6   8
ENDBRANCH   1   6
TORSDOF 7
ENDMDL
MODEL 10
REMARK VINA RESULT:    -7.987      3.537      5.925
REMARK INTER + INTRA:         -12.364
REMARK INTER:                 -11.623
REMARK INTRA:                  -0.741
REMARK UNBOUND:                -1.109
REMARK SMILES COCCCNc1nc(Nc2ccc(F)c(F)c2F)c2cnn(C)c2n1
REMARK SMILES IDX 5 1 4 2 3 3 2 4 1 5 6 6 7 8 8 9 26 10 9 11 25 12 20 13 23 14
REMARK SMILES IDX 21 15 22 16 24 17 10 18 11 20 12 21 18 22 13 23 16 24 14 25
REMARK SMILES IDX 19 26 17 27 15 28
REMARK H PARENT 6 7 10 19
ROOT
ATOM      1  C   UNL     1       1.195  45.471  56.654  1.00  0.00     0.118 C 
ENDROOT
BRANCH   1   2
ATOM      2  C   UNL     1       0.391  46.446  57.510  1.00  0.00     0.050 C 
BRANCH   2   3
ATOM      3  C   UNL     1       1.197  46.909  58.718  1.00  0.00     0.161 C 
BRANCH   3   4
ATOM      4  O   UNL     1       0.545  47.979  59.402  1.00  0.00    -0.385 OA
ATOM      5  C   UNL     1      -0.831  48.106  59.067  1.00  0.00     0.194 C 
ENDBRANCH   3   4
ENDBRANCH   2   3
ENDBRANCH   1   2
BRANCH   1   6
ATOM      6  N   UNL     1       2.534  45.999  56.454  1.00  0.00    -0.354 N 
ATOM      7  H   UNL     1       2.639  46.997  56.607  1.00  0.00     0.163 HD
BRANCH   6   8
ATOM      8  C   UNL     1       3.082  45.745  55.203  1.00  0.00     0.226 A 
ATOM      9  N   UNL     1       4.105  46.500  54.758  1.00  0.00    -0.195 NA
ATOM     10  N   UNL     1       2.515  44.732  54.537  1.00  0.00    -0.193 NA
ATOM     11  C   UNL     1       4.659  46.261  53.544  1.00  0.00     0.147 A 
ATOM     12  C   UNL     1       3.044  44.547  53.319  1.00  0.00     0.165 A 
ATOM     13  C   UNL     1       4.088  45.256  52.759  1.00  0.00     0.082 A 
ATOM     14  N   UNL     1       2.659  43.634  52.376  1.00  0.00    -0.250 N 
ATOM     15  C   UNL     1       4.220  44.717  51.462  1.00  0.00     0.149 A 
ATOM     16  N   UNL     1       3.372  43.709  51.228  1.00  0.00    -0.179 NA
ATOM     17  C   UNL     1       1.599  42.662  52.489  1.00  0.00     0.176 C 
BRANCH  11  18
ATOM     18  N   UNL     1       5.709  47.100  53.159  1.00  0.00    -0.337 N 
ATOM     19  H   UNL     1       5.624  47.987  53.653  1.00  0.00     0.168 HD
BRANCH  18  20
ATOM     20  C   UNL     1       7.040  46.817  52.791  1.00  0.00     0.079 A 
ATOM     21  C   UNL     1       7.413  46.366  51.518  1.00  0.00     0.032 A 
ATOM     22  C   UNL     1       8.062  47.051  53.730  1.00  0.00     0.185 A 
ATOM     23  C   UNL     1       8.760  46.153  51.199  1.00  0.00     0.045 A 
ATOM     24  C   UNL     1       9.399  46.840  53.417  1.00  0.00     0.196 A 
ATOM     25  C   UNL     1       9.744  46.393  52.152  1.00  0.00     0.162 A 
ATOM     26  F   UNL     1       7.735  47.479  54.961  1.00  0.00    -0.201 F 
ATOM     27  F   UNL     1      10.349  47.066  54.335  1.00  0.00    -0.200 F 
ATOM     28  F   UNL     1      11.029  46.184  51.836  1.00  0.00    -0.204 F 
ENDBRANCH  18  20
ENDBRANCH  11  18
ENDBRANCH   6   8
ENDBRANCH   1   6
TORSDOF 7
ENDMDL
MODEL 11
REMARK VINA RESULT:    -7.817      4.004      7.417
REMARK INTER + INTRA:         -12.125
REMARK INTER:                 -11.286
REMARK INTRA:                  -0.839
REMARK UNBOUND:                -1.109
REMARK SMILES COCCCNc1nc(Nc2ccc(F)c(F)c2F)c2cnn(C)c2n1
REMARK SMILES IDX 5 1 4 2 3 3 2 4 1 5 6 6 7 8 8 9 26 10 9 11 25 12 20 13 23 14
REMARK SMILES IDX 21 15 22 16 24 17 10 18 11 20 12 21 18 22 13 23 16 24 14 25
REMARK SMILES IDX 19 26 17 27 15 28
REMARK H PARENT 6 7 10 19
ROOT
ATOM      1  C   UNL     1       7.701  46.582  51.448  1.00  0.00     0.118 C 
ENDROOT
BRANCH   1   2
ATOM      2  C   UNL     1       9.055  47.289  51.463  1.00  0.00     0.050 C 
BRANCH   2   3
ATOM      3  C   UNL     1       9.867  46.889  52.690  1.00  0.00     0.161 C 
BRANCH   3   4
ATOM      4  O   UNL     1       9.509  47.668  53.830  1.00  0.00    -0.385 OA
ATOM      5  C   UNL     1      10.211  47.296  55.010  1.00  0.00     0.194 C 
ENDBRANCH   3   4
ENDBRANCH   2   3
ENDBRANCH   1   2
BRANCH   1   6
ATOM      6  N   UNL     1       7.694  45.582  50.393  1.00  0.00    -0.354 N 
ATOM      7  H   UNL     1       7.579  45.940  49.450  1.00  0.00     0.163 HD
BRANCH   6   8
ATOM      8  C   UNL     1       6.738  44.584  50.541  1.00  0.00     0.226 A 
ATOM      9  N   UNL     1       6.732  43.538  49.693  1.00  0.00    -0.195 NA
ATOM     10  N   UNL     1       5.885  44.770  51.555  1.00  0.00    -0.193 NA
ATOM     11  C   UNL     1       5.813  42.549  49.828  1.00  0.00     0.147 A 
ATOM     12  C   UNL     1       4.954  43.808  51.637  1.00  0.00     0.165 A 
ATOM     13  C   UNL     1       4.848  42.695  50.827  1.00  0.00     0.082 A 
ATOM     14  N   UNL     1       3.915  43.730  52.524  1.00  0.00    -0.250 N 
ATOM     15  C   UNL     1       3.687  42.039  51.286  1.00  0.00     0.149 A 
ATOM     16  N   UNL     1       3.127  42.647  52.337  1.00  0.00    -0.179 NA
ATOM     17  C   UNL     1       3.597  44.667  53.572  1.00  0.00     0.176 C 
BRANCH  11  18
ATOM     18  N   UNL     1       5.874  41.508  48.897  1.00  0.00    -0.337 N 
ATOM     19  H   UNL     1       6.016  40.628  49.390  1.00  0.00     0.168 HD
BRANCH  18  20
ATOM     20  C   UNL     1       5.228  41.329  47.656  1.00  0.00     0.079 A 
ATOM     21  C   UNL     1       5.693  41.877  46.454  1.00  0.00     0.032 A 
ATOM     22  C   UNL     1       4.084  40.511  47.606  1.00  0.00     0.185 A 
ATOM     23  C   UNL     1       5.033  41.619  45.245  1.00  0.00     0.045 A 
ATOM     24  C   UNL     1       3.427  40.253  46.409  1.00  0.00     0.196 A 
ATOM     25  C   UNL     1       3.905  40.806  45.233  1.00  0.00     0.162 A 
ATOM     26  F   UNL     1       3.610  39.976  48.744  1.00  0.00    -0.201 F 
ATOM     27  F   UNL     1       2.336  39.475  46.394  1.00  0.00    -0.200 F 
ATOM     28  F   UNL     1       3.282  40.568  44.071  1.00  0.00    -0.204 F 
ENDBRANCH  18  20
ENDBRANCH  11  18
ENDBRANCH   6   8
ENDBRANCH   1   6
TORSDOF 7
ENDMDL
MODEL 12
REMARK VINA RESULT:    -7.817      3.436      6.782
REMARK INTER + INTRA:         -12.124
REMARK INTER:                 -11.211
REMARK INTRA:                  -0.914
REMARK UNBOUND:                -1.109
REMARK SMILES COCCCNc1nc(Nc2ccc(F)c(F)c2F)c2cnn(C)c2n1
REMARK SMILES IDX 5 1 4 2 3 3 2 4 1 5 6 6 7 8 8 9 26 10 9 11 25 12 20 13 23 14
REMARK SMILES IDX 21 15 22 16 24 17 10 18 11 20 12 21 18 22 13 23 16 24 14 25
REMARK SMILES IDX 19 26 17 27 15 28
REMARK H PARENT 6 7 10 19
ROOT
ATOM      1  C   UNL     1       3.719  46.900  54.680  1.00  0.00     0.118 C 
ENDROOT
BRANCH   1   2
ATOM      2  C   UNL     1       3.266  45.556  55.246  1.00  0.00     0.050 C 
BRANCH   2   3
ATOM      3  C   UNL     1       2.124  44.971  54.423  1.00  0.00     0.161 C 
BRANCH   3   4
ATOM      4  O   UNL     1       1.192  44.270  55.245  1.00  0.00    -0.385 OA
ATOM      5  C   UNL     1       0.147  45.097  55.743  1.00  0.00     0.194 C 
ENDBRANCH   3   4
ENDBRANCH   2   3
ENDBRANCH   1   2
BRANCH   1   6
ATOM      6  N   UNL     1       5.029  47.229  55.215  1.00  0.00    -0.354 N 
ATOM      7  H   UNL     1       5.135  48.178  55.562  1.00  0.00     0.163 HD
BRANCH   6   8
ATOM      8  C   UNL     1       6.088  47.022  54.340  1.00  0.00     0.226 A 
ATOM      9  N   UNL     1       5.842  46.586  53.089  1.00  0.00    -0.195 NA
ATOM     10  N   UNL     1       7.297  47.289  54.848  1.00  0.00    -0.193 NA
ATOM     11  C   UNL     1       6.862  46.388  52.217  1.00  0.00     0.147 A 
ATOM     12  C   UNL     1       8.293  47.036  53.986  1.00  0.00     0.165 A 
ATOM     13  C   UNL     1       8.162  46.588  52.687  1.00  0.00     0.082 A 
ATOM     14  N   UNL     1       9.637  47.156  54.212  1.00  0.00    -0.250 N 
ATOM     15  C   UNL     1       9.490  46.431  52.238  1.00  0.00     0.149 A 
ATOM     16  N   UNL     1      10.396  46.800  53.150  1.00  0.00    -0.179 NA
ATOM     17  C   UNL     1      10.278  47.587  55.429  1.00  0.00     0.176 C 
BRANCH  11  18
ATOM     18  N   UNL     1       6.516  45.924  50.945  1.00  0.00    -0.337 N 
ATOM     19  H   UNL     1       6.810  46.608  50.249  1.00  0.00     0.168 HD
BRANCH  18  20
ATOM     20  C   UNL     1       6.447  44.619  50.416  1.00  0.00     0.079 A 
ATOM     21  C   UNL     1       7.408  44.081  49.550  1.00  0.00     0.032 A 
ATOM     22  C   UNL     1       5.386  43.786  50.819  1.00  0.00     0.185 A 
ATOM     23  C   UNL     1       7.308  42.758  49.101  1.00  0.00     0.045 A 
ATOM     24  C   UNL     1       5.284  42.473  50.375  1.00  0.00     0.196 A 
ATOM     25  C   UNL     1       6.247  41.963  49.519  1.00  0.00     0.162 A 
ATOM     26  F   UNL     1       4.446  44.274  51.645  1.00  0.00    -0.201 F 
ATOM     27  F   UNL     1       4.260  41.705  50.772  1.00  0.00    -0.200 F 
ATOM     28  F   UNL     1       6.162  40.700  49.081  1.00  0.00    -0.204 F 
ENDBRANCH  18  20
ENDBRANCH  11  18
ENDBRANCH   6   8
ENDBRANCH   1   6
TORSDOF 7
ENDMDL
MODEL 13
REMARK VINA RESULT:    -7.804      2.822      5.367
REMARK INTER + INTRA:         -12.107
REMARK INTER:                 -11.582
REMARK INTRA:                  -0.525
REMARK UNBOUND:                -1.109
REMARK SMILES COCCCNc1nc(Nc2ccc(F)c(F)c2F)c2cnn(C)c2n1
REMARK SMILES IDX 5 1 4 2 3 3 2 4 1 5 6 6 7 8 8 9 26 10 9 11 25 12 20 13 23 14
REMARK SMILES IDX 21 15 22 16 24 17 10 18 11 20 12 21 18 22 13 23 16 24 14 25
REMARK SMILES IDX 19 26 17 27 15 28
REMARK H PARENT 6 7 10 19
ROOT
ATOM      1  C   UNL     1       5.318  45.595  55.307  1.00  0.00     0.118 C 
ENDROOT
BRANCH   1   2
ATOM      2  C   UNL     1       5.831  46.834  54.576  1.00  0.00     0.050 C 
BRANCH   2   3
ATOM      3  C   UNL     1       7.274  46.645  54.123  1.00  0.00     0.161 C 
BRANCH   3   4
ATOM      4  O   UNL     1       8.158  47.528  54.813  1.00  0.00    -0.385 OA
ATOM      5  C   UNL     1       9.443  47.623  54.211  1.00  0.00     0.194 C 
ENDBRANCH   3   4
ENDBRANCH   2   3
ENDBRANCH   1   2
BRANCH   1   6
ATOM      6  N   UNL     1       3.932  45.803  55.689  1.00  0.00    -0.354 N 
ATOM      7  H   UNL     1       3.719  45.644  56.669  1.00  0.00     0.163 HD
BRANCH   6   8
ATOM      8  C   UNL     1       3.009  45.053  54.972  1.00  0.00     0.226 A 
ATOM      9  N   UNL     1       3.378  44.475  53.812  1.00  0.00    -0.195 NA
ATOM     10  N   UNL     1       1.794  44.975  55.528  1.00  0.00    -0.193 NA
ATOM     11  C   UNL     1       2.493  43.731  53.102  1.00  0.00     0.147 A 
ATOM     12  C   UNL     1       0.922  44.279  54.784  1.00  0.00     0.165 A 
ATOM     13  C   UNL     1       1.186  43.647  53.585  1.00  0.00     0.082 A 
ATOM     14  N   UNL     1      -0.402  44.058  55.046  1.00  0.00    -0.250 N 
ATOM     15  C   UNL     1      -0.060  43.115  53.192  1.00  0.00     0.149 A 
ATOM     16  N   UNL     1      -1.028  43.336  54.088  1.00  0.00    -0.179 NA
ATOM     17  C   UNL     1      -1.152  44.523  56.186  1.00  0.00     0.176 C 
BRANCH  11  18
ATOM     18  N   UNL     1       2.960  43.178  51.906  1.00  0.00    -0.337 N 
ATOM     19  H   UNL     1       2.174  43.046  51.271  1.00  0.00     0.168 HD
BRANCH  18  20
ATOM     20  C   UNL     1       4.181  43.338  51.221  1.00  0.00     0.079 A 
ATOM     21  C   UNL     1       4.804  44.578  51.024  1.00  0.00     0.032 A 
ATOM     22  C   UNL     1       4.846  42.189  50.753  1.00  0.00     0.185 A 
ATOM     23  C   UNL     1       6.044  44.664  50.379  1.00  0.00     0.045 A 
ATOM     24  C   UNL     1       6.076  42.270  50.112  1.00  0.00     0.196 A 
ATOM     25  C   UNL     1       6.672  43.508  49.930  1.00  0.00     0.162 A 
ATOM     26  F   UNL     1       4.272  40.986  50.922  1.00  0.00    -0.201 F 
ATOM     27  F   UNL     1       6.682  41.158  49.673  1.00  0.00    -0.200 F 
ATOM     28  F   UNL     1       7.857  43.602  49.313  1.00  0.00    -0.204 F 
ENDBRANCH  18  20
ENDBRANCH  11  18
ENDBRANCH   6   8
ENDBRANCH   1   6
TORSDOF 7
ENDMDL
MODEL 14
REMARK VINA RESULT:    -7.714      3.255      5.942
REMARK INTER + INTRA:         -11.979
REMARK INTER:                 -10.521
REMARK INTRA:                  -1.458
REMARK UNBOUND:                -1.109
REMARK SMILES COCCCNc1nc(Nc2ccc(F)c(F)c2F)c2cnn(C)c2n1
REMARK SMILES IDX 5 1 4 2 3 3 2 4 1 5 6 6 7 8 8 9 26 10 9 11 25 12 20 13 23 14
REMARK SMILES IDX 21 15 22 16 24 17 10 18 11 20 12 21 18 22 13 23 16 24 14 25
REMARK SMILES IDX 19 26 17 27 15 28
REMARK H PARENT 6 7 10 19
ROOT
ATOM      1  C   UNL     1       6.453  42.359  50.027  1.00  0.00     0.118 C 
ENDROOT
BRANCH   1   2
ATOM      2  C   UNL     1       5.372  41.424  49.492  1.00  0.00     0.050 C 
BRANCH   2   3
ATOM      3  C   UNL     1       4.251  41.243  50.509  1.00  0.00     0.161 C 
BRANCH   3   4
ATOM      4  O   UNL     1       3.664  42.493  50.867  1.00  0.00    -0.385 OA
ATOM      5  C   UNL     1       3.410  42.617  52.261  1.00  0.00     0.194 C 
ENDBRANCH   3   4
ENDBRANCH   2   3
ENDBRANCH   1   2
BRANCH   1   6
ATOM      6  N   UNL     1       6.236  43.696  49.500  1.00  0.00    -0.354 N 
ATOM      7  H   UNL     1       6.780  43.936  48.677  1.00  0.00     0.163 HD
BRANCH   6   8
ATOM      8  C   UNL     1       6.445  44.725  50.409  1.00  0.00     0.226 A 
ATOM      9  N   UNL     1       5.388  45.347  50.966  1.00  0.00    -0.195 NA
ATOM     10  N   UNL     1       7.731  45.005  50.653  1.00  0.00    -0.193 NA
ATOM     11  C   UNL     1       5.573  46.348  51.863  1.00  0.00     0.147 A 
ATOM     12  C   UNL     1       7.890  46.031  51.503  1.00  0.00     0.165 A 
ATOM     13  C   UNL     1       6.886  46.742  52.130  1.00  0.00     0.082 A 
ATOM     14  N   UNL     1       9.067  46.593  51.916  1.00  0.00    -0.250 N 
ATOM     15  C   UNL     1       7.569  47.735  52.863  1.00  0.00     0.149 A 
ATOM     16  N   UNL     1       8.899  47.636  52.761  1.00  0.00    -0.179 NA
ATOM     17  C   UNL     1      10.399  46.200  51.530  1.00  0.00     0.176 C 
BRANCH  11  18
ATOM     18  N   UNL     1       4.420  46.944  52.381  1.00  0.00    -0.337 N 
ATOM     19  H   UNL     1       4.273  47.840  51.919  1.00  0.00     0.168 HD
BRANCH  18  20
ATOM     20  C   UNL     1       3.218  46.385  52.861  1.00  0.00     0.079 A 
ATOM     21  C   UNL     1       2.064  46.240  52.080  1.00  0.00     0.032 A 
ATOM     22  C   UNL     1       3.185  45.892  54.179  1.00  0.00     0.185 A 
ATOM     23  C   UNL     1       0.917  45.628  52.601  1.00  0.00     0.045 A 
ATOM     24  C   UNL     1       2.048  45.285  54.699  1.00  0.00     0.196 A 
ATOM     25  C   UNL     1       0.919  45.153  53.908  1.00  0.00     0.162 A 
ATOM     26  F   UNL     1       4.274  46.021  54.954  1.00  0.00    -0.201 F 
ATOM     27  F   UNL     1       2.045  44.830  55.960  1.00  0.00    -0.200 F 
ATOM     28  F   UNL     1      -0.184  44.571  54.396  1.00  0.00    -0.204 F 
ENDBRANCH  18  20
ENDBRANCH  11  18
ENDBRANCH   6   8
ENDBRANCH   1   6
TORSDOF 7
ENDMDL
MODEL 15
REMARK VINA RESULT:    -7.637      2.099      2.807
REMARK INTER + INTRA:         -11.870
REMARK INTER:                 -11.141
REMARK INTRA:                  -0.730
REMARK UNBOUND:                -1.109
REMARK SMILES COCCCNc1nc(Nc2ccc(F)c(F)c2F)c2cnn(C)c2n1
REMARK SMILES IDX 5 1 4 2 3 3 2 4 1 5 6 6 7 8 8 9 26 10 9 11 25 12 20 13 23 14
REMARK SMILES IDX 21 15 22 16 24 17 10 18 11 20 12 21 18 22 13 23 16 24 14 25
REMARK SMILES IDX 19 26 17 27 15 28
REMARK H PARENT 6 7 10 19
ROOT
ATOM      1  C   UNL     1       5.218  41.158  48.293  1.00  0.00     0.118 C 
ENDROOT
BRANCH   1   2
ATOM      2  C   UNL     1       5.103  41.565  46.826  1.00  0.00     0.050 C 
BRANCH   2   3
ATOM      3  C   UNL     1       4.035  40.744  46.112  1.00  0.00     0.161 C 
BRANCH   3   4
ATOM      4  O   UNL     1       4.128  40.885  44.695  1.00  0.00    -0.385 OA
ATOM      5  C   UNL     1       5.442  40.674  44.193  1.00  0.00     0.194 C 
ENDBRANCH   3   4
ENDBRANCH   2   3
ENDBRANCH   1   2
BRANCH   1   6
ATOM      6  N   UNL     1       6.291  41.914  48.918  1.00  0.00    -0.354 N 
ATOM      7  H   UNL     1       7.000  41.361  49.388  1.00  0.00     0.163 HD
BRANCH   6   8
ATOM      8  C   UNL     1       5.875  42.866  49.840  1.00  0.00     0.226 A 
ATOM      9  N   UNL     1       6.602  43.986  50.014  1.00  0.00    -0.195 NA
ATOM     10  N   UNL     1       4.745  42.562  50.490  1.00  0.00    -0.193 NA
ATOM     11  C   UNL     1       6.206  44.931  50.903  1.00  0.00     0.147 A 
ATOM     12  C   UNL     1       4.401  43.485  51.400  1.00  0.00     0.165 A 
ATOM     13  C   UNL     1       5.067  44.665  51.666  1.00  0.00     0.082 A 
ATOM     14  N   UNL     1       3.337  43.450  52.258  1.00  0.00    -0.250 N 
ATOM     15  C   UNL     1       4.342  45.242  52.730  1.00  0.00     0.149 A 
ATOM     16  N   UNL     1       3.270  44.523  53.080  1.00  0.00    -0.179 NA
ATOM     17  C   UNL     1       2.344  42.410  52.368  1.00  0.00     0.176 C 
BRANCH  11  18
ATOM     18  N   UNL     1       7.027  46.056  51.026  1.00  0.00    -0.337 N 
ATOM     19  H   UNL     1       6.516  46.878  50.710  1.00  0.00     0.168 HD
BRANCH  18  20
ATOM     20  C   UNL     1       8.032  46.378  51.962  1.00  0.00     0.079 A 
ATOM     21  C   UNL     1       9.389  46.087  51.773  1.00  0.00     0.032 A 
ATOM     22  C   UNL     1       7.666  47.079  53.126  1.00  0.00     0.185 A 
ATOM     23  C   UNL     1      10.345  46.480  52.719  1.00  0.00     0.045 A 
ATOM     24  C   UNL     1       8.612  47.470  54.066  1.00  0.00     0.196 A 
ATOM     25  C   UNL     1       9.949  47.171  53.858  1.00  0.00     0.162 A 
ATOM     26  F   UNL     1       6.371  47.368  53.338  1.00  0.00    -0.201 F 
ATOM     27  F   UNL     1       8.233  48.132  55.169  1.00  0.00    -0.200 F 
ATOM     28  F   UNL     1      10.872  47.540  54.756  1.00  0.00    -0.204 F 
ENDBRANCH  18  20
ENDBRANCH  11  18
ENDBRANCH   6   8
ENDBRANCH   1   6
TORSDOF 7
ENDMDL
MODEL 16
REMARK VINA RESULT:    -7.634      3.211      5.936
REMARK INTER + INTRA:         -11.867
REMARK INTER:                 -10.492
REMARK INTRA:                  -1.375
REMARK UNBOUND:                -1.109
REMARK SMILES COCCCNc1nc(Nc2ccc(F)c(F)c2F)c2cnn(C)c2n1
REMARK SMILES IDX 5 1 4 2 3 3 2 4 1 5 6 6 7 8 8 9 26 10 9 11 25 12 20 13 23 14
REMARK SMILES IDX 21 15 22 16 24 17 10 18 11 20 12 21 18 22 13 23 16 24 14 25
REMARK SMILES IDX 19 26 17 27 15 28
REMARK H PARENT 6 7 10 19
ROOT
ATOM      1  C   UNL     1       6.684  42.607  49.937  1.00  0.00     0.118 C 
ENDROOT
BRANCH   1   2
ATOM      2  C   UNL     1       5.618  41.624  49.458  1.00  0.00     0.050 C 
BRANCH   2   3
ATOM      3  C   UNL     1       4.577  41.373  50.544  1.00  0.00     0.161 C 
BRANCH   3   4
ATOM      4  O   UNL     1       3.853  42.562  50.858  1.00  0.00    -0.385 OA
ATOM      5  C   UNL     1       3.554  42.689  52.243  1.00  0.00     0.194 C 
ENDBRANCH   3   4
ENDBRANCH   2   3
ENDBRANCH   1   2
BRANCH   1   6
ATOM      6  N   UNL     1       6.255  43.963  49.640  1.00  0.00    -0.354 N 
ATOM      7  H   UNL     1       6.588  44.346  48.761  1.00  0.00     0.163 HD
BRANCH   6   8
ATOM      8  C   UNL     1       6.574  44.903  50.612  1.00  0.00     0.226 A 
ATOM      9  N   UNL     1       5.589  45.497  51.313  1.00  0.00    -0.195 NA
ATOM     10  N   UNL     1       7.884  45.134  50.760  1.00  0.00    -0.193 NA
ATOM     11  C   UNL     1       5.882  46.410  52.272  1.00  0.00     0.147 A 
ATOM     12  C   UNL     1       8.147  46.077  51.677  1.00  0.00     0.165 A 
ATOM     13  C   UNL     1       7.225  46.751  52.452  1.00  0.00     0.082 A 
ATOM     14  N   UNL     1       9.372  46.576  52.027  1.00  0.00    -0.250 N 
ATOM     15  C   UNL     1       7.998  47.661  53.201  1.00  0.00     0.149 A 
ATOM     16  N   UNL     1       9.310  47.544  52.970  1.00  0.00    -0.179 NA
ATOM     17  C   UNL     1      10.653  46.190  51.490  1.00  0.00     0.176 C 
BRANCH  11  18
ATOM     18  N   UNL     1       4.797  46.982  52.942  1.00  0.00    -0.337 N 
ATOM     19  H   UNL     1       4.647  47.926  52.588  1.00  0.00     0.168 HD
BRANCH  18  20
ATOM     20  C   UNL     1       3.617  46.412  53.462  1.00  0.00     0.079 A 
ATOM     21  C   UNL     1       3.485  45.975  54.786  1.00  0.00     0.032 A 
ATOM     22  C   UNL     1       2.488  46.323  52.626  1.00  0.00     0.185 A 
ATOM     23  C   UNL     1       2.268  45.463  55.255  1.00  0.00     0.045 A 
ATOM     24  C   UNL     1       1.280  45.816  53.087  1.00  0.00     0.196 A 
ATOM     25  C   UNL     1       1.174  45.390  54.401  1.00  0.00     0.162 A 
ATOM     26  F   UNL     1       2.585  46.729  51.349  1.00  0.00    -0.201 F 
ATOM     27  F   UNL     1       0.224  45.739  52.266  1.00  0.00    -0.200 F 
ATOM     28  F   UNL     1       0.015  44.898  54.861  1.00  0.00    -0.204 F 
ENDBRANCH  18  20
ENDBRANCH  11  18
ENDBRANCH   6   8
ENDBRANCH   1   6
TORSDOF 7
ENDMDL
MODEL 17
REMARK VINA RESULT:    -7.538      3.853      6.807
REMARK INTER + INTRA:         -11.732
REMARK INTER:                 -10.879
REMARK INTRA:                  -0.853
REMARK UNBOUND:                -1.109
REMARK SMILES COCCCNc1nc(Nc2ccc(F)c(F)c2F)c2cnn(C)c2n1
REMARK SMILES IDX 5 1 4 2 3 3 2 4 1 5 6 6 7 8 8 9 26 10 9 11 25 12 20 13 23 14
REMARK SMILES IDX 21 15 22 16 24 17 10 18 11 20 12 21 18 22 13 23 16 24 14 25
REMARK SMILES IDX 19 26 17 27 15 28
REMARK H PARENT 6 7 10 19
ROOT
ATOM      1  C   UNL     1       8.136  47.373  51.979  1.00  0.00     0.118 C 
ENDROOT
BRANCH   1   2
ATOM      2  C   UNL     1       9.554  47.141  52.495  1.00  0.00     0.050 C 
BRANCH   2   3
ATOM      3  C   UNL     1       9.537  46.519  53.887  1.00  0.00     0.161 C 
BRANCH   3   4
ATOM      4  O   UNL     1       9.493  47.519  54.904  1.00  0.00    -0.385 OA
ATOM      5  C   UNL     1      10.634  47.510  55.752  1.00  0.00     0.194 C 
ENDBRANCH   3   4
ENDBRANCH   2   3
ENDBRANCH   1   2
BRANCH   1   6
ATOM      6  N   UNL     1       7.854  46.432  50.908  1.00  0.00    -0.354 N 
ATOM      7  H   UNL     1       7.798  46.832  49.977  1.00  0.00     0.163 HD
BRANCH   6   8
ATOM      8  C   UNL     1       6.693  45.688  51.075  1.00  0.00     0.226 A 
ATOM      9  N   UNL     1       5.628  46.243  51.686  1.00  0.00    -0.195 NA
ATOM     10  N   UNL     1       6.750  44.442  50.590  1.00  0.00    -0.193 NA
ATOM     11  C   UNL     1       4.483  45.535  51.849  1.00  0.00     0.147 A 
ATOM     12  C   UNL     1       5.626  43.745  50.808  1.00  0.00     0.165 A 
ATOM     13  C   UNL     1       4.478  44.206  51.422  1.00  0.00     0.082 A 
ATOM     14  N   UNL     1       5.382  42.438  50.483  1.00  0.00    -0.250 N 
ATOM     15  C   UNL     1       3.625  43.083  51.452  1.00  0.00     0.149 A 
ATOM     16  N   UNL     1       4.155  42.009  50.858  1.00  0.00    -0.179 NA
ATOM     17  C   UNL     1       6.283  41.524  49.827  1.00  0.00     0.176 C 
BRANCH  11  18
ATOM     18  N   UNL     1       3.434  46.187  52.504  1.00  0.00    -0.337 N 
ATOM     19  H   UNL     1       2.973  46.817  51.849  1.00  0.00     0.168 HD
BRANCH  18  20
ATOM     20  C   UNL     1       2.571  45.760  53.534  1.00  0.00     0.079 A 
ATOM     21  C   UNL     1       2.937  45.718  54.885  1.00  0.00     0.032 A 
ATOM     22  C   UNL     1       1.249  45.407  53.201  1.00  0.00     0.185 A 
ATOM     23  C   UNL     1       2.016  45.332  55.867  1.00  0.00     0.045 A 
ATOM     24  C   UNL     1       0.332  45.024  54.172  1.00  0.00     0.196 A 
ATOM     25  C   UNL     1       0.719  44.990  55.502  1.00  0.00     0.162 A 
ATOM     26  F   UNL     1       0.869  45.432  51.912  1.00  0.00    -0.201 F 
ATOM     27  F   UNL     1      -0.918  44.688  53.824  1.00  0.00    -0.200 F 
ATOM     28  F   UNL     1      -0.154  44.621  56.450  1.00  0.00    -0.204 F 
ENDBRANCH  18  20
ENDBRANCH  11  18
ENDBRANCH   6   8
ENDBRANCH   1   6
TORSDOF 7
ENDMDL
MODEL 18
REMARK VINA RESULT:    -7.528      3.880      7.164
REMARK INTER + INTRA:         -11.717
REMARK INTER:                 -10.738
REMARK INTRA:                  -0.979
REMARK UNBOUND:                -1.109
REMARK SMILES COCCCNc1nc(Nc2ccc(F)c(F)c2F)c2cnn(C)c2n1
REMARK SMILES IDX 5 1 4 2 3 3 2 4 1 5 6 6 7 8 8 9 26 10 9 11 25 12 20 13 23 14
REMARK SMILES IDX 21 15 22 16 24 17 10 18 11 20 12 21 18 22 13 23 16 24 14 25
REMARK SMILES IDX 19 26 17 27 15 28
REMARK H PARENT 6 7 10 19
ROOT
ATOM      1  C   UNL     1       7.091  47.149  52.774  1.00  0.00     0.118 C 
ENDROOT
BRANCH   1   2
ATOM      2  C   UNL     1       8.339  48.024  52.688  1.00  0.00     0.050 C 
BRANCH   2   3
ATOM      3  C   UNL     1       9.511  47.381  53.421  1.00  0.00     0.161 C 
BRANCH   3   4
ATOM      4  O   UNL     1       9.724  46.038  52.989  1.00  0.00    -0.385 OA
ATOM      5  C   UNL     1      10.495  45.945  51.797  1.00  0.00     0.194 C 
ENDBRANCH   3   4
ENDBRANCH   2   3
ENDBRANCH   1   2
BRANCH   1   6
ATOM      6  N   UNL     1       6.967  46.368  51.555  1.00  0.00    -0.354 N 
ATOM      7  H   UNL     1       6.708  46.891  50.724  1.00  0.00     0.163 HD
BRANCH   6   8
ATOM      8  C   UNL     1       6.075  45.305  51.630  1.00  0.00     0.226 A 
ATOM      9  N   UNL     1       5.151  45.279  52.610  1.00  0.00    -0.195 NA
ATOM     10  N   UNL     1       6.230  44.374  50.681  1.00  0.00    -0.193 NA
ATOM     11  C   UNL     1       4.266  44.254  52.693  1.00  0.00     0.147 A 
ATOM     12  C   UNL     1       5.379  43.346  50.813  1.00  0.00     0.165 A 
ATOM     13  C   UNL     1       4.396  43.211  51.773  1.00  0.00     0.082 A 
ATOM     14  N   UNL     1       5.312  42.219  50.041  1.00  0.00    -0.250 N 
ATOM     15  C   UNL     1       3.827  41.947  51.513  1.00  0.00     0.149 A 
ATOM     16  N   UNL     1       4.359  41.346  50.443  1.00  0.00    -0.179 NA
ATOM     17  C   UNL     1       6.140  41.891  48.908  1.00  0.00     0.176 C 
BRANCH  11  18
ATOM     18  N   UNL     1       3.350  44.304  53.748  1.00  0.00    -0.337 N 
ATOM     19  H   UNL     1       3.788  44.758  54.548  1.00  0.00     0.168 HD
BRANCH  18  20
ATOM     20  C   UNL     1       1.947  44.440  53.756  1.00  0.00     0.079 A 
ATOM     21  C   UNL     1       1.160  44.437  52.597  1.00  0.00     0.032 A 
ATOM     22  C   UNL     1       1.287  44.530  54.997  1.00  0.00     0.185 A 
ATOM     23  C   UNL     1      -0.236  44.525  52.677  1.00  0.00     0.045 A 
ATOM     24  C   UNL     1      -0.097  44.617  55.079  1.00  0.00     0.196 A 
ATOM     25  C   UNL     1      -0.854  44.612  53.919  1.00  0.00     0.162 A 
ATOM     26  F   UNL     1       2.015  44.540  56.126  1.00  0.00    -0.201 F 
ATOM     27  F   UNL     1      -0.696  44.707  56.275  1.00  0.00    -0.200 F 
ATOM     28  F   UNL     1      -2.189  44.697  53.982  1.00  0.00    -0.204 F 
ENDBRANCH  18  20
ENDBRANCH  11  18
ENDBRANCH   6   8
ENDBRANCH   1   6
TORSDOF 7
ENDMDL
MODEL 19
REMARK VINA RESULT:    -7.478      2.831      5.661
REMARK INTER + INTRA:         -11.647
REMARK INTER:                 -10.857
REMARK INTRA:                  -0.790
REMARK UNBOUND:                -1.109
REMARK SMILES COCCCNc1nc(Nc2ccc(F)c(F)c2F)c2cnn(C)c2n1
REMARK SMILES IDX 5 1 4 2 3 3 2 4 1 5 6 6 7 8 8 9 26 10 9 11 25 12 20 13 23 14
REMARK SMILES IDX 21 15 22 16 24 17 10 18 11 20 12 21 18 22 13 23 16 24 14 25
REMARK SMILES IDX 19 26 17 27 15 28
REMARK H PARENT 6 7 10 19
ROOT
ATOM      1  C   UNL     1       6.878  46.430  54.583  1.00  0.00     0.118 C 
ENDROOT
BRANCH   1   2
ATOM      2  C   UNL     1       7.614  47.261  53.536  1.00  0.00     0.050 C 
BRANCH   2   3
ATOM      3  C   UNL     1       9.087  47.418  53.896  1.00  0.00     0.161 C 
BRANCH   3   4
ATOM      4  O   UNL     1       9.268  47.565  55.304  1.00  0.00    -0.385 OA
ATOM      5  C   UNL     1      10.633  47.550  55.702  1.00  0.00     0.194 C 
ENDBRANCH   3   4
ENDBRANCH   2   3
ENDBRANCH   1   2
BRANCH   1   6
ATOM      6  N   UNL     1       5.611  47.068  54.898  1.00  0.00    -0.354 N 
ATOM      7  H   UNL     1       5.491  47.352  55.865  1.00  0.00     0.163 HD
BRANCH   6   8
ATOM      8  C   UNL     1       4.484  46.320  54.578  1.00  0.00     0.226 A 
ATOM      9  N   UNL     1       4.406  45.715  53.377  1.00  0.00    -0.195 NA
ATOM     10  N   UNL     1       3.551  46.272  55.537  1.00  0.00    -0.193 NA
ATOM     11  C   UNL     1       3.318  44.973  53.051  1.00  0.00     0.147 A 
ATOM     12  C   UNL     1       2.464  45.576  55.173  1.00  0.00     0.165 A 
ATOM     13  C   UNL     1       2.272  44.918  53.974  1.00  0.00     0.082 A 
ATOM     14  N   UNL     1       1.321  45.382  55.899  1.00  0.00    -0.250 N 
ATOM     15  C   UNL     1       0.964  44.399  54.068  1.00  0.00     0.149 A 
ATOM     16  N   UNL     1       0.386  44.652  55.248  1.00  0.00    -0.179 NA
ATOM     17  C   UNL     1       1.037  45.879  57.222  1.00  0.00     0.176 C 
BRANCH  11  18
ATOM     18  N   UNL     1       3.317  44.391  51.780  1.00  0.00    -0.337 N 
ATOM     19  H   UNL     1       2.968  45.068  51.103  1.00  0.00     0.168 HD
BRANCH  18  20
ATOM     20  C   UNL     1       4.175  43.439  51.191  1.00  0.00     0.079 A 
ATOM     21  C   UNL     1       3.911  42.064  51.172  1.00  0.00     0.032 A 
ATOM     22  C   UNL     1       5.334  43.894  50.535  1.00  0.00     0.185 A 
ATOM     23  C   UNL     1       4.779  41.175  50.525  1.00  0.00     0.045 A 
ATOM     24  C   UNL     1       6.198  43.016  49.891  1.00  0.00     0.196 A 
ATOM     25  C   UNL     1       5.916  41.659  49.887  1.00  0.00     0.162 A 
ATOM     26  F   UNL     1       5.617  45.208  50.540  1.00  0.00    -0.201 F 
ATOM     27  F   UNL     1       7.297  43.478  49.280  1.00  0.00    -0.200 F 
ATOM     28  F   UNL     1       6.739  40.800  49.272  1.00  0.00    -0.204 F 
ENDBRANCH  18  20
ENDBRANCH  11  18
ENDBRANCH   6   8
ENDBRANCH   1   6
TORSDOF 7
ENDMDL
MODEL 20
REMARK VINA RESULT:    -7.442      2.442      5.017
REMARK INTER + INTRA:         -11.596
REMARK INTER:                 -10.750
REMARK INTRA:                  -0.846
REMARK UNBOUND:                -1.109
REMARK SMILES COCCCNc1nc(Nc2ccc(F)c(F)c2F)c2cnn(C)c2n1
REMARK SMILES IDX 5 1 4 2 3 3 2 4 1 5 6 6 7 8 8 9 26 10 9 11 25 12 20 13 23 14
REMARK SMILES IDX 21 15 22 16 24 17 10 18 11 20 12 21 18 22 13 23 16 24 14 25
REMARK SMILES IDX 19 26 17 27 15 28
REMARK H PARENT 6 7 10 19
ROOT
ATOM      1  C   UNL     1       5.610  45.400  55.302  1.00  0.00     0.118 C 
ENDROOT
BRANCH   1   2
ATOM      2  C   UNL     1       6.239  46.621  54.634  1.00  0.00     0.050 C 
BRANCH   2   3
ATOM      3  C   UNL     1       6.991  46.226  53.368  1.00  0.00     0.161 C 
BRANCH   3   4
ATOM      4  O   UNL     1       6.902  47.242  52.370  1.00  0.00    -0.385 OA
ATOM      5  C   UNL     1       8.001  48.145  52.385  1.00  0.00     0.194 C 
ENDBRANCH   3   4
ENDBRANCH   2   3
ENDBRANCH   1   2
BRANCH   1   6
ATOM      6  N   UNL     1       4.271  45.738  55.755  1.00  0.00    -0.354 N 
ATOM      7  H   UNL     1       4.076  45.538  56.731  1.00  0.00     0.163 HD
BRANCH   6   8
ATOM      8  C   UNL     1       3.242  45.149  55.031  1.00  0.00     0.226 A 
ATOM      9  N   UNL     1       3.488  44.665  53.798  1.00  0.00    -0.195 NA
ATOM     10  N   UNL     1       2.060  45.119  55.658  1.00  0.00    -0.193 NA
ATOM     11  C   UNL     1       2.499  44.078  53.080  1.00  0.00     0.147 A 
ATOM     12  C   UNL     1       1.086  44.581  54.909  1.00  0.00     0.165 A 
ATOM     13  C   UNL     1       1.219  44.057  53.639  1.00  0.00     0.082 A 
ATOM     14  N   UNL     1      -0.236  44.450  55.236  1.00  0.00    -0.250 N 
ATOM     15  C   UNL     1      -0.091  43.678  53.280  1.00  0.00     0.149 A 
ATOM     16  N   UNL     1      -0.981  43.887  54.257  1.00  0.00    -0.179 NA
ATOM     17  C   UNL     1      -0.871  44.856  56.465  1.00  0.00     0.176 C 
BRANCH  11  18
ATOM     18  N   UNL     1       2.841  43.614  51.806  1.00  0.00    -0.337 N 
ATOM     19  H   UNL     1       2.178  43.985  51.127  1.00  0.00     0.168 HD
BRANCH  18  20
ATOM     20  C   UNL     1       4.093  43.321  51.228  1.00  0.00     0.079 A 
ATOM     21  C   UNL     1       4.525  42.022  50.929  1.00  0.00     0.032 A 
ATOM     22  C   UNL     1       4.939  44.391  50.878  1.00  0.00     0.185 A 
ATOM     23  C   UNL     1       5.760  41.802  50.307  1.00  0.00     0.045 A 
ATOM     24  C   UNL     1       6.165  44.176  50.260  1.00  0.00     0.196 A 
ATOM     25  C   UNL     1       6.570  42.882  49.975  1.00  0.00     0.162 A 
ATOM     26  F   UNL     1       4.555  45.648  51.156  1.00  0.00    -0.201 F 
ATOM     27  F   UNL     1       6.951  45.215  49.944  1.00  0.00    -0.200 F 
ATOM     28  F   UNL     1       7.750  42.659  49.381  1.00  0.00    -0.204 F 
ENDBRANCH  18  20
ENDBRANCH  11  18
ENDBRANCH   6   8
ENDBRANCH   1   6
TORSDOF 7
ENDMDL
