MODEL 1
REMARK VINA RESULT:    -8.898      0.000      0.000
REMARK INTER + INTRA:         -13.709
REMARK INTER:                 -12.539
REMARK INTRA:                  -1.170
REMARK UNBOUND:                -1.170
REMARK SMILES OCCCNc1nc(Nc2ccccc2O)nc2ccccc12
REMARK SMILES IDX 5 1 4 3 3 4 2 5 1 6 6 8 7 9 23 10 8 11 22 12 18 13 17 14
REMARK SMILES IDX 21 15 19 16 20 17 9 18 10 20 11 21 15 22 12 23 14 24 13 25
REMARK SMILES IDX 16 26
REMARK H PARENT 5 2 1 7 9 19 16 27
ROOT
ATOM      1  N   UNL     1       3.100  43.303  53.040  1.00  0.00    -0.369 N 
ATOM      2  H   UNL     1       2.736  42.421  52.667  1.00  0.00     0.162 HD
ENDROOT
BRANCH   1   3
ATOM      3  C   UNL     1       2.003  44.254  53.225  1.00  0.00     0.117 C 
BRANCH   3   4
ATOM      4  C   UNL     1       1.725  44.548  54.704  1.00  0.00     0.049 C 
BRANCH   4   5
ATOM      5  C   UNL     1       2.752  45.491  55.324  1.00  0.00     0.158 C 
BRANCH   5   6
ATOM      6  O   UNL     1       3.966  44.801  55.607  1.00  0.00    -0.396 OA
ATOM      7  H   UNL     1       3.726  43.879  55.818  1.00  0.00     0.210 HD
ENDBRANCH   5   6
ENDBRANCH   4   5
ENDBRANCH   3   4
ENDBRANCH   1   3
BRANCH   1   8
ATOM      8  C   UNL     1       4.190  43.718  52.248  1.00  0.00     0.139 A 
ATOM      9  N   UNL     1       4.825  44.860  52.564  1.00  0.00    -0.195 NA
ATOM     10  C   UNL     1       4.605  42.912  51.176  1.00  0.00     0.043 A 
ATOM     11  C   UNL     1       5.868  45.234  51.813  1.00  0.00     0.229 A 
ATOM     12  C   UNL     1       4.018  41.674  50.802  1.00  0.00     0.014 A 
ATOM     13  C   UNL     1       5.689  43.406  50.446  1.00  0.00     0.078 A 
ATOM     14  N   UNL     1       6.302  44.551  50.750  1.00  0.00    -0.213 NA
ATOM     15  C   UNL     1       4.498  40.956  49.710  1.00  0.00     0.001 A 
ATOM     16  C   UNL     1       6.149  42.674  49.356  1.00  0.00     0.029 A 
ATOM     17  C   UNL     1       5.566  41.461  48.981  1.00  0.00     0.002 A 
BRANCH  11  18
ATOM     18  N   UNL     1       6.457  46.444  52.185  1.00  0.00    -0.321 N 
ATOM     19  H   UNL     1       5.717  47.028  52.559  1.00  0.00     0.170 HD
BRANCH  18  20
ATOM     20  C   UNL     1       7.711  46.711  52.768  1.00  0.00     0.083 A 
ATOM     21  C   UNL     1       8.932  46.537  52.111  1.00  0.00     0.030 A 
ATOM     22  C   UNL     1       7.747  47.207  54.083  1.00  0.00     0.139 A 
ATOM     23  C   UNL     1      10.142  46.800  52.767  1.00  0.00     0.002 A 
ATOM     24  C   UNL     1       8.941  47.459  54.750  1.00  0.00     0.048 A 
ATOM     25  C   UNL     1      10.147  47.250  54.086  1.00  0.00     0.004 A 
BRANCH  22  26
ATOM     26  O   UNL     1       6.579  47.495  54.742  1.00  0.00    -0.506 OA
ATOM     27  H   UNL     1       6.455  48.455  54.631  1.00  0.00     0.293 HD
ENDBRANCH  22  26
ENDBRANCH  18  20
ENDBRANCH  11  18
ENDBRANCH   1   8
TORSDOF 8
ENDMDL
MODEL 2
REMARK VINA RESULT:    -8.828      2.018      6.381
REMARK INTER + INTRA:         -13.611
REMARK INTER:                 -12.969
REMARK INTRA:                  -0.643
REMARK UNBOUND:                -1.170
REMARK SMILES OCCCNc1nc(Nc2ccccc2O)nc2ccccc12
REMARK SMILES IDX 5 1 4 3 3 4 2 5 1 6 6 8 7 9 23 10 8 11 22 12 18 13 17 14
REMARK SMILES IDX 21 15 19 16 20 17 9 18 10 20 11 21 15 22 12 23 14 24 13 25
REMARK SMILES IDX 16 26
REMARK H PARENT 5 2 1 7 9 19 16 27
ROOT
ATOM      1  N   UNL     1       6.710  45.238  50.437  1.00  0.00    -0.369 N 
ATOM      2  H   UNL     1       6.440  45.887  49.692  1.00  0.00     0.162 HD
ENDROOT
BRANCH   1   3
ATOM      3  C   UNL     1       5.965  43.987  50.300  1.00  0.00     0.117 C 
BRANCH   3   4
ATOM      4  C   UNL     1       6.667  42.984  49.377  1.00  0.00     0.049 C 
BRANCH   4   5
ATOM      5  C   UNL     1       6.254  41.541  49.647  1.00  0.00     0.158 C 
BRANCH   5   6
ATOM      6  O   UNL     1       7.360  40.778  50.122  1.00  0.00    -0.396 OA
ATOM      7  H   UNL     1       7.497  40.051  49.486  1.00  0.00     0.210 HD
ENDBRANCH   5   6
ENDBRANCH   4   5
ENDBRANCH   3   4
ENDBRANCH   1   3
BRANCH   1   8
ATOM      8  C   UNL     1       6.630  45.907  51.676  1.00  0.00     0.139 A 
ATOM      9  N   UNL     1       5.421  46.103  52.231  1.00  0.00    -0.195 NA
ATOM     10  C   UNL     1       7.813  46.316  52.313  1.00  0.00     0.043 A 
ATOM     11  C   UNL     1       5.360  46.726  53.414  1.00  0.00     0.229 A 
ATOM     12  C   UNL     1       9.127  46.110  51.818  1.00  0.00     0.014 A 
ATOM     13  C   UNL     1       7.634  46.975  53.532  1.00  0.00     0.078 A 
ATOM     14  N   UNL     1       6.431  47.187  54.068  1.00  0.00    -0.213 NA
ATOM     15  C   UNL     1      10.237  46.570  52.522  1.00  0.00     0.001 A 
ATOM     16  C   UNL     1       8.756  47.428  54.216  1.00  0.00     0.029 A 
ATOM     17  C   UNL     1      10.050  47.235  53.726  1.00  0.00     0.002 A 
BRANCH  11  18
ATOM     18  N   UNL     1       4.070  46.919  53.912  1.00  0.00    -0.321 N 
ATOM     19  H   UNL     1       3.889  47.917  53.878  1.00  0.00     0.170 HD
BRANCH  18  20
ATOM     20  C   UNL     1       2.903  46.147  53.756  1.00  0.00     0.083 A 
ATOM     21  C   UNL     1       1.999  46.301  52.700  1.00  0.00     0.030 A 
ATOM     22  C   UNL     1       2.633  45.140  54.699  1.00  0.00     0.139 A 
ATOM     23  C   UNL     1       0.844  45.511  52.626  1.00  0.00     0.002 A 
ATOM     24  C   UNL     1       1.484  44.359  54.644  1.00  0.00     0.048 A 
ATOM     25  C   UNL     1       0.583  44.549  53.601  1.00  0.00     0.004 A 
BRANCH  22  26
ATOM     26  O   UNL     1       3.535  44.874  55.697  1.00  0.00    -0.506 OA
ATOM     27  H   UNL     1       3.409  45.585  56.350  1.00  0.00     0.293 HD
ENDBRANCH  22  26
ENDBRANCH  18  20
ENDBRANCH  11  18
ENDBRANCH   1   8
TORSDOF 8
ENDMDL
MODEL 3
REMARK VINA RESULT:    -8.615      0.982      1.402
REMARK INTER + INTRA:         -13.310
REMARK INTER:                 -12.132
REMARK INTRA:                  -1.178
REMARK UNBOUND:                -1.170
REMARK SMILES OCCCNc1nc(Nc2ccccc2O)nc2ccccc12
REMARK SMILES IDX 5 1 4 3 3 4 2 5 1 6 6 8 7 9 23 10 8 11 22 12 18 13 17 14
REMARK SMILES IDX 21 15 19 16 20 17 9 18 10 20 11 21 15 22 12 23 14 24 13 25
REMARK SMILES IDX 16 26
REMARK H PARENT 5 2 1 7 9 19 16 27
ROOT
ATOM      1  N   UNL     1       3.118  43.326  53.070  1.00  0.00    -0.369 N 
ATOM      2  H   UNL     1       2.767  42.430  52.720  1.00  0.00     0.162 HD
ENDROOT
BRANCH   1   3
ATOM      3  C   UNL     1       2.008  44.265  53.233  1.00  0.00     0.117 C 
BRANCH   3   4
ATOM      4  C   UNL     1       1.696  44.554  54.706  1.00  0.00     0.049 C 
BRANCH   4   5
ATOM      5  C   UNL     1       2.702  45.503  55.350  1.00  0.00     0.158 C 
BRANCH   5   6
ATOM      6  O   UNL     1       3.911  44.819  55.670  1.00  0.00    -0.396 OA
ATOM      7  H   UNL     1       4.646  45.407  55.411  1.00  0.00     0.210 HD
ENDBRANCH   5   6
ENDBRANCH   4   5
ENDBRANCH   3   4
ENDBRANCH   1   3
BRANCH   1   8
ATOM      8  C   UNL     1       4.201  43.737  52.266  1.00  0.00     0.139 A 
ATOM      9  N   UNL     1       4.835  44.884  52.565  1.00  0.00    -0.195 NA
ATOM     10  C   UNL     1       4.611  42.922  51.199  1.00  0.00     0.043 A 
ATOM     11  C   UNL     1       5.871  45.255  51.803  1.00  0.00     0.229 A 
ATOM     12  C   UNL     1       4.025  41.679  50.841  1.00  0.00     0.014 A 
ATOM     13  C   UNL     1       5.687  43.413  50.455  1.00  0.00     0.078 A 
ATOM     14  N   UNL     1       6.299  44.562  50.744  1.00  0.00    -0.213 NA
ATOM     15  C   UNL     1       4.499  40.952  49.751  1.00  0.00     0.001 A 
ATOM     16  C   UNL     1       6.141  42.672  49.369  1.00  0.00     0.029 A 
ATOM     17  C   UNL     1       5.560  41.453  49.010  1.00  0.00     0.002 A 
BRANCH  11  18
ATOM     18  N   UNL     1       6.458  46.470  52.159  1.00  0.00    -0.321 N 
ATOM     19  H   UNL     1       5.703  47.097  52.415  1.00  0.00     0.170 HD
BRANCH  18  20
ATOM     20  C   UNL     1       7.653  46.741  52.853  1.00  0.00     0.083 A 
ATOM     21  C   UNL     1       7.703  47.265  54.148  1.00  0.00     0.030 A 
ATOM     22  C   UNL     1       8.876  46.448  52.225  1.00  0.00     0.139 A 
ATOM     23  C   UNL     1       8.933  47.532  54.765  1.00  0.00     0.002 A 
ATOM     24  C   UNL     1      10.102  46.720  52.821  1.00  0.00     0.048 A 
ATOM     25  C   UNL     1      10.128  47.270  54.100  1.00  0.00     0.004 A 
BRANCH  22  26
ATOM     26  O   UNL     1       8.889  45.837  50.997  1.00  0.00    -0.506 OA
ATOM     27  H   UNL     1       9.142  46.536  50.368  1.00  0.00     0.293 HD
ENDBRANCH  22  26
ENDBRANCH  18  20
ENDBRANCH  11  18
ENDBRANCH   1   8
TORSDOF 8
ENDMDL
MODEL 4
REMARK VINA RESULT:    -8.515      1.094      1.301
REMARK INTER + INTRA:         -13.170
REMARK INTER:                 -12.117
REMARK INTRA:                  -1.053
REMARK UNBOUND:                -1.170
REMARK SMILES OCCCNc1nc(Nc2ccccc2O)nc2ccccc12
REMARK SMILES IDX 5 1 4 3 3 4 2 5 1 6 6 8 7 9 23 10 8 11 22 12 18 13 17 14
REMARK SMILES IDX 21 15 19 16 20 17 9 18 10 20 11 21 15 22 12 23 14 24 13 25
REMARK SMILES IDX 16 26
REMARK H PARENT 5 2 1 7 9 19 16 27
ROOT
ATOM      1  N   UNL     1       3.522  43.576  53.029  1.00  0.00    -0.369 N 
ATOM      2  H   UNL     1       2.880  42.870  52.655  1.00  0.00     0.162 HD
ENDROOT
BRANCH   1   3
ATOM      3  C   UNL     1       2.764  44.724  53.524  1.00  0.00     0.117 C 
BRANCH   3   4
ATOM      4  C   UNL     1       1.322  44.357  53.896  1.00  0.00     0.049 C 
BRANCH   4   5
ATOM      5  C   UNL     1       0.811  43.130  53.147  1.00  0.00     0.158 C 
BRANCH   5   6
ATOM      6  O   UNL     1       1.352  41.935  53.703  1.00  0.00    -0.396 OA
ATOM      7  H   UNL     1       0.695  41.596  54.340  1.00  0.00     0.210 HD
ENDBRANCH   5   6
ENDBRANCH   4   5
ENDBRANCH   3   4
ENDBRANCH   1   3
BRANCH   1   8
ATOM      8  C   UNL     1       4.528  43.828  52.073  1.00  0.00     0.139 A 
ATOM      9  N   UNL     1       5.287  44.930  52.204  1.00  0.00    -0.195 NA
ATOM     10  C   UNL     1       4.734  42.906  51.034  1.00  0.00     0.043 A 
ATOM     11  C   UNL     1       6.248  45.150  51.299  1.00  0.00     0.229 A 
ATOM     12  C   UNL     1       4.008  41.700  50.848  1.00  0.00     0.014 A 
ATOM     13  C   UNL     1       5.748  43.243  50.133  1.00  0.00     0.078 A 
ATOM     14  N   UNL     1       6.484  44.349  50.256  1.00  0.00    -0.213 NA
ATOM     15  C   UNL     1       4.282  40.859  49.772  1.00  0.00     0.001 A 
ATOM     16  C   UNL     1       6.002  42.390  49.065  1.00  0.00     0.029 A 
ATOM     17  C   UNL     1       5.282  41.208  48.874  1.00  0.00     0.002 A 
BRANCH  11  18
ATOM     18  N   UNL     1       6.974  46.328  51.485  1.00  0.00    -0.321 N 
ATOM     19  H   UNL     1       6.320  47.096  51.377  1.00  0.00     0.170 HD
BRANCH  18  20
ATOM     20  C   UNL     1       8.024  46.625  52.375  1.00  0.00     0.083 A 
ATOM     21  C   UNL     1       9.378  46.460  52.071  1.00  0.00     0.030 A 
ATOM     22  C   UNL     1       7.703  47.144  53.642  1.00  0.00     0.139 A 
ATOM     23  C   UNL     1      10.366  46.754  53.020  1.00  0.00     0.002 A 
ATOM     24  C   UNL     1       8.673  47.428  54.597  1.00  0.00     0.048 A 
ATOM     25  C   UNL     1      10.014  47.227  54.283  1.00  0.00     0.004 A 
BRANCH  22  26
ATOM     26  O   UNL     1       6.398  47.424  53.959  1.00  0.00    -0.506 OA
ATOM     27  H   UNL     1       6.443  47.952  54.777  1.00  0.00     0.293 HD
ENDBRANCH  22  26
ENDBRANCH  18  20
ENDBRANCH  11  18
ENDBRANCH   1   8
TORSDOF 8
ENDMDL
MODEL 5
REMARK VINA RESULT:    -8.414      1.553      5.651
REMARK INTER + INTRA:         -13.027
REMARK INTER:                 -12.153
REMARK INTRA:                  -0.874
REMARK UNBOUND:                -1.170
REMARK SMILES OCCCNc1nc(Nc2ccccc2O)nc2ccccc12
REMARK SMILES IDX 5 1 4 3 3 4 2 5 1 6 6 8 7 9 23 10 8 11 22 12 18 13 17 14
REMARK SMILES IDX 21 15 19 16 20 17 9 18 10 20 11 21 15 22 12 23 14 24 13 25
REMARK SMILES IDX 16 26
REMARK H PARENT 5 2 1 7 9 19 16 27
ROOT
ATOM      1  N   UNL     1       8.474  47.269  51.562  1.00  0.00    -0.369 N 
ATOM      2  H   UNL     1       8.564  47.615  50.602  1.00  0.00     0.162 HD
ENDROOT
BRANCH   1   3
ATOM      3  C   UNL     1       9.743  46.689  52.001  1.00  0.00     0.117 C 
BRANCH   3   4
ATOM      4  C   UNL     1       9.768  46.404  53.507  1.00  0.00     0.049 C 
BRANCH   4   5
ATOM      5  C   UNL     1       9.518  47.651  54.350  1.00  0.00     0.158 C 
BRANCH   5   6
ATOM      6  O   UNL     1       8.166  47.695  54.798  1.00  0.00    -0.396 OA
ATOM      7  H   UNL     1       7.926  46.788  55.067  1.00  0.00     0.210 HD
ENDBRANCH   5   6
ENDBRANCH   4   5
ENDBRANCH   3   4
ENDBRANCH   1   3
BRANCH   1   8
ATOM      8  C   UNL     1       7.326  46.454  51.648  1.00  0.00     0.139 A 
ATOM      9  N   UNL     1       6.340  46.807  52.490  1.00  0.00    -0.195 NA
ATOM     10  C   UNL     1       7.228  45.319  50.826  1.00  0.00     0.043 A 
ATOM     11  C   UNL     1       5.250  46.033  52.550  1.00  0.00     0.229 A 
ATOM     12  C   UNL     1       8.202  44.900  49.882  1.00  0.00     0.014 A 
ATOM     13  C   UNL     1       6.059  44.571  50.984  1.00  0.00     0.078 A 
ATOM     14  N   UNL     1       5.093  44.914  51.837  1.00  0.00    -0.213 NA
ATOM     15  C   UNL     1       8.014  43.747  49.124  1.00  0.00     0.001 A 
ATOM     16  C   UNL     1       5.894  43.421  50.219  1.00  0.00     0.029 A 
ATOM     17  C   UNL     1       6.856  43.002  49.296  1.00  0.00     0.002 A 
BRANCH  11  18
ATOM     18  N   UNL     1       4.283  46.448  53.467  1.00  0.00    -0.321 N 
ATOM     19  H   UNL     1       4.283  47.463  53.455  1.00  0.00     0.170 HD
BRANCH  18  20
ATOM     20  C   UNL     1       3.020  45.906  53.776  1.00  0.00     0.083 A 
ATOM     21  C   UNL     1       1.898  46.017  52.950  1.00  0.00     0.030 A 
ATOM     22  C   UNL     1       2.874  45.185  54.974  1.00  0.00     0.139 A 
ATOM     23  C   UNL     1       0.667  45.473  53.337  1.00  0.00     0.002 A 
ATOM     24  C   UNL     1       1.655  44.650  55.376  1.00  0.00     0.048 A 
ATOM     25  C   UNL     1       0.543  44.799  54.551  1.00  0.00     0.004 A 
BRANCH  22  26
ATOM     26  O   UNL     1       3.963  44.954  55.774  1.00  0.00    -0.506 OA
ATOM     27  H   UNL     1       4.082  43.987  55.770  1.00  0.00     0.293 HD
ENDBRANCH  22  26
ENDBRANCH  18  20
ENDBRANCH  11  18
ENDBRANCH   1   8
TORSDOF 8
ENDMDL
MODEL 6
REMARK VINA RESULT:    -8.169      1.836      5.687
REMARK INTER + INTRA:         -12.682
REMARK INTER:                 -11.825
REMARK INTRA:                  -0.856
REMARK UNBOUND:                -1.170
REMARK SMILES OCCCNc1nc(Nc2ccccc2O)nc2ccccc12
REMARK SMILES IDX 5 1 4 3 3 4 2 5 1 6 6 8 7 9 23 10 8 11 22 12 18 13 17 14
REMARK SMILES IDX 21 15 19 16 20 17 9 18 10 20 11 21 15 22 12 23 14 24 13 25
REMARK SMILES IDX 16 26
REMARK H PARENT 5 2 1 7 9 19 16 27
ROOT
ATOM      1  N   UNL     1       8.620  47.290  51.634  1.00  0.00    -0.369 N 
ATOM      2  H   UNL     1       8.771  47.590  50.665  1.00  0.00     0.162 HD
ENDROOT
BRANCH   1   3
ATOM      3  C   UNL     1       9.830  46.651  52.149  1.00  0.00     0.117 C 
BRANCH   3   4
ATOM      4  C   UNL     1       9.812  46.505  53.676  1.00  0.00     0.049 C 
BRANCH   4   5
ATOM      5  C   UNL     1       9.447  47.803  54.390  1.00  0.00     0.158 C 
BRANCH   5   6
ATOM      6  O   UNL     1       8.103  47.760  54.862  1.00  0.00    -0.396 OA
ATOM      7  H   UNL     1       7.527  47.724  54.075  1.00  0.00     0.210 HD
ENDBRANCH   5   6
ENDBRANCH   4   5
ENDBRANCH   3   4
ENDBRANCH   1   3
BRANCH   1   8
ATOM      8  C   UNL     1       7.420  46.554  51.701  1.00  0.00     0.139 A 
ATOM      9  N   UNL     1       6.440  46.981  52.517  1.00  0.00    -0.195 NA
ATOM     10  C   UNL     1       7.265  45.419  50.889  1.00  0.00     0.043 A 
ATOM     11  C   UNL     1       5.300  46.282  52.560  1.00  0.00     0.229 A 
ATOM     12  C   UNL     1       8.229  44.926  49.971  1.00  0.00     0.014 A 
ATOM     13  C   UNL     1       6.045  44.751  51.028  1.00  0.00     0.078 A 
ATOM     14  N   UNL     1       5.085  45.167  51.855  1.00  0.00    -0.213 NA
ATOM     15  C   UNL     1       7.982  43.779  49.221  1.00  0.00     0.001 A 
ATOM     16  C   UNL     1       5.821  43.606  50.271  1.00  0.00     0.029 A 
ATOM     17  C   UNL     1       6.773  43.114  49.374  1.00  0.00     0.002 A 
BRANCH  11  18
ATOM     18  N   UNL     1       4.343  46.770  53.451  1.00  0.00    -0.321 N 
ATOM     19  H   UNL     1       4.174  47.738  53.198  1.00  0.00     0.170 HD
BRANCH  18  20
ATOM     20  C   UNL     1       3.212  46.147  54.013  1.00  0.00     0.083 A 
ATOM     21  C   UNL     1       3.152  45.673  55.327  1.00  0.00     0.030 A 
ATOM     22  C   UNL     1       2.060  46.008  53.221  1.00  0.00     0.139 A 
ATOM     23  C   UNL     1       1.998  45.039  55.807  1.00  0.00     0.002 A 
ATOM     24  C   UNL     1       0.913  45.370  53.681  1.00  0.00     0.048 A 
ATOM     25  C   UNL     1       0.886  44.879  54.984  1.00  0.00     0.004 A 
BRANCH  22  26
ATOM     26  O   UNL     1       2.024  46.545  51.959  1.00  0.00    -0.506 OA
ATOM     27  H   UNL     1       1.773  47.477  52.086  1.00  0.00     0.293 HD
ENDBRANCH  22  26
ENDBRANCH  18  20
ENDBRANCH  11  18
ENDBRANCH   1   8
TORSDOF 8
ENDMDL
MODEL 7
REMARK VINA RESULT:    -8.043      2.170      6.654
REMARK INTER + INTRA:         -12.505
REMARK INTER:                 -11.725
REMARK INTRA:                  -0.780
REMARK UNBOUND:                -1.170
REMARK SMILES OCCCNc1nc(Nc2ccccc2O)nc2ccccc12
REMARK SMILES IDX 5 1 4 3 3 4 2 5 1 6 6 8 7 9 23 10 8 11 22 12 18 13 17 14
REMARK SMILES IDX 21 15 19 16 20 17 9 18 10 20 11 21 15 22 12 23 14 24 13 25
REMARK SMILES IDX 16 26
REMARK H PARENT 5 2 1 7 9 19 16 27
ROOT
ATOM      1  N   UNL     1       6.781  45.067  50.115  1.00  0.00    -0.369 N 
ATOM      2  H   UNL     1       5.890  45.156  49.616  1.00  0.00     0.162 HD
ENDROOT
BRANCH   1   3
ATOM      3  C   UNL     1       7.420  43.799  49.765  1.00  0.00     0.117 C 
BRANCH   3   4
ATOM      4  C   UNL     1       6.464  42.839  49.046  1.00  0.00     0.049 C 
BRANCH   4   5
ATOM      5  C   UNL     1       6.141  41.597  49.869  1.00  0.00     0.158 C 
BRANCH   5   6
ATOM      6  O   UNL     1       7.301  40.788  50.043  1.00  0.00    -0.396 OA
ATOM      7  H   UNL     1       7.054  40.065  50.650  1.00  0.00     0.210 HD
ENDBRANCH   5   6
ENDBRANCH   4   5
ENDBRANCH   3   4
ENDBRANCH   1   3
BRANCH   1   8
ATOM      8  C   UNL     1       6.564  45.326  51.484  1.00  0.00     0.139 A 
ATOM      9  N   UNL     1       5.446  44.860  52.065  1.00  0.00    -0.195 NA
ATOM     10  C   UNL     1       7.538  46.031  52.211  1.00  0.00     0.043 A 
ATOM     11  C   UNL     1       5.260  45.100  53.369  1.00  0.00     0.229 A 
ATOM     12  C   UNL     1       8.763  46.520  51.686  1.00  0.00     0.014 A 
ATOM     13  C   UNL     1       7.234  46.245  53.558  1.00  0.00     0.078 A 
ATOM     14  N   UNL     1       6.112  45.799  54.124  1.00  0.00    -0.213 NA
ATOM     15  C   UNL     1       9.657  47.222  52.490  1.00  0.00     0.001 A 
ATOM     16  C   UNL     1       8.140  46.952  54.342  1.00  0.00     0.029 A 
ATOM     17  C   UNL     1       9.342  47.442  53.824  1.00  0.00     0.002 A 
BRANCH  11  18
ATOM     18  N   UNL     1       4.063  44.610  53.893  1.00  0.00    -0.321 N 
ATOM     19  H   UNL     1       4.017  44.919  54.859  1.00  0.00     0.170 HD
BRANCH  18  20
ATOM     20  C   UNL     1       2.792  44.474  53.303  1.00  0.00     0.083 A 
ATOM     21  C   UNL     1       1.841  45.497  53.249  1.00  0.00     0.030 A 
ATOM     22  C   UNL     1       2.457  43.246  52.707  1.00  0.00     0.139 A 
ATOM     23  C   UNL     1       0.586  45.278  52.666  1.00  0.00     0.002 A 
ATOM     24  C   UNL     1       1.210  43.011  52.137  1.00  0.00     0.048 A 
ATOM     25  C   UNL     1       0.268  44.036  52.120  1.00  0.00     0.004 A 
BRANCH  22  26
ATOM     26  O   UNL     1       3.386  42.239  52.638  1.00  0.00    -0.506 OA
ATOM     27  H   UNL     1       3.330  41.903  51.725  1.00  0.00     0.293 HD
ENDBRANCH  22  26
ENDBRANCH  18  20
ENDBRANCH  11  18
ENDBRANCH   1   8
TORSDOF 8
ENDMDL
MODEL 8
REMARK VINA RESULT:    -8.038      1.760      5.880
REMARK INTER + INTRA:         -12.497
REMARK INTER:                 -11.591
REMARK INTRA:                  -0.906
REMARK UNBOUND:                -1.170
REMARK SMILES OCCCNc1nc(Nc2ccccc2O)nc2ccccc12
REMARK SMILES IDX 5 1 4 3 3 4 2 5 1 6 6 8 7 9 23 10 8 11 22 12 18 13 17 14
REMARK SMILES IDX 21 15 19 16 20 17 9 18 10 20 11 21 15 22 12 23 14 24 13 25
REMARK SMILES IDX 16 26
REMARK H PARENT 5 2 1 7 9 19 16 27
ROOT
ATOM      1  N   UNL     1       7.976  47.178  51.445  1.00  0.00    -0.369 N 
ATOM      2  H   UNL     1       8.780  46.624  51.133  1.00  0.00     0.162 HD
ENDROOT
BRANCH   1   3
ATOM      3  C   UNL     1       8.341  47.957  52.627  1.00  0.00     0.117 C 
BRANCH   3   4
ATOM      4  C   UNL     1       9.586  47.405  53.333  1.00  0.00     0.049 C 
BRANCH   4   5
ATOM      5  C   UNL     1      10.048  46.069  52.759  1.00  0.00     0.158 C 
BRANCH   5   6
ATOM      6  O   UNL     1      10.711  46.256  51.512  1.00  0.00    -0.396 OA
ATOM      7  H   UNL     1      10.346  45.594  50.895  1.00  0.00     0.210 HD
ENDBRANCH   5   6
ENDBRANCH   4   5
ENDBRANCH   3   4
ENDBRANCH   1   3
BRANCH   1   8
ATOM      8  C   UNL     1       6.853  46.332  51.549  1.00  0.00     0.139 A 
ATOM      9  N   UNL     1       5.836  46.698  52.348  1.00  0.00    -0.195 NA
ATOM     10  C   UNL     1       6.810  45.152  50.789  1.00  0.00     0.043 A 
ATOM     11  C   UNL     1       4.769  45.894  52.425  1.00  0.00     0.229 A 
ATOM     12  C   UNL     1       7.820  44.714  49.892  1.00  0.00     0.014 A 
ATOM     13  C   UNL     1       5.661  44.375  50.961  1.00  0.00     0.078 A 
ATOM     14  N   UNL     1       4.664  44.733  51.772  1.00  0.00    -0.213 NA
ATOM     15  C   UNL     1       7.686  43.516  49.194  1.00  0.00     0.001 A 
ATOM     16  C   UNL     1       5.551  43.181  50.257  1.00  0.00     0.029 A 
ATOM     17  C   UNL     1       6.548  42.744  49.381  1.00  0.00     0.002 A 
BRANCH  11  18
ATOM     18  N   UNL     1       3.767  46.326  53.296  1.00  0.00    -0.321 N 
ATOM     19  H   UNL     1       3.694  47.332  53.183  1.00  0.00     0.170 HD
BRANCH  18  20
ATOM     20  C   UNL     1       2.545  45.727  53.656  1.00  0.00     0.083 A 
ATOM     21  C   UNL     1       1.399  45.747  52.856  1.00  0.00     0.030 A 
ATOM     22  C   UNL     1       2.468  45.044  54.882  1.00  0.00     0.139 A 
ATOM     23  C   UNL     1       0.209  45.150  53.295  1.00  0.00     0.002 A 
ATOM     24  C   UNL     1       1.290  44.458  55.334  1.00  0.00     0.048 A 
ATOM     25  C   UNL     1       0.152  44.516  54.534  1.00  0.00     0.004 A 
BRANCH  22  26
ATOM     26  O   UNL     1       3.587  44.903  55.662  1.00  0.00    -0.506 OA
ATOM     27  H   UNL     1       3.455  45.512  56.410  1.00  0.00     0.293 HD
ENDBRANCH  22  26
ENDBRANCH  18  20
ENDBRANCH  11  18
ENDBRANCH   1   8
TORSDOF 8
ENDMDL
MODEL 9
REMARK VINA RESULT:    -8.032      1.765      4.122
REMARK INTER + INTRA:         -12.489
REMARK INTER:                 -11.576
REMARK INTRA:                  -0.913
REMARK UNBOUND:                -1.170
REMARK SMILES OCCCNc1nc(Nc2ccccc2O)nc2ccccc12
REMARK SMILES IDX 5 1 4 3 3 4 2 5 1 6 6 8 7 9 23 10 8 11 22 12 18 13 17 14
REMARK SMILES IDX 21 15 19 16 20 17 9 18 10 20 11 21 15 22 12 23 14 24 13 25
REMARK SMILES IDX 16 26
REMARK H PARENT 5 2 1 7 9 19 16 27
ROOT
ATOM      1  N   UNL     1       4.252  43.079  50.912  1.00  0.00    -0.369 N 
ATOM      2  H   UNL     1       3.733  42.299  51.327  1.00  0.00     0.162 HD
ENDROOT
BRANCH   1   3
ATOM      3  C   UNL     1       5.565  42.617  50.462  1.00  0.00     0.117 C 
BRANCH   3   4
ATOM      4  C   UNL     1       5.467  41.472  49.448  1.00  0.00     0.049 C 
BRANCH   4   5
ATOM      5  C   UNL     1       4.035  40.993  49.231  1.00  0.00     0.158 C 
BRANCH   5   6
ATOM      6  O   UNL     1       3.504  40.424  50.425  1.00  0.00    -0.396 OA
ATOM      7  H   UNL     1       2.984  41.122  50.865  1.00  0.00     0.210 HD
ENDBRANCH   5   6
ENDBRANCH   4   5
ENDBRANCH   3   4
ENDBRANCH   1   3
BRANCH   1   8
ATOM      8  C   UNL     1       4.221  44.172  51.803  1.00  0.00     0.139 A 
ATOM      9  N   UNL     1       5.151  45.135  51.683  1.00  0.00    -0.195 NA
ATOM     10  C   UNL     1       3.200  44.245  52.764  1.00  0.00     0.043 A 
ATOM     11  C   UNL     1       5.101  46.175  52.524  1.00  0.00     0.229 A 
ATOM     12  C   UNL     1       2.157  43.296  52.930  1.00  0.00     0.014 A 
ATOM     13  C   UNL     1       3.253  45.360  53.605  1.00  0.00     0.078 A 
ATOM     14  N   UNL     1       4.192  46.301  53.495  1.00  0.00    -0.213 NA
ATOM     15  C   UNL     1       1.198  43.454  53.928  1.00  0.00     0.001 A 
ATOM     16  C   UNL     1       2.288  45.495  54.596  1.00  0.00     0.029 A 
ATOM     17  C   UNL     1       1.266  44.557  54.767  1.00  0.00     0.002 A 
BRANCH  11  18
ATOM     18  N   UNL     1       6.116  47.118  52.356  1.00  0.00    -0.321 N 
ATOM     19  H   UNL     1       5.725  48.019  52.612  1.00  0.00     0.170 HD
BRANCH  18  20
ATOM     20  C   UNL     1       7.498  47.030  52.611  1.00  0.00     0.083 A 
ATOM     21  C   UNL     1       8.468  46.871  51.617  1.00  0.00     0.030 A 
ATOM     22  C   UNL     1       7.944  47.132  53.940  1.00  0.00     0.139 A 
ATOM     23  C   UNL     1       9.825  46.766  51.950  1.00  0.00     0.002 A 
ATOM     24  C   UNL     1       9.286  47.016  54.286  1.00  0.00     0.048 A 
ATOM     25  C   UNL     1      10.232  46.829  53.282  1.00  0.00     0.004 A 
BRANCH  22  26
ATOM     26  O   UNL     1       7.049  47.392  54.947  1.00  0.00    -0.506 OA
ATOM     27  H   UNL     1       6.950  48.360  54.955  1.00  0.00     0.293 HD
ENDBRANCH  22  26
ENDBRANCH  18  20
ENDBRANCH  11  18
ENDBRANCH   1   8
TORSDOF 8
ENDMDL
MODEL 10
REMARK VINA RESULT:    -7.930      1.814      6.200
REMARK INTER + INTRA:         -12.345
REMARK INTER:                 -11.587
REMARK INTRA:                  -0.758
REMARK UNBOUND:                -1.170
REMARK SMILES OCCCNc1nc(Nc2ccccc2O)nc2ccccc12
REMARK SMILES IDX 5 1 4 3 3 4 2 5 1 6 6 8 7 9 23 10 8 11 22 12 18 13 17 14
REMARK SMILES IDX 21 15 19 16 20 17 9 18 10 20 11 21 15 22 12 23 14 24 13 25
REMARK SMILES IDX 16 26
REMARK H PARENT 5 2 1 7 9 19 16 27
ROOT
ATOM      1  N   UNL     1       7.312  47.083  52.161  1.00  0.00    -0.369 N 
ATOM      2  H   UNL     1       8.083  47.019  51.489  1.00  0.00     0.162 HD
ENDROOT
BRANCH   1   3
ATOM      3  C   UNL     1       7.844  47.254  53.513  1.00  0.00     0.117 C 
BRANCH   3   4
ATOM      4  C   UNL     1       9.377  47.223  53.547  1.00  0.00     0.049 C 
BRANCH   4   5
ATOM      5  C   UNL     1       9.945  47.556  54.923  1.00  0.00     0.158 C 
BRANCH   5   6
ATOM      6  O   UNL     1       9.169  48.566  55.561  1.00  0.00    -0.396 OA
ATOM      7  H   UNL     1       9.554  48.702  56.447  1.00  0.00     0.210 HD
ENDBRANCH   5   6
ENDBRANCH   4   5
ENDBRANCH   3   4
ENDBRANCH   1   3
BRANCH   1   8
ATOM      8  C   UNL     1       6.428  46.006  51.945  1.00  0.00     0.139 A 
ATOM      9  N   UNL     1       5.293  45.943  52.662  1.00  0.00    -0.195 NA
ATOM     10  C   UNL     1       6.738  45.051  50.963  1.00  0.00     0.043 A 
ATOM     11  C   UNL     1       4.455  44.924  52.436  1.00  0.00     0.229 A 
ATOM     12  C   UNL     1       7.891  45.067  50.134  1.00  0.00     0.014 A 
ATOM     13  C   UNL     1       5.806  44.019  50.824  1.00  0.00     0.078 A 
ATOM     14  N   UNL     1       4.692  43.949  51.553  1.00  0.00    -0.213 NA
ATOM     15  C   UNL     1       8.112  44.060  49.198  1.00  0.00     0.001 A 
ATOM     16  C   UNL     1       6.050  43.022  49.884  1.00  0.00     0.029 A 
ATOM     17  C   UNL     1       7.189  43.031  49.075  1.00  0.00     0.002 A 
BRANCH  11  18
ATOM     18  N   UNL     1       3.313  44.911  53.239  1.00  0.00    -0.321 N 
ATOM     19  H   UNL     1       3.384  45.707  53.863  1.00  0.00     0.170 HD
BRANCH  18  20
ATOM     20  C   UNL     1       1.980  44.577  52.930  1.00  0.00     0.083 A 
ATOM     21  C   UNL     1       1.004  45.510  52.570  1.00  0.00     0.030 A 
ATOM     22  C   UNL     1       1.604  43.223  52.959  1.00  0.00     0.139 A 
ATOM     23  C   UNL     1      -0.310  45.104  52.302  1.00  0.00     0.002 A 
ATOM     24  C   UNL     1       0.300  42.808  52.708  1.00  0.00     0.048 A 
ATOM     25  C   UNL     1      -0.663  43.758  52.380  1.00  0.00     0.004 A 
BRANCH  22  26
ATOM     26  O   UNL     1       2.542  42.254  53.205  1.00  0.00    -0.506 OA
ATOM     27  H   UNL     1       2.147  41.684  53.889  1.00  0.00     0.293 HD
ENDBRANCH  22  26
ENDBRANCH  18  20
ENDBRANCH  11  18
ENDBRANCH   1   8
TORSDOF 8
ENDMDL
MODEL 11
REMARK VINA RESULT:    -7.901      2.143      4.193
REMARK INTER + INTRA:         -12.305
REMARK INTER:                 -11.413
REMARK INTRA:                  -0.892
REMARK UNBOUND:                -1.170
REMARK SMILES OCCCNc1nc(Nc2ccccc2O)nc2ccccc12
REMARK SMILES IDX 5 1 4 3 3 4 2 5 1 6 6 8 7 9 23 10 8 11 22 12 18 13 17 14
REMARK SMILES IDX 21 15 19 16 20 17 9 18 10 20 11 21 15 22 12 23 14 24 13 25
REMARK SMILES IDX 16 26
REMARK H PARENT 5 2 1 7 9 19 16 27
ROOT
ATOM      1  N   UNL     1       4.167  42.728  50.572  1.00  0.00    -0.369 N 
ATOM      2  H   UNL     1       3.197  42.431  50.427  1.00  0.00     0.162 HD
ENDROOT
BRANCH   1   3
ATOM      3  C   UNL     1       4.996  41.568  50.899  1.00  0.00     0.117 C 
BRANCH   3   4
ATOM      4  C   UNL     1       6.286  41.518  50.072  1.00  0.00     0.049 C 
BRANCH   4   5
ATOM      5  C   UNL     1       6.186  42.308  48.771  1.00  0.00     0.158 C 
BRANCH   5   6
ATOM      6  O   UNL     1       6.069  41.432  47.654  1.00  0.00    -0.396 OA
ATOM      7  H   UNL     1       5.690  40.597  47.987  1.00  0.00     0.210 HD
ENDBRANCH   5   6
ENDBRANCH   4   5
ENDBRANCH   3   4
ENDBRANCH   1   3
BRANCH   1   8
ATOM      8  C   UNL     1       4.181  43.810  51.477  1.00  0.00     0.139 A 
ATOM      9  N   UNL     1       5.116  44.765  51.331  1.00  0.00    -0.195 NA
ATOM     10  C   UNL     1       3.200  43.879  52.478  1.00  0.00     0.043 A 
ATOM     11  C   UNL     1       5.108  45.795  52.186  1.00  0.00     0.229 A 
ATOM     12  C   UNL     1       2.156  42.938  52.675  1.00  0.00     0.014 A 
ATOM     13  C   UNL     1       3.298  44.984  53.330  1.00  0.00     0.078 A 
ATOM     14  N   UNL     1       4.240  45.918  53.194  1.00  0.00    -0.213 NA
ATOM     15  C   UNL     1       1.239  43.092  53.711  1.00  0.00     0.001 A 
ATOM     16  C   UNL     1       2.373  45.115  54.360  1.00  0.00     0.029 A 
ATOM     17  C   UNL     1       1.350  44.184  54.560  1.00  0.00     0.002 A 
BRANCH  11  18
ATOM     18  N   UNL     1       6.126  46.731  51.990  1.00  0.00    -0.321 N 
ATOM     19  H   UNL     1       5.688  47.646  51.999  1.00  0.00     0.170 HD
BRANCH  18  20
ATOM     20  C   UNL     1       7.452  46.754  52.462  1.00  0.00     0.083 A 
ATOM     21  C   UNL     1       8.568  46.452  51.676  1.00  0.00     0.030 A 
ATOM     22  C   UNL     1       7.682  47.128  53.798  1.00  0.00     0.139 A 
ATOM     23  C   UNL     1       9.857  46.472  52.225  1.00  0.00     0.002 A 
ATOM     24  C   UNL     1       8.955  47.139  54.358  1.00  0.00     0.048 A 
ATOM     25  C   UNL     1      10.049  46.805  53.565  1.00  0.00     0.004 A 
BRANCH  22  26
ATOM     26  O   UNL     1       6.637  47.535  54.587  1.00  0.00    -0.506 OA
ATOM     27  H   UNL     1       6.999  48.252  55.138  1.00  0.00     0.293 HD
ENDBRANCH  22  26
ENDBRANCH  18  20
ENDBRANCH  11  18
ENDBRANCH   1   8
TORSDOF 8
ENDMDL
MODEL 12
REMARK VINA RESULT:    -7.857      2.212      6.584
REMARK INTER + INTRA:         -12.243
REMARK INTER:                 -11.535
REMARK INTRA:                  -0.708
REMARK UNBOUND:                -1.170
REMARK SMILES OCCCNc1nc(Nc2ccccc2O)nc2ccccc12
REMARK SMILES IDX 5 1 4 3 3 4 2 5 1 6 6 8 7 9 23 10 8 11 22 12 18 13 17 14
REMARK SMILES IDX 21 15 19 16 20 17 9 18 10 20 11 21 15 22 12 23 14 24 13 25
REMARK SMILES IDX 16 26
REMARK H PARENT 5 2 1 7 9 19 16 27
ROOT
ATOM      1  N   UNL     1       7.241  44.972  49.975  1.00  0.00    -0.369 N 
ATOM      2  H   UNL     1       6.499  45.281  49.339  1.00  0.00     0.162 HD
ENDROOT
BRANCH   1   3
ATOM      3  C   UNL     1       7.589  43.580  49.692  1.00  0.00     0.117 C 
BRANCH   3   4
ATOM      4  C   UNL     1       6.465  42.830  48.968  1.00  0.00     0.049 C 
BRANCH   4   5
ATOM      5  C   UNL     1       6.117  41.501  49.631  1.00  0.00     0.158 C 
BRANCH   5   6
ATOM      6  O   UNL     1       7.292  40.842  50.093  1.00  0.00    -0.396 OA
ATOM      7  H   UNL     1       6.999  40.068  50.608  1.00  0.00     0.210 HD
ENDBRANCH   5   6
ENDBRANCH   4   5
ENDBRANCH   3   4
ENDBRANCH   1   3
BRANCH   1   8
ATOM      8  C   UNL     1       6.869  45.290  51.298  1.00  0.00     0.139 A 
ATOM      9  N   UNL     1       5.671  44.881  51.752  1.00  0.00    -0.195 NA
ATOM     10  C   UNL     1       7.771  45.989  52.115  1.00  0.00     0.043 A 
ATOM     11  C   UNL     1       5.337  45.176  53.014  1.00  0.00     0.229 A 
ATOM     12  C   UNL     1       9.068  46.419  51.728  1.00  0.00     0.014 A 
ATOM     13  C   UNL     1       7.314  46.264  53.407  1.00  0.00     0.078 A 
ATOM     14  N   UNL     1       6.116  45.875  53.845  1.00  0.00    -0.213 NA
ATOM     15  C   UNL     1       9.882  47.122  52.613  1.00  0.00     0.001 A 
ATOM     16  C   UNL     1       8.142  46.970  54.272  1.00  0.00     0.029 A 
ATOM     17  C   UNL     1       9.415  47.402  53.890  1.00  0.00     0.002 A 
BRANCH  11  18
ATOM     18  N   UNL     1       4.068  44.744  53.403  1.00  0.00    -0.321 N 
ATOM     19  H   UNL     1       3.783  45.333  54.179  1.00  0.00     0.170 HD
BRANCH  18  20
ATOM     20  C   UNL     1       2.979  44.290  52.634  1.00  0.00     0.083 A 
ATOM     21  C   UNL     1       2.812  42.965  52.222  1.00  0.00     0.030 A 
ATOM     22  C   UNL     1       1.982  45.212  52.274  1.00  0.00     0.139 A 
ATOM     23  C   UNL     1       1.713  42.594  51.435  1.00  0.00     0.002 A 
ATOM     24  C   UNL     1       0.894  44.859  51.482  1.00  0.00     0.048 A 
ATOM     25  C   UNL     1       0.762  43.540  51.058  1.00  0.00     0.004 A 
BRANCH  22  26
ATOM     26  O   UNL     1       2.038  46.503  52.735  1.00  0.00    -0.506 OA
ATOM     27  H   UNL     1       2.046  46.425  53.706  1.00  0.00     0.293 HD
ENDBRANCH  22  26
ENDBRANCH  18  20
ENDBRANCH  11  18
ENDBRANCH   1   8
TORSDOF 8
ENDMDL
MODEL 13
REMARK VINA RESULT:    -7.843      2.284      5.916
REMARK INTER + INTRA:         -12.223
REMARK INTER:                 -10.884
REMARK INTRA:                  -1.339
REMARK UNBOUND:                -1.170
REMARK SMILES OCCCNc1nc(Nc2ccccc2O)nc2ccccc12
REMARK SMILES IDX 5 1 4 3 3 4 2 5 1 6 6 8 7 9 23 10 8 11 22 12 18 13 17 14
REMARK SMILES IDX 21 15 19 16 20 17 9 18 10 20 11 21 15 22 12 23 14 24 13 25
REMARK SMILES IDX 16 26
REMARK H PARENT 5 2 1 7 9 19 16 27
ROOT
ATOM      1  N   UNL     1       4.913  46.469  52.494  1.00  0.00    -0.369 N 
ATOM      2  H   UNL     1       5.742  46.849  52.028  1.00  0.00     0.162 HD
ENDROOT
BRANCH   1   3
ATOM      3  C   UNL     1       4.977  46.751  53.927  1.00  0.00     0.117 C 
BRANCH   3   4
ATOM      4  C   UNL     1       6.168  46.065  54.607  1.00  0.00     0.049 C 
BRANCH   4   5
ATOM      5  C   UNL     1       5.746  44.951  55.560  1.00  0.00     0.158 C 
BRANCH   5   6
ATOM      6  O   UNL     1       4.326  44.841  55.613  1.00  0.00    -0.396 OA
ATOM      7  H   UNL     1       4.022  44.653  54.705  1.00  0.00     0.210 HD
ENDBRANCH   5   6
ENDBRANCH   4   5
ENDBRANCH   3   4
ENDBRANCH   1   3
BRANCH   1   8
ATOM      8  C   UNL     1       4.749  45.123  52.105  1.00  0.00     0.139 A 
ATOM      9  N   UNL     1       3.718  44.422  52.608  1.00  0.00    -0.195 NA
ATOM     10  C   UNL     1       5.642  44.564  51.177  1.00  0.00     0.043 A 
ATOM     11  C   UNL     1       3.565  43.151  52.219  1.00  0.00     0.229 A 
ATOM     12  C   UNL     1       6.728  45.244  50.567  1.00  0.00     0.014 A 
ATOM     13  C   UNL     1       5.404  43.224  50.857  1.00  0.00     0.078 A 
ATOM     14  N   UNL     1       4.393  42.527  51.376  1.00  0.00    -0.213 NA
ATOM     15  C   UNL     1       7.567  44.592  49.667  1.00  0.00     0.001 A 
ATOM     16  C   UNL     1       6.257  42.592  49.959  1.00  0.00     0.029 A 
ATOM     17  C   UNL     1       7.332  43.258  49.364  1.00  0.00     0.002 A 
BRANCH  11  18
ATOM     18  N   UNL     1       2.490  42.481  52.806  1.00  0.00    -0.321 N 
ATOM     19  H   UNL     1       2.861  41.974  53.604  1.00  0.00     0.170 HD
BRANCH  18  20
ATOM     20  C   UNL     1       1.152  42.878  52.986  1.00  0.00     0.083 A 
ATOM     21  C   UNL     1       0.097  42.469  52.164  1.00  0.00     0.030 A 
ATOM     22  C   UNL     1       0.840  43.718  54.070  1.00  0.00     0.139 A 
ATOM     23  C   UNL     1      -1.207  42.928  52.391  1.00  0.00     0.002 A 
ATOM     24  C   UNL     1      -0.447  44.190  54.299  1.00  0.00     0.048 A 
ATOM     25  C   UNL     1      -1.477  43.794  53.450  1.00  0.00     0.004 A 
BRANCH  22  26
ATOM     26  O   UNL     1       1.814  44.068  54.970  1.00  0.00    -0.506 OA
ATOM     27  H   UNL     1       1.345  44.537  55.683  1.00  0.00     0.293 HD
ENDBRANCH  22  26
ENDBRANCH  18  20
ENDBRANCH  11  18
ENDBRANCH   1   8
TORSDOF 8
ENDMDL
MODEL 14
REMARK VINA RESULT:    -7.772      1.594      5.685
REMARK INTER + INTRA:         -12.123
REMARK INTER:                 -10.590
REMARK INTRA:                  -1.533
REMARK UNBOUND:                -1.170
REMARK SMILES OCCCNc1nc(Nc2ccccc2O)nc2ccccc12
REMARK SMILES IDX 5 1 4 3 3 4 2 5 1 6 6 8 7 9 23 10 8 11 22 12 18 13 17 14
REMARK SMILES IDX 21 15 19 16 20 17 9 18 10 20 11 21 15 22 12 23 14 24 13 25
REMARK SMILES IDX 16 26
REMARK H PARENT 5 2 1 7 9 19 16 27
ROOT
ATOM      1  N   UNL     1       5.322  46.832  54.660  1.00  0.00    -0.369 N 
ATOM      2  H   UNL     1       5.893  47.355  55.331  1.00  0.00     0.162 HD
ENDROOT
BRANCH   1   3
ATOM      3  C   UNL     1       4.604  45.760  55.349  1.00  0.00     0.117 C 
BRANCH   3   4
ATOM      4  C   UNL     1       3.094  46.020  55.423  1.00  0.00     0.049 C 
BRANCH   4   5
ATOM      5  C   UNL     1       2.339  45.476  54.214  1.00  0.00     0.158 C 
BRANCH   5   6
ATOM      6  O   UNL     1       2.602  46.265  53.057  1.00  0.00    -0.396 OA
ATOM      7  H   UNL     1       1.797  46.790  52.883  1.00  0.00     0.210 HD
ENDBRANCH   5   6
ENDBRANCH   4   5
ENDBRANCH   3   4
ENDBRANCH   1   3
BRANCH   1   8
ATOM      8  C   UNL     1       6.128  46.469  53.561  1.00  0.00     0.139 A 
ATOM      9  N   UNL     1       5.548  45.897  52.491  1.00  0.00    -0.195 NA
ATOM     10  C   UNL     1       7.503  46.747  53.598  1.00  0.00     0.043 A 
ATOM     11  C   UNL     1       6.322  45.571  51.449  1.00  0.00     0.229 A 
ATOM     12  C   UNL     1       8.186  47.385  54.667  1.00  0.00     0.014 A 
ATOM     13  C   UNL     1       8.221  46.347  52.467  1.00  0.00     0.078 A 
ATOM     14  N   UNL     1       7.644  45.760  51.418  1.00  0.00    -0.213 NA
ATOM     15  C   UNL     1       9.560  47.602  54.610  1.00  0.00     0.001 A 
ATOM     16  C   UNL     1       9.593  46.571  52.434  1.00  0.00     0.029 A 
ATOM     17  C   UNL     1      10.268  47.190  53.490  1.00  0.00     0.002 A 
BRANCH  11  18
ATOM     18  N   UNL     1       5.654  44.956  50.389  1.00  0.00    -0.321 N 
ATOM     19  H   UNL     1       5.878  45.486  49.554  1.00  0.00     0.170 HD
BRANCH  18  20
ATOM     20  C   UNL     1       5.416  43.593  50.124  1.00  0.00     0.083 A 
ATOM     21  C   UNL     1       6.190  42.819  49.255  1.00  0.00     0.030 A 
ATOM     22  C   UNL     1       4.353  42.956  50.787  1.00  0.00     0.139 A 
ATOM     23  C   UNL     1       5.876  41.474  49.021  1.00  0.00     0.002 A 
ATOM     24  C   UNL     1       4.022  41.625  50.554  1.00  0.00     0.048 A 
ATOM     25  C   UNL     1       4.789  40.881  49.662  1.00  0.00     0.004 A 
BRANCH  22  26
ATOM     26  O   UNL     1       3.623  43.636  51.728  1.00  0.00    -0.506 OA
ATOM     27  H   UNL     1       4.153  43.589  52.544  1.00  0.00     0.293 HD
ENDBRANCH  22  26
ENDBRANCH  18  20
ENDBRANCH  11  18
ENDBRANCH   1   8
TORSDOF 8
ENDMDL
MODEL 15
REMARK VINA RESULT:    -7.762      2.238      6.798
REMARK INTER + INTRA:         -12.108
REMARK INTER:                 -11.075
REMARK INTRA:                  -1.032
REMARK UNBOUND:                -1.170
REMARK SMILES OCCCNc1nc(Nc2ccccc2O)nc2ccccc12
REMARK SMILES IDX 5 1 4 3 3 4 2 5 1 6 6 8 7 9 23 10 8 11 22 12 18 13 17 14
REMARK SMILES IDX 21 15 19 16 20 17 9 18 10 20 11 21 15 22 12 23 14 24 13 25
REMARK SMILES IDX 16 26
REMARK H PARENT 5 2 1 7 9 19 16 27
ROOT
ATOM      1  N   UNL     1       6.640  45.124  50.322  1.00  0.00    -0.369 N 
ATOM      2  H   UNL     1       6.099  45.810  49.785  1.00  0.00     0.162 HD
ENDROOT
BRANCH   1   3
ATOM      3  C   UNL     1       6.359  43.776  49.829  1.00  0.00     0.117 C 
BRANCH   3   4
ATOM      4  C   UNL     1       7.598  43.102  49.228  1.00  0.00     0.049 C 
BRANCH   4   5
ATOM      5  C   UNL     1       8.690  44.098  48.850  1.00  0.00     0.158 C 
BRANCH   5   6
ATOM      6  O   UNL     1       9.737  44.092  49.816  1.00  0.00    -0.396 OA
ATOM      7  H   UNL     1       9.356  44.427  50.649  1.00  0.00     0.210 HD
ENDBRANCH   5   6
ENDBRANCH   4   5
ENDBRANCH   3   4
ENDBRANCH   1   3
BRANCH   1   8
ATOM      8  C   UNL     1       6.443  45.365  51.697  1.00  0.00     0.139 A 
ATOM      9  N   UNL     1       5.352  44.858  52.296  1.00  0.00    -0.195 NA
ATOM     10  C   UNL     1       7.408  46.094  52.411  1.00  0.00     0.043 A 
ATOM     11  C   UNL     1       5.185  45.080  53.605  1.00  0.00     0.229 A 
ATOM     12  C   UNL     1       8.606  46.627  51.866  1.00  0.00     0.014 A 
ATOM     13  C   UNL     1       7.125  46.287  53.766  1.00  0.00     0.078 A 
ATOM     14  N   UNL     1       6.029  45.800  54.350  1.00  0.00    -0.213 NA
ATOM     15  C   UNL     1       9.493  47.351  52.659  1.00  0.00     0.001 A 
ATOM     16  C   UNL     1       8.023  47.016  54.538  1.00  0.00     0.029 A 
ATOM     17  C   UNL     1       9.198  47.549  54.001  1.00  0.00     0.002 A 
BRANCH  11  18
ATOM     18  N   UNL     1       4.015  44.547  54.149  1.00  0.00    -0.321 N 
ATOM     19  H   UNL     1       4.003  44.806  55.130  1.00  0.00     0.170 HD
BRANCH  18  20
ATOM     20  C   UNL     1       2.724  44.423  53.601  1.00  0.00     0.083 A 
ATOM     21  C   UNL     1       1.751  45.424  53.659  1.00  0.00     0.030 A 
ATOM     22  C   UNL     1       2.391  43.233  52.931  1.00  0.00     0.139 A 
ATOM     23  C   UNL     1       0.477  45.217  53.112  1.00  0.00     0.002 A 
ATOM     24  C   UNL     1       1.127  43.010  52.395  1.00  0.00     0.048 A 
ATOM     25  C   UNL     1       0.163  44.010  52.490  1.00  0.00     0.004 A 
BRANCH  22  26
ATOM     26  O   UNL     1       3.337  42.256  52.753  1.00  0.00    -0.506 OA
ATOM     27  H   UNL     1       3.232  41.658  53.514  1.00  0.00     0.293 HD
ENDBRANCH  22  26
ENDBRANCH  18  20
ENDBRANCH  11  18
ENDBRANCH   1   8
TORSDOF 8
ENDMDL
MODEL 16
REMARK VINA RESULT:    -7.712      1.814      6.200
REMARK INTER + INTRA:         -12.038
REMARK INTER:                 -11.312
REMARK INTRA:                  -0.726
REMARK UNBOUND:                -1.170
REMARK SMILES OCCCNc1nc(Nc2ccccc2O)nc2ccccc12
REMARK SMILES IDX 5 1 4 3 3 4 2 5 1 6 6 8 7 9 23 10 8 11 22 12 18 13 17 14
REMARK SMILES IDX 21 15 19 16 20 17 9 18 10 20 11 21 15 22 12 23 14 24 13 25
REMARK SMILES IDX 16 26
REMARK H PARENT 5 2 1 7 9 19 16 27
ROOT
ATOM      1  N   UNL     1       6.400  46.903  52.203  1.00  0.00    -0.369 N 
ATOM      2  H   UNL     1       6.997  47.044  51.382  1.00  0.00     0.162 HD
ENDROOT
BRANCH   1   3
ATOM      3  C   UNL     1       7.172  47.135  53.423  1.00  0.00     0.117 C 
BRANCH   3   4
ATOM      4  C   UNL     1       8.543  47.761  53.139  1.00  0.00     0.049 C 
BRANCH   4   5
ATOM      5  C   UNL     1       9.478  47.708  54.343  1.00  0.00     0.158 C 
BRANCH   5   6
ATOM      6  O   UNL     1       9.015  48.564  55.383  1.00  0.00    -0.396 OA
ATOM      7  H   UNL     1       9.214  48.117  56.227  1.00  0.00     0.210 HD
ENDBRANCH   5   6
ENDBRANCH   4   5
ENDBRANCH   3   4
ENDBRANCH   1   3
BRANCH   1   8
ATOM      8  C   UNL     1       5.742  45.662  52.079  1.00  0.00     0.139 A 
ATOM      9  N   UNL     1       4.673  45.413  52.854  1.00  0.00    -0.195 NA
ATOM     10  C   UNL     1       6.198  44.736  51.126  1.00  0.00     0.043 A 
ATOM     11  C   UNL     1       4.048  44.237  52.716  1.00  0.00     0.229 A 
ATOM     12  C   UNL     1       7.289  44.936  50.241  1.00  0.00     0.014 A 
ATOM     13  C   UNL     1       5.487  43.533  51.080  1.00  0.00     0.078 A 
ATOM     14  N   UNL     1       4.440  43.283  51.867  1.00  0.00    -0.213 NA
ATOM     15  C   UNL     1       7.671  43.945  49.340  1.00  0.00     0.001 A 
ATOM     16  C   UNL     1       5.889  42.556  50.175  1.00  0.00     0.029 A 
ATOM     17  C   UNL     1       6.969  42.748  49.309  1.00  0.00     0.002 A 
BRANCH  11  18
ATOM     18  N   UNL     1       2.966  44.041  53.575  1.00  0.00    -0.321 N 
ATOM     19  H   UNL     1       3.131  44.618  54.393  1.00  0.00     0.170 HD
BRANCH  18  20
ATOM     20  C   UNL     1       1.596  43.868  53.297  1.00  0.00     0.083 A 
ATOM     21  C   UNL     1       0.929  42.643  53.385  1.00  0.00     0.030 A 
ATOM     22  C   UNL     1       0.838  44.994  52.931  1.00  0.00     0.139 A 
ATOM     23  C   UNL     1      -0.432  42.544  53.067  1.00  0.00     0.002 A 
ATOM     24  C   UNL     1      -0.510  44.907  52.601  1.00  0.00     0.048 A 
ATOM     25  C   UNL     1      -1.148  43.671  52.667  1.00  0.00     0.004 A 
BRANCH  22  26
ATOM     26  O   UNL     1       1.414  46.238  52.927  1.00  0.00    -0.506 OA
ATOM     27  H   UNL     1       2.228  46.141  52.402  1.00  0.00     0.293 HD
ENDBRANCH  22  26
ENDBRANCH  18  20
ENDBRANCH  11  18
ENDBRANCH   1   8
TORSDOF 8
ENDMDL
MODEL 17
REMARK VINA RESULT:    -7.630      2.158      2.789
REMARK INTER + INTRA:         -11.923
REMARK INTER:                 -11.126
REMARK INTRA:                  -0.797
REMARK UNBOUND:                -1.170
REMARK SMILES OCCCNc1nc(Nc2ccccc2O)nc2ccccc12
REMARK SMILES IDX 5 1 4 3 3 4 2 5 1 6 6 8 7 9 23 10 8 11 22 12 18 13 17 14
REMARK SMILES IDX 21 15 19 16 20 17 9 18 10 20 11 21 15 22 12 23 14 24 13 25
REMARK SMILES IDX 16 26
REMARK H PARENT 5 2 1 7 9 19 16 27
ROOT
ATOM      1  N   UNL     1       3.045  45.151  55.661  1.00  0.00    -0.369 N 
ATOM      2  H   UNL     1       2.711  44.194  55.813  1.00  0.00     0.162 HD
ENDROOT
BRANCH   1   3
ATOM      3  C   UNL     1       2.022  46.106  56.088  1.00  0.00     0.117 C 
BRANCH   3   4
ATOM      4  C   UNL     1       1.229  45.612  57.304  1.00  0.00     0.049 C 
BRANCH   4   5
ATOM      5  C   UNL     1       1.020  46.697  58.355  1.00  0.00     0.158 C 
BRANCH   5   6
ATOM      6  O   UNL     1       2.078  46.689  59.309  1.00  0.00    -0.396 OA
ATOM      7  H   UNL     1       2.844  47.122  58.887  1.00  0.00     0.210 HD
ENDBRANCH   5   6
ENDBRANCH   4   5
ENDBRANCH   3   4
ENDBRANCH   1   3
BRANCH   1   8
ATOM      8  C   UNL     1       3.524  45.263  54.340  1.00  0.00     0.139 A 
ATOM      9  N   UNL     1       4.528  46.119  54.083  1.00  0.00    -0.195 NA
ATOM     10  C   UNL     1       2.966  44.452  53.338  1.00  0.00     0.043 A 
ATOM     11  C   UNL     1       4.983  46.204  52.827  1.00  0.00     0.229 A 
ATOM     12  C   UNL     1       1.936  43.495  53.532  1.00  0.00     0.014 A 
ATOM     13  C   UNL     1       3.500  44.636  52.059  1.00  0.00     0.078 A 
ATOM     14  N   UNL     1       4.482  45.503  51.806  1.00  0.00    -0.213 NA
ATOM     15  C   UNL     1       1.441  42.750  52.464  1.00  0.00     0.001 A 
ATOM     16  C   UNL     1       2.988  43.884  51.008  1.00  0.00     0.029 A 
ATOM     17  C   UNL     1       1.968  42.948  51.195  1.00  0.00     0.002 A 
BRANCH  11  18
ATOM     18  N   UNL     1       6.006  47.134  52.633  1.00  0.00    -0.321 N 
ATOM     19  H   UNL     1       5.692  48.005  53.048  1.00  0.00     0.170 HD
BRANCH  18  20
ATOM     20  C   UNL     1       7.405  46.980  52.679  1.00  0.00     0.083 A 
ATOM     21  C   UNL     1       8.201  46.733  51.557  1.00  0.00     0.030 A 
ATOM     22  C   UNL     1       8.053  47.104  53.920  1.00  0.00     0.139 A 
ATOM     23  C   UNL     1       9.587  46.566  51.686  1.00  0.00     0.002 A 
ATOM     24  C   UNL     1       9.425  46.928  54.063  1.00  0.00     0.048 A 
ATOM     25  C   UNL     1      10.196  46.653  52.936  1.00  0.00     0.004 A 
BRANCH  22  26
ATOM     26  O   UNL     1       7.338  47.448  55.038  1.00  0.00    -0.506 OA
ATOM     27  H   UNL     1       8.007  47.673  55.709  1.00  0.00     0.293 HD
ENDBRANCH  22  26
ENDBRANCH  18  20
ENDBRANCH  11  18
ENDBRANCH   1   8
TORSDOF 8
ENDMDL
MODEL 18
REMARK VINA RESULT:    -7.483      1.934      5.736
REMARK INTER + INTRA:         -11.715
REMARK INTER:                 -10.572
REMARK INTRA:                  -1.143
REMARK UNBOUND:                -1.170
REMARK SMILES OCCCNc1nc(Nc2ccccc2O)nc2ccccc12
REMARK SMILES IDX 5 1 4 3 3 4 2 5 1 6 6 8 7 9 23 10 8 11 22 12 18 13 17 14
REMARK SMILES IDX 21 15 19 16 20 17 9 18 10 20 11 21 15 22 12 23 14 24 13 25
REMARK SMILES IDX 16 26
REMARK H PARENT 5 2 1 7 9 19 16 27
ROOT
ATOM      1  N   UNL     1       5.823  46.468  54.928  1.00  0.00    -0.369 N 
ATOM      2  H   UNL     1       6.612  46.615  55.566  1.00  0.00     0.162 HD
ENDROOT
BRANCH   1   3
ATOM      3  C   UNL     1       4.869  45.536  55.528  1.00  0.00     0.117 C 
BRANCH   3   4
ATOM      4  C   UNL     1       3.438  46.087  55.535  1.00  0.00     0.049 C 
BRANCH   4   5
ATOM      5  C   UNL     1       2.433  45.134  54.895  1.00  0.00     0.158 C 
BRANCH   5   6
ATOM      6  O   UNL     1       3.101  44.062  54.236  1.00  0.00    -0.396 OA
ATOM      7  H   UNL     1       2.763  44.037  53.321  1.00  0.00     0.210 HD
ENDBRANCH   5   6
ENDBRANCH   4   5
ENDBRANCH   3   4
ENDBRANCH   1   3
BRANCH   1   8
ATOM      8  C   UNL     1       6.324  46.148  53.650  1.00  0.00     0.139 A 
ATOM      9  N   UNL     1       5.488  45.624  52.737  1.00  0.00    -0.195 NA
ATOM     10  C   UNL     1       7.670  46.420  53.352  1.00  0.00     0.043 A 
ATOM     11  C   UNL     1       5.973  45.340  51.522  1.00  0.00     0.229 A 
ATOM     12  C   UNL     1       8.606  47.010  54.242  1.00  0.00     0.014 A 
ATOM     13  C   UNL     1       8.077  46.064  52.063  1.00  0.00     0.078 A 
ATOM     14  N   UNL     1       7.248  45.524  51.169  1.00  0.00    -0.213 NA
ATOM     15  C   UNL     1       9.926  47.224  53.853  1.00  0.00     0.001 A 
ATOM     16  C   UNL     1       9.400  46.284  51.698  1.00  0.00     0.029 A 
ATOM     17  C   UNL     1      10.326  46.856  52.575  1.00  0.00     0.002 A 
BRANCH  11  18
ATOM     18  N   UNL     1       5.053  44.772  50.639  1.00  0.00    -0.321 N 
ATOM     19  H   UNL     1       5.589  44.261  49.945  1.00  0.00     0.170 HD
BRANCH  18  20
ATOM     20  C   UNL     1       3.786  44.205  50.876  1.00  0.00     0.083 A 
ATOM     21  C   UNL     1       3.561  42.835  51.044  1.00  0.00     0.030 A 
ATOM     22  C   UNL     1       2.676  45.061  50.976  1.00  0.00     0.139 A 
ATOM     23  C   UNL     1       2.265  42.342  51.251  1.00  0.00     0.002 A 
ATOM     24  C   UNL     1       1.384  44.584  51.169  1.00  0.00     0.048 A 
ATOM     25  C   UNL     1       1.179  43.213  51.303  1.00  0.00     0.004 A 
BRANCH  22  26
ATOM     26  O   UNL     1       2.849  46.420  50.924  1.00  0.00    -0.506 OA
ATOM     27  H   UNL     1       3.467  46.570  50.186  1.00  0.00     0.293 HD
ENDBRANCH  22  26
ENDBRANCH  18  20
ENDBRANCH  11  18
ENDBRANCH   1   8
TORSDOF 8
ENDMDL
MODEL 19
REMARK VINA RESULT:    -7.366      2.396      6.428
REMARK INTER + INTRA:         -11.550
REMARK INTER:                 -11.264
REMARK INTRA:                  -0.287
REMARK UNBOUND:                -1.170
REMARK SMILES OCCCNc1nc(Nc2ccccc2O)nc2ccccc12
REMARK SMILES IDX 5 1 4 3 3 4 2 5 1 6 6 8 7 9 23 10 8 11 22 12 18 13 17 14
REMARK SMILES IDX 21 15 19 16 20 17 9 18 10 20 11 21 15 22 12 23 14 24 13 25
REMARK SMILES IDX 16 26
REMARK H PARENT 5 2 1 7 9 19 16 27
ROOT
ATOM      1  N   UNL     1       4.211  43.830  51.186  1.00  0.00    -0.369 N 
ATOM      2  H   UNL     1       3.260  44.080  50.897  1.00  0.00     0.162 HD
ENDROOT
BRANCH   1   3
ATOM      3  C   UNL     1       4.339  42.375  51.264  1.00  0.00     0.117 C 
BRANCH   3   4
ATOM      4  C   UNL     1       5.012  41.779  50.022  1.00  0.00     0.049 C 
BRANCH   4   5
ATOM      5  C   UNL     1       6.512  42.052  49.971  1.00  0.00     0.158 C 
BRANCH   5   6
ATOM      6  O   UNL     1       7.248  40.833  49.936  1.00  0.00    -0.396 OA
ATOM      7  H   UNL     1       8.194  41.074  49.920  1.00  0.00     0.210 HD
ENDBRANCH   5   6
ENDBRANCH   4   5
ENDBRANCH   3   4
ENDBRANCH   1   3
BRANCH   1   8
ATOM      8  C   UNL     1       4.547  44.573  52.337  1.00  0.00     0.139 A 
ATOM      9  N   UNL     1       3.763  44.475  53.424  1.00  0.00    -0.195 NA
ATOM     10  C   UNL     1       5.708  45.362  52.329  1.00  0.00     0.043 A 
ATOM     11  C   UNL     1       4.102  45.173  54.515  1.00  0.00     0.229 A 
ATOM     12  C   UNL     1       6.611  45.487  51.240  1.00  0.00     0.014 A 
ATOM     13  C   UNL     1       5.957  46.065  53.511  1.00  0.00     0.078 A 
ATOM     14  N   UNL     1       5.163  45.982  54.580  1.00  0.00    -0.213 NA
ATOM     15  C   UNL     1       7.730  46.311  51.329  1.00  0.00     0.001 A 
ATOM     16  C   UNL     1       7.078  46.885  53.576  1.00  0.00     0.029 A 
ATOM     17  C   UNL     1       7.962  47.017  52.502  1.00  0.00     0.002 A 
BRANCH  11  18
ATOM     18  N   UNL     1       3.225  45.043  55.593  1.00  0.00    -0.321 N 
ATOM     19  H   UNL     1       3.611  45.594  56.353  1.00  0.00     0.170 HD
BRANCH  18  20
ATOM     20  C   UNL     1       1.819  44.976  55.627  1.00  0.00     0.083 A 
ATOM     21  C   UNL     1       1.046  44.280  54.692  1.00  0.00     0.030 A 
ATOM     22  C   UNL     1       1.141  45.625  56.673  1.00  0.00     0.139 A 
ATOM     23  C   UNL     1      -0.352  44.281  54.776  1.00  0.00     0.002 A 
ATOM     24  C   UNL     1      -0.247  45.644  56.761  1.00  0.00     0.048 A 
ATOM     25  C   UNL     1      -0.998  44.969  55.802  1.00  0.00     0.004 A 
BRANCH  22  26
ATOM     26  O   UNL     1       1.848  46.237  57.676  1.00  0.00    -0.506 OA
ATOM     27  H   UNL     1       2.304  45.514  58.144  1.00  0.00     0.293 HD
ENDBRANCH  22  26
ENDBRANCH  18  20
ENDBRANCH  11  18
ENDBRANCH   1   8
TORSDOF 8
ENDMDL
MODEL 20
REMARK VINA RESULT:    -7.341      2.847      6.469
REMARK INTER + INTRA:         -11.516
REMARK INTER:                  -9.947
REMARK INTRA:                  -1.568
REMARK UNBOUND:                -1.170
REMARK SMILES OCCCNc1nc(Nc2ccccc2O)nc2ccccc12
REMARK SMILES IDX 5 1 4 3 3 4 2 5 1 6 6 8 7 9 23 10 8 11 22 12 18 13 17 14
REMARK SMILES IDX 21 15 19 16 20 17 9 18 10 20 11 21 15 22 12 23 14 24 13 25
REMARK SMILES IDX 16 26
REMARK H PARENT 5 2 1 7 9 19 16 27
ROOT
ATOM      1  N   UNL     1       3.725  44.492  52.029  1.00  0.00    -0.369 N 
ATOM      2  H   UNL     1       3.451  43.609  52.471  1.00  0.00     0.162 HD
ENDROOT
BRANCH   1   3
ATOM      3  C   UNL     1       2.590  45.055  51.298  1.00  0.00     0.117 C 
BRANCH   3   4
ATOM      4  C   UNL     1       1.302  44.250  51.505  1.00  0.00     0.049 C 
BRANCH   4   5
ATOM      5  C   UNL     1       1.557  42.864  52.090  1.00  0.00     0.158 C 
BRANCH   5   6
ATOM      6  O   UNL     1       2.276  42.050  51.168  1.00  0.00    -0.396 OA
ATOM      7  H   UNL     1       2.086  41.121  51.401  1.00  0.00     0.210 HD
ENDBRANCH   5   6
ENDBRANCH   4   5
ENDBRANCH   3   4
ENDBRANCH   1   3
BRANCH   1   8
ATOM      8  C   UNL     1       4.922  44.290  51.311  1.00  0.00     0.139 A 
ATOM      9  N   UNL     1       5.025  43.216  50.510  1.00  0.00    -0.195 NA
ATOM     10  C   UNL     1       5.957  45.233  51.424  1.00  0.00     0.043 A 
ATOM     11  C   UNL     1       6.161  43.044  49.822  1.00  0.00     0.229 A 
ATOM     12  C   UNL     1       5.913  46.413  52.212  1.00  0.00     0.014 A 
ATOM     13  C   UNL     1       7.105  44.946  50.681  1.00  0.00     0.078 A 
ATOM     14  N   UNL     1       7.210  43.867  49.904  1.00  0.00    -0.213 NA
ATOM     15  C   UNL     1       7.003  47.277  52.267  1.00  0.00     0.001 A 
ATOM     16  C   UNL     1       8.183  45.822  50.753  1.00  0.00     0.029 A 
ATOM     17  C   UNL     1       8.145  46.978  51.536  1.00  0.00     0.002 A 
BRANCH  11  18
ATOM     18  N   UNL     1       6.204  41.892  49.035  1.00  0.00    -0.321 N 
ATOM     19  H   UNL     1       6.427  41.121  49.655  1.00  0.00     0.170 HD
BRANCH  18  20
ATOM     20  C   UNL     1       5.408  41.500  47.941  1.00  0.00     0.083 A 
ATOM     21  C   UNL     1       5.721  41.777  46.607  1.00  0.00     0.030 A 
ATOM     22  C   UNL     1       4.237  40.764  48.193  1.00  0.00     0.139 A 
ATOM     23  C   UNL     1       4.865  41.376  45.573  1.00  0.00     0.002 A 
ATOM     24  C   UNL     1       3.373  40.372  47.176  1.00  0.00     0.048 A 
ATOM     25  C   UNL     1       3.690  40.684  45.857  1.00  0.00     0.004 A 
BRANCH  22  26
ATOM     26  O   UNL     1       3.932  40.374  49.472  1.00  0.00    -0.506 OA
ATOM     27  H   UNL     1       3.204  40.959  49.749  1.00  0.00     0.293 HD
ENDBRANCH  22  26
ENDBRANCH  18  20
ENDBRANCH  11  18
ENDBRANCH   1   8
TORSDOF 8
ENDMDL
