MODEL 1
REMARK VINA RESULT:    -9.128      0.000      0.000
REMARK INTER + INTRA:         -13.083
REMARK INTER:                 -12.330
REMARK INTRA:                  -0.753
REMARK UNBOUND:                -0.753
REMARK SMILES COc1ccc(Nc2nc(NCc3ccccc3)nc3nccnc23)cc1
REMARK SMILES IDX 8 1 9 2 10 3 19 4 20 5 21 6 22 7 23 8 24 9 25 10 7 11 6 13
REMARK SMILES IDX 3 14 4 15 27 16 5 17 26 18 2 19 1 20 11 21 12 23 13 24 14 25
REMARK SMILES IDX 18 26 15 27 17 28 16 29
REMARK H PARENT 7 12 11 22
ROOT
ATOM      1  C   UNL     1       6.410  45.869  52.472  1.00  0.00     0.164 A 
ATOM      2  N   UNL     1       5.259  46.037  53.148  1.00  0.00    -0.193 NA
ATOM      3  C   UNL     1       5.300  46.708  54.296  1.00  0.00     0.227 A 
ATOM      4  N   UNL     1       6.408  47.236  54.807  1.00  0.00    -0.191 NA
ATOM      5  C   UNL     1       7.543  47.068  54.140  1.00  0.00     0.185 A 
ATOM      6  N   UNL     1       8.650  47.609  54.666  1.00  0.00    -0.233 NA
ATOM      7  C   UNL     1       9.814  47.454  53.997  1.00  0.00     0.133 A 
ATOM      8  C   UNL     1       9.891  46.774  52.802  1.00  0.00     0.132 A 
ATOM      9  N   UNL     1       8.801  46.226  52.235  1.00  0.00    -0.247 NA
ATOM     10  C   UNL     1       7.626  46.374  52.927  1.00  0.00     0.150 A 
ENDROOT
BRANCH   1  11
ATOM     11  N   UNL     1       6.442  45.125  51.258  1.00  0.00    -0.338 N 
ATOM     12  H   UNL     1       6.779  45.714  50.501  1.00  0.00     0.168 HD
BRANCH  11  13
ATOM     13  C   UNL     1       5.789  43.952  50.853  1.00  0.00     0.040 A 
ATOM     14  C   UNL     1       4.609  41.521  49.988  1.00  0.00     0.119 A 
ATOM     15  C   UNL     1       4.000  42.303  50.967  1.00  0.00     0.048 A 
ATOM     16  C   UNL     1       5.820  41.945  49.447  1.00  0.00     0.048 A 
ATOM     17  C   UNL     1       4.586  43.501  51.399  1.00  0.00     0.030 A 
ATOM     18  C   UNL     1       6.403  43.143  49.883  1.00  0.00     0.030 A 
BRANCH  14  19
ATOM     19  O   UNL     1       3.932  40.381  49.659  1.00  0.00    -0.497 OA
ATOM     20  C   UNL     1       3.576  40.217  48.291  1.00  0.00     0.278 C 
ENDBRANCH  14  19
ENDBRANCH  11  13
ENDBRANCH   1  11
BRANCH   3  21
ATOM     21  N   UNL     1       4.091  46.835  54.958  1.00  0.00    -0.350 N 
ATOM     22  H   UNL     1       4.117  47.706  55.475  1.00  0.00     0.164 HD
BRANCH  21  23
ATOM     23  C   UNL     1       3.695  45.675  55.728  1.00  0.00     0.152 C 
BRANCH  23  24
ATOM     24  C   UNL     1       2.330  45.220  55.265  1.00  0.00    -0.029 A 
ATOM     25  C   UNL     1       1.219  45.341  56.113  1.00  0.00     0.005 A 
ATOM     26  C   UNL     1       2.157  44.645  53.998  1.00  0.00     0.005 A 
ATOM     27  C   UNL     1      -0.042  44.911  55.696  1.00  0.00     0.000 A 
ATOM     28  C   UNL     1       0.894  44.215  53.583  1.00  0.00     0.000 A 
ATOM     29  C   UNL     1      -0.203  44.349  54.432  1.00  0.00     0.000 A 
ENDBRANCH  23  24
ENDBRANCH  21  23
ENDBRANCH   3  21
TORSDOF 6
ENDMDL
MODEL 2
REMARK VINA RESULT:    -9.121      3.110      7.450
REMARK INTER + INTRA:         -13.073
REMARK INTER:                 -12.205
REMARK INTRA:                  -0.868
REMARK UNBOUND:                -0.753
REMARK SMILES COc1ccc(Nc2nc(NCc3ccccc3)nc3nccnc23)cc1
REMARK SMILES IDX 8 1 9 2 10 3 19 4 20 5 21 6 22 7 23 8 24 9 25 10 7 11 6 13
REMARK SMILES IDX 3 14 4 15 27 16 5 17 26 18 2 19 1 20 11 21 12 23 13 24 14 25
REMARK SMILES IDX 18 26 15 27 17 28 16 29
REMARK H PARENT 7 12 11 22
ROOT
ATOM      1  C   UNL     1       5.478  44.998  51.136  1.00  0.00     0.164 A 
ATOM      2  N   UNL     1       5.701  43.727  50.751  1.00  0.00    -0.193 NA
ATOM      3  C   UNL     1       4.691  42.865  50.829  1.00  0.00     0.227 A 
ATOM      4  N   UNL     1       3.471  43.187  51.250  1.00  0.00    -0.191 NA
ATOM      5  C   UNL     1       3.254  44.440  51.630  1.00  0.00     0.185 A 
ATOM      6  N   UNL     1       2.020  44.749  52.047  1.00  0.00    -0.233 NA
ATOM      7  C   UNL     1       1.778  46.023  52.432  1.00  0.00     0.133 A 
ATOM      8  C   UNL     1       2.749  46.998  52.399  1.00  0.00     0.132 A 
ATOM      9  N   UNL     1       3.998  46.730  51.976  1.00  0.00    -0.247 NA
ATOM     10  C   UNL     1       4.240  45.434  51.601  1.00  0.00     0.150 A 
ENDROOT
BRANCH   1  11
ATOM     11  N   UNL     1       6.527  45.960  51.117  1.00  0.00    -0.338 N 
ATOM     12  H   UNL     1       6.702  46.262  50.162  1.00  0.00     0.168 HD
BRANCH  11  13
ATOM     13  C   UNL     1       7.547  46.263  52.031  1.00  0.00     0.040 A 
ATOM     14  C   UNL     1       9.702  46.918  53.757  1.00  0.00     0.119 A 
ATOM     15  C   UNL     1       8.385  46.960  54.209  1.00  0.00     0.048 A 
ATOM     16  C   UNL     1       9.946  46.562  52.434  1.00  0.00     0.048 A 
ATOM     17  C   UNL     1       7.320  46.643  53.355  1.00  0.00     0.030 A 
ATOM     18  C   UNL     1       8.878  46.247  51.583  1.00  0.00     0.030 A 
BRANCH  14  19
ATOM     19  O   UNL     1      10.642  47.249  54.692  1.00  0.00    -0.497 OA
ATOM     20  C   UNL     1      10.189  47.967  55.832  1.00  0.00     0.278 C 
ENDBRANCH  14  19
ENDBRANCH  11  13
ENDBRANCH   1  11
BRANCH   3  21
ATOM     21  N   UNL     1       4.979  41.569  50.439  1.00  0.00    -0.350 N 
ATOM     22  H   UNL     1       5.174  41.034  51.277  1.00  0.00     0.164 HD
BRANCH  21  23
ATOM     23  C   UNL     1       5.975  41.457  49.393  1.00  0.00     0.152 C 
BRANCH  23  24
ATOM     24  C   UNL     1       5.275  41.287  48.064  1.00  0.00    -0.029 A 
ATOM     25  C   UNL     1       5.792  41.893  46.910  1.00  0.00     0.005 A 
ATOM     26  C   UNL     1       4.086  40.549  47.969  1.00  0.00     0.005 A 
ATOM     27  C   UNL     1       5.143  41.750  45.682  1.00  0.00     0.000 A 
ATOM     28  C   UNL     1       3.439  40.408  46.739  1.00  0.00     0.000 A 
ATOM     29  C   UNL     1       3.968  41.007  45.598  1.00  0.00     0.000 A 
ENDBRANCH  23  24
ENDBRANCH  21  23
ENDBRANCH   3  21
TORSDOF 6
ENDMDL
MODEL 3
REMARK VINA RESULT:    -9.084      1.307      1.924
REMARK INTER + INTRA:         -13.023
REMARK INTER:                 -12.112
REMARK INTRA:                  -0.911
REMARK UNBOUND:                -0.753
REMARK SMILES COc1ccc(Nc2nc(NCc3ccccc3)nc3nccnc23)cc1
REMARK SMILES IDX 8 1 9 2 10 3 19 4 20 5 21 6 22 7 23 8 24 9 25 10 7 11 6 13
REMARK SMILES IDX 3 14 4 15 27 16 5 17 26 18 2 19 1 20 11 21 12 23 13 24 14 25
REMARK SMILES IDX 18 26 15 27 17 28 16 29
REMARK H PARENT 7 12 11 22
ROOT
ATOM      1  C   UNL     1       6.893  46.265  52.082  1.00  0.00     0.164 A 
ATOM      2  N   UNL     1       5.612  46.525  52.401  1.00  0.00    -0.193 NA
ATOM      3  C   UNL     1       5.366  47.138  53.556  1.00  0.00     0.227 A 
ATOM      4  N   UNL     1       6.314  47.522  54.407  1.00  0.00    -0.191 NA
ATOM      5  C   UNL     1       7.577  47.264  54.092  1.00  0.00     0.185 A 
ATOM      6  N   UNL     1       8.519  47.659  54.957  1.00  0.00    -0.233 NA
ATOM      7  C   UNL     1       9.811  47.410  54.650  1.00  0.00     0.133 A 
ATOM      8  C   UNL     1      10.182  46.779  53.485  1.00  0.00     0.132 A 
ATOM      9  N   UNL     1       9.267  46.375  52.584  1.00  0.00    -0.247 NA
ATOM     10  C   UNL     1       7.957  46.617  52.910  1.00  0.00     0.150 A 
ENDROOT
BRANCH   1  11
ATOM     11  N   UNL     1       7.221  45.575  50.880  1.00  0.00    -0.338 N 
ATOM     12  H   UNL     1       7.647  46.218  50.218  1.00  0.00     0.168 HD
BRANCH  11  13
ATOM     13  C   UNL     1       6.758  44.373  50.326  1.00  0.00     0.040 A 
ATOM     14  C   UNL     1       5.677  41.973  49.265  1.00  0.00     0.119 A 
ATOM     15  C   UNL     1       6.791  42.576  48.683  1.00  0.00     0.048 A 
ATOM     16  C   UNL     1       5.091  42.577  50.373  1.00  0.00     0.048 A 
ATOM     17  C   UNL     1       7.320  43.764  49.203  1.00  0.00     0.030 A 
ATOM     18  C   UNL     1       5.623  43.767  50.889  1.00  0.00     0.030 A 
BRANCH  14  19
ATOM     19  O   UNL     1       5.265  40.819  48.660  1.00  0.00    -0.497 OA
ATOM     20  C   UNL     1       3.868  40.553  48.669  1.00  0.00     0.278 C 
ENDBRANCH  14  19
ENDBRANCH  11  13
ENDBRANCH   1  11
BRANCH   3  21
ATOM     21  N   UNL     1       4.032  47.365  53.841  1.00  0.00    -0.350 N 
ATOM     22  H   UNL     1       3.767  46.731  54.586  1.00  0.00     0.164 HD
BRANCH  21  23
ATOM     23  C   UNL     1       3.155  47.359  52.690  1.00  0.00     0.152 C 
BRANCH  23  24
ATOM     24  C   UNL     1       2.528  45.990  52.555  1.00  0.00    -0.029 A 
ATOM     25  C   UNL     1       2.186  45.254  53.699  1.00  0.00     0.005 A 
ATOM     26  C   UNL     1       2.307  45.423  51.292  1.00  0.00     0.005 A 
ATOM     27  C   UNL     1       1.619  43.983  53.581  1.00  0.00     0.000 A 
ATOM     28  C   UNL     1       1.740  44.152  51.177  1.00  0.00     0.000 A 
ATOM     29  C   UNL     1       1.396  43.434  52.321  1.00  0.00     0.000 A 
ENDBRANCH  23  24
ENDBRANCH  21  23
ENDBRANCH   3  21
TORSDOF 6
ENDMDL
MODEL 4
REMARK VINA RESULT:    -9.025      1.932      6.018
REMARK INTER + INTRA:         -12.944
REMARK INTER:                 -12.133
REMARK INTRA:                  -0.811
REMARK UNBOUND:                -0.753
REMARK SMILES COc1ccc(Nc2nc(NCc3ccccc3)nc3nccnc23)cc1
REMARK SMILES IDX 8 1 9 2 10 3 19 4 20 5 21 6 22 7 23 8 24 9 25 10 7 11 6 13
REMARK SMILES IDX 3 14 4 15 27 16 5 17 26 18 2 19 1 20 11 21 12 23 13 24 14 25
REMARK SMILES IDX 18 26 15 27 17 28 16 29
REMARK H PARENT 7 12 11 22
ROOT
ATOM      1  C   UNL     1       3.813  43.590  52.949  1.00  0.00     0.164 A 
ATOM      2  N   UNL     1       4.834  44.415  53.247  1.00  0.00    -0.193 NA
ATOM      3  C   UNL     1       4.563  45.520  53.936  1.00  0.00     0.227 A 
ATOM      4  N   UNL     1       3.347  45.848  54.363  1.00  0.00    -0.191 NA
ATOM      5  C   UNL     1       2.342  45.034  54.067  1.00  0.00     0.185 A 
ATOM      6  N   UNL     1       1.124  45.377  54.506  1.00  0.00    -0.233 NA
ATOM      7  C   UNL     1       0.089  44.556  54.221  1.00  0.00     0.133 A 
ATOM      8  C   UNL     1       0.251  43.389  53.509  1.00  0.00     0.132 A 
ATOM      9  N   UNL     1       1.459  43.003  53.060  1.00  0.00    -0.247 NA
ATOM     10  C   UNL     1       2.502  43.848  53.340  1.00  0.00     0.150 A 
ENDROOT
BRANCH   1  11
ATOM     11  N   UNL     1       4.029  42.412  52.178  1.00  0.00    -0.338 N 
ATOM     12  H   UNL     1       4.031  41.596  52.785  1.00  0.00     0.168 HD
BRANCH  11  13
ATOM     13  C   UNL     1       4.581  42.205  50.905  1.00  0.00     0.040 A 
ATOM     14  C   UNL     1       5.556  41.727  48.284  1.00  0.00     0.119 A 
ATOM     15  C   UNL     1       6.119  42.716  49.088  1.00  0.00     0.048 A 
ATOM     16  C   UNL     1       4.492  40.982  48.783  1.00  0.00     0.048 A 
ATOM     17  C   UNL     1       5.633  42.957  50.380  1.00  0.00     0.030 A 
ATOM     18  C   UNL     1       4.008  41.227  50.076  1.00  0.00     0.030 A 
BRANCH  14  19
ATOM     19  O   UNL     1       6.125  41.596  47.048  1.00  0.00    -0.497 OA
ATOM     20  C   UNL     1       5.248  41.632  45.930  1.00  0.00     0.278 C 
ENDBRANCH  14  19
ENDBRANCH  11  13
ENDBRANCH   1  11
BRANCH   3  21
ATOM     21  N   UNL     1       5.645  46.342  54.199  1.00  0.00    -0.350 N 
ATOM     22  H   UNL     1       5.455  46.829  55.067  1.00  0.00     0.164 HD
BRANCH  21  23
ATOM     23  C   UNL     1       6.047  47.188  53.096  1.00  0.00     0.152 C 
BRANCH  23  24
ATOM     24  C   UNL     1       7.518  46.972  52.821  1.00  0.00    -0.029 A 
ATOM     25  C   UNL     1       7.930  46.295  51.664  1.00  0.00     0.005 A 
ATOM     26  C   UNL     1       8.490  47.417  53.729  1.00  0.00     0.005 A 
ATOM     27  C   UNL     1       9.286  46.080  51.412  1.00  0.00     0.000 A 
ATOM     28  C   UNL     1       9.847  47.202  53.474  1.00  0.00     0.000 A 
ATOM     29  C   UNL     1      10.243  46.535  52.317  1.00  0.00     0.000 A 
ENDBRANCH  23  24
ENDBRANCH  21  23
ENDBRANCH   3  21
TORSDOF 6
ENDMDL
MODEL 5
REMARK VINA RESULT:    -8.997      2.570      6.919
REMARK INTER + INTRA:         -12.906
REMARK INTER:                 -12.250
REMARK INTRA:                  -0.656
REMARK UNBOUND:                -0.753
REMARK SMILES COc1ccc(Nc2nc(NCc3ccccc3)nc3nccnc23)cc1
REMARK SMILES IDX 8 1 9 2 10 3 19 4 20 5 21 6 22 7 23 8 24 9 25 10 7 11 6 13
REMARK SMILES IDX 3 14 4 15 27 16 5 17 26 18 2 19 1 20 11 21 12 23 13 24 14 25
REMARK SMILES IDX 18 26 15 27 17 28 16 29
REMARK H PARENT 7 12 11 22
ROOT
ATOM      1  C   UNL     1       3.585  43.068  52.305  1.00  0.00     0.164 A 
ATOM      2  N   UNL     1       3.993  44.189  52.929  1.00  0.00    -0.193 NA
ATOM      3  C   UNL     1       5.089  44.792  52.477  1.00  0.00     0.227 A 
ATOM      4  N   UNL     1       5.796  44.361  51.436  1.00  0.00    -0.191 NA
ATOM      5  C   UNL     1       5.394  43.255  50.823  1.00  0.00     0.185 A 
ATOM      6  N   UNL     1       6.115  42.837  49.775  1.00  0.00    -0.233 NA
ATOM      7  C   UNL     1       5.716  41.715  49.135  1.00  0.00     0.133 A 
ATOM      8  C   UNL     1       4.600  41.007  49.518  1.00  0.00     0.132 A 
ATOM      9  N   UNL     1       3.843  41.399  50.559  1.00  0.00    -0.247 NA
ATOM     10  C   UNL     1       4.262  42.529  51.213  1.00  0.00     0.150 A 
ENDROOT
BRANCH   1  11
ATOM     11  N   UNL     1       2.444  42.351  52.765  1.00  0.00    -0.338 N 
ATOM     12  H   UNL     1       2.563  41.357  52.583  1.00  0.00     0.168 HD
BRANCH  11  13
ATOM     13  C   UNL     1       1.128  42.750  53.043  1.00  0.00     0.040 A 
ATOM     14  C   UNL     1      -1.474  43.679  53.688  1.00  0.00     0.119 A 
ATOM     15  C   UNL     1      -1.253  42.904  52.552  1.00  0.00     0.048 A 
ATOM     16  C   UNL     1      -0.392  44.005  54.500  1.00  0.00     0.048 A 
ATOM     17  C   UNL     1       0.034  42.451  52.229  1.00  0.00     0.030 A 
ATOM     18  C   UNL     1       0.893  43.550  54.173  1.00  0.00     0.030 A 
BRANCH  14  19
ATOM     19  O   UNL     1      -2.774  44.053  53.886  1.00  0.00    -0.497 OA
ATOM     20  C   UNL     1      -3.656  43.918  52.778  1.00  0.00     0.278 C 
ENDBRANCH  14  19
ENDBRANCH  11  13
ENDBRANCH   1  11
BRANCH   3  21
ATOM     21  N   UNL     1       5.473  45.929  53.165  1.00  0.00    -0.350 N 
ATOM     22  H   UNL     1       4.665  46.261  53.680  1.00  0.00     0.164 HD
BRANCH  21  23
ATOM     23  C   UNL     1       6.142  46.929  52.360  1.00  0.00     0.152 C 
BRANCH  23  24
ATOM     24  C   UNL     1       7.607  46.959  52.732  1.00  0.00    -0.029 A 
ATOM     25  C   UNL     1       8.589  46.721  51.758  1.00  0.00     0.005 A 
ATOM     26  C   UNL     1       8.007  47.194  54.055  1.00  0.00     0.005 A 
ATOM     27  C   UNL     1       9.943  46.734  52.098  1.00  0.00     0.000 A 
ATOM     28  C   UNL     1       9.363  47.206  54.392  1.00  0.00     0.000 A 
ATOM     29  C   UNL     1      10.328  46.978  53.414  1.00  0.00     0.000 A 
ENDBRANCH  23  24
ENDBRANCH  21  23
ENDBRANCH   3  21
TORSDOF 6
ENDMDL
MODEL 6
REMARK VINA RESULT:    -8.991      2.622      7.234
REMARK INTER + INTRA:         -12.898
REMARK INTER:                 -12.453
REMARK INTRA:                  -0.445
REMARK UNBOUND:                -0.753
REMARK SMILES COc1ccc(Nc2nc(NCc3ccccc3)nc3nccnc23)cc1
REMARK SMILES IDX 8 1 9 2 10 3 19 4 20 5 21 6 22 7 23 8 24 9 25 10 7 11 6 13
REMARK SMILES IDX 3 14 4 15 27 16 5 17 26 18 2 19 1 20 11 21 12 23 13 24 14 25
REMARK SMILES IDX 18 26 15 27 17 28 16 29
REMARK H PARENT 7 12 11 22
ROOT
ATOM      1  C   UNL     1       3.394  44.106  52.646  1.00  0.00     0.164 A 
ATOM      2  N   UNL     1       3.814  45.371  52.830  1.00  0.00    -0.193 NA
ATOM      3  C   UNL     1       4.873  45.785  52.140  1.00  0.00     0.227 A 
ATOM      4  N   UNL     1       5.532  45.026  51.268  1.00  0.00    -0.191 NA
ATOM      5  C   UNL     1       5.117  43.779  51.088  1.00  0.00     0.185 A 
ATOM      6  N   UNL     1       5.789  43.030  50.205  1.00  0.00    -0.233 NA
ATOM      7  C   UNL     1       5.376  41.758  50.004  1.00  0.00     0.133 A 
ATOM      8  C   UNL     1       4.295  41.222  50.666  1.00  0.00     0.132 A 
ATOM      9  N   UNL     1       3.588  41.945  51.554  1.00  0.00    -0.247 NA
ATOM     10  C   UNL     1       4.021  43.229  51.764  1.00  0.00     0.150 A 
ENDROOT
BRANCH   1  11
ATOM     11  N   UNL     1       2.292  43.588  53.384  1.00  0.00    -0.338 N 
ATOM     12  H   UNL     1       1.880  42.803  52.886  1.00  0.00     0.168 HD
BRANCH  11  13
ATOM     13  C   UNL     1       1.485  44.143  54.389  1.00  0.00     0.040 A 
ATOM     14  C   UNL     1      -0.262  45.162  56.379  1.00  0.00     0.119 A 
ATOM     15  C   UNL     1       1.121  45.265  56.519  1.00  0.00     0.048 A 
ATOM     16  C   UNL     1      -0.776  44.535  55.248  1.00  0.00     0.048 A 
ATOM     17  C   UNL     1       1.984  44.756  55.540  1.00  0.00     0.030 A 
ATOM     18  C   UNL     1       0.091  44.026  54.271  1.00  0.00     0.030 A 
BRANCH  14  19
ATOM     19  O   UNL     1      -0.986  45.700  57.405  1.00  0.00    -0.497 OA
ATOM     20  C   UNL     1      -1.447  47.035  57.235  1.00  0.00     0.278 C 
ENDBRANCH  14  19
ENDBRANCH  11  13
ENDBRANCH   1  11
BRANCH   3  21
ATOM     21  N   UNL     1       5.273  47.087  52.381  1.00  0.00    -0.350 N 
ATOM     22  H   UNL     1       5.718  47.431  51.537  1.00  0.00     0.164 HD
BRANCH  21  23
ATOM     23  C   UNL     1       6.036  47.273  53.597  1.00  0.00     0.152 C 
BRANCH  23  24
ATOM     24  C   UNL     1       7.509  47.155  53.277  1.00  0.00    -0.029 A 
ATOM     25  C   UNL     1       7.956  47.265  51.952  1.00  0.00     0.005 A 
ATOM     26  C   UNL     1       8.446  46.904  54.290  1.00  0.00     0.005 A 
ATOM     27  C   UNL     1       9.313  47.143  51.648  1.00  0.00     0.000 A 
ATOM     28  C   UNL     1       9.803  46.782  53.983  1.00  0.00     0.000 A 
ATOM     29  C   UNL     1      10.235  46.903  52.664  1.00  0.00     0.000 A 
ENDBRANCH  23  24
ENDBRANCH  21  23
ENDBRANCH   3  21
TORSDOF 6
ENDMDL
MODEL 7
REMARK VINA RESULT:    -8.972      2.879      7.498
REMARK INTER + INTRA:         -12.871
REMARK INTER:                 -12.033
REMARK INTRA:                  -0.838
REMARK UNBOUND:                -0.753
REMARK SMILES COc1ccc(Nc2nc(NCc3ccccc3)nc3nccnc23)cc1
REMARK SMILES IDX 8 1 9 2 10 3 19 4 20 5 21 6 22 7 23 8 24 9 25 10 7 11 6 13
REMARK SMILES IDX 3 14 4 15 27 16 5 17 26 18 2 19 1 20 11 21 12 23 13 24 14 25
REMARK SMILES IDX 18 26 15 27 17 28 16 29
REMARK H PARENT 7 12 11 22
ROOT
ATOM      1  C   UNL     1       4.724  44.576  51.617  1.00  0.00     0.164 A 
ATOM      2  N   UNL     1       5.089  43.457  50.964  1.00  0.00    -0.193 NA
ATOM      3  C   UNL     1       4.346  42.366  51.130  1.00  0.00     0.227 A 
ATOM      4  N   UNL     1       3.255  42.321  51.890  1.00  0.00    -0.191 NA
ATOM      5  C   UNL     1       2.898  43.425  52.534  1.00  0.00     0.185 A 
ATOM      6  N   UNL     1       1.796  43.364  53.293  1.00  0.00    -0.233 NA
ATOM      7  C   UNL     1       1.414  44.481  53.951  1.00  0.00     0.133 A 
ATOM      8  C   UNL     1       2.109  45.665  53.857  1.00  0.00     0.132 A 
ATOM      9  N   UNL     1       3.215  45.771  53.098  1.00  0.00    -0.247 NA
ATOM     10  C   UNL     1       3.606  44.630  52.445  1.00  0.00     0.150 A 
ENDROOT
BRANCH   1  11
ATOM     11  N   UNL     1       5.500  45.765  51.514  1.00  0.00    -0.338 N 
ATOM     12  H   UNL     1       5.261  46.262  50.660  1.00  0.00     0.168 HD
BRANCH  11  13
ATOM     13  C   UNL     1       6.707  46.160  52.112  1.00  0.00     0.040 A 
ATOM     14  C   UNL     1       9.091  46.902  53.459  1.00  0.00     0.119 A 
ATOM     15  C   UNL     1       9.096  46.634  52.091  1.00  0.00     0.048 A 
ATOM     16  C   UNL     1       7.895  46.786  54.161  1.00  0.00     0.048 A 
ATOM     17  C   UNL     1       7.920  46.260  51.427  1.00  0.00     0.030 A 
ATOM     18  C   UNL     1       6.722  46.412  53.493  1.00  0.00     0.030 A 
BRANCH  14  19
ATOM     19  O   UNL     1      10.304  47.256  53.980  1.00  0.00    -0.497 OA
ATOM     20  C   UNL     1      10.359  47.482  55.383  1.00  0.00     0.278 C 
ENDBRANCH  14  19
ENDBRANCH  11  13
ENDBRANCH   1  11
BRANCH   3  21
ATOM     21  N   UNL     1       4.775  41.240  50.451  1.00  0.00    -0.350 N 
ATOM     22  H   UNL     1       5.033  40.546  51.142  1.00  0.00     0.164 HD
BRANCH  21  23
ATOM     23  C   UNL     1       5.771  41.489  49.430  1.00  0.00     0.152 C 
BRANCH  23  24
ATOM     24  C   UNL     1       5.141  41.293  48.070  1.00  0.00    -0.029 A 
ATOM     25  C   UNL     1       3.974  40.528  47.935  1.00  0.00     0.005 A 
ATOM     26  C   UNL     1       5.727  41.846  46.921  1.00  0.00     0.005 A 
ATOM     27  C   UNL     1       3.395  40.331  46.680  1.00  0.00     0.000 A 
ATOM     28  C   UNL     1       5.145  41.648  45.667  1.00  0.00     0.000 A 
ATOM     29  C   UNL     1       3.981  40.893  45.547  1.00  0.00     0.000 A 
ENDBRANCH  23  24
ENDBRANCH  21  23
ENDBRANCH   3  21
TORSDOF 6
ENDMDL
MODEL 8
REMARK VINA RESULT:    -8.962      2.755      5.778
REMARK INTER + INTRA:         -12.858
REMARK INTER:                 -12.086
REMARK INTRA:                  -0.773
REMARK UNBOUND:                -0.753
REMARK SMILES COc1ccc(Nc2nc(NCc3ccccc3)nc3nccnc23)cc1
REMARK SMILES IDX 8 1 9 2 10 3 19 4 20 5 21 6 22 7 23 8 24 9 25 10 7 11 6 13
REMARK SMILES IDX 3 14 4 15 27 16 5 17 26 18 2 19 1 20 11 21 12 23 13 24 14 25
REMARK SMILES IDX 18 26 15 27 17 28 16 29
REMARK H PARENT 7 12 11 22
ROOT
ATOM      1  C   UNL     1       5.000  44.431  51.560  1.00  0.00     0.164 A 
ATOM      2  N   UNL     1       4.034  44.262  52.481  1.00  0.00    -0.193 NA
ATOM      3  C   UNL     1       3.377  43.105  52.493  1.00  0.00     0.227 A 
ATOM      4  N   UNL     1       3.631  42.100  51.659  1.00  0.00    -0.191 NA
ATOM      5  C   UNL     1       4.583  42.270  50.750  1.00  0.00     0.185 A 
ATOM      6  N   UNL     1       4.827  41.248  49.920  1.00  0.00    -0.233 NA
ATOM      7  C   UNL     1       5.798  41.400  48.991  1.00  0.00     0.133 A 
ATOM      8  C   UNL     1       6.538  42.556  48.883  1.00  0.00     0.132 A 
ATOM      9  N   UNL     1       6.330  43.601  49.705  1.00  0.00    -0.247 NA
ATOM     10  C   UNL     1       5.334  43.446  50.634  1.00  0.00     0.150 A 
ENDROOT
BRANCH   1  11
ATOM     11  N   UNL     1       5.711  45.661  51.466  1.00  0.00    -0.338 N 
ATOM     12  H   UNL     1       5.478  46.131  50.595  1.00  0.00     0.168 HD
BRANCH  11  13
ATOM     13  C   UNL     1       6.869  46.133  52.102  1.00  0.00     0.040 A 
ATOM     14  C   UNL     1       9.157  47.023  53.525  1.00  0.00     0.119 A 
ATOM     15  C   UNL     1       9.212  46.798  52.150  1.00  0.00     0.048 A 
ATOM     16  C   UNL     1       7.960  46.790  54.196  1.00  0.00     0.048 A 
ATOM     17  C   UNL     1       8.083  46.352  51.449  1.00  0.00     0.030 A 
ATOM     18  C   UNL     1       6.835  46.343  53.490  1.00  0.00     0.030 A 
BRANCH  14  19
ATOM     19  O   UNL     1      10.326  47.457  54.084  1.00  0.00    -0.497 OA
ATOM     20  C   UNL     1      10.415  47.414  55.502  1.00  0.00     0.278 C 
ENDBRANCH  14  19
ENDBRANCH  11  13
ENDBRANCH   1  11
BRANCH   3  21
ATOM     21  N   UNL     1       2.383  42.991  53.449  1.00  0.00    -0.350 N 
ATOM     22  H   UNL     1       2.215  42.002  53.597  1.00  0.00     0.164 HD
BRANCH  21  23
ATOM     23  C   UNL     1       1.200  43.784  53.192  1.00  0.00     0.152 C 
BRANCH  23  24
ATOM     24  C   UNL     1       0.630  44.258  54.509  1.00  0.00    -0.029 A 
ATOM     25  C   UNL     1      -0.741  44.127  54.774  1.00  0.00     0.005 A 
ATOM     26  C   UNL     1       1.453  44.860  55.472  1.00  0.00     0.005 A 
ATOM     27  C   UNL     1      -1.276  44.575  55.983  1.00  0.00     0.000 A 
ATOM     28  C   UNL     1       0.915  45.308  56.681  1.00  0.00     0.000 A 
ATOM     29  C   UNL     1      -0.447  45.164  56.936  1.00  0.00     0.000 A 
ENDBRANCH  23  24
ENDBRANCH  21  23
ENDBRANCH   3  21
TORSDOF 6
ENDMDL
MODEL 9
REMARK VINA RESULT:    -8.881      2.673      6.296
REMARK INTER + INTRA:         -12.749
REMARK INTER:                 -12.090
REMARK INTRA:                  -0.660
REMARK UNBOUND:                -0.753
REMARK SMILES COc1ccc(Nc2nc(NCc3ccccc3)nc3nccnc23)cc1
REMARK SMILES IDX 8 1 9 2 10 3 19 4 20 5 21 6 22 7 23 8 24 9 25 10 7 11 6 13
REMARK SMILES IDX 3 14 4 15 27 16 5 17 26 18 2 19 1 20 11 21 12 23 13 24 14 25
REMARK SMILES IDX 18 26 15 27 17 28 16 29
REMARK H PARENT 7 12 11 22
ROOT
ATOM      1  C   UNL     1       5.695  42.804  50.112  1.00  0.00     0.164 A 
ATOM      2  N   UNL     1       6.703  43.644  49.810  1.00  0.00    -0.193 NA
ATOM      3  C   UNL     1       6.771  44.799  50.466  1.00  0.00     0.227 A 
ATOM      4  N   UNL     1       5.913  45.166  51.413  1.00  0.00    -0.191 NA
ATOM      5  C   UNL     1       4.919  44.337  51.709  1.00  0.00     0.185 A 
ATOM      6  N   UNL     1       4.065  44.720  52.666  1.00  0.00    -0.233 NA
ATOM      7  C   UNL     1       3.050  43.886  52.985  1.00  0.00     0.133 A 
ATOM      8  C   UNL     1       2.878  42.667  52.369  1.00  0.00     0.132 A 
ATOM      9  N   UNL     1       3.720  42.242  51.409  1.00  0.00    -0.247 NA
ATOM     10  C   UNL     1       4.738  43.100  51.080  1.00  0.00     0.150 A 
ENDROOT
BRANCH   1  11
ATOM     11  N   UNL     1       5.541  41.571  49.418  1.00  0.00    -0.338 N 
ATOM     12  H   UNL     1       6.142  40.863  49.832  1.00  0.00     0.168 HD
BRANCH  11  13
ATOM     13  C   UNL     1       5.055  41.262  48.138  1.00  0.00     0.040 A 
ATOM     14  C   UNL     1       3.929  40.612  45.616  1.00  0.00     0.119 A 
ATOM     15  C   UNL     1       5.052  41.433  45.709  1.00  0.00     0.048 A 
ATOM     16  C   UNL     1       3.357  40.123  46.787  1.00  0.00     0.048 A 
ATOM     17  C   UNL     1       5.603  41.760  46.955  1.00  0.00     0.030 A 
ATOM     18  C   UNL     1       3.912  40.454  48.031  1.00  0.00     0.030 A 
BRANCH  14  19
ATOM     19  O   UNL     1       3.495  40.372  44.343  1.00  0.00    -0.497 OA
ATOM     20  C   UNL     1       4.367  39.635  43.495  1.00  0.00     0.278 C 
ENDBRANCH  14  19
ENDBRANCH  11  13
ENDBRANCH   1  11
BRANCH   3  21
ATOM     21  N   UNL     1       7.816  45.632  50.104  1.00  0.00    -0.350 N 
ATOM     22  H   UNL     1       7.903  45.590  49.095  1.00  0.00     0.164 HD
BRANCH  21  23
ATOM     23  C   UNL     1       9.045  45.417  50.837  1.00  0.00     0.152 C 
BRANCH  23  24
ATOM     24  C   UNL     1       9.087  46.362  52.016  1.00  0.00    -0.029 A 
ATOM     25  C   UNL     1       9.865  46.055  53.141  1.00  0.00     0.005 A 
ATOM     26  C   UNL     1       8.330  47.542  52.016  1.00  0.00     0.005 A 
ATOM     27  C   UNL     1       9.897  46.917  54.239  1.00  0.00     0.000 A 
ATOM     28  C   UNL     1       8.364  48.404  53.115  1.00  0.00     0.000 A 
ATOM     29  C   UNL     1       9.147  48.091  54.224  1.00  0.00     0.000 A 
ENDBRANCH  23  24
ENDBRANCH  21  23
ENDBRANCH   3  21
TORSDOF 6
ENDMDL
MODEL 10
REMARK VINA RESULT:    -8.871      1.877      5.499
REMARK INTER + INTRA:         -12.736
REMARK INTER:                 -11.978
REMARK INTRA:                  -0.758
REMARK UNBOUND:                -0.753
REMARK SMILES COc1ccc(Nc2nc(NCc3ccccc3)nc3nccnc23)cc1
REMARK SMILES IDX 8 1 9 2 10 3 19 4 20 5 21 6 22 7 23 8 24 9 25 10 7 11 6 13
REMARK SMILES IDX 3 14 4 15 27 16 5 17 26 18 2 19 1 20 11 21 12 23 13 24 14 25
REMARK SMILES IDX 18 26 15 27 17 28 16 29
REMARK H PARENT 7 12 11 22
ROOT
ATOM      1  C   UNL     1       6.449  46.721  52.764  1.00  0.00     0.164 A 
ATOM      2  N   UNL     1       6.273  46.094  51.586  1.00  0.00    -0.193 NA
ATOM      3  C   UNL     1       7.354  45.686  50.927  1.00  0.00     0.227 A 
ATOM      4  N   UNL     1       8.597  45.846  51.372  1.00  0.00    -0.191 NA
ATOM      5  C   UNL     1       8.769  46.465  52.533  1.00  0.00     0.185 A 
ATOM      6  N   UNL     1      10.027  46.616  52.968  1.00  0.00    -0.233 NA
ATOM      7  C   UNL     1      10.220  47.239  54.152  1.00  0.00     0.133 A 
ATOM      8  C   UNL     1       9.176  47.707  54.917  1.00  0.00     0.132 A 
ATOM      9  N   UNL     1       7.898  47.567  54.520  1.00  0.00    -0.247 NA
ATOM     10  C   UNL     1       7.709  46.948  53.311  1.00  0.00     0.150 A 
ENDROOT
BRANCH   1  11
ATOM     11  N   UNL     1       5.335  47.220  53.498  1.00  0.00    -0.338 N 
ATOM     12  H   UNL     1       5.619  48.025  54.051  1.00  0.00     0.168 HD
BRANCH  11  13
ATOM     13  C   UNL     1       4.118  46.636  53.880  1.00  0.00     0.040 A 
ATOM     14  C   UNL     1       1.623  45.436  54.498  1.00  0.00     0.119 A 
ATOM     15  C   UNL     1       2.679  45.401  55.407  1.00  0.00     0.048 A 
ATOM     16  C   UNL     1       1.816  46.060  53.269  1.00  0.00     0.048 A 
ATOM     17  C   UNL     1       3.913  45.988  55.099  1.00  0.00     0.030 A 
ATOM     18  C   UNL     1       3.053  46.645  52.965  1.00  0.00     0.030 A 
BRANCH  14  19
ATOM     19  O   UNL     1       0.476  44.828  54.924  1.00  0.00    -0.497 OA
ATOM     20  C   UNL     1      -0.055  43.803  54.094  1.00  0.00     0.278 C 
ENDBRANCH  14  19
ENDBRANCH  11  13
ENDBRANCH   1  11
BRANCH   3  21
ATOM     21  N   UNL     1       7.117  45.064  49.714  1.00  0.00    -0.350 N 
ATOM     22  H   UNL     1       6.143  45.219  49.477  1.00  0.00     0.164 HD
BRANCH  21  23
ATOM     23  C   UNL     1       7.555  43.686  49.642  1.00  0.00     0.152 C 
BRANCH  23  24
ATOM     24  C   UNL     1       6.345  42.782  49.709  1.00  0.00    -0.029 A 
ATOM     25  C   UNL     1       6.061  41.901  48.655  1.00  0.00     0.005 A 
ATOM     26  C   UNL     1       5.475  42.828  50.808  1.00  0.00     0.005 A 
ATOM     27  C   UNL     1       4.939  41.073  48.705  1.00  0.00     0.000 A 
ATOM     28  C   UNL     1       4.352  41.998  50.856  1.00  0.00     0.000 A 
ATOM     29  C   UNL     1       4.086  41.122  49.806  1.00  0.00     0.000 A 
ENDBRANCH  23  24
ENDBRANCH  21  23
ENDBRANCH   3  21
TORSDOF 6
ENDMDL
MODEL 11
REMARK VINA RESULT:    -8.709      2.972      6.039
REMARK INTER + INTRA:         -12.517
REMARK INTER:                 -11.225
REMARK INTRA:                  -1.292
REMARK UNBOUND:                -0.753
REMARK SMILES COc1ccc(Nc2nc(NCc3ccccc3)nc3nccnc23)cc1
REMARK SMILES IDX 8 1 9 2 10 3 19 4 20 5 21 6 22 7 23 8 24 9 25 10 7 11 6 13
REMARK SMILES IDX 3 14 4 15 27 16 5 17 26 18 2 19 1 20 11 21 12 23 13 24 14 25
REMARK SMILES IDX 18 26 15 27 17 28 16 29
REMARK H PARENT 7 12 11 22
ROOT
ATOM      1  C   UNL     1       1.931  43.136  52.516  1.00  0.00     0.164 A 
ATOM      2  N   UNL     1       2.487  43.527  53.677  1.00  0.00    -0.193 NA
ATOM      3  C   UNL     1       1.787  44.339  54.464  1.00  0.00     0.227 A 
ATOM      4  N   UNL     1       0.563  44.775  54.177  1.00  0.00    -0.191 NA
ATOM      5  C   UNL     1       0.016  44.389  53.031  1.00  0.00     0.185 A 
ATOM      6  N   UNL     1      -1.217  44.834  52.759  1.00  0.00    -0.233 NA
ATOM      7  C   UNL     1      -1.793  44.446  51.599  1.00  0.00     0.133 A 
ATOM      8  C   UNL     1      -1.159  43.612  50.707  1.00  0.00     0.132 A 
ATOM      9  N   UNL     1       0.076  43.135  50.947  1.00  0.00    -0.247 NA
ATOM     10  C   UNL     1       0.660  43.544  52.119  1.00  0.00     0.150 A 
ENDROOT
BRANCH   1  11
ATOM     11  N   UNL     1       2.644  42.301  51.610  1.00  0.00    -0.338 N 
ATOM     12  H   UNL     1       2.280  41.352  51.654  1.00  0.00     0.168 HD
BRANCH  11  13
ATOM     13  C   UNL     1       3.902  42.426  51.001  1.00  0.00     0.040 A 
ATOM     14  C   UNL     1       6.477  42.799  49.871  1.00  0.00     0.119 A 
ATOM     15  C   UNL     1       5.841  41.561  49.808  1.00  0.00     0.048 A 
ATOM     16  C   UNL     1       5.833  43.853  50.512  1.00  0.00     0.048 A 
ATOM     17  C   UNL     1       4.572  41.375  50.372  1.00  0.00     0.030 A 
ATOM     18  C   UNL     1       4.565  43.661  51.076  1.00  0.00     0.030 A 
BRANCH  14  19
ATOM     19  O   UNL     1       7.709  42.844  49.280  1.00  0.00    -0.497 OA
ATOM     20  C   UNL     1       8.362  44.107  49.251  1.00  0.00     0.278 C 
ENDBRANCH  14  19
ENDBRANCH  11  13
ENDBRANCH   1  11
BRANCH   3  21
ATOM     21  N   UNL     1       2.413  44.724  55.636  1.00  0.00    -0.350 N 
ATOM     22  H   UNL     1       1.793  44.492  56.404  1.00  0.00     0.164 HD
BRANCH  21  23
ATOM     23  C   UNL     1       2.912  46.083  55.640  1.00  0.00     0.152 C 
BRANCH  23  24
ATOM     24  C   UNL     1       4.175  46.145  54.811  1.00  0.00    -0.029 A 
ATOM     25  C   UNL     1       4.276  47.047  53.742  1.00  0.00     0.005 A 
ATOM     26  C   UNL     1       5.251  45.285  55.077  1.00  0.00     0.005 A 
ATOM     27  C   UNL     1       5.434  47.099  52.964  1.00  0.00     0.000 A 
ATOM     28  C   UNL     1       6.409  45.339  54.297  1.00  0.00     0.000 A 
ATOM     29  C   UNL     1       6.500  46.246  53.244  1.00  0.00     0.000 A 
ENDBRANCH  23  24
ENDBRANCH  21  23
ENDBRANCH   3  21
TORSDOF 6
ENDMDL
MODEL 12
REMARK VINA RESULT:    -8.686      3.535      8.432
REMARK INTER + INTRA:         -12.485
REMARK INTER:                 -11.695
REMARK INTRA:                  -0.790
REMARK UNBOUND:                -0.753
REMARK SMILES COc1ccc(Nc2nc(NCc3ccccc3)nc3nccnc23)cc1
REMARK SMILES IDX 8 1 9 2 10 3 19 4 20 5 21 6 22 7 23 8 24 9 25 10 7 11 6 13
REMARK SMILES IDX 3 14 4 15 27 16 5 17 26 18 2 19 1 20 11 21 12 23 13 24 14 25
REMARK SMILES IDX 18 26 15 27 17 28 16 29
REMARK H PARENT 7 12 11 22
ROOT
ATOM      1  C   UNL     1       2.487  45.103  54.878  1.00  0.00     0.164 A 
ATOM      2  N   UNL     1       3.478  46.011  54.799  1.00  0.00    -0.193 NA
ATOM      3  C   UNL     1       4.134  46.121  53.648  1.00  0.00     0.227 A 
ATOM      4  N   UNL     1       3.858  45.400  52.565  1.00  0.00    -0.191 NA
ATOM      5  C   UNL     1       2.881  44.504  52.645  1.00  0.00     0.185 A 
ATOM      6  N   UNL     1       2.614  43.788  51.545  1.00  0.00    -0.233 NA
ATOM      7  C   UNL     1       1.618  42.876  51.606  1.00  0.00     0.133 A 
ATOM      8  C   UNL     1       0.876  42.672  52.747  1.00  0.00     0.132 A 
ATOM      9  N   UNL     1       1.106  43.378  53.869  1.00  0.00    -0.247 NA
ATOM     10  C   UNL     1       2.127  44.291  53.805  1.00  0.00     0.150 A 
ENDROOT
BRANCH   1  11
ATOM     11  N   UNL     1       1.773  44.906  56.095  1.00  0.00    -0.338 N 
ATOM     12  H   UNL     1       1.719  43.912  56.306  1.00  0.00     0.168 HD
BRANCH  11  13
ATOM     13  C   UNL     1       0.869  45.713  56.801  1.00  0.00     0.040 A 
ATOM     14  C   UNL     1      -1.077  47.252  58.178  1.00  0.00     0.119 A 
ATOM     15  C   UNL     1       0.250  47.228  58.604  1.00  0.00     0.048 A 
ATOM     16  C   UNL     1      -1.438  46.494  57.068  1.00  0.00     0.048 A 
ATOM     17  C   UNL     1       1.209  46.463  57.928  1.00  0.00     0.030 A 
ATOM     18  C   UNL     1      -0.475  45.729  56.395  1.00  0.00     0.030 A 
BRANCH  14  19
ATOM     19  O   UNL     1      -1.907  48.039  58.925  1.00  0.00    -0.497 OA
ATOM     20  C   UNL     1      -1.297  49.067  59.695  1.00  0.00     0.278 C 
ENDBRANCH  14  19
ENDBRANCH  11  13
ENDBRANCH   1  11
BRANCH   3  21
ATOM     21  N   UNL     1       5.153  47.056  53.627  1.00  0.00    -0.350 N 
ATOM     22  H   UNL     1       5.412  47.205  52.659  1.00  0.00     0.164 HD
BRANCH  21  23
ATOM     23  C   UNL     1       6.256  46.772  54.521  1.00  0.00     0.152 C 
BRANCH  23  24
ATOM     24  C   UNL     1       7.544  46.771  53.729  1.00  0.00    -0.029 A 
ATOM     25  C   UNL     1       7.550  46.355  52.390  1.00  0.00     0.005 A 
ATOM     26  C   UNL     1       8.753  47.157  54.326  1.00  0.00     0.005 A 
ATOM     27  C   UNL     1       8.738  46.340  51.657  1.00  0.00     0.000 A 
ATOM     28  C   UNL     1       9.941  47.141  53.590  1.00  0.00     0.000 A 
ATOM     29  C   UNL     1       9.932  46.734  52.258  1.00  0.00     0.000 A 
ENDBRANCH  23  24
ENDBRANCH  21  23
ENDBRANCH   3  21
TORSDOF 6
ENDMDL
MODEL 13
REMARK VINA RESULT:    -8.624      2.868      7.536
REMARK INTER + INTRA:         -12.401
REMARK INTER:                 -11.568
REMARK INTRA:                  -0.833
REMARK UNBOUND:                -0.753
REMARK SMILES COc1ccc(Nc2nc(NCc3ccccc3)nc3nccnc23)cc1
REMARK SMILES IDX 8 1 9 2 10 3 19 4 20 5 21 6 22 7 23 8 24 9 25 10 7 11 6 13
REMARK SMILES IDX 3 14 4 15 27 16 5 17 26 18 2 19 1 20 11 21 12 23 13 24 14 25
REMARK SMILES IDX 18 26 15 27 17 28 16 29
REMARK H PARENT 7 12 11 22
ROOT
ATOM      1  C   UNL     1       2.598  45.140  53.684  1.00  0.00     0.164 A 
ATOM      2  N   UNL     1       3.639  45.651  54.369  1.00  0.00    -0.193 NA
ATOM      3  C   UNL     1       4.852  45.172  54.110  1.00  0.00     0.227 A 
ATOM      4  N   UNL     1       5.100  44.230  53.204  1.00  0.00    -0.191 NA
ATOM      5  C   UNL     1       4.073  43.727  52.532  1.00  0.00     0.185 A 
ATOM      6  N   UNL     1       4.340  42.782  51.621  1.00  0.00    -0.233 NA
ATOM      7  C   UNL     1       3.306  42.262  50.921  1.00  0.00     0.133 A 
ATOM      8  C   UNL     1       2.008  42.678  51.109  1.00  0.00     0.132 A 
ATOM      9  N   UNL     1       1.699  43.632  52.006  1.00  0.00    -0.247 NA
ATOM     10  C   UNL     1       2.750  44.144  52.723  1.00  0.00     0.150 A 
ENDROOT
BRANCH   1  11
ATOM     11  N   UNL     1       1.269  45.580  53.943  1.00  0.00    -0.338 N 
ATOM     12  H   UNL     1       1.114  46.486  53.509  1.00  0.00     0.168 HD
BRANCH  11  13
ATOM     13  C   UNL     1       0.330  45.222  54.922  1.00  0.00     0.040 A 
ATOM     14  C   UNL     1      -1.622  44.385  56.804  1.00  0.00     0.119 A 
ATOM     15  C   UNL     1      -0.456  45.026  57.219  1.00  0.00     0.048 A 
ATOM     16  C   UNL     1      -1.809  44.148  55.446  1.00  0.00     0.048 A 
ATOM     17  C   UNL     1       0.511  45.433  56.290  1.00  0.00     0.030 A 
ATOM     18  C   UNL     1      -0.839  44.556  54.520  1.00  0.00     0.030 A 
BRANCH  14  19
ATOM     19  O   UNL     1      -2.480  44.043  57.811  1.00  0.00    -0.497 OA
ATOM     20  C   UNL     1      -3.227  42.846  57.639  1.00  0.00     0.278 C 
ENDBRANCH  14  19
ENDBRANCH  11  13
ENDBRANCH   1  11
BRANCH   3  21
ATOM     21  N   UNL     1       5.883  45.719  54.854  1.00  0.00    -0.350 N 
ATOM     22  H   UNL     1       5.650  45.599  55.833  1.00  0.00     0.164 HD
BRANCH  21  23
ATOM     23  C   UNL     1       6.259  47.064  54.474  1.00  0.00     0.152 C 
BRANCH  23  24
ATOM     24  C   UNL     1       7.513  47.004  53.631  1.00  0.00    -0.029 A 
ATOM     25  C   UNL     1       7.424  46.955  52.233  1.00  0.00     0.005 A 
ATOM     26  C   UNL     1       8.780  46.966  54.232  1.00  0.00     0.005 A 
ATOM     27  C   UNL     1       8.577  46.886  51.450  1.00  0.00     0.000 A 
ATOM     28  C   UNL     1       9.933  46.897  53.446  1.00  0.00     0.000 A 
ATOM     29  C   UNL     1       9.831  46.858  52.057  1.00  0.00     0.000 A 
ENDBRANCH  23  24
ENDBRANCH  21  23
ENDBRANCH   3  21
TORSDOF 6
ENDMDL
MODEL 14
REMARK VINA RESULT:    -8.605      2.206      5.977
REMARK INTER + INTRA:         -12.377
REMARK INTER:                 -11.478
REMARK INTRA:                  -0.899
REMARK UNBOUND:                -0.753
REMARK SMILES COc1ccc(Nc2nc(NCc3ccccc3)nc3nccnc23)cc1
REMARK SMILES IDX 8 1 9 2 10 3 19 4 20 5 21 6 22 7 23 8 24 9 25 10 7 11 6 13
REMARK SMILES IDX 3 14 4 15 27 16 5 17 26 18 2 19 1 20 11 21 12 23 13 24 14 25
REMARK SMILES IDX 18 26 15 27 17 28 16 29
REMARK H PARENT 7 12 11 22
ROOT
ATOM      1  C   UNL     1       2.548  43.870  53.457  1.00  0.00     0.164 A 
ATOM      2  N   UNL     1       3.465  44.696  53.995  1.00  0.00    -0.193 NA
ATOM      3  C   UNL     1       3.062  45.553  54.929  1.00  0.00     0.227 A 
ATOM      4  N   UNL     1       1.810  45.630  55.374  1.00  0.00    -0.191 NA
ATOM      5  C   UNL     1       0.908  44.816  54.841  1.00  0.00     0.185 A 
ATOM      6  N   UNL     1      -0.346  44.904  55.302  1.00  0.00    -0.233 NA
ATOM      7  C   UNL     1      -1.278  44.078  54.776  1.00  0.00     0.133 A 
ATOM      8  C   UNL     1      -0.975  43.155  53.800  1.00  0.00     0.132 A 
ATOM      9  N   UNL     1       0.275  43.027  53.318  1.00  0.00    -0.247 NA
ATOM     10  C   UNL     1       1.211  43.879  53.846  1.00  0.00     0.150 A 
ENDROOT
BRANCH   1  11
ATOM     11  N   UNL     1       2.906  42.958  52.423  1.00  0.00    -0.338 N 
ATOM     12  H   UNL     1       2.396  42.086  52.539  1.00  0.00     0.168 HD
BRANCH  11  13
ATOM     13  C   UNL     1       4.018  42.886  51.571  1.00  0.00     0.040 A 
ATOM     14  C   UNL     1       6.195  42.621  49.770  1.00  0.00     0.119 A 
ATOM     15  C   UNL     1       5.937  43.833  50.408  1.00  0.00     0.048 A 
ATOM     16  C   UNL     1       5.355  41.539  50.020  1.00  0.00     0.048 A 
ATOM     17  C   UNL     1       4.858  43.966  51.292  1.00  0.00     0.030 A 
ATOM     18  C   UNL     1       4.276  41.677  50.904  1.00  0.00     0.030 A 
BRANCH  14  19
ATOM     19  O   UNL     1       7.277  42.628  48.936  1.00  0.00    -0.497 OA
ATOM     20  C   UNL     1       8.092  43.793  48.952  1.00  0.00     0.278 C 
ENDBRANCH  14  19
ENDBRANCH  11  13
ENDBRANCH   1  11
BRANCH   3  21
ATOM     21  N   UNL     1       4.040  46.390  55.435  1.00  0.00    -0.350 N 
ATOM     22  H   UNL     1       3.752  46.668  56.366  1.00  0.00     0.164 HD
BRANCH  21  23
ATOM     23  C   UNL     1       4.420  47.478  54.560  1.00  0.00     0.152 C 
BRANCH  23  24
ATOM     24  C   UNL     1       5.727  47.132  53.883  1.00  0.00    -0.029 A 
ATOM     25  C   UNL     1       6.853  46.798  54.649  1.00  0.00     0.005 A 
ATOM     26  C   UNL     1       5.843  47.166  52.486  1.00  0.00     0.005 A 
ATOM     27  C   UNL     1       8.066  46.491  54.031  1.00  0.00     0.000 A 
ATOM     28  C   UNL     1       7.058  46.858  51.870  1.00  0.00     0.000 A 
ATOM     29  C   UNL     1       8.167  46.520  52.642  1.00  0.00     0.000 A 
ENDBRANCH  23  24
ENDBRANCH  21  23
ENDBRANCH   3  21
TORSDOF 6
ENDMDL
MODEL 15
REMARK VINA RESULT:    -8.539      3.216      7.856
REMARK INTER + INTRA:         -12.287
REMARK INTER:                 -11.466
REMARK INTRA:                  -0.822
REMARK UNBOUND:                -0.753
REMARK SMILES COc1ccc(Nc2nc(NCc3ccccc3)nc3nccnc23)cc1
REMARK SMILES IDX 8 1 9 2 10 3 19 4 20 5 21 6 22 7 23 8 24 9 25 10 7 11 6 13
REMARK SMILES IDX 3 14 4 15 27 16 5 17 26 18 2 19 1 20 11 21 12 23 13 24 14 25
REMARK SMILES IDX 18 26 15 27 17 28 16 29
REMARK H PARENT 7 12 11 22
ROOT
ATOM      1  C   UNL     1       3.543  43.381  52.458  1.00  0.00     0.164 A 
ATOM      2  N   UNL     1       4.028  42.370  51.713  1.00  0.00    -0.193 NA
ATOM      3  C   UNL     1       3.239  41.848  50.779  1.00  0.00     0.227 A 
ATOM      4  N   UNL     1       2.005  42.277  50.526  1.00  0.00    -0.191 NA
ATOM      5  C   UNL     1       1.529  43.273  51.262  1.00  0.00     0.185 A 
ATOM      6  N   UNL     1       0.287  43.695  50.993  1.00  0.00    -0.233 NA
ATOM      7  C   UNL     1      -0.213  44.714  51.728  1.00  0.00     0.133 A 
ATOM      8  C   UNL     1       0.512  45.326  52.725  1.00  0.00     0.132 A 
ATOM      9  N   UNL     1       1.766  44.939  53.019  1.00  0.00    -0.247 NA
ATOM     10  C   UNL     1       2.261  43.895  52.280  1.00  0.00     0.150 A 
ENDROOT
BRANCH   1  11
ATOM     11  N   UNL     1       4.322  43.956  53.503  1.00  0.00    -0.338 N 
ATOM     12  H   UNL     1       3.854  43.822  54.396  1.00  0.00     0.168 HD
BRANCH  11  13
ATOM     13  C   UNL     1       5.332  44.930  53.501  1.00  0.00     0.040 A 
ATOM     14  C   UNL     1       7.331  46.937  53.350  1.00  0.00     0.119 A 
ATOM     15  C   UNL     1       6.807  46.541  54.579  1.00  0.00     0.048 A 
ATOM     16  C   UNL     1       6.847  46.340  52.190  1.00  0.00     0.048 A 
ATOM     17  C   UNL     1       5.814  45.554  54.653  1.00  0.00     0.030 A 
ATOM     18  C   UNL     1       5.853  45.355  52.269  1.00  0.00     0.030 A 
BRANCH  14  19
ATOM     19  O   UNL     1       8.292  47.906  53.420  1.00  0.00    -0.497 OA
ATOM     20  C   UNL     1       9.569  47.510  53.907  1.00  0.00     0.278 C 
ENDBRANCH  14  19
ENDBRANCH  11  13
ENDBRANCH   1  11
BRANCH   3  21
ATOM     21  N   UNL     1       3.780  40.801  50.055  1.00  0.00    -0.350 N 
ATOM     22  H   UNL     1       3.843  40.001  50.675  1.00  0.00     0.164 HD
BRANCH  21  23
ATOM     23  C   UNL     1       4.998  41.121  49.341  1.00  0.00     0.152 C 
BRANCH  23  24
ATOM     24  C   UNL     1       4.719  41.091  47.855  1.00  0.00    -0.029 A 
ATOM     25  C   UNL     1       3.630  40.363  47.354  1.00  0.00     0.005 A 
ATOM     26  C   UNL     1       5.557  41.764  46.954  1.00  0.00     0.005 A 
ATOM     27  C   UNL     1       3.376  40.320  45.982  1.00  0.00     0.000 A 
ATOM     28  C   UNL     1       5.300  41.720  45.582  1.00  0.00     0.000 A 
ATOM     29  C   UNL     1       4.210  41.000  45.098  1.00  0.00     0.000 A 
ENDBRANCH  23  24
ENDBRANCH  21  23
ENDBRANCH   3  21
TORSDOF 6
ENDMDL
MODEL 16
REMARK VINA RESULT:    -8.480      3.210      7.262
REMARK INTER + INTRA:         -12.208
REMARK INTER:                 -11.074
REMARK INTRA:                  -1.133
REMARK UNBOUND:                -0.753
REMARK SMILES COc1ccc(Nc2nc(NCc3ccccc3)nc3nccnc23)cc1
REMARK SMILES IDX 8 1 9 2 10 3 19 4 20 5 21 6 22 7 23 8 24 9 25 10 7 11 6 13
REMARK SMILES IDX 3 14 4 15 27 16 5 17 26 18 2 19 1 20 11 21 12 23 13 24 14 25
REMARK SMILES IDX 18 26 15 27 17 28 16 29
REMARK H PARENT 7 12 11 22
ROOT
ATOM      1  C   UNL     1       1.800  44.604  55.053  1.00  0.00     0.164 A 
ATOM      2  N   UNL     1       1.906  43.781  53.993  1.00  0.00    -0.193 NA
ATOM      3  C   UNL     1       0.790  43.259  53.492  1.00  0.00     0.227 A 
ATOM      4  N   UNL     1      -0.426  43.516  53.967  1.00  0.00    -0.191 NA
ATOM      5  C   UNL     1      -0.529  44.326  55.012  1.00  0.00     0.185 A 
ATOM      6  N   UNL     1      -1.760  44.576  55.476  1.00  0.00    -0.233 NA
ATOM      7  C   UNL     1      -1.885  45.405  56.536  1.00  0.00     0.133 A 
ATOM      8  C   UNL     1      -0.799  45.998  57.139  1.00  0.00     0.132 A 
ATOM      9  N   UNL     1       0.454  45.780  56.697  1.00  0.00    -0.247 NA
ATOM     10  C   UNL     1       0.574  44.927  55.630  1.00  0.00     0.150 A 
ENDROOT
BRANCH   1  11
ATOM     11  N   UNL     1       2.959  45.162  55.663  1.00  0.00    -0.338 N 
ATOM     12  H   UNL     1       2.763  45.389  56.634  1.00  0.00     0.168 HD
BRANCH  11  13
ATOM     13  C   UNL     1       4.106  45.770  55.130  1.00  0.00     0.040 A 
ATOM     14  C   UNL     1       6.482  46.853  54.022  1.00  0.00     0.119 A 
ATOM     15  C   UNL     1       5.300  47.590  54.039  1.00  0.00     0.048 A 
ATOM     16  C   UNL     1       6.477  45.565  54.548  1.00  0.00     0.048 A 
ATOM     17  C   UNL     1       4.124  47.052  54.580  1.00  0.00     0.030 A 
ATOM     18  C   UNL     1       5.299  45.031  55.087  1.00  0.00     0.030 A 
BRANCH  14  19
ATOM     19  O   UNL     1       7.553  47.496  53.468  1.00  0.00    -0.497 OA
ATOM     20  C   UNL     1       8.778  47.443  54.189  1.00  0.00     0.278 C 
ENDBRANCH  14  19
ENDBRANCH  11  13
ENDBRANCH   1  11
BRANCH   3  21
ATOM     21  N   UNL     1       0.959  42.407  52.415  1.00  0.00    -0.350 N 
ATOM     22  H   UNL     1       1.667  41.728  52.671  1.00  0.00     0.164 HD
BRANCH  21  23
ATOM     23  C   UNL     1       1.171  43.068  51.145  1.00  0.00     0.152 C 
BRANCH  23  24
ATOM     24  C   UNL     1       2.546  43.696  51.142  1.00  0.00    -0.029 A 
ATOM     25  C   UNL     1       2.688  45.087  51.025  1.00  0.00     0.005 A 
ATOM     26  C   UNL     1       3.699  42.901  51.225  1.00  0.00     0.005 A 
ATOM     27  C   UNL     1       3.956  45.672  51.007  1.00  0.00     0.000 A 
ATOM     28  C   UNL     1       4.966  43.489  51.208  1.00  0.00     0.000 A 
ATOM     29  C   UNL     1       5.093  44.872  51.100  1.00  0.00     0.000 A 
ENDBRANCH  23  24
ENDBRANCH  21  23
ENDBRANCH   3  21
TORSDOF 6
ENDMDL
MODEL 17
REMARK VINA RESULT:    -8.470      2.843      7.430
REMARK INTER + INTRA:         -12.194
REMARK INTER:                 -11.316
REMARK INTRA:                  -0.879
REMARK UNBOUND:                -0.753
REMARK SMILES COc1ccc(Nc2nc(NCc3ccccc3)nc3nccnc23)cc1
REMARK SMILES IDX 8 1 9 2 10 3 19 4 20 5 21 6 22 7 23 8 24 9 25 10 7 11 6 13
REMARK SMILES IDX 3 14 4 15 27 16 5 17 26 18 2 19 1 20 11 21 12 23 13 24 14 25
REMARK SMILES IDX 18 26 15 27 17 28 16 29
REMARK H PARENT 7 12 11 22
ROOT
ATOM      1  C   UNL     1       2.490  44.774  53.450  1.00  0.00     0.164 A 
ATOM      2  N   UNL     1       2.948  44.003  52.447  1.00  0.00    -0.193 NA
ATOM      3  C   UNL     1       2.206  42.968  52.065  1.00  0.00     0.227 A 
ATOM      4  N   UNL     1       1.030  42.659  52.605  1.00  0.00    -0.191 NA
ATOM      5  C   UNL     1       0.580  43.420  53.595  1.00  0.00     0.185 A 
ATOM      6  N   UNL     1      -0.607  43.098  54.126  1.00  0.00    -0.233 NA
ATOM      7  C   UNL     1      -1.084  43.866  55.131  1.00  0.00     0.133 A 
ATOM      8  C   UNL     1      -0.399  44.959  55.611  1.00  0.00     0.132 A 
ATOM      9  N   UNL     1       0.791  45.322  55.098  1.00  0.00    -0.247 NA
ATOM     10  C   UNL     1       1.276  44.530  54.089  1.00  0.00     0.150 A 
ENDROOT
BRANCH   1  11
ATOM     11  N   UNL     1       3.256  45.873  53.934  1.00  0.00    -0.338 N 
ATOM     12  H   UNL     1       2.636  46.623  54.230  1.00  0.00     0.168 HD
BRANCH  11  13
ATOM     13  C   UNL     1       4.593  46.249  53.741  1.00  0.00     0.040 A 
ATOM     14  C   UNL     1       7.339  46.906  53.462  1.00  0.00     0.119 A 
ATOM     15  C   UNL     1       6.447  47.096  52.408  1.00  0.00     0.048 A 
ATOM     16  C   UNL     1       6.863  46.373  54.656  1.00  0.00     0.048 A 
ATOM     17  C   UNL     1       5.093  46.765  52.543  1.00  0.00     0.030 A 
ATOM     18  C   UNL     1       5.507  46.043  54.787  1.00  0.00     0.030 A 
BRANCH  14  19
ATOM     19  O   UNL     1       8.629  47.271  53.197  1.00  0.00    -0.497 OA
ATOM     20  C   UNL     1       9.470  47.516  54.317  1.00  0.00     0.278 C 
ENDBRANCH  14  19
ENDBRANCH  11  13
ENDBRANCH   1  11
BRANCH   3  21
ATOM     21  N   UNL     1       2.732  42.199  51.042  1.00  0.00    -0.350 N 
ATOM     22  H   UNL     1       2.001  41.573  50.723  1.00  0.00     0.164 HD
BRANCH  21  23
ATOM     23  C   UNL     1       3.995  41.561  51.350  1.00  0.00     0.152 C 
BRANCH  23  24
ATOM     24  C   UNL     1       5.079  42.179  50.496  1.00  0.00    -0.029 A 
ATOM     25  C   UNL     1       5.633  43.419  50.845  1.00  0.00     0.005 A 
ATOM     26  C   UNL     1       5.524  41.540  49.330  1.00  0.00     0.005 A 
ATOM     27  C   UNL     1       6.624  44.001  50.053  1.00  0.00     0.000 A 
ATOM     28  C   UNL     1       6.517  42.124  48.539  1.00  0.00     0.000 A 
ATOM     29  C   UNL     1       7.066  43.352  48.901  1.00  0.00     0.000 A 
ENDBRANCH  23  24
ENDBRANCH  21  23
ENDBRANCH   3  21
TORSDOF 6
ENDMDL
MODEL 18
REMARK VINA RESULT:    -8.441      2.773      7.118
REMARK INTER + INTRA:         -12.155
REMARK INTER:                 -11.380
REMARK INTRA:                  -0.775
REMARK UNBOUND:                -0.753
REMARK SMILES COc1ccc(Nc2nc(NCc3ccccc3)nc3nccnc23)cc1
REMARK SMILES IDX 8 1 9 2 10 3 19 4 20 5 21 6 22 7 23 8 24 9 25 10 7 11 6 13
REMARK SMILES IDX 3 14 4 15 27 16 5 17 26 18 2 19 1 20 11 21 12 23 13 24 14 25
REMARK SMILES IDX 18 26 15 27 17 28 16 29
REMARK H PARENT 7 12 11 22
ROOT
ATOM      1  C   UNL     1       4.576  43.214  51.499  1.00  0.00     0.164 A 
ATOM      2  N   UNL     1       5.531  44.162  51.511  1.00  0.00    -0.193 NA
ATOM      3  C   UNL     1       6.418  44.167  50.519  1.00  0.00     0.227 A 
ATOM      4  N   UNL     1       6.406  43.302  49.509  1.00  0.00    -0.191 NA
ATOM      5  C   UNL     1       5.464  42.368  49.500  1.00  0.00     0.185 A 
ATOM      6  N   UNL     1       5.464  41.506  48.475  1.00  0.00    -0.233 NA
ATOM      7  C   UNL     1       4.508  40.551  48.445  1.00  0.00     0.133 A 
ATOM      8  C   UNL     1       3.542  40.447  49.421  1.00  0.00     0.132 A 
ATOM      9  N   UNL     1       3.501  41.299  50.461  1.00  0.00    -0.247 NA
ATOM     10  C   UNL     1       4.483  42.255  50.493  1.00  0.00     0.150 A 
ENDROOT
BRANCH   1  11
ATOM     11  N   UNL     1       3.622  43.127  52.553  1.00  0.00    -0.338 N 
ATOM     12  H   UNL     1       3.855  42.351  53.167  1.00  0.00     0.168 HD
BRANCH  11  13
ATOM     13  C   UNL     1       2.313  43.615  52.685  1.00  0.00     0.040 A 
ATOM     14  C   UNL     1      -0.349  44.511  53.081  1.00  0.00     0.119 A 
ATOM     15  C   UNL     1       0.577  45.299  52.400  1.00  0.00     0.048 A 
ATOM     16  C   UNL     1       0.057  43.277  53.580  1.00  0.00     0.048 A 
ATOM     17  C   UNL     1       1.894  44.859  52.210  1.00  0.00     0.030 A 
ATOM     18  C   UNL     1       1.376  42.842  53.388  1.00  0.00     0.030 A 
BRANCH  14  19
ATOM     19  O   UNL     1      -1.597  45.058  53.194  1.00  0.00    -0.497 OA
ATOM     20  C   UNL     1      -2.168  45.605  52.012  1.00  0.00     0.278 C 
ENDBRANCH  14  19
ENDBRANCH  11  13
ENDBRANCH   1  11
BRANCH   3  21
ATOM     21  N   UNL     1       7.388  45.151  50.590  1.00  0.00    -0.350 N 
ATOM     22  H   UNL     1       8.239  44.717  50.929  1.00  0.00     0.164 HD
BRANCH  21  23
ATOM     23  C   UNL     1       6.987  46.350  51.295  1.00  0.00     0.152 C 
BRANCH  23  24
ATOM     24  C   UNL     1       8.028  46.676  52.343  1.00  0.00    -0.029 A 
ATOM     25  C   UNL     1       9.390  46.485  52.070  1.00  0.00     0.005 A 
ATOM     26  C   UNL     1       7.648  47.145  53.609  1.00  0.00     0.005 A 
ATOM     27  C   UNL     1      10.354  46.771  53.037  1.00  0.00     0.000 A 
ATOM     28  C   UNL     1       8.616  47.430  54.575  1.00  0.00     0.000 A 
ATOM     29  C   UNL     1       9.966  47.244  54.289  1.00  0.00     0.000 A 
ENDBRANCH  23  24
ENDBRANCH  21  23
ENDBRANCH   3  21
TORSDOF 6
ENDMDL
MODEL 19
REMARK VINA RESULT:    -8.399      2.858      5.780
REMARK INTER + INTRA:         -12.098
REMARK INTER:                 -11.289
REMARK INTRA:                  -0.809
REMARK UNBOUND:                -0.753
REMARK SMILES COc1ccc(Nc2nc(NCc3ccccc3)nc3nccnc23)cc1
REMARK SMILES IDX 8 1 9 2 10 3 19 4 20 5 21 6 22 7 23 8 24 9 25 10 7 11 6 13
REMARK SMILES IDX 3 14 4 15 27 16 5 17 26 18 2 19 1 20 11 21 12 23 13 24 14 25
REMARK SMILES IDX 18 26 15 27 17 28 16 29
REMARK H PARENT 7 12 11 22
ROOT
ATOM      1  C   UNL     1       4.800  44.468  51.787  1.00  0.00     0.164 A 
ATOM      2  N   UNL     1       3.828  44.437  52.718  1.00  0.00    -0.193 NA
ATOM      3  C   UNL     1       3.093  43.333  52.818  1.00  0.00     0.227 A 
ATOM      4  N   UNL     1       3.271  42.253  52.062  1.00  0.00    -0.191 NA
ATOM      5  C   UNL     1       4.228  42.286  51.143  1.00  0.00     0.185 A 
ATOM      6  N   UNL     1       4.396  41.190  50.392  1.00  0.00    -0.233 NA
ATOM      7  C   UNL     1       5.371  41.203  49.456  1.00  0.00     0.133 A 
ATOM      8  C   UNL     1       6.190  42.293  49.261  1.00  0.00     0.132 A 
ATOM      9  N   UNL     1       6.060  43.409  50.001  1.00  0.00    -0.247 NA
ATOM     10  C   UNL     1       5.059  43.394  50.939  1.00  0.00     0.150 A 
ENDROOT
BRANCH   1  11
ATOM     11  N   UNL     1       5.595  45.634  51.601  1.00  0.00    -0.338 N 
ATOM     12  H   UNL     1       5.394  46.049  50.695  1.00  0.00     0.168 HD
BRANCH  11  13
ATOM     13  C   UNL     1       6.783  46.073  52.204  1.00  0.00     0.040 A 
ATOM     14  C   UNL     1       9.226  47.029  53.285  1.00  0.00     0.119 A 
ATOM     15  C   UNL     1       8.136  46.757  54.110  1.00  0.00     0.048 A 
ATOM     16  C   UNL     1       9.093  46.836  51.913  1.00  0.00     0.048 A 
ATOM     17  C   UNL     1       6.927  46.292  53.575  1.00  0.00     0.030 A 
ATOM     18  C   UNL     1       7.882  46.371  51.383  1.00  0.00     0.030 A 
BRANCH  14  19
ATOM     19  O   UNL     1      10.342  47.475  53.935  1.00  0.00    -0.497 OA
ATOM     20  C   UNL     1      10.320  47.429  55.356  1.00  0.00     0.278 C 
ENDBRANCH  14  19
ENDBRANCH  11  13
ENDBRANCH   1  11
BRANCH   3  21
ATOM     21  N   UNL     1       2.098  43.361  53.779  1.00  0.00    -0.350 N 
ATOM     22  H   UNL     1       1.433  42.630  53.552  1.00  0.00     0.164 HD
BRANCH  21  23
ATOM     23  C   UNL     1       1.519  44.666  54.015  1.00  0.00     0.152 C 
BRANCH  23  24
ATOM     24  C   UNL     1       0.081  44.658  53.547  1.00  0.00    -0.029 A 
ATOM     25  C   UNL     1      -0.264  45.224  52.311  1.00  0.00     0.005 A 
ATOM     26  C   UNL     1      -0.932  44.114  54.350  1.00  0.00     0.005 A 
ATOM     27  C   UNL     1      -1.591  45.233  51.880  1.00  0.00     0.000 A 
ATOM     28  C   UNL     1      -2.259  44.124  53.916  1.00  0.00     0.000 A 
ATOM     29  C   UNL     1      -2.588  44.681  52.682  1.00  0.00     0.000 A 
ENDBRANCH  23  24
ENDBRANCH  21  23
ENDBRANCH   3  21
TORSDOF 6
ENDMDL
