MODEL 1
REMARK VINA RESULT:    -8.129      0.000      0.000
REMARK INTER + INTRA:         -12.302
REMARK INTER:                 -11.218
REMARK INTRA:                  -1.084
REMARK UNBOUND:                -1.084
REMARK SMILES Cc1ccc(Nc2nc(NCCCO)nc3[nH]nnc23)cc1
REMARK SMILES IDX 10 1 9 3 7 4 8 5 20 6 19 7 16 8 15 9 18 10 17 11 6 13 5 15
REMARK SMILES IDX 2 16 3 17 22 18 4 19 21 20 1 21 11 22 12 23 13 24 14 25
REMARK H PARENT 10 2 17 12 6 14 14 26
ROOT
ATOM      1  N   UNL     1       2.425  43.041  53.204  1.00  0.00    -0.354 N 
ATOM      2  H   UNL     1       1.879  42.233  52.927  1.00  0.00     0.163 HD
ENDROOT
BRANCH   1   3
ATOM      3  C   UNL     1       3.486  43.125  52.313  1.00  0.00     0.226 A 
ATOM      4  C   UNL     1       5.297  44.352  51.408  1.00  0.00     0.166 A 
ATOM      5  N   UNL     1       4.251  44.239  52.278  1.00  0.00    -0.193 NA
ATOM      6  C   UNL     1       5.528  43.255  50.567  1.00  0.00     0.174 A 
ATOM      7  N   UNL     1       6.451  42.996  49.586  1.00  0.00    -0.125 NA
ATOM      8  C   UNL     1       4.679  42.178  50.694  1.00  0.00     0.183 A 
ATOM      9  N   UNL     1       3.642  42.045  51.530  1.00  0.00    -0.192 NA
ATOM     10  N   UNL     1       6.203  41.780  49.102  1.00  0.00    -0.067 NA
ATOM     11  N   UNL     1       5.142  41.289  49.773  1.00  0.00    -0.240 N 
ATOM     12  H   UNL     1       4.793  40.365  49.554  1.00  0.00     0.194 HD
BRANCH   4  13
ATOM     13  N   UNL     1       6.102  45.497  51.316  1.00  0.00    -0.338 N 
ATOM     14  H   UNL     1       5.909  46.038  50.480  1.00  0.00     0.168 HD
BRANCH  13  15
ATOM     15  C   UNL     1       7.133  46.008  52.119  1.00  0.00     0.040 A 
ATOM     16  C   UNL     1       9.147  46.993  53.863  1.00  0.00    -0.051 A 
ATOM     17  C   UNL     1       7.848  46.780  54.328  1.00  0.00     0.005 A 
ATOM     18  C   UNL     1       9.430  46.727  52.521  1.00  0.00     0.005 A 
ATOM     19  C   UNL     1       6.859  46.288  53.468  1.00  0.00     0.026 A 
ATOM     20  C   UNL     1       8.434  46.234  51.669  1.00  0.00     0.026 A 
ATOM     21  C   UNL     1      10.203  47.554  54.767  1.00  0.00     0.044 C 
ENDBRANCH  13  15
ENDBRANCH   4  13
ENDBRANCH   1   3
BRANCH   1  22
ATOM     22  C   UNL     1       1.675  44.263  53.438  1.00  0.00     0.118 C 
BRANCH  22  23
ATOM     23  C   UNL     1       1.606  44.562  54.933  1.00  0.00     0.049 C 
BRANCH  23  24
ATOM     24  C   UNL     1       2.760  45.453  55.370  1.00  0.00     0.158 C 
BRANCH  24  25
ATOM     25  O   UNL     1       3.964  44.702  55.445  1.00  0.00    -0.396 OA
ATOM     26  H   UNL     1       4.613  45.118  54.850  1.00  0.00     0.210 HD
ENDBRANCH  24  25
ENDBRANCH  23  24
ENDBRANCH  22  23
ENDBRANCH   1  22
TORSDOF 7
ENDMDL
MODEL 2
REMARK VINA RESULT:    -8.015      1.202      1.512
REMARK INTER + INTRA:         -12.145
REMARK INTER:                 -11.011
REMARK INTRA:                  -1.134
REMARK UNBOUND:                -1.084
REMARK SMILES Cc1ccc(Nc2nc(NCCCO)nc3[nH]nnc23)cc1
REMARK SMILES IDX 10 1 9 3 7 4 8 5 20 6 19 7 16 8 15 9 18 10 17 11 6 13 5 15
REMARK SMILES IDX 2 16 3 17 22 18 4 19 21 20 1 21 11 22 12 23 13 24 14 25
REMARK H PARENT 10 2 17 12 6 14 14 26
ROOT
ATOM      1  N   UNL     1       3.376  43.153  52.001  1.00  0.00    -0.354 N 
ATOM      2  H   UNL     1       3.042  42.383  51.431  1.00  0.00     0.163 HD
ENDROOT
BRANCH   1   3
ATOM      3  C   UNL     1       4.571  43.575  51.435  1.00  0.00     0.226 A 
ATOM      4  C   UNL     1       6.313  45.172  51.303  1.00  0.00     0.166 A 
ATOM      5  N   UNL     1       5.141  44.729  51.846  1.00  0.00    -0.193 NA
ATOM      6  C   UNL     1       6.882  44.365  50.309  1.00  0.00     0.174 A 
ATOM      7  N   UNL     1       8.017  44.467  49.545  1.00  0.00    -0.125 NA
ATOM      8  C   UNL     1       6.205  43.212  49.974  1.00  0.00     0.183 A 
ATOM      9  N   UNL     1       5.053  42.761  50.482  1.00  0.00    -0.192 NA
ATOM     10  N   UNL     1       8.068  43.403  48.745  1.00  0.00    -0.067 NA
ATOM     11  N   UNL     1       6.982  42.649  49.008  1.00  0.00    -0.240 N 
ATOM     12  H   UNL     1       6.836  41.786  48.502  1.00  0.00     0.194 HD
BRANCH   4  13
ATOM     13  N   UNL     1       6.929  46.375  51.678  1.00  0.00    -0.338 N 
ATOM     14  H   UNL     1       6.606  47.162  51.125  1.00  0.00     0.168 HD
BRANCH  13  15
ATOM     15  C   UNL     1       7.918  46.690  52.622  1.00  0.00     0.040 A 
ATOM     16  C   UNL     1       9.819  47.310  54.639  1.00  0.00    -0.051 A 
ATOM     17  C   UNL     1       8.454  47.486  54.872  1.00  0.00     0.005 A 
ATOM     18  C   UNL     1      10.229  46.839  53.390  1.00  0.00     0.005 A 
ATOM     19  C   UNL     1       7.519  47.173  53.879  1.00  0.00     0.026 A 
ATOM     20  C   UNL     1       9.287  46.528  52.403  1.00  0.00     0.026 A 
ATOM     21  C   UNL     1      10.829  47.677  55.685  1.00  0.00     0.044 C 
ENDBRANCH  13  15
ENDBRANCH   4  13
ENDBRANCH   1   3
BRANCH   1  22
ATOM     22  C   UNL     1       2.399  44.186  52.303  1.00  0.00     0.118 C 
BRANCH  22  23
ATOM     23  C   UNL     1       1.860  44.004  53.719  1.00  0.00     0.049 C 
BRANCH  23  24
ATOM     24  C   UNL     1       2.584  44.911  54.704  1.00  0.00     0.158 C 
BRANCH  24  25
ATOM     25  O   UNL     1       3.963  44.572  54.768  1.00  0.00    -0.396 OA
ATOM     26  H   UNL     1       4.426  45.075  54.075  1.00  0.00     0.210 HD
ENDBRANCH  24  25
ENDBRANCH  23  24
ENDBRANCH  22  23
ENDBRANCH   1  22
TORSDOF 7
ENDMDL
MODEL 3
REMARK VINA RESULT:    -7.986      0.213      1.044
REMARK INTER + INTRA:         -12.106
REMARK INTER:                 -11.062
REMARK INTRA:                  -1.044
REMARK UNBOUND:                -1.084
REMARK SMILES Cc1ccc(Nc2nc(NCCCO)nc3[nH]nnc23)cc1
REMARK SMILES IDX 10 1 9 3 7 4 8 5 20 6 19 7 16 8 15 9 18 10 17 11 6 13 5 15
REMARK SMILES IDX 2 16 3 17 22 18 4 19 21 20 1 21 11 22 12 23 13 24 14 25
REMARK H PARENT 10 2 17 12 6 14 14 26
ROOT
ATOM      1  N   UNL     1       2.600  42.959  53.115  1.00  0.00    -0.354 N 
ATOM      2  H   UNL     1       2.088  42.110  52.904  1.00  0.00     0.163 HD
ENDROOT
BRANCH   1   3
ATOM      3  C   UNL     1       3.643  43.029  52.201  1.00  0.00     0.226 A 
ATOM      4  C   UNL     1       5.497  44.198  51.309  1.00  0.00     0.166 A 
ATOM      5  N   UNL     1       4.467  44.100  52.200  1.00  0.00    -0.193 NA
ATOM      6  C   UNL     1       5.648  43.133  50.411  1.00  0.00     0.174 A 
ATOM      7  N   UNL     1       6.532  42.871  49.396  1.00  0.00    -0.125 NA
ATOM      8  C   UNL     1       4.743  42.098  50.510  1.00  0.00     0.183 A 
ATOM      9  N   UNL     1       3.721  41.981  51.365  1.00  0.00    -0.192 NA
ATOM     10  N   UNL     1       6.206  41.696  48.862  1.00  0.00    -0.067 NA
ATOM     11  N   UNL     1       5.135  41.231  49.536  1.00  0.00    -0.240 N 
ATOM     12  H   UNL     1       4.730  40.339  49.283  1.00  0.00     0.194 HD
BRANCH   4  13
ATOM     13  N   UNL     1       6.363  45.301  51.251  1.00  0.00    -0.338 N 
ATOM     14  H   UNL     1       6.321  45.777  50.356  1.00  0.00     0.168 HD
BRANCH  13  15
ATOM     15  C   UNL     1       7.289  45.839  52.157  1.00  0.00     0.040 A 
ATOM     16  C   UNL     1       9.243  46.975  53.877  1.00  0.00    -0.051 A 
ATOM     17  C   UNL     1       9.571  46.621  52.567  1.00  0.00     0.005 A 
ATOM     18  C   UNL     1       7.941  46.744  54.327  1.00  0.00     0.005 A 
ATOM     19  C   UNL     1       8.604  46.068  51.719  1.00  0.00     0.026 A 
ATOM     20  C   UNL     1       6.981  46.192  53.471  1.00  0.00     0.026 A 
ATOM     21  C   UNL     1      10.281  47.534  54.802  1.00  0.00     0.044 C 
ENDBRANCH  13  15
ENDBRANCH   4  13
ENDBRANCH   1   3
BRANCH   1  22
ATOM     22  C   UNL     1       1.797  44.159  53.277  1.00  0.00     0.118 C 
BRANCH  22  23
ATOM     23  C   UNL     1       1.622  44.481  54.758  1.00  0.00     0.049 C 
BRANCH  23  24
ATOM     24  C   UNL     1       2.769  45.337  55.274  1.00  0.00     0.158 C 
BRANCH  24  25
ATOM     25  O   UNL     1       3.955  44.560  55.386  1.00  0.00    -0.396 OA
ATOM     26  H   UNL     1       4.695  45.168  55.558  1.00  0.00     0.210 HD
ENDBRANCH  24  25
ENDBRANCH  23  24
ENDBRANCH  22  23
ENDBRANCH   1  22
TORSDOF 7
ENDMDL
MODEL 4
REMARK VINA RESULT:    -7.900      1.907      2.296
REMARK INTER + INTRA:         -11.986
REMARK INTER:                 -11.134
REMARK INTRA:                  -0.853
REMARK UNBOUND:                -1.084
REMARK SMILES Cc1ccc(Nc2nc(NCCCO)nc3[nH]nnc23)cc1
REMARK SMILES IDX 10 1 9 3 7 4 8 5 20 6 19 7 16 8 15 9 18 10 17 11 6 13 5 15
REMARK SMILES IDX 2 16 3 17 22 18 4 19 21 20 1 21 11 22 12 23 13 24 14 25
REMARK H PARENT 10 2 17 12 6 14 14 26
ROOT
ATOM      1  N   UNL     1       3.406  42.606  51.752  1.00  0.00    -0.354 N 
ATOM      2  H   UNL     1       2.878  42.246  50.963  1.00  0.00     0.163 HD
ENDROOT
BRANCH   1   3
ATOM      3  C   UNL     1       4.567  43.160  51.231  1.00  0.00     0.226 A 
ATOM      4  C   UNL     1       6.148  44.920  51.194  1.00  0.00     0.166 A 
ATOM      5  N   UNL     1       5.012  44.350  51.692  1.00  0.00    -0.193 NA
ATOM      6  C   UNL     1       6.817  44.205  50.192  1.00  0.00     0.174 A 
ATOM      7  N   UNL     1       7.955  44.441  49.463  1.00  0.00    -0.125 NA
ATOM      8  C   UNL     1       6.264  43.004  49.805  1.00  0.00     0.183 A 
ATOM      9  N   UNL     1       5.150  42.427  50.268  1.00  0.00    -0.192 NA
ATOM     10  N   UNL     1       8.129  43.413  48.634  1.00  0.00    -0.067 NA
ATOM     11  N   UNL     1       7.116  42.549  48.845  1.00  0.00    -0.240 N 
ATOM     12  H   UNL     1       7.067  41.692  48.310  1.00  0.00     0.194 HD
BRANCH   4  13
ATOM     13  N   UNL     1       6.635  46.166  51.621  1.00  0.00    -0.338 N 
ATOM     14  H   UNL     1       6.181  46.939  51.147  1.00  0.00     0.168 HD
BRANCH  13  15
ATOM     15  C   UNL     1       7.637  46.541  52.528  1.00  0.00     0.040 A 
ATOM     16  C   UNL     1       9.573  47.269  54.474  1.00  0.00    -0.051 A 
ATOM     17  C   UNL     1       8.212  47.299  54.782  1.00  0.00     0.005 A 
ATOM     18  C   UNL     1       9.960  46.889  53.187  1.00  0.00     0.005 A 
ATOM     19  C   UNL     1       7.260  46.933  53.823  1.00  0.00     0.026 A 
ATOM     20  C   UNL     1       9.001  46.523  52.235  1.00  0.00     0.026 A 
ATOM     21  C   UNL     1      10.596  47.694  55.484  1.00  0.00     0.044 C 
ENDBRANCH  13  15
ENDBRANCH   4  13
ENDBRANCH   1   3
BRANCH   1  22
ATOM     22  C   UNL     1       2.660  43.426  52.692  1.00  0.00     0.118 C 
BRANCH  22  23
ATOM     23  C   UNL     1       1.160  43.253  52.467  1.00  0.00     0.049 C 
BRANCH  23  24
ATOM     24  C   UNL     1       0.707  43.973  51.205  1.00  0.00     0.158 C 
BRANCH  24  25
ATOM     25  O   UNL     1       0.903  43.145  50.066  1.00  0.00    -0.396 OA
ATOM     26  H   UNL     1       1.261  42.294  50.374  1.00  0.00     0.210 HD
ENDBRANCH  24  25
ENDBRANCH  23  24
ENDBRANCH  22  23
ENDBRANCH   1  22
TORSDOF 7
ENDMDL
MODEL 5
REMARK VINA RESULT:    -7.875      1.225      1.367
REMARK INTER + INTRA:         -11.951
REMARK INTER:                 -10.999
REMARK INTRA:                  -0.953
REMARK UNBOUND:                -1.084
REMARK SMILES Cc1ccc(Nc2nc(NCCCO)nc3[nH]nnc23)cc1
REMARK SMILES IDX 10 1 9 3 7 4 8 5 20 6 19 7 16 8 15 9 18 10 17 11 6 13 5 15
REMARK SMILES IDX 2 16 3 17 22 18 4 19 21 20 1 21 11 22 12 23 13 24 14 25
REMARK H PARENT 10 2 17 12 6 14 14 26
ROOT
ATOM      1  N   UNL     1       2.055  44.837  52.037  1.00  0.00    -0.354 N 
ATOM      2  H   UNL     1       1.632  45.360  51.279  1.00  0.00     0.163 HD
ENDROOT
BRANCH   1   3
ATOM      3  C   UNL     1       3.279  44.381  51.569  1.00  0.00     0.226 A 
ATOM      4  C   UNL     1       5.552  44.801  51.059  1.00  0.00     0.166 A 
ATOM      5  N   UNL     1       4.337  45.220  51.521  1.00  0.00    -0.193 NA
ATOM      6  C   UNL     1       5.634  43.464  50.647  1.00  0.00     0.174 A 
ATOM      7  N   UNL     1       6.647  42.694  50.136  1.00  0.00    -0.125 NA
ATOM      8  C   UNL     1       4.486  42.708  50.742  1.00  0.00     0.183 A 
ATOM      9  N   UNL     1       3.283  43.095  51.180  1.00  0.00    -0.192 NA
ATOM     10  N   UNL     1       6.162  41.474  49.914  1.00  0.00    -0.067 NA
ATOM     11  N   UNL     1       4.865  41.483  50.283  1.00  0.00    -0.240 N 
ATOM     12  H   UNL     1       4.312  40.641  50.195  1.00  0.00     0.194 HD
BRANCH   4  13
ATOM     13  N   UNL     1       6.672  45.641  50.966  1.00  0.00    -0.338 N 
ATOM     14  H   UNL     1       6.862  45.925  50.011  1.00  0.00     0.168 HD
BRANCH  13  15
ATOM     15  C   UNL     1       7.589  46.121  51.914  1.00  0.00     0.040 A 
ATOM     16  C   UNL     1       9.352  47.050  53.937  1.00  0.00    -0.051 A 
ATOM     17  C   UNL     1       7.988  46.908  54.195  1.00  0.00     0.005 A 
ATOM     18  C   UNL     1       9.827  46.742  52.661  1.00  0.00     0.005 A 
ATOM     19  C   UNL     1       7.122  46.443  53.199  1.00  0.00     0.026 A 
ATOM     20  C   UNL     1       8.954  46.277  51.670  1.00  0.00     0.026 A 
ATOM     21  C   UNL     1      10.280  47.582  54.988  1.00  0.00     0.044 C 
ENDBRANCH  13  15
ENDBRANCH   4  13
ENDBRANCH   1   3
BRANCH   1  22
ATOM     22  C   UNL     1       2.059  45.492  53.334  1.00  0.00     0.118 C 
BRANCH  22  23
ATOM     23  C   UNL     1       1.616  44.516  54.420  1.00  0.00     0.049 C 
BRANCH  23  24
ATOM     24  C   UNL     1       0.791  43.379  53.835  1.00  0.00     0.158 C 
BRANCH  24  25
ATOM     25  O   UNL     1       1.610  42.240  53.604  1.00  0.00    -0.396 OA
ATOM     26  H   UNL     1       1.104  41.451  53.866  1.00  0.00     0.210 HD
ENDBRANCH  24  25
ENDBRANCH  23  24
ENDBRANCH  22  23
ENDBRANCH   1  22
TORSDOF 7
ENDMDL
MODEL 6
REMARK VINA RESULT:    -7.772      3.043      4.921
REMARK INTER + INTRA:         -11.809
REMARK INTER:                 -11.274
REMARK INTRA:                  -0.535
REMARK UNBOUND:                -1.084
REMARK SMILES Cc1ccc(Nc2nc(NCCCO)nc3[nH]nnc23)cc1
REMARK SMILES IDX 10 1 9 3 7 4 8 5 20 6 19 7 16 8 15 9 18 10 17 11 6 13 5 15
REMARK SMILES IDX 2 16 3 17 22 18 4 19 21 20 1 21 11 22 12 23 13 24 14 25
REMARK H PARENT 10 2 17 12 6 14 14 26
ROOT
ATOM      1  N   UNL     1       6.116  41.357  48.677  1.00  0.00    -0.354 N 
ATOM      2  H   UNL     1       7.055  41.669  48.455  1.00  0.00     0.163 HD
ENDROOT
BRANCH   1   3
ATOM      3  C   UNL     1       5.647  42.195  49.679  1.00  0.00     0.226 A 
ATOM      4  C   UNL     1       5.758  44.260  50.829  1.00  0.00     0.166 A 
ATOM      5  N   UNL     1       6.196  43.418  49.848  1.00  0.00    -0.193 NA
ATOM      6  C   UNL     1       4.717  43.787  51.638  1.00  0.00     0.174 A 
ATOM      7  N   UNL     1       4.028  44.319  52.698  1.00  0.00    -0.125 NA
ATOM      8  C   UNL     1       4.241  42.522  51.369  1.00  0.00     0.183 A 
ATOM      9  N   UNL     1       4.657  41.673  50.423  1.00  0.00    -0.192 NA
ATOM     10  N   UNL     1       3.130  43.419  53.095  1.00  0.00    -0.067 NA
ATOM     11  N   UNL     1       3.256  42.343  52.292  1.00  0.00    -0.240 N 
ATOM     12  H   UNL     1       2.655  41.541  52.429  1.00  0.00     0.194 HD
BRANCH   4  13
ATOM     13  N   UNL     1       6.314  45.528  51.060  1.00  0.00    -0.338 N 
ATOM     14  H   UNL     1       5.936  46.234  50.436  1.00  0.00     0.168 HD
BRANCH  13  15
ATOM     15  C   UNL     1       7.303  45.994  51.940  1.00  0.00     0.040 A 
ATOM     16  C   UNL     1       9.222  46.887  53.834  1.00  0.00    -0.051 A 
ATOM     17  C   UNL     1       7.886  46.718  54.203  1.00  0.00     0.005 A 
ATOM     18  C   UNL     1       9.590  46.623  52.513  1.00  0.00     0.005 A 
ATOM     19  C   UNL     1       6.944  46.271  53.269  1.00  0.00     0.026 A 
ATOM     20  C   UNL     1       8.640  46.175  51.586  1.00  0.00     0.026 A 
ATOM     21  C   UNL     1      10.230  47.400  54.818  1.00  0.00     0.044 C 
ENDBRANCH  13  15
ENDBRANCH   4  13
ENDBRANCH   1   3
BRANCH   1  22
ATOM     22  C   UNL     1       5.234  41.147  47.541  1.00  0.00     0.118 C 
BRANCH  22  23
ATOM     23  C   UNL     1       5.743  41.922  46.328  1.00  0.00     0.049 C 
BRANCH  23  24
ATOM     24  C   UNL     1       4.745  41.865  45.181  1.00  0.00     0.158 C 
BRANCH  24  25
ATOM     25  O   UNL     1       5.197  42.660  44.092  1.00  0.00    -0.396 OA
ATOM     26  H   UNL     1       4.836  43.557  44.207  1.00  0.00     0.210 HD
ENDBRANCH  24  25
ENDBRANCH  23  24
ENDBRANCH  22  23
ENDBRANCH   1  22
TORSDOF 7
ENDMDL
MODEL 7
REMARK VINA RESULT:    -7.767      2.265      4.094
REMARK INTER + INTRA:         -11.803
REMARK INTER:                 -11.049
REMARK INTRA:                  -0.753
REMARK UNBOUND:                -1.084
REMARK SMILES Cc1ccc(Nc2nc(NCCCO)nc3[nH]nnc23)cc1
REMARK SMILES IDX 10 1 9 3 7 4 8 5 20 6 19 7 16 8 15 9 18 10 17 11 6 13 5 15
REMARK SMILES IDX 2 16 3 17 22 18 4 19 21 20 1 21 11 22 12 23 13 24 14 25
REMARK H PARENT 10 2 17 12 6 14 14 26
ROOT
ATOM      1  N   UNL     1       4.225  41.890  51.204  1.00  0.00    -0.354 N 
ATOM      2  H   UNL     1       5.185  41.576  51.296  1.00  0.00     0.163 HD
ENDROOT
BRANCH   1   3
ATOM      3  C   UNL     1       4.232  43.257  51.443  1.00  0.00     0.226 A 
ATOM      4  C   UNL     1       5.412  45.307  51.526  1.00  0.00     0.166 A 
ATOM      5  N   UNL     1       5.375  43.962  51.292  1.00  0.00    -0.193 NA
ATOM      6  C   UNL     1       4.208  45.903  51.924  1.00  0.00     0.174 A 
ATOM      7  N   UNL     1       3.851  47.189  52.245  1.00  0.00    -0.125 NA
ATOM      8  C   UNL     1       3.110  45.079  52.044  1.00  0.00     0.183 A 
ATOM      9  N   UNL     1       3.049  43.760  51.831  1.00  0.00    -0.192 NA
ATOM     10  N   UNL     1       2.557  47.188  52.557  1.00  0.00    -0.067 NA
ATOM     11  N   UNL     1       2.113  45.921  52.432  1.00  0.00    -0.240 N 
ATOM     12  H   UNL     1       1.143  45.708  52.624  1.00  0.00     0.194 HD
BRANCH   4  13
ATOM     13  N   UNL     1       6.579  46.077  51.409  1.00  0.00    -0.338 N 
ATOM     14  H   UNL     1       6.728  46.410  50.462  1.00  0.00     0.168 HD
BRANCH  13  15
ATOM     15  C   UNL     1       7.585  46.435  52.320  1.00  0.00     0.040 A 
ATOM     16  C   UNL     1       9.526  47.129  54.273  1.00  0.00    -0.051 A 
ATOM     17  C   UNL     1       8.164  47.168  54.580  1.00  0.00     0.005 A 
ATOM     18  C   UNL     1       9.910  46.758  52.983  1.00  0.00     0.005 A 
ATOM     19  C   UNL     1       7.210  46.819  53.618  1.00  0.00     0.026 A 
ATOM     20  C   UNL     1       8.948  46.409  52.027  1.00  0.00     0.026 A 
ATOM     21  C   UNL     1      10.552  47.536  55.287  1.00  0.00     0.044 C 
ENDBRANCH  13  15
ENDBRANCH   4  13
ENDBRANCH   1   3
BRANCH   1  22
ATOM     22  C   UNL     1       3.525  41.443  50.011  1.00  0.00     0.118 C 
BRANCH  22  23
ATOM     23  C   UNL     1       4.475  40.669  49.101  1.00  0.00     0.049 C 
BRANCH  23  24
ATOM     24  C   UNL     1       5.778  41.426  48.895  1.00  0.00     0.158 C 
BRANCH  24  25
ATOM     25  O   UNL     1       6.782  40.932  49.773  1.00  0.00    -0.396 OA
ATOM     26  H   UNL     1       6.424  40.147  50.223  1.00  0.00     0.210 HD
ENDBRANCH  24  25
ENDBRANCH  23  24
ENDBRANCH  22  23
ENDBRANCH   1  22
TORSDOF 7
ENDMDL
MODEL 8
REMARK VINA RESULT:    -7.704      1.627      2.187
REMARK INTER + INTRA:         -11.715
REMARK INTER:                 -10.829
REMARK INTRA:                  -0.886
REMARK UNBOUND:                -1.084
REMARK SMILES Cc1ccc(Nc2nc(NCCCO)nc3[nH]nnc23)cc1
REMARK SMILES IDX 10 1 9 3 7 4 8 5 20 6 19 7 16 8 15 9 18 10 17 11 6 13 5 15
REMARK SMILES IDX 2 16 3 17 22 18 4 19 21 20 1 21 11 22 12 23 13 24 14 25
REMARK H PARENT 10 2 17 12 6 14 14 26
ROOT
ATOM      1  N   UNL     1       2.609  42.339  53.026  1.00  0.00    -0.354 N 
ATOM      2  H   UNL     1       2.297  41.396  52.822  1.00  0.00     0.163 HD
ENDROOT
BRANCH   1   3
ATOM      3  C   UNL     1       3.621  42.626  52.120  1.00  0.00     0.226 A 
ATOM      4  C   UNL     1       5.283  44.109  51.322  1.00  0.00     0.166 A 
ATOM      5  N   UNL     1       4.287  43.799  52.203  1.00  0.00    -0.193 NA
ATOM      6  C   UNL     1       5.570  43.150  50.342  1.00  0.00     0.174 A 
ATOM      7  N   UNL     1       6.470  43.095  49.308  1.00  0.00    -0.125 NA
ATOM      8  C   UNL     1       4.820  41.994  50.359  1.00  0.00     0.183 A 
ATOM      9  N   UNL     1       3.834  41.669  51.203  1.00  0.00    -0.192 NA
ATOM     10  N   UNL     1       6.304  41.931  48.683  1.00  0.00    -0.067 NA
ATOM     11  N   UNL     1       5.316  41.269  49.319  1.00  0.00    -0.240 N 
ATOM     12  H   UNL     1       5.037  40.352  48.996  1.00  0.00     0.194 HD
BRANCH   4  13
ATOM     13  N   UNL     1       5.985  45.324  51.351  1.00  0.00    -0.338 N 
ATOM     14  H   UNL     1       5.755  45.921  50.563  1.00  0.00     0.168 HD
BRANCH  13  15
ATOM     15  C   UNL     1       6.958  45.847  52.218  1.00  0.00     0.040 A 
ATOM     16  C   UNL     1       8.995  46.957  53.854  1.00  0.00    -0.051 A 
ATOM     17  C   UNL     1       9.243  46.667  52.511  1.00  0.00     0.005 A 
ATOM     18  C   UNL     1       7.732  46.676  54.378  1.00  0.00     0.005 A 
ATOM     19  C   UNL     1       8.235  46.126  51.705  1.00  0.00     0.026 A 
ATOM     20  C   UNL     1       6.729  46.136  53.563  1.00  0.00     0.026 A 
ATOM     21  C   UNL     1      10.080  47.503  54.733  1.00  0.00     0.044 C 
ENDBRANCH  13  15
ENDBRANCH   4  13
ENDBRANCH   1   3
BRANCH   1  22
ATOM     22  C   UNL     1       1.561  43.336  53.167  1.00  0.00     0.118 C 
BRANCH  22  23
ATOM     23  C   UNL     1       0.290  42.868  52.464  1.00  0.00     0.049 C 
BRANCH  23  24
ATOM     24  C   UNL     1       0.129  43.544  51.110  1.00  0.00     0.158 C 
BRANCH  24  25
ATOM     25  O   UNL     1       1.033  42.984  50.167  1.00  0.00    -0.396 OA
ATOM     26  H   UNL     1       1.196  43.652  49.478  1.00  0.00     0.210 HD
ENDBRANCH  24  25
ENDBRANCH  23  24
ENDBRANCH  22  23
ENDBRANCH   1  22
TORSDOF 7
ENDMDL
MODEL 9
REMARK VINA RESULT:    -7.657      0.963      1.029
REMARK INTER + INTRA:         -11.652
REMARK INTER:                 -10.788
REMARK INTRA:                  -0.864
REMARK UNBOUND:                -1.084
REMARK SMILES Cc1ccc(Nc2nc(NCCCO)nc3[nH]nnc23)cc1
REMARK SMILES IDX 10 1 9 3 7 4 8 5 20 6 19 7 16 8 15 9 18 10 17 11 6 13 5 15
REMARK SMILES IDX 2 16 3 17 22 18 4 19 21 20 1 21 11 22 12 23 13 24 14 25
REMARK H PARENT 10 2 17 12 6 14 14 26
ROOT
ATOM      1  N   UNL     1       1.347  44.440  52.760  1.00  0.00    -0.354 N 
ATOM      2  H   UNL     1       1.420  45.437  52.930  1.00  0.00     0.163 HD
ENDROOT
BRANCH   1   3
ATOM      3  C   UNL     1       2.538  44.053  52.160  1.00  0.00     0.226 A 
ATOM      4  C   UNL     1       4.691  44.613  51.353  1.00  0.00     0.166 A 
ATOM      5  N   UNL     1       3.512  44.964  51.947  1.00  0.00    -0.193 NA
ATOM      6  C   UNL     1       4.827  43.267  50.987  1.00  0.00     0.174 A 
ATOM      7  N   UNL     1       5.828  42.549  50.384  1.00  0.00    -0.125 NA
ATOM      8  C   UNL     1       3.762  42.434  51.255  1.00  0.00     0.183 A 
ATOM      9  N   UNL     1       2.595  42.754  51.825  1.00  0.00    -0.192 NA
ATOM     10  N   UNL     1       5.417  41.287  50.274  1.00  0.00    -0.067 NA
ATOM     11  N   UNL     1       4.178  41.220  50.802  1.00  0.00    -0.240 N 
ATOM     12  H   UNL     1       3.686  40.336  50.817  1.00  0.00     0.194 HD
BRANCH   4  13
ATOM     13  N   UNL     1       5.722  45.527  51.087  1.00  0.00    -0.338 N 
ATOM     14  H   UNL     1       5.674  45.898  50.144  1.00  0.00     0.168 HD
BRANCH  13  15
ATOM     15  C   UNL     1       6.811  45.988  51.843  1.00  0.00     0.040 A 
ATOM     16  C   UNL     1       8.954  46.856  53.491  1.00  0.00    -0.051 A 
ATOM     17  C   UNL     1       7.710  46.551  54.047  1.00  0.00     0.005 A 
ATOM     18  C   UNL     1       9.116  46.741  52.109  1.00  0.00     0.005 A 
ATOM     19  C   UNL     1       6.658  46.116  53.233  1.00  0.00     0.026 A 
ATOM     20  C   UNL     1       8.057  46.304  51.303  1.00  0.00     0.026 A 
ATOM     21  C   UNL     1      10.076  47.357  54.351  1.00  0.00     0.044 C 
ENDBRANCH  13  15
ENDBRANCH   4  13
ENDBRANCH   1   3
BRANCH   1  22
ATOM     22  C   UNL     1       0.896  43.637  53.885  1.00  0.00     0.118 C 
BRANCH  22  23
ATOM     23  C   UNL     1       0.384  44.539  55.005  1.00  0.00     0.049 C 
BRANCH  23  24
ATOM     24  C   UNL     1       1.509  45.381  55.589  1.00  0.00     0.158 C 
BRANCH  24  25
ATOM     25  O   UNL     1       2.710  44.624  55.659  1.00  0.00    -0.396 OA
ATOM     26  H   UNL     1       2.715  44.003  54.910  1.00  0.00     0.210 HD
ENDBRANCH  24  25
ENDBRANCH  23  24
ENDBRANCH  22  23
ENDBRANCH   1  22
TORSDOF 7
ENDMDL
MODEL 10
REMARK VINA RESULT:    -7.597      2.968      6.614
REMARK INTER + INTRA:         -11.568
REMARK INTER:                 -11.049
REMARK INTRA:                  -0.520
REMARK UNBOUND:                -1.084
REMARK SMILES Cc1ccc(Nc2nc(NCCCO)nc3[nH]nnc23)cc1
REMARK SMILES IDX 10 1 9 3 7 4 8 5 20 6 19 7 16 8 15 9 18 10 17 11 6 13 5 15
REMARK SMILES IDX 2 16 3 17 22 18 4 19 21 20 1 21 11 22 12 23 13 24 14 25
REMARK H PARENT 10 2 17 12 6 14 14 26
ROOT
ATOM      1  N   UNL     1       7.676  45.142  50.253  1.00  0.00    -0.354 N 
ATOM      2  H   UNL     1       7.812  45.842  49.531  1.00  0.00     0.163 HD
ENDROOT
BRANCH   1   3
ATOM      3  C   UNL     1       7.714  45.813  51.467  1.00  0.00     0.226 A 
ATOM      4  C   UNL     1       6.570  46.815  53.280  1.00  0.00     0.166 A 
ATOM      5  N   UNL     1       6.562  46.150  52.087  1.00  0.00    -0.193 NA
ATOM      6  C   UNL     1       7.828  47.119  53.815  1.00  0.00     0.174 A 
ATOM      7  N   UNL     1       8.239  47.761  54.956  1.00  0.00    -0.125 NA
ATOM      8  C   UNL     1       8.930  46.725  53.089  1.00  0.00     0.183 A 
ATOM      9  N   UNL     1       8.951  46.082  51.916  1.00  0.00    -0.192 NA
ATOM     10  N   UNL     1       9.570  47.772  54.962  1.00  0.00    -0.067 NA
ATOM     11  N   UNL     1       9.983  47.145  53.843  1.00  0.00    -0.240 N 
ATOM     12  H   UNL     1      10.973  47.044  53.659  1.00  0.00     0.194 HD
BRANCH   4  13
ATOM     13  N   UNL     1       5.400  47.210  53.949  1.00  0.00    -0.338 N 
ATOM     14  H   UNL     1       5.495  48.122  54.384  1.00  0.00     0.168 HD
BRANCH  13  15
ATOM     15  C   UNL     1       4.164  46.583  54.165  1.00  0.00     0.040 A 
ATOM     16  C   UNL     1       1.642  45.311  54.456  1.00  0.00    -0.051 A 
ATOM     17  C   UNL     1       1.939  46.041  53.304  1.00  0.00     0.005 A 
ATOM     18  C   UNL     1       2.603  45.233  55.466  1.00  0.00     0.005 A 
ATOM     19  C   UNL     1       3.185  46.662  53.160  1.00  0.00     0.026 A 
ATOM     20  C   UNL     1       3.848  45.855  55.312  1.00  0.00     0.026 A 
ATOM     21  C   UNL     1       0.296  44.674  54.633  1.00  0.00     0.044 C 
ENDBRANCH  13  15
ENDBRANCH   4  13
ENDBRANCH   1   3
BRANCH   1  22
ATOM     22  C   UNL     1       6.563  44.230  50.049  1.00  0.00     0.118 C 
BRANCH  22  23
ATOM     23  C   UNL     1       7.009  43.031  49.216  1.00  0.00     0.049 C 
BRANCH  23  24
ATOM     24  C   UNL     1       6.334  41.752  49.688  1.00  0.00     0.158 C 
BRANCH  24  25
ATOM     25  O   UNL     1       7.308  40.802  50.101  1.00  0.00    -0.396 OA
ATOM     26  H   UNL     1       7.899  41.239  50.739  1.00  0.00     0.210 HD
ENDBRANCH  24  25
ENDBRANCH  23  24
ENDBRANCH  22  23
ENDBRANCH   1  22
TORSDOF 7
ENDMDL
MODEL 11
REMARK VINA RESULT:    -7.591      2.231      4.332
REMARK INTER + INTRA:         -11.560
REMARK INTER:                 -10.876
REMARK INTRA:                  -0.684
REMARK UNBOUND:                -1.084
REMARK SMILES Cc1ccc(Nc2nc(NCCCO)nc3[nH]nnc23)cc1
REMARK SMILES IDX 10 1 9 3 7 4 8 5 20 6 19 7 16 8 15 9 18 10 17 11 6 13 5 15
REMARK SMILES IDX 2 16 3 17 22 18 4 19 21 20 1 21 11 22 12 23 13 24 14 25
REMARK H PARENT 10 2 17 12 6 14 14 26
ROOT
ATOM      1  N   UNL     1       3.104  41.980  50.751  1.00  0.00    -0.354 N 
ATOM      2  H   UNL     1       2.231  41.478  50.876  1.00  0.00     0.163 HD
ENDROOT
BRANCH   1   3
ATOM      3  C   UNL     1       3.092  43.027  51.662  1.00  0.00     0.226 A 
ATOM      4  C   UNL     1       3.914  45.134  52.357  1.00  0.00     0.166 A 
ATOM      5  N   UNL     1       3.901  44.093  51.474  1.00  0.00    -0.193 NA
ATOM      6  C   UNL     1       3.048  45.032  53.454  1.00  0.00     0.174 A 
ATOM      7  N   UNL     1       2.783  45.845  54.527  1.00  0.00    -0.125 NA
ATOM      8  C   UNL     1       2.274  43.895  53.537  1.00  0.00     0.183 A 
ATOM      9  N   UNL     1       2.248  42.857  52.693  1.00  0.00    -0.192 NA
ATOM     10  N   UNL     1       1.858  45.246  55.274  1.00  0.00    -0.067 NA
ATOM     11  N   UNL     1       1.551  44.078  54.676  1.00  0.00    -0.240 N 
ATOM     12  H   UNL     1       0.858  43.468  55.090  1.00  0.00     0.194 HD
BRANCH   4  13
ATOM     13  N   UNL     1       4.754  46.250  52.219  1.00  0.00    -0.338 N 
ATOM     14  H   UNL     1       4.303  47.013  51.727  1.00  0.00     0.168 HD
BRANCH  13  15
ATOM     15  C   UNL     1       6.086  46.496  52.585  1.00  0.00     0.040 A 
ATOM     16  C   UNL     1       8.749  46.950  53.463  1.00  0.00    -0.051 A 
ATOM     17  C   UNL     1       7.690  46.956  54.374  1.00  0.00     0.005 A 
ATOM     18  C   UNL     1       8.468  46.732  52.113  1.00  0.00     0.005 A 
ATOM     19  C   UNL     1       6.380  46.725  53.940  1.00  0.00     0.026 A 
ATOM     20  C   UNL     1       7.154  46.500  51.688  1.00  0.00     0.026 A 
ATOM     21  C   UNL     1      10.150  47.232  53.915  1.00  0.00     0.044 C 
ENDBRANCH  13  15
ENDBRANCH   4  13
ENDBRANCH   1   3
BRANCH   1  22
ATOM     22  C   UNL     1       4.304  41.161  50.717  1.00  0.00     0.118 C 
BRANCH  22  23
ATOM     23  C   UNL     1       4.989  41.286  49.359  1.00  0.00     0.049 C 
BRANCH  23  24
ATOM     24  C   UNL     1       6.405  41.823  49.504  1.00  0.00     0.158 C 
BRANCH  24  25
ATOM     25  O   UNL     1       7.257  40.830  50.061  1.00  0.00    -0.396 OA
ATOM     26  H   UNL     1       7.286  40.968  51.024  1.00  0.00     0.210 HD
ENDBRANCH  24  25
ENDBRANCH  23  24
ENDBRANCH  22  23
ENDBRANCH   1  22
TORSDOF 7
ENDMDL
MODEL 12
REMARK VINA RESULT:    -7.535      2.025      3.058
REMARK INTER + INTRA:         -11.482
REMARK INTER:                 -10.651
REMARK INTRA:                  -0.831
REMARK UNBOUND:                -1.084
REMARK SMILES Cc1ccc(Nc2nc(NCCCO)nc3[nH]nnc23)cc1
REMARK SMILES IDX 10 1 9 3 7 4 8 5 20 6 19 7 16 8 15 9 18 10 17 11 6 13 5 15
REMARK SMILES IDX 2 16 3 17 22 18 4 19 21 20 1 21 11 22 12 23 13 24 14 25
REMARK H PARENT 10 2 17 12 6 14 14 26
ROOT
ATOM      1  N   UNL     1       0.214  45.698  54.853  1.00  0.00    -0.354 N 
ATOM      2  H   UNL     1       0.254  46.711  54.814  1.00  0.00     0.163 HD
ENDROOT
BRANCH   1   3
ATOM      3  C   UNL     1       1.297  45.230  54.122  1.00  0.00     0.226 A 
ATOM      4  C   UNL     1       3.329  45.659  52.987  1.00  0.00     0.166 A 
ATOM      5  N   UNL     1       2.255  46.090  53.711  1.00  0.00    -0.193 NA
ATOM      6  C   UNL     1       3.378  44.288  52.702  1.00  0.00     0.174 A 
ATOM      7  N   UNL     1       4.265  43.497  52.018  1.00  0.00    -0.125 NA
ATOM      8  C   UNL     1       2.341  43.513  53.173  1.00  0.00     0.183 A 
ATOM      9  N   UNL     1       1.274  43.910  53.875  1.00  0.00    -0.192 NA
ATOM     10  N   UNL     1       3.811  42.246  52.055  1.00  0.00    -0.067 NA
ATOM     11  N   UNL     1       2.658  42.257  52.754  1.00  0.00    -0.240 N 
ATOM     12  H   UNL     1       2.151  41.394  52.900  1.00  0.00     0.194 HD
BRANCH   4  13
ATOM     13  N   UNL     1       4.335  46.517  52.516  1.00  0.00    -0.338 N 
ATOM     14  H   UNL     1       3.984  47.188  51.840  1.00  0.00     0.168 HD
BRANCH  13  15
ATOM     15  C   UNL     1       5.714  46.599  52.760  1.00  0.00     0.040 A 
ATOM     16  C   UNL     1       8.526  46.792  53.112  1.00  0.00    -0.051 A 
ATOM     17  C   UNL     1       7.987  46.483  51.862  1.00  0.00     0.005 A 
ATOM     18  C   UNL     1       7.655  46.988  54.186  1.00  0.00     0.005 A 
ATOM     19  C   UNL     1       6.601  46.395  51.690  1.00  0.00     0.026 A 
ATOM     20  C   UNL     1       6.270  46.899  54.004  1.00  0.00     0.026 A 
ATOM     21  C   UNL     1      10.010  46.852  53.313  1.00  0.00     0.044 C 
ENDBRANCH  13  15
ENDBRANCH   4  13
ENDBRANCH   1   3
BRANCH   1  22
ATOM     22  C   UNL     1       0.024  45.122  56.173  1.00  0.00     0.118 C 
BRANCH  22  23
ATOM     23  C   UNL     1      -0.266  46.222  57.191  1.00  0.00     0.049 C 
BRANCH  23  24
ATOM     24  C   UNL     1       0.953  46.503  58.058  1.00  0.00     0.158 C 
BRANCH  24  25
ATOM     25  O   UNL     1       2.147  46.286  57.319  1.00  0.00    -0.396 OA
ATOM     26  H   UNL     1       2.799  46.952  57.602  1.00  0.00     0.210 HD
ENDBRANCH  24  25
ENDBRANCH  23  24
ENDBRANCH  22  23
ENDBRANCH   1  22
TORSDOF 7
ENDMDL
MODEL 13
REMARK VINA RESULT:    -7.442      2.244      4.313
REMARK INTER + INTRA:         -11.355
REMARK INTER:                 -10.453
REMARK INTRA:                  -0.902
REMARK UNBOUND:                -1.084
REMARK SMILES Cc1ccc(Nc2nc(NCCCO)nc3[nH]nnc23)cc1
REMARK SMILES IDX 10 1 9 3 7 4 8 5 20 6 19 7 16 8 15 9 18 10 17 11 6 13 5 15
REMARK SMILES IDX 2 16 3 17 22 18 4 19 21 20 1 21 11 22 12 23 13 24 14 25
REMARK H PARENT 10 2 17 12 6 14 14 26
ROOT
ATOM      1  N   UNL     1       6.109  42.913  49.299  1.00  0.00    -0.354 N 
ATOM      2  H   UNL     1       5.580  43.330  48.541  1.00  0.00     0.163 HD
ENDROOT
BRANCH   1   3
ATOM      3  C   UNL     1       5.875  43.696  50.421  1.00  0.00     0.226 A 
ATOM      4  C   UNL     1       6.430  45.574  51.749  1.00  0.00     0.166 A 
ATOM      5  N   UNL     1       6.634  44.790  50.651  1.00  0.00    -0.193 NA
ATOM      6  C   UNL     1       5.396  45.183  52.611  1.00  0.00     0.174 A 
ATOM      7  N   UNL     1       4.900  45.693  53.783  1.00  0.00    -0.125 NA
ATOM      8  C   UNL     1       4.694  44.047  52.271  1.00  0.00     0.183 A 
ATOM      9  N   UNL     1       4.879  43.256  51.208  1.00  0.00    -0.192 NA
ATOM     10  N   UNL     1       3.901  44.908  54.180  1.00  0.00    -0.067 NA
ATOM     11  N   UNL     1       3.776  43.923  53.269  1.00  0.00    -0.240 N 
ATOM     12  H   UNL     1       3.063  43.216  53.388  1.00  0.00     0.194 HD
BRANCH   4  13
ATOM     13  N   UNL     1       7.208  46.705  52.044  1.00  0.00    -0.338 N 
ATOM     14  H   UNL     1       7.095  47.440  51.355  1.00  0.00     0.168 HD
BRANCH  13  15
ATOM     15  C   UNL     1       8.127  46.993  53.065  1.00  0.00     0.040 A 
ATOM     16  C   UNL     1      10.095  47.547  55.035  1.00  0.00    -0.051 A 
ATOM     17  C   UNL     1      10.390  46.718  53.952  1.00  0.00     0.005 A 
ATOM     18  C   UNL     1       8.810  48.084  55.137  1.00  0.00     0.005 A 
ATOM     19  C   UNL     1       9.420  46.452  52.978  1.00  0.00     0.026 A 
ATOM     20  C   UNL     1       7.847  47.814  54.157  1.00  0.00     0.026 A 
ATOM     21  C   UNL     1      11.116  47.808  56.101  1.00  0.00     0.044 C 
ENDBRANCH  13  15
ENDBRANCH   4  13
ENDBRANCH   1   3
BRANCH   1  22
ATOM     22  C   UNL     1       5.955  41.477  49.465  1.00  0.00     0.118 C 
BRANCH  22  23
ATOM     23  C   UNL     1       4.918  40.941  48.482  1.00  0.00     0.049 C 
BRANCH  23  24
ATOM     24  C   UNL     1       3.656  40.494  49.205  1.00  0.00     0.158 C 
BRANCH  24  25
ATOM     25  O   UNL     1       3.783  40.711  50.604  1.00  0.00    -0.396 OA
ATOM     26  H   UNL     1       3.420  41.593  50.803  1.00  0.00     0.210 HD
ENDBRANCH  24  25
ENDBRANCH  23  24
ENDBRANCH  22  23
ENDBRANCH   1  22
TORSDOF 7
ENDMDL
MODEL 14
REMARK VINA RESULT:    -7.334      2.170      3.109
REMARK INTER + INTRA:         -11.205
REMARK INTER:                 -10.233
REMARK INTRA:                  -0.972
REMARK UNBOUND:                -1.084
REMARK SMILES Cc1ccc(Nc2nc(NCCCO)nc3[nH]nnc23)cc1
REMARK SMILES IDX 10 1 9 3 7 4 8 5 20 6 19 7 16 8 15 9 18 10 17 11 6 13 5 15
REMARK SMILES IDX 2 16 3 17 22 18 4 19 21 20 1 21 11 22 12 23 13 24 14 25
REMARK H PARENT 10 2 17 12 6 14 14 26
ROOT
ATOM      1  N   UNL     1       0.640  45.699  54.617  1.00  0.00    -0.354 N 
ATOM      2  H   UNL     1       0.820  46.695  54.688  1.00  0.00     0.163 HD
ENDROOT
BRANCH   1   3
ATOM      3  C   UNL     1       1.638  45.174  53.807  1.00  0.00     0.226 A 
ATOM      4  C   UNL     1       3.555  45.505  52.459  1.00  0.00     0.166 A 
ATOM      5  N   UNL     1       2.565  45.993  53.264  1.00  0.00    -0.193 NA
ATOM      6  C   UNL     1       3.550  44.121  52.237  1.00  0.00     0.174 A 
ATOM      7  N   UNL     1       4.352  43.280  51.508  1.00  0.00    -0.125 NA
ATOM      8  C   UNL     1       2.551  43.392  52.844  1.00  0.00     0.183 A 
ATOM      9  N   UNL     1       1.566  43.845  53.627  1.00  0.00    -0.192 NA
ATOM     10  N   UNL     1       3.881  42.042  51.650  1.00  0.00    -0.067 NA
ATOM     11  N   UNL     1       2.803  42.111  52.456  1.00  0.00    -0.240 N 
ATOM     12  H   UNL     1       2.298  41.268  52.692  1.00  0.00     0.194 HD
BRANCH   4  13
ATOM     13  N   UNL     1       4.524  46.317  51.852  1.00  0.00    -0.338 N 
ATOM     14  H   UNL     1       4.122  46.955  51.173  1.00  0.00     0.168 HD
BRANCH  13  15
ATOM     15  C   UNL     1       5.921  46.389  51.967  1.00  0.00     0.040 A 
ATOM     16  C   UNL     1       8.757  46.506  52.055  1.00  0.00    -0.051 A 
ATOM     17  C   UNL     1       8.107  45.802  51.039  1.00  0.00     0.005 A 
ATOM     18  C   UNL     1       7.985  47.135  53.033  1.00  0.00     0.005 A 
ATOM     19  C   UNL     1       6.709  45.752  50.994  1.00  0.00     0.026 A 
ATOM     20  C   UNL     1       6.586  47.081  52.979  1.00  0.00     0.026 A 
ATOM     21  C   UNL     1      10.254  46.534  52.131  1.00  0.00     0.044 C 
ENDBRANCH  13  15
ENDBRANCH   4  13
ENDBRANCH   1   3
BRANCH   1  22
ATOM     22  C   UNL     1       0.392  45.009  55.871  1.00  0.00     0.118 C 
BRANCH  22  23
ATOM     23  C   UNL     1      -1.096  45.050  56.210  1.00  0.00     0.049 C 
BRANCH  23  24
ATOM     24  C   UNL     1      -1.779  43.740  55.846  1.00  0.00     0.158 C 
BRANCH  24  25
ATOM     25  O   UNL     1      -1.276  43.245  54.612  1.00  0.00    -0.396 OA
ATOM     26  H   UNL     1      -0.418  42.820  54.788  1.00  0.00     0.210 HD
ENDBRANCH  24  25
ENDBRANCH  23  24
ENDBRANCH  22  23
ENDBRANCH   1  22
TORSDOF 7
ENDMDL
MODEL 15
REMARK VINA RESULT:    -7.196      2.682      5.597
REMARK INTER + INTRA:         -11.015
REMARK INTER:                 -10.445
REMARK INTRA:                  -0.570
REMARK UNBOUND:                -1.084
REMARK SMILES Cc1ccc(Nc2nc(NCCCO)nc3[nH]nnc23)cc1
REMARK SMILES IDX 10 1 9 3 7 4 8 5 20 6 19 7 16 8 15 9 18 10 17 11 6 13 5 15
REMARK SMILES IDX 2 16 3 17 22 18 4 19 21 20 1 21 11 22 12 23 13 24 14 25
REMARK H PARENT 10 2 17 12 6 14 14 26
ROOT
ATOM      1  N   UNL     1       4.619  47.408  54.534  1.00  0.00    -0.354 N 
ATOM      2  H   UNL     1       4.644  47.218  55.530  1.00  0.00     0.163 HD
ENDROOT
BRANCH   1   3
ATOM      3  C   UNL     1       5.899  47.169  54.054  1.00  0.00     0.226 A 
ATOM      4  C   UNL     1       7.316  46.374  52.332  1.00  0.00     0.166 A 
ATOM      5  N   UNL     1       6.068  46.626  52.828  1.00  0.00    -0.193 NA
ATOM      6  C   UNL     1       8.394  46.712  53.160  1.00  0.00     0.174 A 
ATOM      7  N   UNL     1       9.756  46.613  53.025  1.00  0.00    -0.125 NA
ATOM      8  C   UNL     1       8.094  47.258  54.389  1.00  0.00     0.183 A 
ATOM      9  N   UNL     1       6.884  47.505  54.903  1.00  0.00    -0.192 NA
ATOM     10  N   UNL     1      10.313  47.089  54.137  1.00  0.00    -0.067 NA
ATOM     11  N   UNL     1       9.314  47.480  54.953  1.00  0.00    -0.240 N 
ATOM     12  H   UNL     1       9.530  47.877  55.857  1.00  0.00     0.194 HD
BRANCH   4  13
ATOM     13  N   UNL     1       7.542  45.788  51.077  1.00  0.00    -0.338 N 
ATOM     14  H   UNL     1       8.205  46.316  50.520  1.00  0.00     0.168 HD
BRANCH  13  15
ATOM     15  C   UNL     1       7.007  44.659  50.439  1.00  0.00     0.040 A 
ATOM     16  C   UNL     1       6.061  42.341  49.099  1.00  0.00    -0.051 A 
ATOM     17  C   UNL     1       7.249  42.956  48.700  1.00  0.00     0.005 A 
ATOM     18  C   UNL     1       5.342  42.898  50.158  1.00  0.00     0.005 A 
ATOM     19  C   UNL     1       7.717  44.094  49.366  1.00  0.00     0.026 A 
ATOM     20  C   UNL     1       5.818  44.036  50.820  1.00  0.00     0.026 A 
ATOM     21  C   UNL     1       5.534  41.143  48.367  1.00  0.00     0.044 C 
ENDBRANCH  13  15
ENDBRANCH   4  13
ENDBRANCH   1   3
BRANCH   1  22
ATOM     22  C   UNL     1       3.525  46.796  53.800  1.00  0.00     0.118 C 
BRANCH  22  23
ATOM     23  C   UNL     1       3.330  45.351  54.250  1.00  0.00     0.049 C 
BRANCH  23  24
ATOM     24  C   UNL     1       2.361  45.266  55.420  1.00  0.00     0.158 C 
BRANCH  24  25
ATOM     25  O   UNL     1       2.810  46.081  56.495  1.00  0.00    -0.396 OA
ATOM     26  H   UNL     1       3.568  46.602  56.177  1.00  0.00     0.210 HD
ENDBRANCH  24  25
ENDBRANCH  23  24
ENDBRANCH  22  23
ENDBRANCH   1  22
TORSDOF 7
ENDMDL
MODEL 16
REMARK VINA RESULT:    -7.195      2.707      5.649
REMARK INTER + INTRA:         -11.013
REMARK INTER:                  -9.996
REMARK INTRA:                  -1.017
REMARK UNBOUND:                -1.084
REMARK SMILES Cc1ccc(Nc2nc(NCCCO)nc3[nH]nnc23)cc1
REMARK SMILES IDX 10 1 9 3 7 4 8 5 20 6 19 7 16 8 15 9 18 10 17 11 6 13 5 15
REMARK SMILES IDX 2 16 3 17 22 18 4 19 21 20 1 21 11 22 12 23 13 24 14 25
REMARK H PARENT 10 2 17 12 6 14 14 26
ROOT
ATOM      1  N   UNL     1       7.775  43.265  48.711  1.00  0.00    -0.354 N 
ATOM      2  H   UNL     1       8.088  43.662  47.831  1.00  0.00     0.163 HD
ENDROOT
BRANCH   1   3
ATOM      3  C   UNL     1       8.009  44.227  49.684  1.00  0.00     0.226 A 
ATOM      4  C   UNL     1       7.171  45.841  51.199  1.00  0.00     0.166 A 
ATOM      5  N   UNL     1       6.970  44.885  50.244  1.00  0.00    -0.193 NA
ATOM      6  C   UNL     1       8.501  46.091  51.559  1.00  0.00     0.174 A 
ATOM      7  N   UNL     1       9.093  46.951  52.450  1.00  0.00    -0.125 NA
ATOM      8  C   UNL     1       9.474  45.357  50.916  1.00  0.00     0.183 A 
ATOM      9  N   UNL     1       9.306  44.424  49.972  1.00  0.00    -0.192 NA
ATOM     10  N   UNL     1      10.410  46.767  52.382  1.00  0.00    -0.067 NA
ATOM     11  N   UNL     1      10.636  45.806  51.464  1.00  0.00    -0.240 N 
ATOM     12  H   UNL     1      11.584  45.515  51.264  1.00  0.00     0.194 HD
BRANCH   4  13
ATOM     13  N   UNL     1       6.127  46.569  51.791  1.00  0.00    -0.338 N 
ATOM     14  H   UNL     1       6.158  47.553  51.546  1.00  0.00     0.168 HD
BRANCH  13  15
ATOM     15  C   UNL     1       5.094  46.216  52.672  1.00  0.00     0.040 A 
ATOM     16  C   UNL     1       3.105  45.471  54.557  1.00  0.00    -0.051 A 
ATOM     17  C   UNL     1       4.410  44.989  54.675  1.00  0.00     0.005 A 
ATOM     18  C   UNL     1       2.796  46.311  53.486  1.00  0.00     0.005 A 
ATOM     19  C   UNL     1       5.390  45.364  53.748  1.00  0.00     0.026 A 
ATOM     20  C   UNL     1       3.783  46.682  52.565  1.00  0.00     0.026 A 
ATOM     21  C   UNL     1       2.041  45.046  55.524  1.00  0.00     0.044 C 
ENDBRANCH  13  15
ENDBRANCH   4  13
ENDBRANCH   1   3
BRANCH   1  22
ATOM     22  C   UNL     1       6.454  42.661  48.699  1.00  0.00     0.118 C 
BRANCH  22  23
ATOM     23  C   UNL     1       6.373  41.549  49.742  1.00  0.00     0.049 C 
BRANCH  23  24
ATOM     24  C   UNL     1       5.055  41.602  50.500  1.00  0.00     0.158 C 
BRANCH  24  25
ATOM     25  O   UNL     1       4.880  42.878  51.102  1.00  0.00    -0.396 OA
ATOM     26  H   UNL     1       5.533  42.962  51.819  1.00  0.00     0.210 HD
ENDBRANCH  24  25
ENDBRANCH  23  24
ENDBRANCH  22  23
ENDBRANCH   1  22
TORSDOF 7
ENDMDL
MODEL 17
REMARK VINA RESULT:    -7.167      1.639      5.505
REMARK INTER + INTRA:         -10.975
REMARK INTER:                 -10.395
REMARK INTRA:                  -0.580
REMARK UNBOUND:                -1.084
REMARK SMILES Cc1ccc(Nc2nc(NCCCO)nc3[nH]nnc23)cc1
REMARK SMILES IDX 10 1 9 3 7 4 8 5 20 6 19 7 16 8 15 9 18 10 17 11 6 13 5 15
REMARK SMILES IDX 2 16 3 17 22 18 4 19 21 20 1 21 11 22 12 23 13 24 14 25
REMARK H PARENT 10 2 17 12 6 14 14 26
ROOT
ATOM      1  N   UNL     1       7.961  47.184  51.819  1.00  0.00    -0.354 N 
ATOM      2  H   UNL     1       7.642  47.935  51.217  1.00  0.00     0.163 HD
ENDROOT
BRANCH   1   3
ATOM      3  C   UNL     1       7.351  46.024  51.362  1.00  0.00     0.226 A 
ATOM      4  C   UNL     1       5.590  44.450  51.514  1.00  0.00     0.166 A 
ATOM      5  N   UNL     1       6.209  45.590  51.939  1.00  0.00    -0.193 NA
ATOM      6  C   UNL     1       6.203  43.768  50.454  1.00  0.00     0.174 A 
ATOM      7  N   UNL     1       5.898  42.619  49.769  1.00  0.00    -0.125 NA
ATOM      8  C   UNL     1       7.366  44.308  49.950  1.00  0.00     0.183 A 
ATOM      9  N   UNL     1       7.997  45.416  50.354  1.00  0.00    -0.192 NA
ATOM     10  N   UNL     1       6.839  42.431  48.846  1.00  0.00    -0.067 NA
ATOM     11  N   UNL     1       7.717  43.449  48.954  1.00  0.00    -0.240 N 
ATOM     12  H   UNL     1       8.514  43.493  48.332  1.00  0.00     0.194 HD
BRANCH   4  13
ATOM     13  N   UNL     1       4.418  43.945  52.098  1.00  0.00    -0.338 N 
ATOM     14  H   UNL     1       4.055  43.140  51.600  1.00  0.00     0.168 HD
BRANCH  13  15
ATOM     15  C   UNL     1       3.641  44.356  53.192  1.00  0.00     0.040 A 
ATOM     16  C   UNL     1       1.977  45.077  55.377  1.00  0.00    -0.051 A 
ATOM     17  C   UNL     1       1.463  44.346  54.305  1.00  0.00     0.005 A 
ATOM     18  C   UNL     1       3.319  45.460  55.345  1.00  0.00     0.005 A 
ATOM     19  C   UNL     1       2.287  43.986  53.232  1.00  0.00     0.026 A 
ATOM     20  C   UNL     1       4.137  45.093  54.268  1.00  0.00     0.026 A 
ATOM     21  C   UNL     1       1.092  45.498  56.512  1.00  0.00     0.044 C 
ENDBRANCH  13  15
ENDBRANCH   4  13
ENDBRANCH   1   3
BRANCH   1  22
ATOM     22  C   UNL     1       9.395  47.118  52.044  1.00  0.00     0.118 C 
BRANCH  22  23
ATOM     23  C   UNL     1       9.686  46.758  53.499  1.00  0.00     0.049 C 
BRANCH  23  24
ATOM     24  C   UNL     1       9.165  47.831  54.444  1.00  0.00     0.158 C 
BRANCH  24  25
ATOM     25  O   UNL     1       7.871  47.484  54.922  1.00  0.00    -0.396 OA
ATOM     26  H   UNL     1       7.668  46.586  54.607  1.00  0.00     0.210 HD
ENDBRANCH  24  25
ENDBRANCH  23  24
ENDBRANCH  22  23
ENDBRANCH   1  22
TORSDOF 7
ENDMDL
MODEL 18
REMARK VINA RESULT:    -7.129      1.849      6.006
REMARK INTER + INTRA:         -10.922
REMARK INTER:                  -9.836
REMARK INTRA:                  -1.087
REMARK UNBOUND:                -1.084
REMARK SMILES Cc1ccc(Nc2nc(NCCCO)nc3[nH]nnc23)cc1
REMARK SMILES IDX 10 1 9 3 7 4 8 5 20 6 19 7 16 8 15 9 18 10 17 11 6 13 5 15
REMARK SMILES IDX 2 16 3 17 22 18 4 19 21 20 1 21 11 22 12 23 13 24 14 25
REMARK H PARENT 10 2 17 12 6 14 14 26
ROOT
ATOM      1  N   UNL     1       8.341  47.060  51.589  1.00  0.00    -0.354 N 
ATOM      2  H   UNL     1       8.195  47.704  50.819  1.00  0.00     0.163 HD
ENDROOT
BRANCH   1   3
ATOM      3  C   UNL     1       7.552  45.948  51.329  1.00  0.00     0.226 A 
ATOM      4  C   UNL     1       5.726  44.561  51.915  1.00  0.00     0.166 A 
ATOM      5  N   UNL     1       6.515  45.651  52.144  1.00  0.00    -0.193 NA
ATOM      6  C   UNL     1       6.050  43.781  50.798  1.00  0.00     0.174 A 
ATOM      7  N   UNL     1       5.514  42.641  50.254  1.00  0.00    -0.125 NA
ATOM      8  C   UNL     1       7.131  44.184  50.045  1.00  0.00     0.183 A 
ATOM      9  N   UNL     1       7.926  45.240  50.251  1.00  0.00    -0.192 NA
ATOM     10  N   UNL     1       6.231  42.326  49.177  1.00  0.00    -0.067 NA
ATOM     11  N   UNL     1       7.198  43.256  49.050  1.00  0.00    -0.240 N 
ATOM     12  H   UNL     1       7.854  43.197  48.283  1.00  0.00     0.194 HD
BRANCH   4  13
ATOM     13  N   UNL     1       4.655  44.197  52.747  1.00  0.00    -0.338 N 
ATOM     14  H   UNL     1       4.963  43.705  53.578  1.00  0.00     0.168 HD
BRANCH  13  15
ATOM     15  C   UNL     1       3.264  44.342  52.633  1.00  0.00     0.040 A 
ATOM     16  C   UNL     1       0.471  44.775  52.360  1.00  0.00    -0.051 A 
ATOM     17  C   UNL     1       1.339  45.850  52.554  1.00  0.00     0.005 A 
ATOM     18  C   UNL     1       1.002  43.484  52.319  1.00  0.00     0.005 A 
ATOM     19  C   UNL     1       2.716  45.635  52.682  1.00  0.00     0.026 A 
ATOM     20  C   UNL     1       2.381  43.279  52.446  1.00  0.00     0.026 A 
ATOM     21  C   UNL     1      -1.009  44.993  52.259  1.00  0.00     0.044 C 
ENDBRANCH  13  15
ENDBRANCH   4  13
ENDBRANCH   1   3
BRANCH   1  22
ATOM     22  C   UNL     1       9.726  46.804  51.948  1.00  0.00     0.118 C 
BRANCH  22  23
ATOM     23  C   UNL     1       9.878  46.762  53.466  1.00  0.00     0.049 C 
BRANCH  23  24
ATOM     24  C   UNL     1       9.047  47.848  54.132  1.00  0.00     0.158 C 
BRANCH  24  25
ATOM     25  O   UNL     1       7.843  47.299  54.654  1.00  0.00    -0.396 OA
ATOM     26  H   UNL     1       7.162  47.994  54.624  1.00  0.00     0.210 HD
ENDBRANCH  24  25
ENDBRANCH  23  24
ENDBRANCH  22  23
ENDBRANCH   1  22
TORSDOF 7
ENDMDL
MODEL 19
REMARK VINA RESULT:    -7.108      3.224      5.438
REMARK INTER + INTRA:         -10.893
REMARK INTER:                 -10.224
REMARK INTRA:                  -0.670
REMARK UNBOUND:                -1.084
REMARK SMILES Cc1ccc(Nc2nc(NCCCO)nc3[nH]nnc23)cc1
REMARK SMILES IDX 10 1 9 3 7 4 8 5 20 6 19 7 16 8 15 9 18 10 17 11 6 13 5 15
REMARK SMILES IDX 2 16 3 17 22 18 4 19 21 20 1 21 11 22 12 23 13 24 14 25
REMARK H PARENT 10 2 17 12 6 14 14 26
ROOT
ATOM      1  N   UNL     1       2.796  45.715  55.572  1.00  0.00    -0.354 N 
ATOM      2  H   UNL     1       2.225  46.550  55.650  1.00  0.00     0.163 HD
ENDROOT
BRANCH   1   3
ATOM      3  C   UNL     1       2.088  44.825  54.775  1.00  0.00     0.226 A 
ATOM      4  C   UNL     1       2.062  43.225  53.032  1.00  0.00     0.166 A 
ATOM      5  N   UNL     1       2.734  44.103  53.833  1.00  0.00    -0.193 NA
ATOM      6  C   UNL     1       0.681  43.118  53.246  1.00  0.00     0.174 A 
ATOM      7  N   UNL     1      -0.310  42.372  52.660  1.00  0.00    -0.125 NA
ATOM      8  C   UNL     1       0.137  43.908  54.234  1.00  0.00     0.183 A 
ATOM      9  N   UNL     1       0.769  44.782  55.026  1.00  0.00    -0.192 NA
ATOM     10  N   UNL     1      -1.458  42.672  53.263  1.00  0.00    -0.067 NA
ATOM     11  N   UNL     1      -1.187  43.592  54.211  1.00  0.00    -0.240 N 
ATOM     12  H   UNL     1      -1.934  43.952  54.790  1.00  0.00     0.194 HD
BRANCH   4  13
ATOM     13  N   UNL     1       2.683  42.472  52.023  1.00  0.00    -0.338 N 
ATOM     14  H   UNL     1       2.160  41.635  51.790  1.00  0.00     0.168 HD
BRANCH  13  15
ATOM     15  C   UNL     1       3.886  42.628  51.317  1.00  0.00     0.040 A 
ATOM     16  C   UNL     1       6.342  43.068  49.961  1.00  0.00    -0.051 A 
ATOM     17  C   UNL     1       5.639  44.137  50.522  1.00  0.00     0.005 A 
ATOM     18  C   UNL     1       5.804  41.784  50.068  1.00  0.00     0.005 A 
ATOM     19  C   UNL     1       4.433  43.916  51.196  1.00  0.00     0.026 A 
ATOM     20  C   UNL     1       4.597  41.573  50.745  1.00  0.00     0.026 A 
ATOM     21  C   UNL     1       7.616  43.301  49.207  1.00  0.00     0.044 C 
ENDBRANCH  13  15
ENDBRANCH   4  13
ENDBRANCH   1   3
BRANCH   1  22
ATOM     22  C   UNL     1       4.190  45.932  55.223  1.00  0.00     0.118 C 
BRANCH  22  23
ATOM     23  C   UNL     1       4.370  47.316  54.606  1.00  0.00     0.049 C 
BRANCH  23  24
ATOM     24  C   UNL     1       4.179  47.275  53.097  1.00  0.00     0.158 C 
BRANCH  24  25
ATOM     25  O   UNL     1       2.795  47.308  52.772  1.00  0.00    -0.396 OA
ATOM     26  H   UNL     1       2.503  48.236  52.804  1.00  0.00     0.210 HD
ENDBRANCH  24  25
ENDBRANCH  23  24
ENDBRANCH  22  23
ENDBRANCH   1  22
TORSDOF 7
ENDMDL
MODEL 20
REMARK VINA RESULT:    -6.974      3.222      7.147
REMARK INTER + INTRA:         -10.708
REMARK INTER:                  -9.936
REMARK INTRA:                  -0.772
REMARK UNBOUND:                -1.084
REMARK SMILES Cc1ccc(Nc2nc(NCCCO)nc3[nH]nnc23)cc1
REMARK SMILES IDX 10 1 9 3 7 4 8 5 20 6 19 7 16 8 15 9 18 10 17 11 6 13 5 15
REMARK SMILES IDX 2 16 3 17 22 18 4 19 21 20 1 21 11 22 12 23 13 24 14 25
REMARK H PARENT 10 2 17 12 6 14 14 26
ROOT
ATOM      1  N   UNL     1       7.772  46.060  50.856  1.00  0.00    -0.354 N 
ATOM      2  H   UNL     1       8.696  45.652  50.758  1.00  0.00     0.163 HD
ENDROOT
BRANCH   1   3
ATOM      3  C   UNL     1       6.873  45.002  50.874  1.00  0.00     0.226 A 
ATOM      4  C   UNL     1       6.125  42.946  49.973  1.00  0.00     0.166 A 
ATOM      5  N   UNL     1       6.998  43.995  49.982  1.00  0.00    -0.193 NA
ATOM      6  C   UNL     1       5.107  42.975  50.935  1.00  0.00     0.174 A 
ATOM      7  N   UNL     1       4.067  42.132  51.235  1.00  0.00    -0.125 NA
ATOM      8  C   UNL     1       5.082  44.056  51.789  1.00  0.00     0.183 A 
ATOM      9  N   UNL     1       5.918  45.101  51.813  1.00  0.00    -0.192 NA
ATOM     10  N   UNL     1       3.397  42.657  52.259  1.00  0.00    -0.067 NA
ATOM     11  N   UNL     1       4.012  43.810  52.593  1.00  0.00    -0.240 N 
ATOM     12  H   UNL     1       3.654  44.366  53.359  1.00  0.00     0.194 HD
BRANCH   4  13
ATOM     13  N   UNL     1       6.198  41.891  49.050  1.00  0.00    -0.338 N 
ATOM     14  H   UNL     1       7.016  41.309  49.194  1.00  0.00     0.168 HD
BRANCH  13  15
ATOM     15  C   UNL     1       5.397  41.516  47.961  1.00  0.00     0.040 A 
ATOM     16  C   UNL     1       3.892  40.780  45.668  1.00  0.00    -0.051 A 
ATOM     17  C   UNL     1       5.017  41.598  45.545  1.00  0.00     0.005 A 
ATOM     18  C   UNL     1       3.514  40.347  46.940  1.00  0.00     0.005 A 
ATOM     19  C   UNL     1       5.761  41.953  46.676  1.00  0.00     0.026 A 
ATOM     20  C   UNL     1       4.266  40.706  48.065  1.00  0.00     0.026 A 
ATOM     21  C   UNL     1       3.069  40.425  44.466  1.00  0.00     0.044 C 
ENDBRANCH  13  15
ENDBRANCH   4  13
ENDBRANCH   1   3
BRANCH   1  22
ATOM     22  C   UNL     1       7.627  47.053  51.906  1.00  0.00     0.118 C 
BRANCH  22  23
ATOM     23  C   UNL     1       9.000  47.512  52.391  1.00  0.00     0.049 C 
BRANCH  23  24
ATOM     24  C   UNL     1       9.916  46.325  52.650  1.00  0.00     0.158 C 
BRANCH  24  25
ATOM     25  O   UNL     1      10.662  46.012  51.481  1.00  0.00    -0.396 OA
ATOM     26  H   UNL     1      10.498  46.713  50.826  1.00  0.00     0.210 HD
ENDBRANCH  24  25
ENDBRANCH  23  24
ENDBRANCH  22  23
ENDBRANCH   1  22
TORSDOF 7
ENDMDL
