MODEL 1
REMARK VINA RESULT:    -8.571      0.000      0.000
REMARK INTER + INTRA:         -12.570
REMARK INTER:                 -11.578
REMARK INTRA:                  -0.992
REMARK UNBOUND:                -0.992
REMARK SMILES COCCNc1nc(Nc2ccc(Br)c(C)c2C)c2cnn(C)c2n1
REMARK SMILES IDX 5 1 4 3 3 4 2 5 1 6 6 7 7 8 25 9 8 10 24 11 19 12 22 13
REMARK SMILES IDX 20 14 21 15 23 16 9 17 10 19 11 20 17 21 12 22 15 23 13 24
REMARK SMILES IDX 18 25 16 26 14 27
REMARK H PARENT 5 2 9 18
ROOT
ATOM      1  N   UNL     1       3.970  41.377  51.206  1.00  0.00    -0.352 N 
ATOM      2  H   UNL     1       4.984  41.341  51.283  1.00  0.00     0.163 HD
ENDROOT
BRANCH   1   3
ATOM      3  C   UNL     1       3.495  41.152  49.845  1.00  0.00     0.144 C 
BRANCH   3   4
ATOM      4  C   UNL     1       4.656  40.941  48.861  1.00  0.00     0.181 C 
BRANCH   4   5
ATOM      5  O   UNL     1       5.913  41.361  49.407  1.00  0.00    -0.383 OA
ATOM      6  C   UNL     1       6.422  42.543  48.803  1.00  0.00     0.194 C 
ENDBRANCH   4   5
ENDBRANCH   3   4
ENDBRANCH   1   3
BRANCH   1   7
ATOM      7  C   UNL     1       3.603  42.588  51.780  1.00  0.00     0.226 A 
ATOM      8  N   UNL     1       4.458  43.601  51.542  1.00  0.00    -0.195 NA
ATOM      9  N   UNL     1       2.472  42.670  52.495  1.00  0.00    -0.193 NA
ATOM     10  C   UNL     1       4.206  44.837  52.041  1.00  0.00     0.147 A 
ATOM     11  C   UNL     1       2.261  43.894  52.999  1.00  0.00     0.165 A 
ATOM     12  C   UNL     1       3.062  45.005  52.823  1.00  0.00     0.082 A 
ATOM     13  N   UNL     1       1.223  44.303  53.793  1.00  0.00    -0.250 N 
ATOM     14  C   UNL     1       2.421  46.023  53.557  1.00  0.00     0.149 A 
ATOM     15  N   UNL     1       1.291  45.609  54.142  1.00  0.00    -0.179 NA
ATOM     16  C   UNL     1       0.127  43.498  54.268  1.00  0.00     0.176 C 
BRANCH  10  17
ATOM     17  N   UNL     1       5.146  45.842  51.761  1.00  0.00    -0.339 N 
ATOM     18  H   UNL     1       4.609  46.692  51.591  1.00  0.00     0.168 HD
BRANCH  17  19
ATOM     19  C   UNL     1       6.319  46.141  52.496  1.00  0.00     0.043 A 
ATOM     20  C   UNL     1       6.235  46.587  53.821  1.00  0.00     0.027 A 
ATOM     21  C   UNL     1       7.582  46.115  51.853  1.00  0.00    -0.023 A 
ATOM     22  C   UNL     1       7.378  46.949  54.528  1.00  0.00     0.018 A 
ATOM     23  C   UNL     1       8.759  46.443  52.583  1.00  0.00    -0.032 A 
ATOM     24  C   UNL     1       8.629  46.879  53.916  1.00  0.00     0.021 A 
ATOM     25  C   UNL     1       7.683  45.685  50.406  1.00  0.00     0.047 C 
ATOM     26  C   UNL     1      10.122  46.380  51.936  1.00  0.00     0.046 C 
ATOM     27  Br  UNL     1      10.120  47.424  54.965  1.00  0.00    -0.051 Br
ENDBRANCH  17  19
ENDBRANCH  10  17
ENDBRANCH   1   7
TORSDOF 6
ENDMDL
MODEL 2
REMARK VINA RESULT:    -8.045      2.734      5.035
REMARK INTER + INTRA:         -11.858
REMARK INTER:                 -11.377
REMARK INTRA:                  -0.482
REMARK UNBOUND:                -0.992
REMARK SMILES COCCNc1nc(Nc2ccc(Br)c(C)c2C)c2cnn(C)c2n1
REMARK SMILES IDX 5 1 4 3 3 4 2 5 1 6 6 7 7 8 25 9 8 10 24 11 19 12 22 13
REMARK SMILES IDX 20 14 21 15 23 16 9 17 10 19 11 20 17 21 12 22 15 23 13 24
REMARK SMILES IDX 18 25 16 26 14 27
REMARK H PARENT 5 2 9 18
ROOT
ATOM      1  N   UNL     1       3.864  46.057  55.712  1.00  0.00    -0.352 N 
ATOM      2  H   UNL     1       3.387  46.618  56.414  1.00  0.00     0.163 HD
ENDROOT
BRANCH   1   3
ATOM      3  C   UNL     1       4.770  46.838  54.877  1.00  0.00     0.144 C 
BRANCH   3   4
ATOM      4  C   UNL     1       6.188  46.248  54.863  1.00  0.00     0.181 C 
BRANCH   4   5
ATOM      5  O   UNL     1       7.199  47.264  54.879  1.00  0.00    -0.383 OA
ATOM      6  C   UNL     1       8.285  46.993  54.002  1.00  0.00     0.194 C 
ENDBRANCH   4   5
ENDBRANCH   3   4
ENDBRANCH   1   3
BRANCH   1   7
ATOM      7  C   UNL     1       2.854  45.381  55.038  1.00  0.00     0.226 A 
ATOM      8  N   UNL     1       3.184  44.975  53.798  1.00  0.00    -0.195 NA
ATOM      9  N   UNL     1       1.672  45.181  55.638  1.00  0.00    -0.193 NA
ATOM     10  C   UNL     1       2.286  44.295  53.041  1.00  0.00     0.147 A 
ATOM     11  C   UNL     1       0.795  44.532  54.860  1.00  0.00     0.165 A 
ATOM     12  C   UNL     1       1.018  44.067  53.580  1.00  0.00     0.082 A 
ATOM     13  N   UNL     1      -0.499  44.199  55.158  1.00  0.00    -0.250 N 
ATOM     14  C   UNL     1      -0.204  43.480  53.197  1.00  0.00     0.149 A 
ATOM     15  N   UNL     1      -1.134  43.543  54.159  1.00  0.00    -0.179 NA
ATOM     16  C   UNL     1      -1.206  44.482  56.381  1.00  0.00     0.176 C 
BRANCH  10  17
ATOM     17  N   UNL     1       2.696  43.911  51.754  1.00  0.00    -0.339 N 
ATOM     18  H   UNL     1       2.061  44.374  51.105  1.00  0.00     0.168 HD
BRANCH  17  19
ATOM     19  C   UNL     1       4.016  43.919  51.242  1.00  0.00     0.043 A 
ATOM     20  C   UNL     1       4.689  45.129  51.030  1.00  0.00     0.027 A 
ATOM     21  C   UNL     1       4.617  42.708  50.816  1.00  0.00    -0.023 A 
ATOM     22  C   UNL     1       5.959  45.150  50.462  1.00  0.00     0.018 A 
ATOM     23  C   UNL     1       5.933  42.719  50.274  1.00  0.00    -0.032 A 
ATOM     24  C   UNL     1       6.577  43.957  50.086  1.00  0.00     0.021 A 
ATOM     25  C   UNL     1       3.881  41.398  50.991  1.00  0.00     0.047 C 
ATOM     26  C   UNL     1       6.615  41.439  49.855  1.00  0.00     0.046 C 
ATOM     27  Br  UNL     1       8.301  44.105  49.294  1.00  0.00    -0.051 Br
ENDBRANCH  17  19
ENDBRANCH  10  17
ENDBRANCH   1   7
TORSDOF 6
ENDMDL
MODEL 3
REMARK VINA RESULT:    -7.963      3.521      5.508
REMARK INTER + INTRA:         -11.749
REMARK INTER:                 -11.069
REMARK INTRA:                  -0.680
REMARK UNBOUND:                -0.992
REMARK SMILES COCCNc1nc(Nc2ccc(Br)c(C)c2C)c2cnn(C)c2n1
REMARK SMILES IDX 5 1 4 3 3 4 2 5 1 6 6 7 7 8 25 9 8 10 24 11 19 12 22 13
REMARK SMILES IDX 20 14 21 15 23 16 9 17 10 19 11 20 17 21 12 22 15 23 13 24
REMARK SMILES IDX 18 25 16 26 14 27
REMARK H PARENT 5 2 9 18
ROOT
ATOM      1  N   UNL     1       1.605  45.054  56.713  1.00  0.00    -0.352 N 
ATOM      2  H   UNL     1       1.594  44.106  57.084  1.00  0.00     0.163 HD
ENDROOT
BRANCH   1   3
ATOM      3  C   UNL     1       0.482  45.860  57.176  1.00  0.00     0.144 C 
BRANCH   3   4
ATOM      4  C   UNL     1       0.892  46.818  58.305  1.00  0.00     0.181 C 
BRANCH   4   5
ATOM      5  O   UNL     1      -0.224  47.217  59.111  1.00  0.00    -0.383 OA
ATOM      6  C   UNL     1       0.148  47.985  60.247  1.00  0.00     0.194 C 
ENDBRANCH   4   5
ENDBRANCH   3   4
ENDBRANCH   1   3
BRANCH   1   7
ATOM      7  C   UNL     1       1.713  44.903  55.335  1.00  0.00     0.226 A 
ATOM      8  N   UNL     1       2.589  45.740  54.749  1.00  0.00    -0.195 NA
ATOM      9  N   UNL     1       0.978  43.975  54.708  1.00  0.00    -0.193 NA
ATOM     10  C   UNL     1       2.792  45.685  53.408  1.00  0.00     0.147 A 
ATOM     11  C   UNL     1       1.177  43.960  53.382  1.00  0.00     0.165 A 
ATOM     12  C   UNL     1       2.045  44.764  52.672  1.00  0.00     0.082 A 
ATOM     13  N   UNL     1       0.565  43.159  52.455  1.00  0.00    -0.250 N 
ATOM     14  C   UNL     1       1.872  44.373  51.329  1.00  0.00     0.149 A 
ATOM     15  N   UNL     1       0.981  43.384  51.187  1.00  0.00    -0.179 NA
ATOM     16  C   UNL     1      -0.437  42.155  52.705  1.00  0.00     0.176 C 
BRANCH  10  17
ATOM     17  N   UNL     1       3.713  46.595  52.863  1.00  0.00    -0.339 N 
ATOM     18  H   UNL     1       3.429  47.516  53.192  1.00  0.00     0.168 HD
BRANCH  17  19
ATOM     19  C   UNL     1       5.125  46.484  52.868  1.00  0.00     0.043 A 
ATOM     20  C   UNL     1       5.867  46.906  53.979  1.00  0.00     0.027 A 
ATOM     21  C   UNL     1       5.806  46.068  51.698  1.00  0.00    -0.023 A 
ATOM     22  C   UNL     1       7.258  46.867  53.966  1.00  0.00     0.018 A 
ATOM     23  C   UNL     1       7.227  45.985  51.694  1.00  0.00    -0.032 A 
ATOM     24  C   UNL     1       7.934  46.411  52.835  1.00  0.00     0.021 A 
ATOM     25  C   UNL     1       5.020  45.658  50.473  1.00  0.00     0.047 C 
ATOM     26  C   UNL     1       7.977  45.501  50.475  1.00  0.00     0.046 C 
ATOM     27  Br  UNL     1       9.835  46.427  52.916  1.00  0.00    -0.051 Br
ENDBRANCH  17  19
ENDBRANCH  10  17
ENDBRANCH   1   7
TORSDOF 6
ENDMDL
MODEL 4
REMARK VINA RESULT:    -7.881      3.541      6.696
REMARK INTER + INTRA:         -11.638
REMARK INTER:                 -11.223
REMARK INTRA:                  -0.415
REMARK UNBOUND:                -0.992
REMARK SMILES COCCNc1nc(Nc2ccc(Br)c(C)c2C)c2cnn(C)c2n1
REMARK SMILES IDX 5 1 4 3 3 4 2 5 1 6 6 7 7 8 25 9 8 10 24 11 19 12 22 13
REMARK SMILES IDX 20 14 21 15 23 16 9 17 10 19 11 20 17 21 12 22 15 23 13 24
REMARK SMILES IDX 18 25 16 26 14 27
REMARK H PARENT 5 2 9 18
ROOT
ATOM      1  N   UNL     1       4.894  47.192  54.951  1.00  0.00    -0.352 N 
ATOM      2  H   UNL     1       5.099  47.826  55.721  1.00  0.00     0.163 HD
ENDROOT
BRANCH   1   3
ATOM      3  C   UNL     1       4.225  45.970  55.384  1.00  0.00     0.144 C 
BRANCH   3   4
ATOM      4  C   UNL     1       2.860  45.792  54.700  1.00  0.00     0.181 C 
BRANCH   4   5
ATOM      5  O   UNL     1       2.743  46.581  53.509  1.00  0.00    -0.383 OA
ATOM      6  C   UNL     1       1.780  46.079  52.593  1.00  0.00     0.194 C 
ENDBRANCH   4   5
ENDBRANCH   3   4
ENDBRANCH   1   3
BRANCH   1   7
ATOM      7  C   UNL     1       6.105  47.016  54.292  1.00  0.00     0.226 A 
ATOM      8  N   UNL     1       5.998  46.484  53.060  1.00  0.00    -0.195 NA
ATOM      9  N   UNL     1       7.248  47.375  54.894  1.00  0.00    -0.193 NA
ATOM     10  C   UNL     1       7.109  46.273  52.310  1.00  0.00     0.147 A 
ATOM     11  C   UNL     1       8.331  47.130  54.143  1.00  0.00     0.165 A 
ATOM     12  C   UNL     1       8.346  46.593  52.872  1.00  0.00     0.082 A 
ATOM     13  N   UNL     1       9.642  47.350  54.472  1.00  0.00    -0.250 N 
ATOM     14  C   UNL     1       9.713  46.524  52.533  1.00  0.00     0.149 A 
ATOM     15  N   UNL     1      10.512  46.996  53.498  1.00  0.00    -0.179 NA
ATOM     16  C   UNL     1      10.145  47.891  55.709  1.00  0.00     0.176 C 
BRANCH  10  17
ATOM     17  N   UNL     1       6.924  45.707  51.038  1.00  0.00    -0.339 N 
ATOM     18  H   UNL     1       7.855  45.602  50.637  1.00  0.00     0.168 HD
BRANCH  17  19
ATOM     19  C   UNL     1       6.119  44.588  50.712  1.00  0.00     0.043 A 
ATOM     20  C   UNL     1       4.908  44.364  51.380  1.00  0.00     0.027 A 
ATOM     21  C   UNL     1       6.596  43.616  49.799  1.00  0.00    -0.023 A 
ATOM     22  C   UNL     1       4.145  43.231  51.116  1.00  0.00     0.018 A 
ATOM     23  C   UNL     1       5.799  42.476  49.493  1.00  0.00    -0.032 A 
ATOM     24  C   UNL     1       4.585  42.294  50.182  1.00  0.00     0.021 A 
ATOM     25  C   UNL     1       7.926  43.818  49.108  1.00  0.00     0.047 C 
ATOM     26  C   UNL     1       6.263  41.447  48.489  1.00  0.00     0.046 C 
ATOM     27  Br  UNL     1       3.477  40.769  49.920  1.00  0.00    -0.051 Br
ENDBRANCH  17  19
ENDBRANCH  10  17
ENDBRANCH   1   7
TORSDOF 6
ENDMDL
MODEL 5
REMARK VINA RESULT:    -7.851      1.190      2.050
REMARK INTER + INTRA:         -11.597
REMARK INTER:                 -10.856
REMARK INTRA:                  -0.741
REMARK UNBOUND:                -0.992
REMARK SMILES COCCNc1nc(Nc2ccc(Br)c(C)c2C)c2cnn(C)c2n1
REMARK SMILES IDX 5 1 4 3 3 4 2 5 1 6 6 7 7 8 25 9 8 10 24 11 19 12 22 13
REMARK SMILES IDX 20 14 21 15 23 16 9 17 10 19 11 20 17 21 12 22 15 23 13 24
REMARK SMILES IDX 18 25 16 26 14 27
REMARK H PARENT 5 2 9 18
ROOT
ATOM      1  N   UNL     1       3.926  41.442  51.184  1.00  0.00    -0.352 N 
ATOM      2  H   UNL     1       4.034  40.809  51.973  1.00  0.00     0.163 HD
ENDROOT
BRANCH   1   3
ATOM      3  C   UNL     1       5.161  41.631  50.432  1.00  0.00     0.144 C 
BRANCH   3   4
ATOM      4  C   UNL     1       5.007  41.208  48.962  1.00  0.00     0.181 C 
BRANCH   4   5
ATOM      5  O   UNL     1       3.764  40.536  48.719  1.00  0.00    -0.383 OA
ATOM      6  C   UNL     1       3.544  40.238  47.347  1.00  0.00     0.194 C 
ENDBRANCH   4   5
ENDBRANCH   3   4
ENDBRANCH   1   3
BRANCH   1   7
ATOM      7  C   UNL     1       3.362  42.596  51.717  1.00  0.00     0.226 A 
ATOM      8  N   UNL     1       4.056  43.723  51.471  1.00  0.00    -0.195 NA
ATOM      9  N   UNL     1       2.215  42.518  52.405  1.00  0.00    -0.193 NA
ATOM     10  C   UNL     1       3.604  44.916  51.930  1.00  0.00     0.147 A 
ATOM     11  C   UNL     1       1.804  43.706  52.871  1.00  0.00     0.165 A 
ATOM     12  C   UNL     1       2.428  44.923  52.682  1.00  0.00     0.082 A 
ATOM     13  N   UNL     1       0.696  43.968  53.630  1.00  0.00    -0.250 N 
ATOM     14  C   UNL     1       1.619  45.847  53.374  1.00  0.00     0.149 A 
ATOM     15  N   UNL     1       0.552  45.276  53.946  1.00  0.00    -0.179 NA
ATOM     16  C   UNL     1      -0.275  43.014  54.103  1.00  0.00     0.176 C 
BRANCH  10  17
ATOM     17  N   UNL     1       4.384  46.049  51.644  1.00  0.00    -0.339 N 
ATOM     18  H   UNL     1       3.953  46.824  52.145  1.00  0.00     0.168 HD
BRANCH  17  19
ATOM     19  C   UNL     1       5.795  46.149  51.703  1.00  0.00     0.043 A 
ATOM     20  C   UNL     1       6.587  45.669  50.652  1.00  0.00     0.027 A 
ATOM     21  C   UNL     1       6.422  46.616  52.885  1.00  0.00    -0.023 A 
ATOM     22  C   UNL     1       7.976  45.699  50.732  1.00  0.00     0.018 A 
ATOM     23  C   UNL     1       7.842  46.689  52.956  1.00  0.00    -0.032 A 
ATOM     24  C   UNL     1       8.600  46.204  51.873  1.00  0.00     0.021 A 
ATOM     25  C   UNL     1       5.580  47.089  54.049  1.00  0.00     0.047 C 
ATOM     26  C   UNL     1       8.535  47.226  54.185  1.00  0.00     0.046 C 
ATOM     27  Br  UNL     1      10.502  46.171  51.887  1.00  0.00    -0.051 Br
ENDBRANCH  17  19
ENDBRANCH  10  17
ENDBRANCH   1   7
TORSDOF 6
ENDMDL
MODEL 6
REMARK VINA RESULT:    -7.778      3.479      5.551
REMARK INTER + INTRA:         -11.499
REMARK INTER:                 -10.758
REMARK INTRA:                  -0.740
REMARK UNBOUND:                -0.992
REMARK SMILES COCCNc1nc(Nc2ccc(Br)c(C)c2C)c2cnn(C)c2n1
REMARK SMILES IDX 5 1 4 3 3 4 2 5 1 6 6 7 7 8 25 9 8 10 24 11 19 12 22 13
REMARK SMILES IDX 20 14 21 15 23 16 9 17 10 19 11 20 17 21 12 22 15 23 13 24
REMARK SMILES IDX 18 25 16 26 14 27
REMARK H PARENT 5 2 9 18
ROOT
ATOM      1  N   UNL     1       0.354  45.865  55.582  1.00  0.00    -0.352 N 
ATOM      2  H   UNL     1       0.674  46.819  55.427  1.00  0.00     0.163 HD
ENDROOT
BRANCH   1   3
ATOM      3  C   UNL     1       0.781  45.324  56.867  1.00  0.00     0.144 C 
BRANCH   3   4
ATOM      4  C   UNL     1       0.987  46.429  57.914  1.00  0.00     0.181 C 
BRANCH   4   5
ATOM      5  O   UNL     1      -0.254  46.903  58.454  1.00  0.00    -0.383 OA
ATOM      6  C   UNL     1      -0.092  47.935  59.417  1.00  0.00     0.194 C 
ENDBRANCH   4   5
ENDBRANCH   3   4
ENDBRANCH   1   3
BRANCH   1   7
ATOM      7  C   UNL     1       0.766  45.155  54.460  1.00  0.00     0.226 A 
ATOM      8  N   UNL     1       2.078  44.856  54.440  1.00  0.00    -0.195 NA
ATOM      9  N   UNL     1      -0.128  44.824  53.518  1.00  0.00    -0.193 NA
ATOM     10  C   UNL     1       2.601  44.156  53.402  1.00  0.00     0.147 A 
ATOM     11  C   UNL     1       0.419  44.157  52.492  1.00  0.00     0.165 A 
ATOM     12  C   UNL     1       1.744  43.794  52.361  1.00  0.00     0.082 A 
ATOM     13  N   UNL     1      -0.207  43.703  51.362  1.00  0.00    -0.250 N 
ATOM     14  C   UNL     1       1.810  43.136  51.116  1.00  0.00     0.149 A 
ATOM     15  N   UNL     1       0.621  43.063  50.504  1.00  0.00    -0.179 NA
ATOM     16  C   UNL     1      -1.600  43.850  51.026  1.00  0.00     0.176 C 
BRANCH  10  17
ATOM     17  N   UNL     1       3.979  43.888  53.442  1.00  0.00    -0.339 N 
ATOM     18  H   UNL     1       4.108  42.998  52.962  1.00  0.00     0.168 HD
BRANCH  17  19
ATOM     19  C   UNL     1       5.031  44.779  53.116  1.00  0.00     0.043 A 
ATOM     20  C   UNL     1       5.311  45.878  53.938  1.00  0.00     0.027 A 
ATOM     21  C   UNL     1       5.722  44.639  51.887  1.00  0.00    -0.023 A 
ATOM     22  C   UNL     1       6.296  46.798  53.590  1.00  0.00     0.018 A 
ATOM     23  C   UNL     1       6.759  45.552  51.547  1.00  0.00    -0.032 A 
ATOM     24  C   UNL     1       7.014  46.639  52.406  1.00  0.00     0.021 A 
ATOM     25  C   UNL     1       5.395  43.485  50.965  1.00  0.00     0.047 C 
ATOM     26  C   UNL     1       7.544  45.399  50.265  1.00  0.00     0.046 C 
ATOM     27  Br  UNL     1       8.317  47.969  52.015  1.00  0.00    -0.051 Br
ENDBRANCH  17  19
ENDBRANCH  10  17
ENDBRANCH   1   7
TORSDOF 6
ENDMDL
MODEL 7
REMARK VINA RESULT:    -7.721      1.940      4.022
REMARK INTER + INTRA:         -11.422
REMARK INTER:                 -10.450
REMARK INTRA:                  -0.971
REMARK UNBOUND:                -0.992
REMARK SMILES COCCNc1nc(Nc2ccc(Br)c(C)c2C)c2cnn(C)c2n1
REMARK SMILES IDX 5 1 4 3 3 4 2 5 1 6 6 7 7 8 25 9 8 10 24 11 19 12 22 13
REMARK SMILES IDX 20 14 21 15 23 16 9 17 10 19 11 20 17 21 12 22 15 23 13 24
REMARK SMILES IDX 18 25 16 26 14 27
REMARK H PARENT 5 2 9 18
ROOT
ATOM      1  N   UNL     1       1.019  45.123  52.003  1.00  0.00    -0.352 N 
ATOM      2  H   UNL     1       1.069  46.140  52.009  1.00  0.00     0.163 HD
ENDROOT
BRANCH   1   3
ATOM      3  C   UNL     1       0.514  44.571  53.255  1.00  0.00     0.144 C 
BRANCH   3   4
ATOM      4  C   UNL     1       1.060  45.329  54.475  1.00  0.00     0.181 C 
BRANCH   4   5
ATOM      5  O   UNL     1       2.160  44.647  55.091  1.00  0.00    -0.383 OA
ATOM      6  C   UNL     1       3.310  45.465  55.254  1.00  0.00     0.194 C 
ENDBRANCH   4   5
ENDBRANCH   3   4
ENDBRANCH   1   3
BRANCH   1   7
ATOM      7  C   UNL     1       2.287  44.699  51.624  1.00  0.00     0.226 A 
ATOM      8  N   UNL     1       3.230  45.659  51.652  1.00  0.00    -0.195 NA
ATOM      9  N   UNL     1       2.484  43.419  51.276  1.00  0.00    -0.193 NA
ATOM     10  C   UNL     1       4.511  45.367  51.314  1.00  0.00     0.147 A 
ATOM     11  C   UNL     1       3.751  43.164  50.920  1.00  0.00     0.165 A 
ATOM     12  C   UNL     1       4.798  44.062  50.911  1.00  0.00     0.082 A 
ATOM     13  N   UNL     1       4.273  41.975  50.487  1.00  0.00    -0.250 N 
ATOM     14  C   UNL     1       5.902  43.316  50.450  1.00  0.00     0.149 A 
ATOM     15  N   UNL     1       5.595  42.037  50.200  1.00  0.00    -0.179 NA
ATOM     16  C   UNL     1       3.568  40.732  50.312  1.00  0.00     0.176 C 
BRANCH  10  17
ATOM     17  N   UNL     1       5.439  46.421  51.357  1.00  0.00    -0.339 N 
ATOM     18  H   UNL     1       4.891  47.280  51.364  1.00  0.00     0.168 HD
BRANCH  17  19
ATOM     19  C   UNL     1       6.553  46.541  52.223  1.00  0.00     0.043 A 
ATOM     20  C   UNL     1       6.387  47.000  53.537  1.00  0.00     0.027 A 
ATOM     21  C   UNL     1       7.862  46.321  51.727  1.00  0.00    -0.023 A 
ATOM     22  C   UNL     1       7.483  47.187  54.372  1.00  0.00     0.018 A 
ATOM     23  C   UNL     1       8.984  46.470  52.590  1.00  0.00    -0.032 A 
ATOM     24  C   UNL     1       8.771  46.925  53.905  1.00  0.00     0.021 A 
ATOM     25  C   UNL     1       8.060  45.875  50.296  1.00  0.00     0.047 C 
ATOM     26  C   UNL     1      10.386  46.198  52.100  1.00  0.00     0.046 C 
ATOM     27  Br  UNL     1      10.198  47.243  55.123  1.00  0.00    -0.051 Br
ENDBRANCH  17  19
ENDBRANCH  10  17
ENDBRANCH   1   7
TORSDOF 6
ENDMDL
MODEL 8
REMARK VINA RESULT:    -7.695      3.478      5.692
REMARK INTER + INTRA:         -11.386
REMARK INTER:                 -10.565
REMARK INTRA:                  -0.821
REMARK UNBOUND:                -0.992
REMARK SMILES COCCNc1nc(Nc2ccc(Br)c(C)c2C)c2cnn(C)c2n1
REMARK SMILES IDX 5 1 4 3 3 4 2 5 1 6 6 7 7 8 25 9 8 10 24 11 19 12 22 13
REMARK SMILES IDX 20 14 21 15 23 16 9 17 10 19 11 20 17 21 12 22 15 23 13 24
REMARK SMILES IDX 18 25 16 26 14 27
REMARK H PARENT 5 2 9 18
ROOT
ATOM      1  N   UNL     1       0.179  45.747  55.459  1.00  0.00    -0.352 N 
ATOM      2  H   UNL     1       0.424  46.720  55.289  1.00  0.00     0.163 HD
ENDROOT
BRANCH   1   3
ATOM      3  C   UNL     1       0.666  45.253  56.742  1.00  0.00     0.144 C 
BRANCH   3   4
ATOM      4  C   UNL     1       1.002  46.401  57.707  1.00  0.00     0.181 C 
BRANCH   4   5
ATOM      5  O   UNL     1      -0.149  46.856  58.430  1.00  0.00    -0.383 OA
ATOM      6  C   UNL     1       0.159  47.814  59.433  1.00  0.00     0.194 C 
ENDBRANCH   4   5
ENDBRANCH   3   4
ENDBRANCH   1   3
BRANCH   1   7
ATOM      7  C   UNL     1       0.626  45.058  54.337  1.00  0.00     0.226 A 
ATOM      8  N   UNL     1       1.939  44.763  54.350  1.00  0.00    -0.195 NA
ATOM      9  N   UNL     1      -0.239  44.741  53.364  1.00  0.00    -0.193 NA
ATOM     10  C   UNL     1       2.495  44.083  53.315  1.00  0.00     0.147 A 
ATOM     11  C   UNL     1       0.341  44.094  52.342  1.00  0.00     0.165 A 
ATOM     12  C   UNL     1       1.670  43.737  52.244  1.00  0.00     0.082 A 
ATOM     13  N   UNL     1      -0.251  43.659  51.187  1.00  0.00    -0.250 N 
ATOM     14  C   UNL     1       1.774  43.101  50.990  1.00  0.00     0.149 A 
ATOM     15  N   UNL     1       0.604  43.036  50.342  1.00  0.00    -0.179 NA
ATOM     16  C   UNL     1      -1.634  43.808  50.812  1.00  0.00     0.176 C 
BRANCH  10  17
ATOM     17  N   UNL     1       3.872  43.818  53.391  1.00  0.00    -0.339 N 
ATOM     18  H   UNL     1       4.004  42.889  52.994  1.00  0.00     0.168 HD
BRANCH  17  19
ATOM     19  C   UNL     1       4.928  44.676  52.997  1.00  0.00     0.043 A 
ATOM     20  C   UNL     1       5.249  44.833  51.642  1.00  0.00     0.027 A 
ATOM     21  C   UNL     1       5.752  45.280  53.979  1.00  0.00    -0.023 A 
ATOM     22  C   UNL     1       6.329  45.618  51.250  1.00  0.00     0.018 A 
ATOM     23  C   UNL     1       6.832  46.119  53.582  1.00  0.00    -0.032 A 
ATOM     24  C   UNL     1       7.115  46.256  52.209  1.00  0.00     0.021 A 
ATOM     25  C   UNL     1       5.449  45.078  55.446  1.00  0.00     0.047 C 
ATOM     26  C   UNL     1       7.697  46.812  54.607  1.00  0.00     0.046 C 
ATOM     27  Br  UNL     1       8.582  47.280  51.563  1.00  0.00    -0.051 Br
ENDBRANCH  17  19
ENDBRANCH  10  17
ENDBRANCH   1   7
TORSDOF 6
ENDMDL
MODEL 9
REMARK VINA RESULT:    -7.631      3.095      6.063
REMARK INTER + INTRA:         -11.300
REMARK INTER:                 -10.297
REMARK INTRA:                  -1.003
REMARK UNBOUND:                -0.992
REMARK SMILES COCCNc1nc(Nc2ccc(Br)c(C)c2C)c2cnn(C)c2n1
REMARK SMILES IDX 5 1 4 3 3 4 2 5 1 6 6 7 7 8 25 9 8 10 24 11 19 12 22 13
REMARK SMILES IDX 20 14 21 15 23 16 9 17 10 19 11 20 17 21 12 22 15 23 13 24
REMARK SMILES IDX 18 25 16 26 14 27
REMARK H PARENT 5 2 9 18
ROOT
ATOM      1  N   UNL     1       6.445  43.419  49.400  1.00  0.00    -0.352 N 
ATOM      2  H   UNL     1       5.645  43.646  48.813  1.00  0.00     0.163 HD
ENDROOT
BRANCH   1   3
ATOM      3  C   UNL     1       6.332  42.113  50.037  1.00  0.00     0.144 C 
BRANCH   3   4
ATOM      4  C   UNL     1       4.914  41.534  49.907  1.00  0.00     0.181 C 
BRANCH   4   5
ATOM      5  O   UNL     1       4.361  41.162  51.177  1.00  0.00    -0.383 OA
ATOM      6  C   UNL     1       3.636  42.211  51.804  1.00  0.00     0.194 C 
ENDBRANCH   4   5
ENDBRANCH   3   4
ENDBRANCH   1   3
BRANCH   1   7
ATOM      7  C   UNL     1       6.582  44.502  50.262  1.00  0.00     0.226 A 
ATOM      8  N   UNL     1       5.418  45.053  50.656  1.00  0.00    -0.195 NA
ATOM      9  N   UNL     1       7.805  44.905  50.634  1.00  0.00    -0.193 NA
ATOM     10  C   UNL     1       5.418  46.110  51.506  1.00  0.00     0.147 A 
ATOM     11  C   UNL     1       7.777  45.967  51.452  1.00  0.00     0.165 A 
ATOM     12  C   UNL     1       6.652  46.613  51.922  1.00  0.00     0.082 A 
ATOM     13  N   UNL     1       8.844  46.638  51.985  1.00  0.00    -0.250 N 
ATOM     14  C   UNL     1       7.152  47.660  52.722  1.00  0.00     0.149 A 
ATOM     15  N   UNL     1       8.490  47.677  52.778  1.00  0.00    -0.179 NA
ATOM     16  C   UNL     1      10.240  46.349  51.778  1.00  0.00     0.176 C 
BRANCH  10  17
ATOM     17  N   UNL     1       4.168  46.639  51.867  1.00  0.00    -0.339 N 
ATOM     18  H   UNL     1       3.881  47.237  51.093  1.00  0.00     0.168 HD
BRANCH  17  19
ATOM     19  C   UNL     1       3.056  45.928  52.378  1.00  0.00     0.043 A 
ATOM     20  C   UNL     1       2.054  45.460  51.518  1.00  0.00     0.027 A 
ATOM     21  C   UNL     1       2.883  45.797  53.778  1.00  0.00    -0.023 A 
ATOM     22  C   UNL     1       0.923  44.821  52.018  1.00  0.00     0.018 A 
ATOM     23  C   UNL     1       1.749  45.107  54.294  1.00  0.00    -0.032 A 
ATOM     24  C   UNL     1       0.770  44.646  53.393  1.00  0.00     0.021 A 
ATOM     25  C   UNL     1       3.931  46.343  54.722  1.00  0.00     0.047 C 
ATOM     26  C   UNL     1       1.563  44.913  55.780  1.00  0.00     0.046 C 
ATOM     27  Br  UNL     1      -0.826  43.785  53.968  1.00  0.00    -0.051 Br
ENDBRANCH  17  19
ENDBRANCH  10  17
ENDBRANCH   1   7
TORSDOF 6
ENDMDL
MODEL 10
REMARK VINA RESULT:    -7.530      3.040      5.335
REMARK INTER + INTRA:         -11.163
REMARK INTER:                 -10.513
REMARK INTRA:                  -0.651
REMARK UNBOUND:                -0.992
REMARK SMILES COCCNc1nc(Nc2ccc(Br)c(C)c2C)c2cnn(C)c2n1
REMARK SMILES IDX 5 1 4 3 3 4 2 5 1 6 6 7 7 8 25 9 8 10 24 11 19 12 22 13
REMARK SMILES IDX 20 14 21 15 23 16 9 17 10 19 11 20 17 21 12 22 15 23 13 24
REMARK SMILES IDX 18 25 16 26 14 27
REMARK H PARENT 5 2 9 18
ROOT
ATOM      1  N   UNL     1       3.214  46.051  56.013  1.00  0.00    -0.352 N 
ATOM      2  H   UNL     1       2.870  46.979  56.250  1.00  0.00     0.163 HD
ENDROOT
BRANCH   1   3
ATOM      3  C   UNL     1       4.493  46.080  55.313  1.00  0.00     0.144 C 
BRANCH   3   4
ATOM      4  C   UNL     1       4.712  47.411  54.577  1.00  0.00     0.181 C 
BRANCH   4   5
ATOM      5  O   UNL     1       6.024  47.506  54.006  1.00  0.00    -0.383 OA
ATOM      6  C   UNL     1       6.641  46.242  53.801  1.00  0.00     0.194 C 
ENDBRANCH   4   5
ENDBRANCH   3   4
ENDBRANCH   1   3
BRANCH   1   7
ATOM      7  C   UNL     1       2.167  45.437  55.334  1.00  0.00     0.226 A 
ATOM      8  N   UNL     1       2.407  45.205  54.030  1.00  0.00    -0.195 NA
ATOM      9  N   UNL     1       1.042  45.124  55.991  1.00  0.00    -0.193 NA
ATOM     10  C   UNL     1       1.467  44.602  53.260  1.00  0.00     0.147 A 
ATOM     11  C   UNL     1       0.120  44.554  55.202  1.00  0.00     0.165 A 
ATOM     12  C   UNL     1       0.251  44.266  53.859  1.00  0.00     0.082 A 
ATOM     13  N   UNL     1      -1.139  44.144  55.551  1.00  0.00    -0.250 N 
ATOM     14  C   UNL     1      -0.985  43.695  53.495  1.00  0.00     0.149 A 
ATOM     15  N   UNL     1      -1.837  43.604  54.524  1.00  0.00    -0.179 NA
ATOM     16  C   UNL     1      -1.753  44.244  56.850  1.00  0.00     0.176 C 
BRANCH  10  17
ATOM     17  N   UNL     1       1.782  44.401  51.906  1.00  0.00    -0.339 N 
ATOM     18  H   UNL     1       1.638  45.299  51.446  1.00  0.00     0.168 HD
BRANCH  17  19
ATOM     19  C   UNL     1       2.931  43.759  51.385  1.00  0.00     0.043 A 
ATOM     20  C   UNL     1       2.994  42.361  51.312  1.00  0.00     0.027 A 
ATOM     21  C   UNL     1       4.079  44.522  51.054  1.00  0.00    -0.023 A 
ATOM     22  C   UNL     1       4.146  41.720  50.866  1.00  0.00     0.018 A 
ATOM     23  C   UNL     1       5.245  43.874  50.557  1.00  0.00    -0.032 A 
ATOM     24  C   UNL     1       5.262  42.467  50.492  1.00  0.00     0.021 A 
ATOM     25  C   UNL     1       4.043  46.029  51.176  1.00  0.00     0.047 C 
ATOM     26  C   UNL     1       6.465  44.666  50.153  1.00  0.00     0.046 C 
ATOM     27  Br  UNL     1       6.791  41.487  49.926  1.00  0.00    -0.051 Br
ENDBRANCH  17  19
ENDBRANCH  10  17
ENDBRANCH   1   7
TORSDOF 6
ENDMDL
MODEL 11
REMARK VINA RESULT:    -7.448      3.774      7.086
REMARK INTER + INTRA:         -11.053
REMARK INTER:                 -10.613
REMARK INTRA:                  -0.440
REMARK UNBOUND:                -0.992
REMARK SMILES COCCNc1nc(Nc2ccc(Br)c(C)c2C)c2cnn(C)c2n1
REMARK SMILES IDX 5 1 4 3 3 4 2 5 1 6 6 7 7 8 25 9 8 10 24 11 19 12 22 13
REMARK SMILES IDX 20 14 21 15 23 16 9 17 10 19 11 20 17 21 12 22 15 23 13 24
REMARK SMILES IDX 18 25 16 26 14 27
REMARK H PARENT 5 2 9 18
ROOT
ATOM      1  N   UNL     1       8.981  47.440  52.123  1.00  0.00    -0.352 N 
ATOM      2  H   UNL     1       9.768  46.819  51.947  1.00  0.00     0.163 HD
ENDROOT
BRANCH   1   3
ATOM      3  C   UNL     1       9.002  48.017  53.462  1.00  0.00     0.144 C 
BRANCH   3   4
ATOM      4  C   UNL     1       9.905  47.220  54.416  1.00  0.00     0.181 C 
BRANCH   4   5
ATOM      5  O   UNL     1       9.990  47.822  55.714  1.00  0.00    -0.383 OA
ATOM      6  C   UNL     1      11.189  47.502  56.406  1.00  0.00     0.194 C 
ENDBRANCH   4   5
ENDBRANCH   3   4
ENDBRANCH   1   3
BRANCH   1   7
ATOM      7  C   UNL     1       7.851  46.694  51.805  1.00  0.00     0.226 A 
ATOM      8  N   UNL     1       6.707  47.155  52.345  1.00  0.00    -0.195 NA
ATOM      9  N   UNL     1       7.966  45.619  51.013  1.00  0.00    -0.193 NA
ATOM     10  C   UNL     1       5.534  46.520  52.100  1.00  0.00     0.147 A 
ATOM     11  C   UNL     1       6.797  44.995  50.810  1.00  0.00     0.165 A 
ATOM     12  C   UNL     1       5.566  45.373  51.306  1.00  0.00     0.082 A 
ATOM     13  N   UNL     1       6.573  43.858  50.080  1.00  0.00    -0.250 N 
ATOM     14  C   UNL     1       4.674  44.393  50.824  1.00  0.00     0.149 A 
ATOM     15  N   UNL     1       5.276  43.471  50.063  1.00  0.00    -0.179 NA
ATOM     16  C   UNL     1       7.555  43.076  49.372  1.00  0.00     0.176 C 
BRANCH  10  17
ATOM     17  N   UNL     1       4.382  47.051  52.704  1.00  0.00    -0.339 N 
ATOM     18  H   UNL     1       4.168  47.910  52.199  1.00  0.00     0.168 HD
BRANCH  17  19
ATOM     19  C   UNL     1       3.189  46.357  53.021  1.00  0.00     0.043 A 
ATOM     20  C   UNL     1       2.163  46.237  52.075  1.00  0.00     0.027 A 
ATOM     21  C   UNL     1       2.972  45.893  54.342  1.00  0.00    -0.023 A 
ATOM     22  C   UNL     1       0.960  45.618  52.401  1.00  0.00     0.018 A 
ATOM     23  C   UNL     1       1.760  45.221  54.669  1.00  0.00    -0.032 A 
ATOM     24  C   UNL     1       0.758  45.114  53.686  1.00  0.00     0.021 A 
ATOM     25  C   UNL     1       4.050  46.062  55.389  1.00  0.00     0.047 C 
ATOM     26  C   UNL     1       1.521  44.675  56.057  1.00  0.00     0.046 C 
ATOM     27  Br  UNL     1      -0.934  44.314  54.029  1.00  0.00    -0.051 Br
ENDBRANCH  17  19
ENDBRANCH  10  17
ENDBRANCH   1   7
TORSDOF 6
ENDMDL
MODEL 12
REMARK VINA RESULT:    -7.379      3.568      7.333
REMARK INTER + INTRA:         -10.959
REMARK INTER:                 -10.104
REMARK INTRA:                  -0.856
REMARK UNBOUND:                -0.992
REMARK SMILES COCCNc1nc(Nc2ccc(Br)c(C)c2C)c2cnn(C)c2n1
REMARK SMILES IDX 5 1 4 3 3 4 2 5 1 6 6 7 7 8 25 9 8 10 24 11 19 12 22 13
REMARK SMILES IDX 20 14 21 15 23 16 9 17 10 19 11 20 17 21 12 22 15 23 13 24
REMARK SMILES IDX 18 25 16 26 14 27
REMARK H PARENT 5 2 9 18
ROOT
ATOM      1  N   UNL     1       6.492  47.247  52.478  1.00  0.00    -0.352 N 
ATOM      2  H   UNL     1       5.813  47.871  52.047  1.00  0.00     0.163 HD
ENDROOT
BRANCH   1   3
ATOM      3  C   UNL     1       7.870  47.683  52.282  1.00  0.00     0.144 C 
BRANCH   3   4
ATOM      4  C   UNL     1       8.685  47.607  53.582  1.00  0.00     0.181 C 
BRANCH   4   5
ATOM      5  O   UNL     1      10.010  47.104  53.364  1.00  0.00    -0.383 OA
ATOM      6  C   UNL     1      10.174  46.482  52.096  1.00  0.00     0.194 C 
ENDBRANCH   4   5
ENDBRANCH   3   4
ENDBRANCH   1   3
BRANCH   1   7
ATOM      7  C   UNL     1       6.185  45.982  51.991  1.00  0.00     0.226 A 
ATOM      8  N   UNL     1       5.200  45.351  52.657  1.00  0.00    -0.195 NA
ATOM      9  N   UNL     1       6.852  45.496  50.935  1.00  0.00    -0.193 NA
ATOM     10  C   UNL     1       4.800  44.113  52.272  1.00  0.00     0.147 A 
ATOM     11  C   UNL     1       6.457  44.261  50.593  1.00  0.00     0.165 A 
ATOM     12  C   UNL     1       5.463  43.519  51.196  1.00  0.00     0.082 A 
ATOM     13  N   UNL     1       6.952  43.475  49.587  1.00  0.00    -0.250 N 
ATOM     14  C   UNL     1       5.446  42.302  50.484  1.00  0.00     0.149 A 
ATOM     15  N   UNL     1       6.343  42.270  49.491  1.00  0.00    -0.179 NA
ATOM     16  C   UNL     1       8.018  43.805  48.675  1.00  0.00     0.176 C 
BRANCH  10  17
ATOM     17  N   UNL     1       3.774  43.511  53.019  1.00  0.00    -0.339 N 
ATOM     18  H   UNL     1       3.925  43.794  53.986  1.00  0.00     0.168 HD
BRANCH  17  19
ATOM     19  C   UNL     1       2.391  43.507  52.718  1.00  0.00     0.043 A 
ATOM     20  C   UNL     1       1.935  43.044  51.476  1.00  0.00     0.027 A 
ATOM     21  C   UNL     1       1.469  44.092  53.621  1.00  0.00    -0.023 A 
ATOM     22  C   UNL     1       0.584  43.101  51.145  1.00  0.00     0.018 A 
ATOM     23  C   UNL     1       0.080  44.113  53.305  1.00  0.00    -0.032 A 
ATOM     24  C   UNL     1      -0.336  43.631  52.049  1.00  0.00     0.021 A 
ATOM     25  C   UNL     1       1.953  44.641  54.943  1.00  0.00     0.047 C 
ATOM     26  C   UNL     1      -0.930  44.689  54.268  1.00  0.00     0.046 C 
ATOM     27  Br  UNL     1      -2.151  43.685  51.481  1.00  0.00    -0.051 Br
ENDBRANCH  17  19
ENDBRANCH  10  17
ENDBRANCH   1   7
TORSDOF 6
ENDMDL
MODEL 13
REMARK VINA RESULT:    -7.336      2.860      4.209
REMARK INTER + INTRA:         -10.901
REMARK INTER:                  -9.971
REMARK INTRA:                  -0.930
REMARK UNBOUND:                -0.992
REMARK SMILES COCCNc1nc(Nc2ccc(Br)c(C)c2C)c2cnn(C)c2n1
REMARK SMILES IDX 5 1 4 3 3 4 2 5 1 6 6 7 7 8 25 9 8 10 24 11 19 12 22 13
REMARK SMILES IDX 20 14 21 15 23 16 9 17 10 19 11 20 17 21 12 22 15 23 13 24
REMARK SMILES IDX 18 25 16 26 14 27
REMARK H PARENT 5 2 9 18
ROOT
ATOM      1  N   UNL     1      -0.001  44.076  50.867  1.00  0.00    -0.352 N 
ATOM      2  H   UNL     1       0.457  44.738  50.242  1.00  0.00     0.163 HD
ENDROOT
BRANCH   1   3
ATOM      3  C   UNL     1      -1.455  44.173  50.832  1.00  0.00     0.144 C 
BRANCH   3   4
ATOM      4  C   UNL     1      -2.122  42.789  50.869  1.00  0.00     0.181 C 
BRANCH   4   5
ATOM      5  O   UNL     1      -2.594  42.449  52.179  1.00  0.00    -0.383 OA
ATOM      6  C   UNL     1      -3.513  43.395  52.710  1.00  0.00     0.194 C 
ENDBRANCH   4   5
ENDBRANCH   3   4
ENDBRANCH   1   3
BRANCH   1   7
ATOM      7  C   UNL     1       0.588  44.282  52.109  1.00  0.00     0.226 A 
ATOM      8  N   UNL     1       1.906  44.009  52.155  1.00  0.00    -0.195 NA
ATOM      9  N   UNL     1      -0.156  44.725  53.133  1.00  0.00    -0.193 NA
ATOM     10  C   UNL     1       2.597  44.180  53.310  1.00  0.00     0.147 A 
ATOM     11  C   UNL     1       0.546  44.858  54.267  1.00  0.00     0.165 A 
ATOM     12  C   UNL     1       1.893  44.612  54.435  1.00  0.00     0.082 A 
ATOM     13  N   UNL     1       0.083  45.257  55.493  1.00  0.00    -0.250 N 
ATOM     14  C   UNL     1       2.137  44.884  55.796  1.00  0.00     0.149 A 
ATOM     15  N   UNL     1       1.041  45.292  56.448  1.00  0.00    -0.179 NA
ATOM     16  C   UNL     1      -1.270  45.616  55.832  1.00  0.00     0.176 C 
BRANCH  10  17
ATOM     17  N   UNL     1       3.966  43.867  53.287  1.00  0.00    -0.339 N 
ATOM     18  H   UNL     1       4.050  43.005  52.749  1.00  0.00     0.168 HD
BRANCH  17  19
ATOM     19  C   UNL     1       5.037  44.743  52.984  1.00  0.00     0.043 A 
ATOM     20  C   UNL     1       5.335  45.820  53.828  1.00  0.00     0.027 A 
ATOM     21  C   UNL     1       5.730  44.613  51.755  1.00  0.00    -0.023 A 
ATOM     22  C   UNL     1       6.340  46.727  53.502  1.00  0.00     0.018 A 
ATOM     23  C   UNL     1       6.787  45.512  51.436  1.00  0.00    -0.032 A 
ATOM     24  C   UNL     1       7.060  46.576  52.318  1.00  0.00     0.021 A 
ATOM     25  C   UNL     1       5.384  43.485  50.809  1.00  0.00     0.047 C 
ATOM     26  C   UNL     1       7.574  45.369  50.155  1.00  0.00     0.046 C 
ATOM     27  Br  UNL     1       8.390  47.888  51.958  1.00  0.00    -0.051 Br
ENDBRANCH  17  19
ENDBRANCH  10  17
ENDBRANCH   1   7
TORSDOF 6
ENDMDL
MODEL 14
REMARK VINA RESULT:    -7.268      3.327      5.390
REMARK INTER + INTRA:         -10.809
REMARK INTER:                 -10.026
REMARK INTRA:                  -0.783
REMARK UNBOUND:                -0.992
REMARK SMILES COCCNc1nc(Nc2ccc(Br)c(C)c2C)c2cnn(C)c2n1
REMARK SMILES IDX 5 1 4 3 3 4 2 5 1 6 6 7 7 8 25 9 8 10 24 11 19 12 22 13
REMARK SMILES IDX 20 14 21 15 23 16 9 17 10 19 11 20 17 21 12 22 15 23 13 24
REMARK SMILES IDX 18 25 16 26 14 27
REMARK H PARENT 5 2 9 18
ROOT
ATOM      1  N   UNL     1       2.261  45.413  56.152  1.00  0.00    -0.352 N 
ATOM      2  H   UNL     1       2.961  44.785  56.542  1.00  0.00     0.163 HD
ENDROOT
BRANCH   1   3
ATOM      3  C   UNL     1       0.991  45.365  56.866  1.00  0.00     0.144 C 
BRANCH   3   4
ATOM      4  C   UNL     1       0.904  46.447  57.954  1.00  0.00     0.181 C 
BRANCH   4   5
ATOM      5  O   UNL     1      -0.440  46.901  58.161  1.00  0.00    -0.383 OA
ATOM      6  C   UNL     1      -1.344  46.461  57.157  1.00  0.00     0.194 C 
ENDBRANCH   4   5
ENDBRANCH   3   4
ENDBRANCH   1   3
BRANCH   1   7
ATOM      7  C   UNL     1       2.205  45.100  54.799  1.00  0.00     0.226 A 
ATOM      8  N   UNL     1       3.035  45.822  54.023  1.00  0.00    -0.195 NA
ATOM      9  N   UNL     1       1.372  44.141  54.372  1.00  0.00    -0.193 NA
ATOM     10  C   UNL     1       3.081  45.604  52.685  1.00  0.00     0.147 A 
ATOM     11  C   UNL     1       1.417  43.964  53.044  1.00  0.00     0.165 A 
ATOM     12  C   UNL     1       2.224  44.639  52.152  1.00  0.00     0.082 A 
ATOM     13  N   UNL     1       0.677  43.091  52.293  1.00  0.00    -0.250 N 
ATOM     14  C   UNL     1       1.886  44.104  50.892  1.00  0.00     0.149 A 
ATOM     15  N   UNL     1       0.951  43.148  50.969  1.00  0.00    -0.179 NA
ATOM     16  C   UNL     1      -0.323  42.170  52.770  1.00  0.00     0.176 C 
BRANCH  10  17
ATOM     17  N   UNL     1       3.963  46.400  51.937  1.00  0.00    -0.339 N 
ATOM     18  H   UNL     1       4.009  47.299  52.416  1.00  0.00     0.168 HD
BRANCH  17  19
ATOM     19  C   UNL     1       5.244  46.034  51.456  1.00  0.00     0.043 A 
ATOM     20  C   UNL     1       5.375  45.081  50.437  1.00  0.00     0.027 A 
ATOM     21  C   UNL     1       6.408  46.532  52.092  1.00  0.00    -0.023 A 
ATOM     22  C   UNL     1       6.630  44.663  50.006  1.00  0.00     0.018 A 
ATOM     23  C   UNL     1       7.695  46.141  51.628  1.00  0.00    -0.032 A 
ATOM     24  C   UNL     1       7.781  45.187  50.595  1.00  0.00     0.021 A 
ATOM     25  C   UNL     1       6.281  47.522  53.228  1.00  0.00     0.047 C 
ATOM     26  C   UNL     1       8.952  46.691  52.257  1.00  0.00     0.046 C 
ATOM     27  Br  UNL     1       9.444  44.524  49.949  1.00  0.00    -0.051 Br
ENDBRANCH  17  19
ENDBRANCH  10  17
ENDBRANCH   1   7
TORSDOF 6
ENDMDL
MODEL 15
REMARK VINA RESULT:    -7.220      3.279      7.093
REMARK INTER + INTRA:         -10.745
REMARK INTER:                 -10.459
REMARK INTRA:                  -0.286
REMARK UNBOUND:                -0.992
REMARK SMILES COCCNc1nc(Nc2ccc(Br)c(C)c2C)c2cnn(C)c2n1
REMARK SMILES IDX 5 1 4 3 3 4 2 5 1 6 6 7 7 8 25 9 8 10 24 11 19 12 22 13
REMARK SMILES IDX 20 14 21 15 23 16 9 17 10 19 11 20 17 21 12 22 15 23 13 24
REMARK SMILES IDX 18 25 16 26 14 27
REMARK H PARENT 5 2 9 18
ROOT
ATOM      1  N   UNL     1       5.377  46.863  52.350  1.00  0.00    -0.352 N 
ATOM      2  H   UNL     1       5.114  47.422  51.541  1.00  0.00     0.163 HD
ENDROOT
BRANCH   1   3
ATOM      3  C   UNL     1       6.736  47.129  52.807  1.00  0.00     0.144 C 
BRANCH   3   4
ATOM      4  C   UNL     1       6.905  46.825  54.304  1.00  0.00     0.181 C 
BRANCH   4   5
ATOM      5  O   UNL     1       8.018  47.524  54.877  1.00  0.00    -0.383 OA
ATOM      6  C   UNL     1       9.097  47.705  53.970  1.00  0.00     0.194 C 
ENDBRANCH   4   5
ENDBRANCH   3   4
ENDBRANCH   1   3
BRANCH   1   7
ATOM      7  C   UNL     1       5.109  45.548  51.986  1.00  0.00     0.226 A 
ATOM      8  N   UNL     1       4.094  44.977  52.661  1.00  0.00    -0.195 NA
ATOM      9  N   UNL     1       5.841  44.961  51.028  1.00  0.00    -0.193 NA
ATOM     10  C   UNL     1       3.728  43.699  52.390  1.00  0.00     0.147 A 
ATOM     11  C   UNL     1       5.477  43.691  50.800  1.00  0.00     0.165 A 
ATOM     12  C   UNL     1       4.456  43.003  51.423  1.00  0.00     0.082 A 
ATOM     13  N   UNL     1       6.036  42.809  49.914  1.00  0.00    -0.250 N 
ATOM     14  C   UNL     1       4.492  41.717  50.848  1.00  0.00     0.149 A 
ATOM     15  N   UNL     1       5.444  41.592  49.915  1.00  0.00    -0.179 NA
ATOM     16  C   UNL     1       7.149  43.055  49.033  1.00  0.00     0.176 C 
BRANCH  10  17
ATOM     17  N   UNL     1       2.667  43.166  53.139  1.00  0.00    -0.339 N 
ATOM     18  H   UNL     1       3.047  42.362  53.636  1.00  0.00     0.168 HD
BRANCH  17  19
ATOM     19  C   UNL     1       1.767  43.877  53.969  1.00  0.00     0.043 A 
ATOM     20  C   UNL     1       2.247  44.738  54.964  1.00  0.00     0.027 A 
ATOM     21  C   UNL     1       0.375  43.623  53.885  1.00  0.00    -0.023 A 
ATOM     22  C   UNL     1       1.373  45.388  55.830  1.00  0.00     0.018 A 
ATOM     23  C   UNL     1      -0.527  44.317  54.740  1.00  0.00    -0.032 A 
ATOM     24  C   UNL     1      -0.002  45.180  55.722  1.00  0.00     0.021 A 
ATOM     25  C   UNL     1      -0.154  42.657  52.850  1.00  0.00     0.047 C 
ATOM     26  C   UNL     1      -2.018  44.100  54.642  1.00  0.00     0.046 C 
ATOM     27  Br  UNL     1      -1.103  46.096  56.975  1.00  0.00    -0.051 Br
ENDBRANCH  17  19
ENDBRANCH  10  17
ENDBRANCH   1   7
TORSDOF 6
ENDMDL
MODEL 16
REMARK VINA RESULT:    -7.217      3.667      7.441
REMARK INTER + INTRA:         -10.741
REMARK INTER:                  -9.890
REMARK INTRA:                  -0.852
REMARK UNBOUND:                -0.992
REMARK SMILES COCCNc1nc(Nc2ccc(Br)c(C)c2C)c2cnn(C)c2n1
REMARK SMILES IDX 5 1 4 3 3 4 2 5 1 6 6 7 7 8 25 9 8 10 24 11 19 12 22 13
REMARK SMILES IDX 20 14 21 15 23 16 9 17 10 19 11 20 17 21 12 22 15 23 13 24
REMARK SMILES IDX 18 25 16 26 14 27
REMARK H PARENT 5 2 9 18
ROOT
ATOM      1  N   UNL     1       5.790  46.775  52.366  1.00  0.00    -0.352 N 
ATOM      2  H   UNL     1       6.689  46.967  51.927  1.00  0.00     0.163 HD
ENDROOT
BRANCH   1   3
ATOM      3  C   UNL     1       5.799  47.010  53.805  1.00  0.00     0.144 C 
BRANCH   3   4
ATOM      4  C   UNL     1       7.071  46.457  54.468  1.00  0.00     0.181 C 
BRANCH   4   5
ATOM      5  O   UNL     1       7.972  47.499  54.863  1.00  0.00    -0.383 OA
ATOM      6  C   UNL     1       8.973  47.777  53.892  1.00  0.00     0.194 C 
ENDBRANCH   4   5
ENDBRANCH   3   4
ENDBRANCH   1   3
BRANCH   1   7
ATOM      7  C   UNL     1       5.458  45.485  51.966  1.00  0.00     0.226 A 
ATOM      8  N   UNL     1       4.492  44.904  52.702  1.00  0.00    -0.195 NA
ATOM      9  N   UNL     1       6.086  44.931  50.920  1.00  0.00    -0.193 NA
ATOM     10  C   UNL     1       4.072  43.649  52.405  1.00  0.00     0.147 A 
ATOM     11  C   UNL     1       5.672  43.682  50.666  1.00  0.00     0.165 A 
ATOM     12  C   UNL     1       4.693  42.986  51.346  1.00  0.00     0.082 A 
ATOM     13  N   UNL     1       6.127  42.833  49.693  1.00  0.00    -0.250 N 
ATOM     14  C   UNL     1       4.645  41.729  50.709  1.00  0.00     0.149 A 
ATOM     15  N   UNL     1       5.507  41.630  49.690  1.00  0.00    -0.179 NA
ATOM     16  C   UNL     1       7.164  43.098  48.728  1.00  0.00     0.176 C 
BRANCH  10  17
ATOM     17  N   UNL     1       3.068  43.102  53.221  1.00  0.00    -0.339 N 
ATOM     18  H   UNL     1       3.322  43.337  54.179  1.00  0.00     0.168 HD
BRANCH  17  19
ATOM     19  C   UNL     1       1.668  43.215  53.041  1.00  0.00     0.043 A 
ATOM     20  C   UNL     1       1.059  42.733  51.875  1.00  0.00     0.027 A 
ATOM     21  C   UNL     1       0.890  43.934  53.982  1.00  0.00    -0.023 A 
ATOM     22  C   UNL     1      -0.305  42.902  51.658  1.00  0.00     0.018 A 
ATOM     23  C   UNL     1      -0.513  44.073  53.787  1.00  0.00    -0.032 A 
ATOM     24  C   UNL     1      -1.086  43.566  52.604  1.00  0.00     0.021 A 
ATOM     25  C   UNL     1       1.542  44.505  55.221  1.00  0.00     0.047 C 
ATOM     26  C   UNL     1      -1.374  44.795  54.796  1.00  0.00     0.046 C 
ATOM     27  Br  UNL     1      -2.933  43.766  52.193  1.00  0.00    -0.051 Br
ENDBRANCH  17  19
ENDBRANCH  10  17
ENDBRANCH   1   7
TORSDOF 6
ENDMDL
MODEL 17
REMARK VINA RESULT:    -7.204      3.357      6.605
REMARK INTER + INTRA:         -10.723
REMARK INTER:                 -10.299
REMARK INTRA:                  -0.424
REMARK UNBOUND:                -0.992
REMARK SMILES COCCNc1nc(Nc2ccc(Br)c(C)c2C)c2cnn(C)c2n1
REMARK SMILES IDX 5 1 4 3 3 4 2 5 1 6 6 7 7 8 25 9 8 10 24 11 19 12 22 13
REMARK SMILES IDX 20 14 21 15 23 16 9 17 10 19 11 20 17 21 12 22 15 23 13 24
REMARK SMILES IDX 18 25 16 26 14 27
REMARK H PARENT 5 2 9 18
ROOT
ATOM      1  N   UNL     1       8.119  46.405  50.748  1.00  0.00    -0.352 N 
ATOM      2  H   UNL     1       8.803  45.767  50.347  1.00  0.00     0.163 HD
ENDROOT
BRANCH   1   3
ATOM      3  C   UNL     1       8.610  47.090  51.939  1.00  0.00     0.144 C 
BRANCH   3   4
ATOM      4  C   UNL     1       9.910  46.462  52.464  1.00  0.00     0.181 C 
BRANCH   4   5
ATOM      5  O   UNL     1       9.889  46.280  53.886  1.00  0.00    -0.383 OA
ATOM      6  C   UNL     1       9.829  47.502  54.610  1.00  0.00     0.194 C 
ENDBRANCH   4   5
ENDBRANCH   3   4
ENDBRANCH   1   3
BRANCH   1   7
ATOM      7  C   UNL     1       6.968  45.644  50.922  1.00  0.00     0.226 A 
ATOM      8  N   UNL     1       5.970  46.279  51.564  1.00  0.00    -0.195 NA
ATOM      9  N   UNL     1       6.925  44.389  50.455  1.00  0.00    -0.193 NA
ATOM     10  C   UNL     1       4.790  45.646  51.785  1.00  0.00     0.147 A 
ATOM     11  C   UNL     1       5.760  43.777  50.711  1.00  0.00     0.165 A 
ATOM     12  C   UNL     1       4.669  44.323  51.356  1.00  0.00     0.082 A 
ATOM     13  N   UNL     1       5.406  42.492  50.398  1.00  0.00    -0.250 N 
ATOM     14  C   UNL     1       3.718  43.283  51.386  1.00  0.00     0.149 A 
ATOM     15  N   UNL     1       4.153  42.165  50.792  1.00  0.00    -0.179 NA
ATOM     16  C   UNL     1       6.216  41.509  49.726  1.00  0.00     0.176 C 
BRANCH  10  17
ATOM     17  N   UNL     1       3.797  46.366  52.469  1.00  0.00    -0.339 N 
ATOM     18  H   UNL     1       3.606  47.191  51.903  1.00  0.00     0.168 HD
BRANCH  17  19
ATOM     19  C   UNL     1       2.595  45.853  53.013  1.00  0.00     0.043 A 
ATOM     20  C   UNL     1       1.471  45.660  52.200  1.00  0.00     0.027 A 
ATOM     21  C   UNL     1       2.480  45.653  54.412  1.00  0.00    -0.023 A 
ATOM     22  C   UNL     1       0.264  45.224  52.738  1.00  0.00     0.018 A 
ATOM     23  C   UNL     1       1.261  45.165  54.962  1.00  0.00    -0.032 A 
ATOM     24  C   UNL     1       0.158  44.978  54.107  1.00  0.00     0.021 A 
ATOM     25  C   UNL     1       3.670  45.906  55.310  1.00  0.00     0.047 C 
ATOM     26  C   UNL     1       1.126  44.900  56.443  1.00  0.00     0.046 C 
ATOM     27  Br  UNL     1      -1.544  44.411  54.740  1.00  0.00    -0.051 Br
ENDBRANCH  17  19
ENDBRANCH  10  17
ENDBRANCH   1   7
TORSDOF 6
ENDMDL
MODEL 18
REMARK VINA RESULT:    -7.181      2.947      5.973
REMARK INTER + INTRA:         -10.692
REMARK INTER:                  -9.721
REMARK INTRA:                  -0.971
REMARK UNBOUND:                -0.992
REMARK SMILES COCCNc1nc(Nc2ccc(Br)c(C)c2C)c2cnn(C)c2n1
REMARK SMILES IDX 5 1 4 3 3 4 2 5 1 6 6 7 7 8 25 9 8 10 24 11 19 12 22 13
REMARK SMILES IDX 20 14 21 15 23 16 9 17 10 19 11 20 17 21 12 22 15 23 13 24
REMARK SMILES IDX 18 25 16 26 14 27
REMARK H PARENT 5 2 9 18
ROOT
ATOM      1  N   UNL     1       5.986  44.033  49.708  1.00  0.00    -0.352 N 
ATOM      2  H   UNL     1       5.008  43.928  49.447  1.00  0.00     0.163 HD
ENDROOT
BRANCH   1   3
ATOM      3  C   UNL     1       6.734  42.784  49.628  1.00  0.00     0.144 C 
BRANCH   3   4
ATOM      4  C   UNL     1       5.842  41.609  49.197  1.00  0.00     0.181 C 
BRANCH   4   5
ATOM      5  O   UNL     1       5.012  41.138  50.267  1.00  0.00    -0.383 OA
ATOM      6  C   UNL     1       3.645  41.002  49.902  1.00  0.00     0.194 C 
ENDBRANCH   4   5
ENDBRANCH   3   4
ENDBRANCH   1   3
BRANCH   1   7
ATOM      7  C   UNL     1       5.965  44.645  50.956  1.00  0.00     0.226 A 
ATOM      8  N   UNL     1       5.146  44.062  51.851  1.00  0.00    -0.195 NA
ATOM      9  N   UNL     1       6.730  45.723  51.181  1.00  0.00    -0.193 NA
ATOM     10  C   UNL     1       5.045  44.560  53.109  1.00  0.00     0.147 A 
ATOM     11  C   UNL     1       6.591  46.211  52.422  1.00  0.00     0.165 A 
ATOM     12  C   UNL     1       5.788  45.700  53.421  1.00  0.00     0.082 A 
ATOM     13  N   UNL     1       7.203  47.312  52.960  1.00  0.00    -0.250 N 
ATOM     14  C   UNL     1       5.983  46.570  54.513  1.00  0.00     0.149 A 
ATOM     15  N   UNL     1       6.855  47.550  54.246  1.00  0.00    -0.179 NA
ATOM     16  C   UNL     1       8.131  48.195  52.301  1.00  0.00     0.176 C 
BRANCH  10  17
ATOM     17  N   UNL     1       4.164  43.906  53.987  1.00  0.00    -0.339 N 
ATOM     18  H   UNL     1       4.719  43.644  54.800  1.00  0.00     0.168 HD
BRANCH  17  19
ATOM     19  C   UNL     1       2.879  44.345  54.387  1.00  0.00     0.043 A 
ATOM     20  C   UNL     1       2.734  45.244  55.452  1.00  0.00     0.027 A 
ATOM     21  C   UNL     1       1.722  43.776  53.799  1.00  0.00    -0.023 A 
ATOM     22  C   UNL     1       1.473  45.626  55.899  1.00  0.00     0.018 A 
ATOM     23  C   UNL     1       0.429  44.196  54.222  1.00  0.00    -0.032 A 
ATOM     24  C   UNL     1       0.329  45.108  55.291  1.00  0.00     0.021 A 
ATOM     25  C   UNL     1       1.863  42.766  52.682  1.00  0.00     0.047 C 
ATOM     26  C   UNL     1      -0.820  43.640  53.580  1.00  0.00     0.046 C 
ATOM     27  Br  UNL     1      -1.342  45.676  55.999  1.00  0.00    -0.051 Br
ENDBRANCH  17  19
ENDBRANCH  10  17
ENDBRANCH   1   7
TORSDOF 6
ENDMDL
MODEL 19
REMARK VINA RESULT:    -7.080      1.800      2.039
REMARK INTER + INTRA:         -10.555
REMARK INTER:                 -10.257
REMARK INTRA:                  -0.299
REMARK UNBOUND:                -0.992
REMARK SMILES COCCNc1nc(Nc2ccc(Br)c(C)c2C)c2cnn(C)c2n1
REMARK SMILES IDX 5 1 4 3 3 4 2 5 1 6 6 7 7 8 25 9 8 10 24 11 19 12 22 13
REMARK SMILES IDX 20 14 21 15 23 16 9 17 10 19 11 20 17 21 12 22 15 23 13 24
REMARK SMILES IDX 18 25 16 26 14 27
REMARK H PARENT 5 2 9 18
ROOT
ATOM      1  N   UNL     1       3.754  41.208  50.941  1.00  0.00    -0.352 N 
ATOM      2  H   UNL     1       4.352  41.013  51.742  1.00  0.00     0.163 HD
ENDROOT
BRANCH   1   3
ATOM      3  C   UNL     1       4.500  41.362  49.698  1.00  0.00     0.144 C 
BRANCH   3   4
ATOM      4  C   UNL     1       5.979  41.690  49.954  1.00  0.00     0.181 C 
BRANCH   4   5
ATOM      5  O   UNL     1       6.266  43.083  49.772  1.00  0.00    -0.383 OA
ATOM      6  C   UNL     1       7.564  43.326  49.245  1.00  0.00     0.194 C 
ENDBRANCH   4   5
ENDBRANCH   3   4
ENDBRANCH   1   3
BRANCH   1   7
ATOM      7  C   UNL     1       2.982  42.299  51.322  1.00  0.00     0.226 A 
ATOM      8  N   UNL     1       3.616  43.185  52.113  1.00  0.00    -0.195 NA
ATOM      9  N   UNL     1       1.716  42.400  50.892  1.00  0.00    -0.193 NA
ATOM     10  C   UNL     1       2.972  44.298  52.543  1.00  0.00     0.147 A 
ATOM     11  C   UNL     1       1.095  43.495  51.353  1.00  0.00     0.165 A 
ATOM     12  C   UNL     1       1.639  44.469  52.165  1.00  0.00     0.082 A 
ATOM     13  N   UNL     1      -0.201  43.876  51.129  1.00  0.00    -0.250 N 
ATOM     14  C   UNL     1       0.588  45.384  52.375  1.00  0.00     0.149 A 
ATOM     15  N   UNL     1      -0.537  45.038  51.736  1.00  0.00    -0.179 NA
ATOM     16  C   UNL     1      -1.187  43.176  50.346  1.00  0.00     0.176 C 
BRANCH  10  17
ATOM     17  N   UNL     1       3.693  45.173  53.373  1.00  0.00    -0.339 N 
ATOM     18  H   UNL     1       3.399  44.964  54.327  1.00  0.00     0.168 HD
BRANCH  17  19
ATOM     19  C   UNL     1       5.084  45.434  53.333  1.00  0.00     0.043 A 
ATOM     20  C   UNL     1       5.850  45.390  54.506  1.00  0.00     0.027 A 
ATOM     21  C   UNL     1       5.687  45.870  52.128  1.00  0.00    -0.023 A 
ATOM     22  C   UNL     1       7.203  45.713  54.488  1.00  0.00     0.018 A 
ATOM     23  C   UNL     1       7.080  46.161  52.094  1.00  0.00    -0.032 A 
ATOM     24  C   UNL     1       7.815  46.096  53.294  1.00  0.00     0.021 A 
ATOM     25  C   UNL     1       4.861  45.972  50.865  1.00  0.00     0.047 C 
ATOM     26  C   UNL     1       7.758  46.583  50.813  1.00  0.00     0.046 C 
ATOM     27  Br  UNL     1       9.661  46.543  53.390  1.00  0.00    -0.051 Br
ENDBRANCH  17  19
ENDBRANCH  10  17
ENDBRANCH   1   7
TORSDOF 6
ENDMDL
MODEL 20
REMARK VINA RESULT:    -7.049      2.088      2.734
REMARK INTER + INTRA:         -10.514
REMARK INTER:                  -9.916
REMARK INTRA:                  -0.598
REMARK UNBOUND:                -0.992
REMARK SMILES COCCNc1nc(Nc2ccc(Br)c(C)c2C)c2cnn(C)c2n1
REMARK SMILES IDX 5 1 4 3 3 4 2 5 1 6 6 7 7 8 25 9 8 10 24 11 19 12 22 13
REMARK SMILES IDX 20 14 21 15 23 16 9 17 10 19 11 20 17 21 12 22 15 23 13 24
REMARK SMILES IDX 18 25 16 26 14 27
REMARK H PARENT 5 2 9 18
ROOT
ATOM      1  N   UNL     1       3.499  40.790  50.264  1.00  0.00    -0.352 N 
ATOM      2  H   UNL     1       4.185  40.446  50.932  1.00  0.00     0.163 HD
ENDROOT
BRANCH   1   3
ATOM      3  C   UNL     1       4.053  40.990  48.930  1.00  0.00     0.144 C 
BRANCH   3   4
ATOM      4  C   UNL     1       3.496  39.973  47.921  1.00  0.00     0.181 C 
BRANCH   4   5
ATOM      5  O   UNL     1       2.756  40.603  46.867  1.00  0.00    -0.383 OA
ATOM      6  C   UNL     1       3.505  40.761  45.670  1.00  0.00     0.194 C 
ENDBRANCH   4   5
ENDBRANCH   3   4
ENDBRANCH   1   3
BRANCH   1   7
ATOM      7  C   UNL     1       2.943  41.916  50.861  1.00  0.00     0.226 A 
ATOM      8  N   UNL     1       3.771  42.573  51.694  1.00  0.00    -0.195 NA
ATOM      9  N   UNL     1       1.679  42.263  50.579  1.00  0.00    -0.193 NA
ATOM     10  C   UNL     1       3.349  43.694  52.331  1.00  0.00     0.147 A 
ATOM     11  C   UNL     1       1.279  43.358  51.241  1.00  0.00     0.165 A 
ATOM     12  C   UNL     1       2.035  44.112  52.115  1.00  0.00     0.082 A 
ATOM     13  N   UNL     1       0.047  43.954  51.201  1.00  0.00    -0.250 N 
ATOM     14  C   UNL     1       1.163  45.130  52.550  1.00  0.00     0.149 A 
ATOM     15  N   UNL     1      -0.049  45.051  51.988  1.00  0.00    -0.179 NA
ATOM     16  C   UNL     1      -1.097  43.527  50.437  1.00  0.00     0.176 C 
BRANCH  10  17
ATOM     17  N   UNL     1       4.264  44.322  53.193  1.00  0.00    -0.339 N 
ATOM     18  H   UNL     1       4.540  43.617  53.875  1.00  0.00     0.168 HD
BRANCH  17  19
ATOM     19  C   UNL     1       5.379  45.112  52.823  1.00  0.00     0.043 A 
ATOM     20  C   UNL     1       5.743  45.244  51.476  1.00  0.00     0.027 A 
ATOM     21  C   UNL     1       6.214  45.670  53.823  1.00  0.00    -0.023 A 
ATOM     22  C   UNL     1       6.877  45.960  51.109  1.00  0.00     0.018 A 
ATOM     23  C   UNL     1       7.352  46.440  53.451  1.00  0.00    -0.032 A 
ATOM     24  C   UNL     1       7.676  46.554  52.086  1.00  0.00     0.021 A 
ATOM     25  C   UNL     1       5.862  45.493  55.283  1.00  0.00     0.047 C 
ATOM     26  C   UNL     1       8.232  47.084  54.496  1.00  0.00     0.046 C 
ATOM     27  Br  UNL     1       9.218  47.485  51.473  1.00  0.00    -0.051 Br
ENDBRANCH  17  19
ENDBRANCH  10  17
ENDBRANCH   1   7
TORSDOF 6
ENDMDL
