MODEL 1
REMARK VINA RESULT:    -9.242      0.000      0.000
REMARK INTER + INTRA:         -13.534
REMARK INTER:                 -12.483
REMARK INTRA:                  -1.051
REMARK UNBOUND:                -1.051
REMARK SMILES COc1ccc(Nc2nc(NCc3ccccc3)c3nccnc3n2)cc1
REMARK SMILES IDX 8 1 9 2 10 3 19 4 20 5 21 6 22 7 23 8 24 9 25 10 7 11 6 13
REMARK SMILES IDX 3 14 4 15 27 16 5 17 26 18 2 19 1 20 11 21 12 23 13 24 14 25
REMARK SMILES IDX 18 26 15 27 17 28 16 29
REMARK H PARENT 7 12 11 22
ROOT
ATOM      1  C   UNL     1       5.428  46.845  53.882  1.00  0.00     0.231 A 
ATOM      2  N   UNL     1       5.648  46.250  52.706  1.00  0.00    -0.193 NA
ATOM      3  C   UNL     1       6.921  46.109  52.294  1.00  0.00     0.160 A 
ATOM      4  C   UNL     1       8.018  46.564  53.028  1.00  0.00     0.150 A 
ATOM      5  N   UNL     1       9.331  46.447  52.642  1.00  0.00    -0.247 NA
ATOM      6  C   UNL     1      10.256  46.950  53.478  1.00  0.00     0.132 A 
ATOM      7  C   UNL     1       9.898  47.542  54.665  1.00  0.00     0.133 A 
ATOM      8  N   UNL     1       8.609  47.651  55.054  1.00  0.00    -0.233 NA
ATOM      9  C   UNL     1       7.660  47.169  54.241  1.00  0.00     0.185 A 
ATOM     10  N   UNL     1       6.409  47.299  54.656  1.00  0.00    -0.191 NA
ENDROOT
BRANCH   1  11
ATOM     11  N   UNL     1       4.088  46.953  54.242  1.00  0.00    -0.324 N 
ATOM     12  H   UNL     1       3.960  47.791  54.790  1.00  0.00     0.170 HD
BRANCH  11  13
ATOM     13  C   UNL     1       2.963  46.148  54.046  1.00  0.00     0.041 A 
ATOM     14  C   UNL     1       0.657  44.581  53.512  1.00  0.00     0.119 A 
ATOM     15  C   UNL     1       1.432  44.351  54.648  1.00  0.00     0.048 A 
ATOM     16  C   UNL     1       1.033  45.595  52.637  1.00  0.00     0.048 A 
ATOM     17  C   UNL     1       2.570  45.124  54.910  1.00  0.00     0.030 A 
ATOM     18  C   UNL     1       2.174  46.366  52.904  1.00  0.00     0.030 A 
BRANCH  14  19
ATOM     19  O   UNL     1      -0.424  43.756  53.376  1.00  0.00    -0.497 OA
ATOM     20  C   UNL     1      -0.176  42.357  53.431  1.00  0.00     0.278 C 
ENDBRANCH  14  19
ENDBRANCH  11  13
ENDBRANCH   1  11
BRANCH   3  21
ATOM     21  N   UNL     1       7.019  45.503  51.035  1.00  0.00    -0.364 N 
ATOM     22  H   UNL     1       7.709  46.029  50.504  1.00  0.00     0.162 HD
BRANCH  21  23
ATOM     23  C   UNL     1       5.779  45.278  50.309  1.00  0.00     0.150 C 
BRANCH  23  24
ATOM     24  C   UNL     1       5.345  43.843  50.511  1.00  0.00    -0.029 A 
ATOM     25  C   UNL     1       4.218  43.537  51.287  1.00  0.00     0.005 A 
ATOM     26  C   UNL     1       6.047  42.798  49.890  1.00  0.00     0.005 A 
ATOM     27  C   UNL     1       3.813  42.212  51.454  1.00  0.00     0.000 A 
ATOM     28  C   UNL     1       5.639  41.474  50.058  1.00  0.00     0.000 A 
ATOM     29  C   UNL     1       4.524  41.182  50.841  1.00  0.00     0.000 A 
ENDBRANCH  23  24
ENDBRANCH  21  23
ENDBRANCH   3  21
TORSDOF 6
ENDMDL
MODEL 2
REMARK VINA RESULT:    -9.037      2.299      5.281
REMARK INTER + INTRA:         -13.258
REMARK INTER:                 -12.573
REMARK INTRA:                  -0.685
REMARK UNBOUND:                -1.051
REMARK SMILES COc1ccc(Nc2nc(NCc3ccccc3)c3nccnc3n2)cc1
REMARK SMILES IDX 8 1 9 2 10 3 19 4 20 5 21 6 22 7 23 8 24 9 25 10 7 11 6 13
REMARK SMILES IDX 3 14 4 15 27 16 5 17 26 18 2 19 1 20 11 21 12 23 13 24 14 25
REMARK SMILES IDX 18 26 15 27 17 28 16 29
REMARK H PARENT 7 12 11 22
ROOT
ATOM      1  C   UNL     1       2.917  43.618  52.256  1.00  0.00     0.231 A 
ATOM      2  N   UNL     1       3.522  44.808  52.204  1.00  0.00    -0.193 NA
ATOM      3  C   UNL     1       4.682  44.901  51.528  1.00  0.00     0.160 A 
ATOM      4  C   UNL     1       5.286  43.815  50.891  1.00  0.00     0.150 A 
ATOM      5  N   UNL     1       6.471  43.865  50.198  1.00  0.00    -0.247 NA
ATOM      6  C   UNL     1       6.903  42.713  49.654  1.00  0.00     0.132 A 
ATOM      7  C   UNL     1       6.183  41.550  49.780  1.00  0.00     0.133 A 
ATOM      8  N   UNL     1       5.013  41.499  50.452  1.00  0.00    -0.233 NA
ATOM      9  C   UNL     1       4.557  42.624  51.016  1.00  0.00     0.185 A 
ATOM     10  N   UNL     1       3.408  42.531  51.670  1.00  0.00    -0.191 NA
ENDROOT
BRANCH   1  11
ATOM     11  N   UNL     1       1.722  43.600  52.969  1.00  0.00    -0.324 N 
ATOM     12  H   UNL     1       1.048  43.038  52.471  1.00  0.00     0.170 HD
BRANCH  11  13
ATOM     13  C   UNL     1       1.286  44.213  54.147  1.00  0.00     0.041 A 
ATOM     14  C   UNL     1       0.258  45.414  56.505  1.00  0.00     0.119 A 
ATOM     15  C   UNL     1       1.631  45.367  56.265  1.00  0.00     0.048 A 
ATOM     16  C   UNL     1      -0.607  44.859  55.568  1.00  0.00     0.048 A 
ATOM     17  C   UNL     1       2.137  44.773  55.101  1.00  0.00     0.030 A 
ATOM     18  C   UNL     1      -0.094  44.265  54.405  1.00  0.00     0.030 A 
BRANCH  14  19
ATOM     19  O   UNL     1      -0.101  46.021  57.676  1.00  0.00    -0.497 OA
ATOM     20  C   UNL     1       0.895  46.800  58.327  1.00  0.00     0.278 C 
ENDBRANCH  14  19
ENDBRANCH  11  13
ENDBRANCH   1  11
BRANCH   3  21
ATOM     21  N   UNL     1       5.235  46.187  51.575  1.00  0.00    -0.364 N 
ATOM     22  H   UNL     1       5.999  46.208  50.904  1.00  0.00     0.162 HD
BRANCH  21  23
ATOM     23  C   UNL     1       5.601  46.704  52.884  1.00  0.00     0.150 C 
BRANCH  23  24
ATOM     24  C   UNL     1       7.106  46.828  52.960  1.00  0.00    -0.029 A 
ATOM     25  C   UNL     1       7.890  46.769  51.798  1.00  0.00     0.005 A 
ATOM     26  C   UNL     1       7.737  47.041  54.195  1.00  0.00     0.005 A 
ATOM     27  C   UNL     1       9.278  46.903  51.874  1.00  0.00     0.000 A 
ATOM     28  C   UNL     1       9.125  47.175  54.268  1.00  0.00     0.000 A 
ATOM     29  C   UNL     1       9.894  47.103  53.108  1.00  0.00     0.000 A 
ENDBRANCH  23  24
ENDBRANCH  21  23
ENDBRANCH   3  21
TORSDOF 6
ENDMDL
MODEL 3
REMARK VINA RESULT:    -9.009      2.858      6.451
REMARK INTER + INTRA:         -13.220
REMARK INTER:                 -12.130
REMARK INTRA:                  -1.090
REMARK UNBOUND:                -1.051
REMARK SMILES COc1ccc(Nc2nc(NCc3ccccc3)c3nccnc3n2)cc1
REMARK SMILES IDX 8 1 9 2 10 3 19 4 20 5 21 6 22 7 23 8 24 9 25 10 7 11 6 13
REMARK SMILES IDX 3 14 4 15 27 16 5 17 26 18 2 19 1 20 11 21 12 23 13 24 14 25
REMARK SMILES IDX 18 26 15 27 17 28 16 29
REMARK H PARENT 7 12 11 22
ROOT
ATOM      1  C   UNL     1       3.492  45.836  54.034  1.00  0.00     0.231 A 
ATOM      2  N   UNL     1       3.875  44.704  53.435  1.00  0.00    -0.193 NA
ATOM      3  C   UNL     1       2.965  43.723  53.292  1.00  0.00     0.160 A 
ATOM      4  C   UNL     1       1.650  43.826  53.748  1.00  0.00     0.150 A 
ATOM      5  N   UNL     1       0.693  42.847  53.629  1.00  0.00    -0.247 NA
ATOM      6  C   UNL     1      -0.522  43.123  54.135  1.00  0.00     0.132 A 
ATOM      7  C   UNL     1      -0.789  44.332  54.729  1.00  0.00     0.133 A 
ATOM      8  N   UNL     1       0.145  45.301  54.840  1.00  0.00    -0.233 NA
ATOM      9  C   UNL     1       1.370  45.057  54.357  1.00  0.00     0.185 A 
ATOM     10  N   UNL     1       2.259  46.031  54.488  1.00  0.00    -0.191 NA
ENDROOT
BRANCH   1  11
ATOM     11  N   UNL     1       4.485  46.805  54.143  1.00  0.00    -0.324 N 
ATOM     12  H   UNL     1       4.110  47.608  54.626  1.00  0.00     0.170 HD
BRANCH  11  13
ATOM     13  C   UNL     1       5.807  46.895  53.697  1.00  0.00     0.041 A 
ATOM     14  C   UNL     1       8.536  47.045  52.933  1.00  0.00     0.119 A 
ATOM     15  C   UNL     1       7.520  47.155  51.985  1.00  0.00     0.048 A 
ATOM     16  C   UNL     1       8.192  46.858  54.267  1.00  0.00     0.048 A 
ATOM     17  C   UNL     1       6.173  47.080  52.363  1.00  0.00     0.030 A 
ATOM     18  C   UNL     1       6.842  46.783  54.640  1.00  0.00     0.030 A 
BRANCH  14  19
ATOM     19  O   UNL     1       9.804  47.135  52.431  1.00  0.00    -0.497 OA
ATOM     20  C   UNL     1      10.303  45.998  51.738  1.00  0.00     0.278 C 
ENDBRANCH  14  19
ENDBRANCH  11  13
ENDBRANCH   1  11
BRANCH   3  21
ATOM     21  N   UNL     1       3.496  42.578  52.683  1.00  0.00    -0.364 N 
ATOM     22  H   UNL     1       4.433  42.449  53.056  1.00  0.00     0.162 HD
BRANCH  21  23
ATOM     23  C   UNL     1       3.436  42.511  51.232  1.00  0.00     0.150 C 
BRANCH  23  24
ATOM     24  C   UNL     1       4.837  42.635  50.676  1.00  0.00    -0.029 A 
ATOM     25  C   UNL     1       5.539  41.501  50.243  1.00  0.00     0.005 A 
ATOM     26  C   UNL     1       5.440  43.896  50.552  1.00  0.00     0.005 A 
ATOM     27  C   UNL     1       6.826  41.625  49.714  1.00  0.00     0.000 A 
ATOM     28  C   UNL     1       6.726  44.017  50.022  1.00  0.00     0.000 A 
ATOM     29  C   UNL     1       7.418  42.882  49.607  1.00  0.00     0.000 A 
ENDBRANCH  23  24
ENDBRANCH  21  23
ENDBRANCH   3  21
TORSDOF 6
ENDMDL
MODEL 4
REMARK VINA RESULT:    -8.929      2.036      5.172
REMARK INTER + INTRA:         -13.112
REMARK INTER:                 -12.397
REMARK INTRA:                  -0.715
REMARK UNBOUND:                -1.051
REMARK SMILES COc1ccc(Nc2nc(NCc3ccccc3)c3nccnc3n2)cc1
REMARK SMILES IDX 8 1 9 2 10 3 19 4 20 5 21 6 22 7 23 8 24 9 25 10 7 11 6 13
REMARK SMILES IDX 3 14 4 15 27 16 5 17 26 18 2 19 1 20 11 21 12 23 13 24 14 25
REMARK SMILES IDX 18 26 15 27 17 28 16 29
REMARK H PARENT 7 12 11 22
ROOT
ATOM      1  C   UNL     1       3.635  43.714  52.766  1.00  0.00     0.231 A 
ATOM      2  N   UNL     1       4.292  44.847  52.500  1.00  0.00    -0.193 NA
ATOM      3  C   UNL     1       5.181  44.843  51.489  1.00  0.00     0.160 A 
ATOM      4  C   UNL     1       5.456  43.713  50.716  1.00  0.00     0.150 A 
ATOM      5  N   UNL     1       6.358  43.664  49.681  1.00  0.00    -0.247 NA
ATOM      6  C   UNL     1       6.494  42.483  49.052  1.00  0.00     0.132 A 
ATOM      7  C   UNL     1       5.755  41.387  49.424  1.00  0.00     0.133 A 
ATOM      8  N   UNL     1       4.860  41.433  50.434  1.00  0.00    -0.233 NA
ATOM      9  C   UNL     1       4.705  42.590  51.090  1.00  0.00     0.185 A 
ATOM     10  N   UNL     1       3.820  42.593  52.076  1.00  0.00    -0.191 NA
ENDROOT
BRANCH   1  11
ATOM     11  N   UNL     1       2.733  43.795  53.822  1.00  0.00    -0.324 N 
ATOM     12  H   UNL     1       3.244  43.874  54.688  1.00  0.00     0.170 HD
BRANCH  11  13
ATOM     13  C   UNL     1       1.339  43.742  53.914  1.00  0.00     0.041 A 
ATOM     14  C   UNL     1      -1.484  43.742  54.208  1.00  0.00     0.119 A 
ATOM     15  C   UNL     1      -0.868  42.984  53.213  1.00  0.00     0.048 A 
ATOM     16  C   UNL     1      -0.692  44.505  55.058  1.00  0.00     0.048 A 
ATOM     17  C   UNL     1       0.526  42.986  53.068  1.00  0.00     0.030 A 
ATOM     18  C   UNL     1       0.703  44.503  54.908  1.00  0.00     0.030 A 
BRANCH  14  19
ATOM     19  O   UNL     1      -2.847  43.651  54.239  1.00  0.00    -0.497 OA
ATOM     20  C   UNL     1      -3.577  44.858  54.061  1.00  0.00     0.278 C 
ENDBRANCH  14  19
ENDBRANCH  11  13
ENDBRANCH   1  11
BRANCH   3  21
ATOM     21  N   UNL     1       5.828  46.075  51.332  1.00  0.00    -0.364 N 
ATOM     22  H   UNL     1       6.687  45.897  50.816  1.00  0.00     0.162 HD
BRANCH  21  23
ATOM     23  C   UNL     1       6.027  46.877  52.528  1.00  0.00     0.150 C 
BRANCH  23  24
ATOM     24  C   UNL     1       7.505  46.933  52.841  1.00  0.00    -0.029 A 
ATOM     25  C   UNL     1       7.953  47.246  54.133  1.00  0.00     0.005 A 
ATOM     26  C   UNL     1       8.450  46.635  51.848  1.00  0.00     0.005 A 
ATOM     27  C   UNL     1       9.319  47.278  54.420  1.00  0.00     0.000 A 
ATOM     28  C   UNL     1       9.816  46.667  52.137  1.00  0.00     0.000 A 
ATOM     29  C   UNL     1      10.249  46.991  53.422  1.00  0.00     0.000 A 
ENDBRANCH  23  24
ENDBRANCH  21  23
ENDBRANCH   3  21
TORSDOF 6
ENDMDL
MODEL 5
REMARK VINA RESULT:    -8.765      2.851      7.183
REMARK INTER + INTRA:         -12.891
REMARK INTER:                 -12.338
REMARK INTRA:                  -0.553
REMARK UNBOUND:                -1.051
REMARK SMILES COc1ccc(Nc2nc(NCc3ccccc3)c3nccnc3n2)cc1
REMARK SMILES IDX 8 1 9 2 10 3 19 4 20 5 21 6 22 7 23 8 24 9 25 10 7 11 6 13
REMARK SMILES IDX 3 14 4 15 27 16 5 17 26 18 2 19 1 20 11 21 12 23 13 24 14 25
REMARK SMILES IDX 18 26 15 27 17 28 16 29
REMARK H PARENT 7 12 11 22
ROOT
ATOM      1  C   UNL     1       6.446  44.845  51.097  1.00  0.00     0.231 A 
ATOM      2  N   UNL     1       5.476  44.722  52.007  1.00  0.00    -0.193 NA
ATOM      3  C   UNL     1       4.625  43.685  51.892  1.00  0.00     0.160 A 
ATOM      4  C   UNL     1       4.702  42.743  50.864  1.00  0.00     0.150 A 
ATOM      5  N   UNL     1       3.851  41.676  50.705  1.00  0.00    -0.247 NA
ATOM      6  C   UNL     1       4.076  40.874  49.649  1.00  0.00     0.132 A 
ATOM      7  C   UNL     1       5.115  41.112  48.781  1.00  0.00     0.133 A 
ATOM      8  N   UNL     1       5.958  42.154  48.939  1.00  0.00    -0.233 NA
ATOM      9  C   UNL     1       5.759  42.979  49.975  1.00  0.00     0.185 A 
ATOM     10  N   UNL     1       6.606  43.991  50.092  1.00  0.00    -0.191 NA
ENDROOT
BRANCH   1  11
ATOM     11  N   UNL     1       7.287  45.938  51.283  1.00  0.00    -0.324 N 
ATOM     12  H   UNL     1       7.464  46.374  50.390  1.00  0.00     0.170 HD
BRANCH  11  13
ATOM     13  C   UNL     1       7.935  46.487  52.394  1.00  0.00     0.041 A 
ATOM     14  C   UNL     1       9.382  47.584  54.576  1.00  0.00     0.119 A 
ATOM     15  C   UNL     1       7.988  47.567  54.577  1.00  0.00     0.048 A 
ATOM     16  C   UNL     1      10.058  47.054  53.482  1.00  0.00     0.048 A 
ATOM     17  C   UNL     1       7.274  47.026  53.499  1.00  0.00     0.030 A 
ATOM     18  C   UNL     1       9.339  46.515  52.405  1.00  0.00     0.030 A 
BRANCH  14  19
ATOM     19  O   UNL     1       9.952  48.139  55.687  1.00  0.00    -0.497 OA
ATOM     20  C   UNL     1      11.097  47.484  56.217  1.00  0.00     0.278 C 
ENDBRANCH  14  19
ENDBRANCH  11  13
ENDBRANCH   1  11
BRANCH   3  21
ATOM     21  N   UNL     1       3.635  43.684  52.882  1.00  0.00    -0.364 N 
ATOM     22  H   UNL     1       2.778  43.351  52.447  1.00  0.00     0.162 HD
BRANCH  21  23
ATOM     23  C   UNL     1       3.458  44.910  53.644  1.00  0.00     0.150 C 
BRANCH  23  24
ATOM     24  C   UNL     1       2.141  44.841  54.386  1.00  0.00    -0.029 A 
ATOM     25  C   UNL     1       1.007  44.279  53.783  1.00  0.00     0.005 A 
ATOM     26  C   UNL     1       2.049  45.307  55.706  1.00  0.00     0.005 A 
ATOM     27  C   UNL     1      -0.200  44.202  54.481  1.00  0.00     0.000 A 
ATOM     28  C   UNL     1       0.841  45.229  56.402  1.00  0.00     0.000 A 
ATOM     29  C   UNL     1      -0.282  44.679  55.788  1.00  0.00     0.000 A 
ENDBRANCH  23  24
ENDBRANCH  21  23
ENDBRANCH   3  21
TORSDOF 6
ENDMDL
MODEL 6
REMARK VINA RESULT:    -8.759      3.434      7.270
REMARK INTER + INTRA:         -12.883
REMARK INTER:                 -12.112
REMARK INTRA:                  -0.771
REMARK UNBOUND:                -1.051
REMARK SMILES COc1ccc(Nc2nc(NCc3ccccc3)c3nccnc3n2)cc1
REMARK SMILES IDX 8 1 9 2 10 3 19 4 20 5 21 6 22 7 23 8 24 9 25 10 7 11 6 13
REMARK SMILES IDX 3 14 4 15 27 16 5 17 26 18 2 19 1 20 11 21 12 23 13 24 14 25
REMARK SMILES IDX 18 26 15 27 17 28 16 29
REMARK H PARENT 7 12 11 22
ROOT
ATOM      1  C   UNL     1       4.590  42.481  50.789  1.00  0.00     0.231 A 
ATOM      2  N   UNL     1       5.259  43.636  50.830  1.00  0.00    -0.193 NA
ATOM      3  C   UNL     1       4.828  44.590  51.677  1.00  0.00     0.160 A 
ATOM      4  C   UNL     1       3.713  44.433  52.502  1.00  0.00     0.150 A 
ATOM      5  N   UNL     1       3.235  45.382  53.374  1.00  0.00    -0.247 NA
ATOM      6  C   UNL     1       2.142  45.054  54.086  1.00  0.00     0.132 A 
ATOM      7  C   UNL     1       1.544  43.825  53.950  1.00  0.00     0.133 A 
ATOM      8  N   UNL     1       2.016  42.886  53.102  1.00  0.00    -0.233 NA
ATOM      9  C   UNL     1       3.097  43.181  52.369  1.00  0.00     0.185 A 
ATOM     10  N   UNL     1       3.526  42.235  51.546  1.00  0.00    -0.191 NA
ENDROOT
BRANCH   1  11
ATOM     11  N   UNL     1       5.095  41.543  49.893  1.00  0.00    -0.324 N 
ATOM     12  H   UNL     1       5.773  40.965  50.367  1.00  0.00     0.170 HD
BRANCH  11  13
ATOM     13  C   UNL     1       4.894  41.296  48.532  1.00  0.00     0.041 A 
ATOM     14  C   UNL     1       4.359  40.718  45.805  1.00  0.00     0.119 A 
ATOM     15  C   UNL     1       5.428  41.536  46.167  1.00  0.00     0.048 A 
ATOM     16  C   UNL     1       3.551  40.187  46.805  1.00  0.00     0.048 A 
ATOM     17  C   UNL     1       5.691  41.821  47.513  1.00  0.00     0.030 A 
ATOM     18  C   UNL     1       3.819  40.476  48.151  1.00  0.00     0.030 A 
BRANCH  14  19
ATOM     19  O   UNL     1       4.214  40.522  44.461  1.00  0.00    -0.497 OA
ATOM     20  C   UNL     1       5.408  40.397  43.698  1.00  0.00     0.278 C 
ENDBRANCH  14  19
ENDBRANCH  11  13
ENDBRANCH   1  11
BRANCH   3  21
ATOM     21  N   UNL     1       5.589  45.764  51.603  1.00  0.00    -0.364 N 
ATOM     22  H   UNL     1       4.987  46.484  51.211  1.00  0.00     0.162 HD
BRANCH  21  23
ATOM     23  C   UNL     1       6.885  45.674  50.951  1.00  0.00     0.150 C 
BRANCH  23  24
ATOM     24  C   UNL     1       7.946  46.201  51.891  1.00  0.00    -0.029 A 
ATOM     25  C   UNL     1       9.307  46.068  51.582  1.00  0.00     0.005 A 
ATOM     26  C   UNL     1       7.578  46.867  53.070  1.00  0.00     0.005 A 
ATOM     27  C   UNL     1      10.281  46.574  52.446  1.00  0.00     0.000 A 
ATOM     28  C   UNL     1       8.554  47.372  53.932  1.00  0.00     0.000 A 
ATOM     29  C   UNL     1       9.904  47.223  53.620  1.00  0.00     0.000 A 
ENDBRANCH  23  24
ENDBRANCH  21  23
ENDBRANCH   3  21
TORSDOF 6
ENDMDL
MODEL 7
REMARK VINA RESULT:    -8.759      3.027      7.223
REMARK INTER + INTRA:         -12.882
REMARK INTER:                 -12.084
REMARK INTRA:                  -0.798
REMARK UNBOUND:                -1.051
REMARK SMILES COc1ccc(Nc2nc(NCc3ccccc3)c3nccnc3n2)cc1
REMARK SMILES IDX 8 1 9 2 10 3 19 4 20 5 21 6 22 7 23 8 24 9 25 10 7 11 6 13
REMARK SMILES IDX 3 14 4 15 27 16 5 17 26 18 2 19 1 20 11 21 12 23 13 24 14 25
REMARK SMILES IDX 18 26 15 27 17 28 16 29
REMARK H PARENT 7 12 11 22
ROOT
ATOM      1  C   UNL     1       2.411  43.018  52.610  1.00  0.00     0.231 A 
ATOM      2  N   UNL     1       3.044  44.085  53.108  1.00  0.00    -0.193 NA
ATOM      3  C   UNL     1       2.399  44.840  54.015  1.00  0.00     0.160 A 
ATOM      4  C   UNL     1       1.100  44.570  54.450  1.00  0.00     0.150 A 
ATOM      5  N   UNL     1       0.402  45.319  55.368  1.00  0.00    -0.247 NA
ATOM      6  C   UNL     1      -0.844  44.908  55.662  1.00  0.00     0.132 A 
ATOM      7  C   UNL     1      -1.383  43.788  55.077  1.00  0.00     0.133 A 
ATOM      8  N   UNL     1      -0.698  43.044  54.182  1.00  0.00    -0.233 NA
ATOM      9  C   UNL     1       0.543  43.429  53.858  1.00  0.00     0.185 A 
ATOM     10  N   UNL     1       1.180  42.675  52.974  1.00  0.00    -0.191 NA
ENDROOT
BRANCH   1  11
ATOM     11  N   UNL     1       3.142  42.285  51.680  1.00  0.00    -0.324 N 
ATOM     12  H   UNL     1       2.678  41.404  51.516  1.00  0.00     0.170 HD
BRANCH  11  13
ATOM     13  C   UNL     1       4.349  42.499  51.008  1.00  0.00     0.041 A 
ATOM     14  C   UNL     1       6.798  42.786  49.602  1.00  0.00     0.119 A 
ATOM     15  C   UNL     1       6.152  43.894  50.149  1.00  0.00     0.048 A 
ATOM     16  C   UNL     1       6.221  41.530  49.754  1.00  0.00     0.048 A 
ATOM     17  C   UNL     1       4.943  43.751  50.842  1.00  0.00     0.030 A 
ATOM     18  C   UNL     1       5.010  41.393  50.448  1.00  0.00     0.030 A 
BRANCH  14  19
ATOM     19  O   UNL     1       7.968  43.065  48.953  1.00  0.00    -0.497 OA
ATOM     20  C   UNL     1       8.649  44.253  49.337  1.00  0.00     0.278 C 
ENDBRANCH  14  19
ENDBRANCH  11  13
ENDBRANCH   1  11
BRANCH   3  21
ATOM     21  N   UNL     1       3.151  45.945  54.434  1.00  0.00    -0.364 N 
ATOM     22  H   UNL     1       2.622  46.403  55.173  1.00  0.00     0.162 HD
BRANCH  21  23
ATOM     23  C   UNL     1       3.617  46.859  53.404  1.00  0.00     0.150 C 
BRANCH  23  24
ATOM     24  C   UNL     1       5.130  46.845  53.383  1.00  0.00    -0.029 A 
ATOM     25  C   UNL     1       5.830  46.913  52.170  1.00  0.00     0.005 A 
ATOM     26  C   UNL     1       5.853  46.802  54.584  1.00  0.00     0.005 A 
ATOM     27  C   UNL     1       7.226  46.919  52.159  1.00  0.00     0.000 A 
ATOM     28  C   UNL     1       7.249  46.808  54.571  1.00  0.00     0.000 A 
ATOM     29  C   UNL     1       7.934  46.864  53.359  1.00  0.00     0.000 A 
ENDBRANCH  23  24
ENDBRANCH  21  23
ENDBRANCH   3  21
TORSDOF 6
ENDMDL
MODEL 8
REMARK VINA RESULT:    -8.715      3.332      6.955
REMARK INTER + INTRA:         -12.822
REMARK INTER:                 -11.297
REMARK INTRA:                  -1.525
REMARK UNBOUND:                -1.051
REMARK SMILES COc1ccc(Nc2nc(NCc3ccccc3)c3nccnc3n2)cc1
REMARK SMILES IDX 8 1 9 2 10 3 19 4 20 5 21 6 22 7 23 8 24 9 25 10 7 11 6 13
REMARK SMILES IDX 3 14 4 15 27 16 5 17 26 18 2 19 1 20 11 21 12 23 13 24 14 25
REMARK SMILES IDX 18 26 15 27 17 28 16 29
REMARK H PARENT 7 12 11 22
ROOT
ATOM      1  C   UNL     1       1.888  45.396  55.715  1.00  0.00     0.231 A 
ATOM      2  N   UNL     1       1.751  44.832  54.511  1.00  0.00    -0.193 NA
ATOM      3  C   UNL     1       0.567  44.268  54.206  1.00  0.00     0.160 A 
ATOM      4  C   UNL     1      -0.514  44.234  55.089  1.00  0.00     0.150 A 
ATOM      5  N   UNL     1      -1.735  43.663  54.821  1.00  0.00    -0.247 NA
ATOM      6  C   UNL     1      -2.658  43.721  55.797  1.00  0.00     0.132 A 
ATOM      7  C   UNL     1      -2.389  44.333  56.997  1.00  0.00     0.133 A 
ATOM      8  N   UNL     1      -1.194  44.904  57.261  1.00  0.00    -0.233 NA
ATOM      9  C   UNL     1      -0.247  44.856  56.316  1.00  0.00     0.185 A 
ATOM     10  N   UNL     1       0.912  45.424  56.615  1.00  0.00    -0.191 NA
ENDROOT
BRANCH   1  11
ATOM     11  N   UNL     1       3.137  45.960  55.957  1.00  0.00    -0.324 N 
ATOM     12  H   UNL     1       3.128  46.407  56.862  1.00  0.00     0.170 HD
BRANCH  11  13
ATOM     13  C   UNL     1       4.316  46.064  55.213  1.00  0.00     0.041 A 
ATOM     14  C   UNL     1       6.737  46.129  53.732  1.00  0.00     0.119 A 
ATOM     15  C   UNL     1       5.884  47.231  53.758  1.00  0.00     0.048 A 
ATOM     16  C   UNL     1       6.383  44.988  54.446  1.00  0.00     0.048 A 
ATOM     17  C   UNL     1       4.689  47.198  54.488  1.00  0.00     0.030 A 
ATOM     18  C   UNL     1       5.185  44.961  55.174  1.00  0.00     0.030 A 
BRANCH  14  19
ATOM     19  O   UNL     1       7.868  46.294  52.983  1.00  0.00    -0.497 OA
ATOM     20  C   UNL     1       7.753  47.097  51.815  1.00  0.00     0.278 C 
ENDBRANCH  14  19
ENDBRANCH  11  13
ENDBRANCH   1  11
BRANCH   3  21
ATOM     21  N   UNL     1       0.559  43.682  52.934  1.00  0.00    -0.364 N 
ATOM     22  H   UNL     1       1.198  42.891  52.966  1.00  0.00     0.162 HD
BRANCH  21  23
ATOM     23  C   UNL     1       0.781  44.561  51.798  1.00  0.00     0.150 C 
BRANCH  23  24
ATOM     24  C   UNL     1       2.257  44.573  51.468  1.00  0.00    -0.029 A 
ATOM     25  C   UNL     1       2.904  45.768  51.120  1.00  0.00     0.005 A 
ATOM     26  C   UNL     1       3.009  43.391  51.544  1.00  0.00     0.005 A 
ATOM     27  C   UNL     1       4.271  45.775  50.835  1.00  0.00     0.000 A 
ATOM     28  C   UNL     1       4.376  43.401  51.259  1.00  0.00     0.000 A 
ATOM     29  C   UNL     1       5.004  44.592  50.902  1.00  0.00     0.000 A 
ENDBRANCH  23  24
ENDBRANCH  21  23
ENDBRANCH   3  21
TORSDOF 6
ENDMDL
MODEL 9
REMARK VINA RESULT:    -8.699      2.858      7.057
REMARK INTER + INTRA:         -12.801
REMARK INTER:                 -12.225
REMARK INTRA:                  -0.575
REMARK UNBOUND:                -1.051
REMARK SMILES COc1ccc(Nc2nc(NCc3ccccc3)c3nccnc3n2)cc1
REMARK SMILES IDX 8 1 9 2 10 3 19 4 20 5 21 6 22 7 23 8 24 9 25 10 7 11 6 13
REMARK SMILES IDX 3 14 4 15 27 16 5 17 26 18 2 19 1 20 11 21 12 23 13 24 14 25
REMARK SMILES IDX 18 26 15 27 17 28 16 29
REMARK H PARENT 7 12 11 22
ROOT
ATOM      1  C   UNL     1       6.485  44.785  51.074  1.00  0.00     0.231 A 
ATOM      2  N   UNL     1       5.605  44.562  52.054  1.00  0.00    -0.193 NA
ATOM      3  C   UNL     1       4.783  43.502  51.939  1.00  0.00     0.160 A 
ATOM      4  C   UNL     1       4.799  42.636  50.843  1.00  0.00     0.150 A 
ATOM      5  N   UNL     1       3.974  41.549  50.683  1.00  0.00    -0.247 NA
ATOM      6  C   UNL     1       4.130  40.831  49.557  1.00  0.00     0.132 A 
ATOM      7  C   UNL     1       5.079  41.169  48.622  1.00  0.00     0.133 A 
ATOM      8  N   UNL     1       5.897  42.230  48.779  1.00  0.00    -0.233 NA
ATOM      9  C   UNL     1       5.764  42.975  49.885  1.00  0.00     0.185 A 
ATOM     10  N   UNL     1       6.583  44.009  50.000  1.00  0.00    -0.191 NA
ENDROOT
BRANCH   1  11
ATOM     11  N   UNL     1       7.301  45.896  51.263  1.00  0.00    -0.324 N 
ATOM     12  H   UNL     1       7.467  46.341  50.372  1.00  0.00     0.170 HD
BRANCH  11  13
ATOM     13  C   UNL     1       7.940  46.453  52.375  1.00  0.00     0.041 A 
ATOM     14  C   UNL     1       9.368  47.567  54.561  1.00  0.00     0.119 A 
ATOM     15  C   UNL     1       7.974  47.546  54.553  1.00  0.00     0.048 A 
ATOM     16  C   UNL     1      10.054  47.033  53.476  1.00  0.00     0.048 A 
ATOM     17  C   UNL     1       7.270  46.997  53.473  1.00  0.00     0.030 A 
ATOM     18  C   UNL     1       9.344  46.485  52.397  1.00  0.00     0.030 A 
BRANCH  14  19
ATOM     19  O   UNL     1       9.928  48.131  55.673  1.00  0.00    -0.497 OA
ATOM     20  C   UNL     1      11.077  47.487  56.210  1.00  0.00     0.278 C 
ENDBRANCH  14  19
ENDBRANCH  11  13
ENDBRANCH   1  11
BRANCH   3  21
ATOM     21  N   UNL     1       3.886  43.394  53.009  1.00  0.00    -0.364 N 
ATOM     22  H   UNL     1       3.292  42.589  52.820  1.00  0.00     0.162 HD
BRANCH  21  23
ATOM     23  C   UNL     1       3.142  44.588  53.374  1.00  0.00     0.150 C 
BRANCH  23  24
ATOM     24  C   UNL     1       1.732  44.193  53.754  1.00  0.00    -0.029 A 
ATOM     25  C   UNL     1       0.985  44.975  54.646  1.00  0.00     0.005 A 
ATOM     26  C   UNL     1       1.140  43.055  53.186  1.00  0.00     0.005 A 
ATOM     27  C   UNL     1      -0.323  44.613  54.978  1.00  0.00     0.000 A 
ATOM     28  C   UNL     1      -0.168  42.696  53.519  1.00  0.00     0.000 A 
ATOM     29  C   UNL     1      -0.896  43.474  54.416  1.00  0.00     0.000 A 
ENDBRANCH  23  24
ENDBRANCH  21  23
ENDBRANCH   3  21
TORSDOF 6
ENDMDL
MODEL 10
REMARK VINA RESULT:    -8.660      3.314      6.690
REMARK INTER + INTRA:         -12.748
REMARK INTER:                 -11.944
REMARK INTRA:                  -0.804
REMARK UNBOUND:                -1.051
REMARK SMILES COc1ccc(Nc2nc(NCc3ccccc3)c3nccnc3n2)cc1
REMARK SMILES IDX 8 1 9 2 10 3 19 4 20 5 21 6 22 7 23 8 24 9 25 10 7 11 6 13
REMARK SMILES IDX 3 14 4 15 27 16 5 17 26 18 2 19 1 20 11 21 12 23 13 24 14 25
REMARK SMILES IDX 18 26 15 27 17 28 16 29
REMARK H PARENT 7 12 11 22
ROOT
ATOM      1  C   UNL     1       5.413  44.920  51.135  1.00  0.00     0.231 A 
ATOM      2  N   UNL     1       5.578  43.623  50.862  1.00  0.00    -0.193 NA
ATOM      3  C   UNL     1       4.483  42.842  50.807  1.00  0.00     0.160 A 
ATOM      4  C   UNL     1       3.190  43.318  51.033  1.00  0.00     0.150 A 
ATOM      5  N   UNL     1       2.049  42.555  50.993  1.00  0.00    -0.247 NA
ATOM      6  C   UNL     1       0.888  43.188  51.243  1.00  0.00     0.132 A 
ATOM      7  C   UNL     1       0.854  44.534  51.513  1.00  0.00     0.133 A 
ATOM      8  N   UNL     1       1.972  45.290  51.543  1.00  0.00    -0.233 NA
ATOM      9  C   UNL     1       3.147  44.692  51.309  1.00  0.00     0.185 A 
ATOM     10  N   UNL     1       4.221  45.467  51.352  1.00  0.00    -0.191 NA
ENDROOT
BRANCH   1  11
ATOM     11  N   UNL     1       6.588  45.665  51.173  1.00  0.00    -0.324 N 
ATOM     12  H   UNL     1       6.985  45.703  50.246  1.00  0.00     0.170 HD
BRANCH  11  13
ATOM     13  C   UNL     1       7.308  46.290  52.195  1.00  0.00     0.041 A 
ATOM     14  C   UNL     1       8.671  47.503  54.370  1.00  0.00     0.119 A 
ATOM     15  C   UNL     1       9.188  47.566  53.076  1.00  0.00     0.048 A 
ATOM     16  C   UNL     1       7.472  46.831  54.582  1.00  0.00     0.048 A 
ATOM     17  C   UNL     1       8.515  46.966  52.004  1.00  0.00     0.030 A 
ATOM     18  C   UNL     1       6.803  46.232  53.504  1.00  0.00     0.030 A 
BRANCH  14  19
ATOM     19  O   UNL     1       9.426  48.128  55.322  1.00  0.00    -0.497 OA
ATOM     20  C   UNL     1      10.635  47.486  55.708  1.00  0.00     0.278 C 
ENDBRANCH  14  19
ENDBRANCH  11  13
ENDBRANCH   1  11
BRANCH   3  21
ATOM     21  N   UNL     1       4.789  41.499  50.547  1.00  0.00    -0.364 N 
ATOM     22  H   UNL     1       4.963  41.055  51.446  1.00  0.00     0.162 HD
BRANCH  21  23
ATOM     23  C   UNL     1       5.822  41.233  49.560  1.00  0.00     0.150 C 
BRANCH  23  24
ATOM     24  C   UNL     1       5.190  41.190  48.187  1.00  0.00    -0.029 A 
ATOM     25  C   UNL     1       5.804  41.820  47.095  1.00  0.00     0.005 A 
ATOM     26  C   UNL     1       3.997  40.482  47.980  1.00  0.00     0.005 A 
ATOM     27  C   UNL     1       5.224  41.760  45.826  1.00  0.00     0.000 A 
ATOM     28  C   UNL     1       3.419  40.423  46.710  1.00  0.00     0.000 A 
ATOM     29  C   UNL     1       4.032  41.064  45.635  1.00  0.00     0.000 A 
ENDBRANCH  23  24
ENDBRANCH  21  23
ENDBRANCH   3  21
TORSDOF 6
ENDMDL
MODEL 11
REMARK VINA RESULT:    -8.647      2.396      5.254
REMARK INTER + INTRA:         -12.731
REMARK INTER:                 -11.949
REMARK INTRA:                  -0.782
REMARK UNBOUND:                -1.051
REMARK SMILES COc1ccc(Nc2nc(NCc3ccccc3)c3nccnc3n2)cc1
REMARK SMILES IDX 8 1 9 2 10 3 19 4 20 5 21 6 22 7 23 8 24 9 25 10 7 11 6 13
REMARK SMILES IDX 3 14 4 15 27 16 5 17 26 18 2 19 1 20 11 21 12 23 13 24 14 25
REMARK SMILES IDX 18 26 15 27 17 28 16 29
REMARK H PARENT 7 12 11 22
ROOT
ATOM      1  C   UNL     1       2.353  45.125  52.671  1.00  0.00     0.231 A 
ATOM      2  N   UNL     1       3.379  45.953  52.456  1.00  0.00    -0.193 NA
ATOM      3  C   UNL     1       4.465  45.466  51.827  1.00  0.00     0.160 A 
ATOM      4  C   UNL     1       4.575  44.140  51.404  1.00  0.00     0.150 A 
ATOM      5  N   UNL     1       5.667  43.602  50.767  1.00  0.00    -0.247 NA
ATOM      6  C   UNL     1       5.594  42.300  50.437  1.00  0.00     0.132 A 
ATOM      7  C   UNL     1       4.475  41.555  50.717  1.00  0.00     0.133 A 
ATOM      8  N   UNL     1       3.396  42.082  51.334  1.00  0.00    -0.233 NA
ATOM      9  C   UNL     1       3.436  43.373  51.686  1.00  0.00     0.185 A 
ATOM     10  N   UNL     1       2.360  43.852  52.293  1.00  0.00    -0.191 NA
ENDROOT
BRANCH   1  11
ATOM     11  N   UNL     1       1.265  45.699  53.323  1.00  0.00    -0.324 N 
ATOM     12  H   UNL     1       1.078  46.605  52.918  1.00  0.00     0.170 HD
BRANCH  11  13
ATOM     13  C   UNL     1       0.461  45.309  54.397  1.00  0.00     0.041 A 
ATOM     14  C   UNL     1      -1.064  44.568  56.674  1.00  0.00     0.119 A 
ATOM     15  C   UNL     1      -1.593  44.452  55.389  1.00  0.00     0.048 A 
ATOM     16  C   UNL     1       0.229  45.056  56.826  1.00  0.00     0.048 A 
ATOM     17  C   UNL     1      -0.840  44.819  54.267  1.00  0.00     0.030 A 
ATOM     18  C   UNL     1       0.978  45.423  55.698  1.00  0.00     0.030 A 
BRANCH  14  19
ATOM     19  O   UNL     1      -1.903  44.176  57.679  1.00  0.00    -0.497 OA
ATOM     20  C   UNL     1      -2.854  43.166  57.365  1.00  0.00     0.278 C 
ENDBRANCH  14  19
ENDBRANCH  11  13
ENDBRANCH   1  11
BRANCH   3  21
ATOM     21  N   UNL     1       5.484  46.418  51.691  1.00  0.00    -0.364 N 
ATOM     22  H   UNL     1       6.217  45.992  51.129  1.00  0.00     0.162 HD
BRANCH  21  23
ATOM     23  C   UNL     1       5.977  47.041  52.909  1.00  0.00     0.150 C 
BRANCH  23  24
ATOM     24  C   UNL     1       7.487  46.961  52.925  1.00  0.00    -0.029 A 
ATOM     25  C   UNL     1       8.207  47.226  54.099  1.00  0.00     0.005 A 
ATOM     26  C   UNL     1       8.187  46.583  51.770  1.00  0.00     0.005 A 
ATOM     27  C   UNL     1       9.600  47.133  54.111  1.00  0.00     0.000 A 
ATOM     28  C   UNL     1       9.580  46.489  51.784  1.00  0.00     0.000 A 
ATOM     29  C   UNL     1      10.285  46.767  52.954  1.00  0.00     0.000 A 
ENDBRANCH  23  24
ENDBRANCH  21  23
ENDBRANCH   3  21
TORSDOF 6
ENDMDL
MODEL 12
REMARK VINA RESULT:    -8.604      1.603      4.577
REMARK INTER + INTRA:         -12.673
REMARK INTER:                 -11.574
REMARK INTRA:                  -1.098
REMARK UNBOUND:                -1.051
REMARK SMILES COc1ccc(Nc2nc(NCc3ccccc3)c3nccnc3n2)cc1
REMARK SMILES IDX 8 1 9 2 10 3 19 4 20 5 21 6 22 7 23 8 24 9 25 10 7 11 6 13
REMARK SMILES IDX 3 14 4 15 27 16 5 17 26 18 2 19 1 20 11 21 12 23 13 24 14 25
REMARK SMILES IDX 18 26 15 27 17 28 16 29
REMARK H PARENT 7 12 11 22
ROOT
ATOM      1  C   UNL     1       7.033  45.615  51.470  1.00  0.00     0.231 A 
ATOM      2  N   UNL     1       6.051  46.262  52.103  1.00  0.00    -0.193 NA
ATOM      3  C   UNL     1       6.371  47.012  53.174  1.00  0.00     0.160 A 
ATOM      4  C   UNL     1       7.674  47.135  53.660  1.00  0.00     0.150 A 
ATOM      5  N   UNL     1       8.043  47.882  54.752  1.00  0.00    -0.247 NA
ATOM      6  C   UNL     1       9.348  47.877  55.077  1.00  0.00     0.132 A 
ATOM      7  C   UNL     1      10.263  47.164  54.341  1.00  0.00     0.133 A 
ATOM      8  N   UNL     1       9.907  46.436  53.261  1.00  0.00    -0.233 NA
ATOM      9  C   UNL     1       8.614  46.410  52.914  1.00  0.00     0.185 A 
ATOM     10  N   UNL     1       8.305  45.681  51.852  1.00  0.00    -0.191 NA
ENDROOT
BRANCH   1  11
ATOM     11  N   UNL     1       6.627  44.863  50.372  1.00  0.00    -0.324 N 
ATOM     12  H   UNL     1       6.931  45.322  49.526  1.00  0.00     0.170 HD
BRANCH  11  13
ATOM     13  C   UNL     1       5.880  43.691  50.221  1.00  0.00     0.041 A 
ATOM     14  C   UNL     1       4.264  41.366  50.015  1.00  0.00     0.119 A 
ATOM     15  C   UNL     1       5.380  41.538  49.196  1.00  0.00     0.048 A 
ATOM     16  C   UNL     1       3.951  42.357  50.939  1.00  0.00     0.048 A 
ATOM     17  C   UNL     1       6.176  42.686  49.298  1.00  0.00     0.030 A 
ATOM     18  C   UNL     1       4.752  43.504  51.037  1.00  0.00     0.030 A 
BRANCH  14  19
ATOM     19  O   UNL     1       3.576  40.203  49.812  1.00  0.00    -0.497 OA
ATOM     20  C   UNL     1       3.450  39.756  48.468  1.00  0.00     0.278 C 
ENDBRANCH  14  19
ENDBRANCH  11  13
ENDBRANCH   1  11
BRANCH   3  21
ATOM     21  N   UNL     1       5.254  47.611  53.769  1.00  0.00    -0.364 N 
ATOM     22  H   UNL     1       5.550  48.524  54.107  1.00  0.00     0.162 HD
BRANCH  21  23
ATOM     23  C   UNL     1       4.534  46.832  54.763  1.00  0.00     0.150 C 
BRANCH  23  24
ATOM     24  C   UNL     1       3.373  46.131  54.092  1.00  0.00    -0.029 A 
ATOM     25  C   UNL     1       2.716  46.718  53.001  1.00  0.00     0.005 A 
ATOM     26  C   UNL     1       2.964  44.863  54.530  1.00  0.00     0.005 A 
ATOM     27  C   UNL     1       1.657  46.058  52.374  1.00  0.00     0.000 A 
ATOM     28  C   UNL     1       1.905  44.204  53.901  1.00  0.00     0.000 A 
ATOM     29  C   UNL     1       1.252  44.803  52.826  1.00  0.00     0.000 A 
ENDBRANCH  23  24
ENDBRANCH  21  23
ENDBRANCH   3  21
TORSDOF 6
ENDMDL
MODEL 13
REMARK VINA RESULT:    -8.474      3.042      6.917
REMARK INTER + INTRA:         -12.497
REMARK INTER:                 -11.761
REMARK INTRA:                  -0.736
REMARK UNBOUND:                -1.051
REMARK SMILES COc1ccc(Nc2nc(NCc3ccccc3)c3nccnc3n2)cc1
REMARK SMILES IDX 8 1 9 2 10 3 19 4 20 5 21 6 22 7 23 8 24 9 25 10 7 11 6 13
REMARK SMILES IDX 3 14 4 15 27 16 5 17 26 18 2 19 1 20 11 21 12 23 13 24 14 25
REMARK SMILES IDX 18 26 15 27 17 28 16 29
REMARK H PARENT 7 12 11 22
ROOT
ATOM      1  C   UNL     1       3.610  42.606  52.304  1.00  0.00     0.231 A 
ATOM      2  N   UNL     1       4.467  43.563  52.670  1.00  0.00    -0.193 NA
ATOM      3  C   UNL     1       4.011  44.558  53.454  1.00  0.00     0.160 A 
ATOM      4  C   UNL     1       2.688  44.643  53.890  1.00  0.00     0.150 A 
ATOM      5  N   UNL     1       2.181  45.643  54.684  1.00  0.00    -0.247 NA
ATOM      6  C   UNL     1       0.876  45.562  55.000  1.00  0.00     0.132 A 
ATOM      7  C   UNL     1       0.098  44.520  54.557  1.00  0.00     0.133 A 
ATOM      8  N   UNL     1       0.595  43.530  53.785  1.00  0.00    -0.233 NA
ATOM      9  C   UNL     1       1.888  43.583  53.442  1.00  0.00     0.185 A 
ATOM     10  N   UNL     1       2.336  42.595  52.681  1.00  0.00    -0.191 NA
ENDROOT
BRANCH   1  11
ATOM     11  N   UNL     1       4.153  41.611  51.497  1.00  0.00    -0.324 N 
ATOM     12  H   UNL     1       4.329  40.790  52.057  1.00  0.00     0.170 HD
BRANCH  11  13
ATOM     13  C   UNL     1       4.526  41.549  50.151  1.00  0.00     0.041 A 
ATOM     14  C   UNL     1       5.409  41.498  47.454  1.00  0.00     0.119 A 
ATOM     15  C   UNL     1       4.258  40.814  47.843  1.00  0.00     0.048 A 
ATOM     16  C   UNL     1       6.124  42.209  48.412  1.00  0.00     0.048 A 
ATOM     17  C   UNL     1       3.824  40.839  49.175  1.00  0.00     0.030 A 
ATOM     18  C   UNL     1       5.684  42.230  49.743  1.00  0.00     0.030 A 
BRANCH  14  19
ATOM     19  O   UNL     1       5.721  41.392  46.127  1.00  0.00    -0.497 OA
ATOM     20  C   UNL     1       4.786  41.934  45.202  1.00  0.00     0.278 C 
ENDBRANCH  14  19
ENDBRANCH  11  13
ENDBRANCH   1  11
BRANCH   3  21
ATOM     21  N   UNL     1       4.993  45.515  53.739  1.00  0.00    -0.364 N 
ATOM     22  H   UNL     1       4.666  46.047  54.542  1.00  0.00     0.162 HD
BRANCH  21  23
ATOM     23  C   UNL     1       5.447  46.349  52.638  1.00  0.00     0.150 C 
BRANCH  23  24
ATOM     24  C   UNL     1       6.941  46.553  52.760  1.00  0.00    -0.029 A 
ATOM     25  C   UNL     1       7.516  46.930  53.982  1.00  0.00     0.005 A 
ATOM     26  C   UNL     1       7.778  46.329  51.656  1.00  0.00     0.005 A 
ATOM     27  C   UNL     1       8.898  47.098  54.092  1.00  0.00     0.000 A 
ATOM     28  C   UNL     1       9.159  46.498  51.768  1.00  0.00     0.000 A 
ATOM     29  C   UNL     1       9.717  46.885  52.985  1.00  0.00     0.000 A 
ENDBRANCH  23  24
ENDBRANCH  21  23
ENDBRANCH   3  21
TORSDOF 6
ENDMDL
MODEL 14
REMARK VINA RESULT:    -8.456      3.006      7.127
REMARK INTER + INTRA:         -12.473
REMARK INTER:                 -11.550
REMARK INTRA:                  -0.923
REMARK UNBOUND:                -1.051
REMARK SMILES COc1ccc(Nc2nc(NCc3ccccc3)c3nccnc3n2)cc1
REMARK SMILES IDX 8 1 9 2 10 3 19 4 20 5 21 6 22 7 23 8 24 9 25 10 7 11 6 13
REMARK SMILES IDX 3 14 4 15 27 16 5 17 26 18 2 19 1 20 11 21 12 23 13 24 14 25
REMARK SMILES IDX 18 26 15 27 17 28 16 29
REMARK H PARENT 7 12 11 22
ROOT
ATOM      1  C   UNL     1       6.529  44.348  50.636  1.00  0.00     0.231 A 
ATOM      2  N   UNL     1       5.672  44.156  51.643  1.00  0.00    -0.193 NA
ATOM      3  C   UNL     1       4.784  43.150  51.537  1.00  0.00     0.160 A 
ATOM      4  C   UNL     1       4.708  42.310  50.425  1.00  0.00     0.150 A 
ATOM      5  N   UNL     1       3.813  41.278  50.274  1.00  0.00    -0.247 NA
ATOM      6  C   UNL     1       3.885  40.578  49.128  1.00  0.00     0.132 A 
ATOM      7  C   UNL     1       4.817  40.879  48.165  1.00  0.00     0.133 A 
ATOM      8  N   UNL     1       5.704  41.886  48.313  1.00  0.00    -0.233 NA
ATOM      9  C   UNL     1       5.656  42.611  49.438  1.00  0.00     0.185 A 
ATOM     10  N   UNL     1       6.540  43.592  49.543  1.00  0.00    -0.191 NA
ENDROOT
BRANCH   1  11
ATOM     11  N   UNL     1       7.417  45.404  50.817  1.00  0.00    -0.324 N 
ATOM     12  H   UNL     1       7.753  45.711  49.917  1.00  0.00     0.170 HD
BRANCH  11  13
ATOM     13  C   UNL     1       7.942  46.049  51.941  1.00  0.00     0.041 A 
ATOM     14  C   UNL     1       9.145  47.339  54.165  1.00  0.00     0.119 A 
ATOM     15  C   UNL     1       7.758  47.284  54.033  1.00  0.00     0.048 A 
ATOM     16  C   UNL     1       9.937  46.750  53.184  1.00  0.00     0.048 A 
ATOM     17  C   UNL     1       7.165  46.648  52.935  1.00  0.00     0.030 A 
ATOM     18  C   UNL     1       9.337  46.115  52.086  1.00  0.00     0.030 A 
BRANCH  14  19
ATOM     19  O   UNL     1       9.592  47.988  55.281  1.00  0.00    -0.497 OA
ATOM     20  C   UNL     1      10.826  47.545  55.832  1.00  0.00     0.278 C 
ENDBRANCH  14  19
ENDBRANCH  11  13
ENDBRANCH   1  11
BRANCH   3  21
ATOM     21  N   UNL     1       3.921  43.072  52.638  1.00  0.00    -0.364 N 
ATOM     22  H   UNL     1       3.666  42.093  52.748  1.00  0.00     0.162 HD
BRANCH  21  23
ATOM     23  C   UNL     1       2.779  43.971  52.650  1.00  0.00     0.150 C 
BRANCH  23  24
ATOM     24  C   UNL     1       3.217  45.315  53.187  1.00  0.00    -0.029 A 
ATOM     25  C   UNL     1       3.732  45.435  54.486  1.00  0.00     0.005 A 
ATOM     26  C   UNL     1       3.150  46.457  52.375  1.00  0.00     0.005 A 
ATOM     27  C   UNL     1       4.153  46.676  54.968  1.00  0.00     0.000 A 
ATOM     28  C   UNL     1       3.572  47.697  52.859  1.00  0.00     0.000 A 
ATOM     29  C   UNL     1       4.070  47.806  54.156  1.00  0.00     0.000 A 
ENDBRANCH  23  24
ENDBRANCH  21  23
ENDBRANCH   3  21
TORSDOF 6
ENDMDL
MODEL 15
REMARK VINA RESULT:    -8.444      3.178      6.689
REMARK INTER + INTRA:         -12.457
REMARK INTER:                 -11.370
REMARK INTRA:                  -1.087
REMARK UNBOUND:                -1.051
REMARK SMILES COc1ccc(Nc2nc(NCc3ccccc3)c3nccnc3n2)cc1
REMARK SMILES IDX 8 1 9 2 10 3 19 4 20 5 21 6 22 7 23 8 24 9 25 10 7 11 6 13
REMARK SMILES IDX 3 14 4 15 27 16 5 17 26 18 2 19 1 20 11 21 12 23 13 24 14 25
REMARK SMILES IDX 18 26 15 27 17 28 16 29
REMARK H PARENT 7 12 11 22
ROOT
ATOM      1  C   UNL     1       2.350  45.650  52.842  1.00  0.00     0.231 A 
ATOM      2  N   UNL     1       2.795  44.456  52.441  1.00  0.00    -0.193 NA
ATOM      3  C   UNL     1       1.924  43.624  51.839  1.00  0.00     0.160 A 
ATOM      4  C   UNL     1       0.582  43.945  51.626  1.00  0.00     0.150 A 
ATOM      5  N   UNL     1      -0.341  43.124  51.024  1.00  0.00    -0.247 NA
ATOM      6  C   UNL     1      -1.593  43.601  50.910  1.00  0.00     0.132 A 
ATOM      7  C   UNL     1      -1.923  44.854  51.367  1.00  0.00     0.133 A 
ATOM      8  N   UNL     1      -1.018  45.667  51.951  1.00  0.00    -0.233 NA
ATOM      9  C   UNL     1       0.237  45.222  52.090  1.00  0.00     0.185 A 
ATOM     10  N   UNL     1       1.094  46.048  52.672  1.00  0.00    -0.191 NA
ENDROOT
BRANCH   1  11
ATOM     11  N   UNL     1       3.307  46.455  53.453  1.00  0.00    -0.324 N 
ATOM     12  H   UNL     1       2.843  47.137  54.034  1.00  0.00     0.170 HD
BRANCH  11  13
ATOM     13  C   UNL     1       4.701  46.529  53.383  1.00  0.00     0.041 A 
ATOM     14  C   UNL     1       7.538  46.639  53.388  1.00  0.00     0.119 A 
ATOM     15  C   UNL     1       6.816  46.812  52.207  1.00  0.00     0.048 A 
ATOM     16  C   UNL     1       6.844  46.409  54.571  1.00  0.00     0.048 A 
ATOM     17  C   UNL     1       5.417  46.756  52.206  1.00  0.00     0.030 A 
ATOM     18  C   UNL     1       5.442  46.353  54.563  1.00  0.00     0.030 A 
BRANCH  14  19
ATOM     19  O   UNL     1       8.895  46.717  53.249  1.00  0.00    -0.497 OA
ATOM     20  C   UNL     1       9.407  46.711  51.922  1.00  0.00     0.278 C 
ENDBRANCH  14  19
ENDBRANCH  11  13
ENDBRANCH   1  11
BRANCH   3  21
ATOM     21  N   UNL     1       2.499  42.393  51.496  1.00  0.00    -0.364 N 
ATOM     22  H   UNL     1       1.829  41.671  51.750  1.00  0.00     0.162 HD
BRANCH  21  23
ATOM     23  C   UNL     1       3.844  42.132  51.982  1.00  0.00     0.150 C 
BRANCH  23  24
ATOM     24  C   UNL     1       4.819  42.289  50.836  1.00  0.00    -0.029 A 
ATOM     25  C   UNL     1       4.876  41.338  49.808  1.00  0.00     0.005 A 
ATOM     26  C   UNL     1       5.655  43.414  50.769  1.00  0.00     0.005 A 
ATOM     27  C   UNL     1       5.766  41.499  48.744  1.00  0.00     0.000 A 
ATOM     28  C   UNL     1       6.544  43.573  49.704  1.00  0.00     0.000 A 
ATOM     29  C   UNL     1       6.600  42.614  48.694  1.00  0.00     0.000 A 
ENDBRANCH  23  24
ENDBRANCH  21  23
ENDBRANCH   3  21
TORSDOF 6
ENDMDL
MODEL 16
REMARK VINA RESULT:    -8.423      3.521      7.199
REMARK INTER + INTRA:         -12.429
REMARK INTER:                 -11.625
REMARK INTRA:                  -0.803
REMARK UNBOUND:                -1.051
REMARK SMILES COc1ccc(Nc2nc(NCc3ccccc3)c3nccnc3n2)cc1
REMARK SMILES IDX 8 1 9 2 10 3 19 4 20 5 21 6 22 7 23 8 24 9 25 10 7 11 6 13
REMARK SMILES IDX 3 14 4 15 27 16 5 17 26 18 2 19 1 20 11 21 12 23 13 24 14 25
REMARK SMILES IDX 18 26 15 27 17 28 16 29
REMARK H PARENT 7 12 11 22
ROOT
ATOM      1  C   UNL     1       5.646  42.641  49.794  1.00  0.00     0.231 A 
ATOM      2  N   UNL     1       6.448  43.707  49.733  1.00  0.00    -0.193 NA
ATOM      3  C   UNL     1       6.300  44.667  50.665  1.00  0.00     0.160 A 
ATOM      4  C   UNL     1       5.344  44.607  51.681  1.00  0.00     0.150 A 
ATOM      5  N   UNL     1       5.154  45.566  52.646  1.00  0.00    -0.247 NA
ATOM      6  C   UNL     1       4.178  45.339  53.542  1.00  0.00     0.132 A 
ATOM      7  C   UNL     1       3.419  44.194  53.495  1.00  0.00     0.133 A 
ATOM      8  N   UNL     1       3.608  43.245  52.554  1.00  0.00    -0.233 NA
ATOM      9  C   UNL     1       4.565  43.442  51.639  1.00  0.00     0.185 A 
ATOM     10  N   UNL     1       4.716  42.489  50.731  1.00  0.00    -0.191 NA
ENDROOT
BRANCH   1  11
ATOM     11  N   UNL     1       5.860  41.691  48.800  1.00  0.00    -0.324 N 
ATOM     12  H   UNL     1       6.788  41.307  48.904  1.00  0.00     0.170 HD
BRANCH  11  13
ATOM     13  C   UNL     1       5.102  41.228  47.720  1.00  0.00     0.041 A 
ATOM     14  C   UNL     1       3.664  40.353  45.435  1.00  0.00     0.119 A 
ATOM     15  C   UNL     1       3.276  39.966  46.717  1.00  0.00     0.048 A 
ATOM     16  C   UNL     1       4.774  41.179  45.290  1.00  0.00     0.048 A 
ATOM     17  C   UNL     1       3.987  40.397  47.844  1.00  0.00     0.030 A 
ATOM     18  C   UNL     1       5.482  41.607  46.423  1.00  0.00     0.030 A 
BRANCH  14  19
ATOM     19  O   UNL     1       2.885  39.862  44.425  1.00  0.00    -0.497 OA
ATOM     20  C   UNL     1       3.548  39.502  43.219  1.00  0.00     0.278 C 
ENDBRANCH  14  19
ENDBRANCH  11  13
ENDBRANCH   1  11
BRANCH   3  21
ATOM     21  N   UNL     1       7.173  45.746  50.475  1.00  0.00    -0.364 N 
ATOM     22  H   UNL     1       7.078  46.039  49.505  1.00  0.00     0.162 HD
BRANCH  21  23
ATOM     23  C   UNL     1       8.554  45.564  50.891  1.00  0.00     0.150 C 
BRANCH  23  24
ATOM     24  C   UNL     1       8.812  46.406  52.121  1.00  0.00    -0.029 A 
ATOM     25  C   UNL     1       9.834  46.069  53.019  1.00  0.00     0.005 A 
ATOM     26  C   UNL     1       8.052  47.561  52.359  1.00  0.00     0.005 A 
ATOM     27  C   UNL     1      10.079  46.862  54.142  1.00  0.00     0.000 A 
ATOM     28  C   UNL     1       8.298  48.352  53.482  1.00  0.00     0.000 A 
ATOM     29  C   UNL     1       9.309  48.001  54.374  1.00  0.00     0.000 A 
ENDBRANCH  23  24
ENDBRANCH  21  23
ENDBRANCH   3  21
TORSDOF 6
ENDMDL
MODEL 17
REMARK VINA RESULT:    -8.398      3.465      7.474
REMARK INTER + INTRA:         -12.394
REMARK INTER:                 -11.137
REMARK INTRA:                  -1.257
REMARK UNBOUND:                -1.051
REMARK SMILES COc1ccc(Nc2nc(NCc3ccccc3)c3nccnc3n2)cc1
REMARK SMILES IDX 8 1 9 2 10 3 19 4 20 5 21 6 22 7 23 8 24 9 25 10 7 11 6 13
REMARK SMILES IDX 3 14 4 15 27 16 5 17 26 18 2 19 1 20 11 21 12 23 13 24 14 25
REMARK SMILES IDX 18 26 15 27 17 28 16 29
REMARK H PARENT 7 12 11 22
ROOT
ATOM      1  C   UNL     1       2.087  42.697  52.129  1.00  0.00     0.231 A 
ATOM      2  N   UNL     1       2.606  43.303  53.201  1.00  0.00    -0.193 NA
ATOM      3  C   UNL     1       1.774  43.991  54.006  1.00  0.00     0.160 A 
ATOM      4  C   UNL     1       0.404  44.110  53.768  1.00  0.00     0.150 A 
ATOM      5  N   UNL     1      -0.478  44.807  54.559  1.00  0.00    -0.247 NA
ATOM      6  C   UNL     1      -1.765  44.815  54.169  1.00  0.00     0.132 A 
ATOM      7  C   UNL     1      -2.172  44.148  53.039  1.00  0.00     0.133 A 
ATOM      8  N   UNL     1      -1.311  43.454  52.265  1.00  0.00    -0.233 NA
ATOM      9  C   UNL     1      -0.020  43.431  52.617  1.00  0.00     0.185 A 
ATOM     10  N   UNL     1       0.793  42.743  51.829  1.00  0.00    -0.191 NA
ENDROOT
BRANCH   1  11
ATOM     11  N   UNL     1       3.006  42.004  51.347  1.00  0.00    -0.324 N 
ATOM     12  H   UNL     1       2.668  41.066  51.193  1.00  0.00     0.170 HD
BRANCH  11  13
ATOM     13  C   UNL     1       4.255  42.323  50.806  1.00  0.00     0.041 A 
ATOM     14  C   UNL     1       6.795  42.831  49.645  1.00  0.00     0.119 A 
ATOM     15  C   UNL     1       6.110  43.831  50.334  1.00  0.00     0.048 A 
ATOM     16  C   UNL     1       6.212  41.573  49.532  1.00  0.00     0.048 A 
ATOM     17  C   UNL     1       4.856  43.579  50.906  1.00  0.00     0.030 A 
ATOM     18  C   UNL     1       4.956  41.327  50.106  1.00  0.00     0.030 A 
BRANCH  14  19
ATOM     19  O   UNL     1       8.006  43.209  49.137  1.00  0.00    -0.497 OA
ATOM     20  C   UNL     1       8.524  44.459  49.575  1.00  0.00     0.278 C 
ENDBRANCH  14  19
ENDBRANCH  11  13
ENDBRANCH   1  11
BRANCH   3  21
ATOM     21  N   UNL     1       2.441  44.608  55.072  1.00  0.00    -0.364 N 
ATOM     22  H   UNL     1       1.883  44.444  55.907  1.00  0.00     0.162 HD
BRANCH  21  23
ATOM     23  C   UNL     1       2.825  45.999  54.898  1.00  0.00     0.150 C 
BRANCH  23  24
ATOM     24  C   UNL     1       4.204  46.054  54.278  1.00  0.00    -0.029 A 
ATOM     25  C   UNL     1       5.252  45.276  54.791  1.00  0.00     0.005 A 
ATOM     26  C   UNL     1       4.442  46.859  53.154  1.00  0.00     0.005 A 
ATOM     27  C   UNL     1       6.517  45.318  54.202  1.00  0.00     0.000 A 
ATOM     28  C   UNL     1       5.708  46.899  52.566  1.00  0.00     0.000 A 
ATOM     29  C   UNL     1       6.744  46.131  53.092  1.00  0.00     0.000 A 
ENDBRANCH  23  24
ENDBRANCH  21  23
ENDBRANCH   3  21
TORSDOF 6
ENDMDL
