MODEL 1
REMARK VINA RESULT:    -8.603      0.000      0.000
REMARK INTER + INTRA:         -12.295
REMARK INTER:                 -11.872
REMARK INTRA:                  -0.423
REMARK UNBOUND:                -0.423
REMARK SMILES COc1ccc(Nc2nc(NCCO)c3ccccc3n2)cc1
REMARK SMILES IDX 8 1 9 2 10 3 15 4 16 5 17 6 18 7 19 8 20 9 21 10 7 11 6 13
REMARK SMILES IDX 3 14 4 15 23 16 5 17 22 18 2 19 1 20 11 21 12 23 13 24 14 25
REMARK H PARENT 7 12 11 22 14 26
ROOT
ATOM      1  C   UNL     1       6.531  44.877  51.118  1.00  0.00     0.229 A 
ATOM      2  N   UNL     1       5.643  44.680  52.103  1.00  0.00    -0.195 NA
ATOM      3  C   UNL     1       4.783  43.651  51.992  1.00  0.00     0.139 A 
ATOM      4  C   UNL     1       4.820  42.767  50.902  1.00  0.00     0.043 A 
ATOM      5  C   UNL     1       3.985  41.632  50.735  1.00  0.00     0.014 A 
ATOM      6  C   UNL     1       4.096  40.823  49.606  1.00  0.00     0.001 A 
ATOM      7  C   UNL     1       5.039  41.135  48.638  1.00  0.00     0.002 A 
ATOM      8  C   UNL     1       5.867  42.247  48.810  1.00  0.00     0.029 A 
ATOM      9  C   UNL     1       5.777  43.067  49.929  1.00  0.00     0.078 A 
ATOM     10  N   UNL     1       6.609  44.105  50.031  1.00  0.00    -0.213 NA
ENDROOT
BRANCH   1  11
ATOM     11  N   UNL     1       7.377  45.967  51.311  1.00  0.00    -0.324 N 
ATOM     12  H   UNL     1       7.488  46.448  50.432  1.00  0.00     0.170 HD
BRANCH  11  13
ATOM     13  C   UNL     1       8.014  46.520  52.425  1.00  0.00     0.041 A 
ATOM     14  C   UNL     1       9.438  47.595  54.633  1.00  0.00     0.119 A 
ATOM     15  C   UNL     1       8.045  47.613  54.601  1.00  0.00     0.048 A 
ATOM     16  C   UNL     1      10.125  47.036  53.560  1.00  0.00     0.048 A 
ATOM     17  C   UNL     1       7.342  47.082  53.512  1.00  0.00     0.030 A 
ATOM     18  C   UNL     1       9.418  46.505  52.472  1.00  0.00     0.030 A 
BRANCH  14  19
ATOM     19  O   UNL     1       9.996  48.145  55.752  1.00  0.00    -0.497 OA
ATOM     20  C   UNL     1      11.118  47.471  56.308  1.00  0.00     0.278 C 
ENDBRANCH  14  19
ENDBRANCH  11  13
ENDBRANCH   1  11
BRANCH   3  21
ATOM     21  N   UNL     1       3.849  43.436  53.026  1.00  0.00    -0.367 N 
ATOM     22  H   UNL     1       3.509  42.475  52.991  1.00  0.00     0.162 HD
BRANCH  21  23
ATOM     23  C   UNL     1       2.725  44.372  53.068  1.00  0.00     0.142 C 
BRANCH  23  24
ATOM     24  C   UNL     1       1.447  43.603  53.424  1.00  0.00     0.177 C 
BRANCH  24  25
ATOM     25  O   UNL     1       1.715  42.200  53.503  1.00  0.00    -0.395 OA
ATOM     26  H   UNL     1       1.093  41.822  54.149  1.00  0.00     0.210 HD
ENDBRANCH  24  25
ENDBRANCH  23  24
ENDBRANCH  21  23
ENDBRANCH   3  21
TORSDOF 7
ENDMDL
MODEL 2
REMARK VINA RESULT:    -8.598      2.637      7.147
REMARK INTER + INTRA:         -12.289
REMARK INTER:                 -11.675
REMARK INTRA:                  -0.614
REMARK UNBOUND:                -0.423
REMARK SMILES COc1ccc(Nc2nc(NCCO)c3ccccc3n2)cc1
REMARK SMILES IDX 8 1 9 2 10 3 15 4 16 5 17 6 18 7 19 8 20 9 21 10 7 11 6 13
REMARK SMILES IDX 3 14 4 15 23 16 5 17 22 18 2 19 1 20 11 21 12 23 13 24 14 25
REMARK H PARENT 7 12 11 22 14 26
ROOT
ATOM      1  C   UNL     1       5.342  46.922  52.909  1.00  0.00     0.229 A 
ATOM      2  N   UNL     1       5.476  46.224  51.773  1.00  0.00    -0.195 NA
ATOM      3  C   UNL     1       6.718  45.951  51.334  1.00  0.00     0.139 A 
ATOM      4  C   UNL     1       7.861  46.340  52.050  1.00  0.00     0.043 A 
ATOM      5  C   UNL     1       9.201  46.049  51.684  1.00  0.00     0.014 A 
ATOM      6  C   UNL     1      10.267  46.494  52.462  1.00  0.00     0.001 A 
ATOM      7  C   UNL     1      10.010  47.228  53.610  1.00  0.00     0.002 A 
ATOM      8  C   UNL     1       8.690  47.506  53.974  1.00  0.00     0.029 A 
ATOM      9  C   UNL     1       7.610  47.070  53.215  1.00  0.00     0.078 A 
ATOM     10  N   UNL     1       6.376  47.362  53.631  1.00  0.00    -0.213 NA
ENDROOT
BRANCH   1  11
ATOM     11  N   UNL     1       4.023  47.166  53.286  1.00  0.00    -0.324 N 
ATOM     12  H   UNL     1       3.867  48.162  53.287  1.00  0.00     0.170 HD
BRANCH  11  13
ATOM     13  C   UNL     1       2.929  46.350  53.587  1.00  0.00     0.041 A 
ATOM     14  C   UNL     1       0.776  44.654  54.325  1.00  0.00     0.119 A 
ATOM     15  C   UNL     1       0.810  45.265  53.073  1.00  0.00     0.048 A 
ATOM     16  C   UNL     1       1.822  44.886  55.212  1.00  0.00     0.048 A 
ATOM     17  C   UNL     1       1.873  46.102  52.708  1.00  0.00     0.030 A 
ATOM     18  C   UNL     1       2.884  45.724  54.843  1.00  0.00     0.030 A 
BRANCH  14  19
ATOM     19  O   UNL     1      -0.316  43.864  54.552  1.00  0.00    -0.497 OA
ATOM     20  C   UNL     1      -1.063  43.458  53.413  1.00  0.00     0.278 C 
ENDBRANCH  14  19
ENDBRANCH  11  13
ENDBRANCH   1  11
BRANCH   3  21
ATOM     21  N   UNL     1       6.868  45.214  50.141  1.00  0.00    -0.367 N 
ATOM     22  H   UNL     1       6.492  45.746  49.356  1.00  0.00     0.162 HD
BRANCH  21  23
ATOM     23  C   UNL     1       6.303  43.863  50.158  1.00  0.00     0.142 C 
BRANCH  23  24
ATOM     24  C   UNL     1       7.039  43.002  49.125  1.00  0.00     0.177 C 
BRANCH  24  25
ATOM     25  O   UNL     1       8.411  43.399  49.030  1.00  0.00    -0.395 OA
ATOM     26  H   UNL     1       8.432  44.371  49.027  1.00  0.00     0.210 HD
ENDBRANCH  24  25
ENDBRANCH  23  24
ENDBRANCH  21  23
ENDBRANCH   3  21
TORSDOF 7
ENDMDL
MODEL 3
REMARK VINA RESULT:    -8.595      2.622      7.177
REMARK INTER + INTRA:         -12.285
REMARK INTER:                 -11.701
REMARK INTRA:                  -0.584
REMARK UNBOUND:                -0.423
REMARK SMILES COc1ccc(Nc2nc(NCCO)c3ccccc3n2)cc1
REMARK SMILES IDX 8 1 9 2 10 3 15 4 16 5 17 6 18 7 19 8 20 9 21 10 7 11 6 13
REMARK SMILES IDX 3 14 4 15 23 16 5 17 22 18 2 19 1 20 11 21 12 23 13 24 14 25
REMARK H PARENT 7 12 11 22 14 26
ROOT
ATOM      1  C   UNL     1       5.315  46.917  52.921  1.00  0.00     0.229 A 
ATOM      2  N   UNL     1       5.485  46.207  51.796  1.00  0.00    -0.195 NA
ATOM      3  C   UNL     1       6.740  45.952  51.385  1.00  0.00     0.139 A 
ATOM      4  C   UNL     1       7.861  46.372  52.119  1.00  0.00     0.043 A 
ATOM      5  C   UNL     1       9.213  46.101  51.781  1.00  0.00     0.014 A 
ATOM      6  C   UNL     1      10.256  46.575  52.574  1.00  0.00     0.001 A 
ATOM      7  C   UNL     1       9.963  47.319  53.708  1.00  0.00     0.002 A 
ATOM      8  C   UNL     1       8.631  47.576  54.043  1.00  0.00     0.029 A 
ATOM      9  C   UNL     1       7.574  47.110  53.269  1.00  0.00     0.078 A 
ATOM     10  N   UNL     1       6.327  47.384  53.657  1.00  0.00    -0.213 NA
ENDROOT
BRANCH   1  11
ATOM     11  N   UNL     1       3.985  47.140  53.269  1.00  0.00    -0.324 N 
ATOM     12  H   UNL     1       3.807  48.132  53.242  1.00  0.00     0.170 HD
BRANCH  11  13
ATOM     13  C   UNL     1       2.904  46.308  53.572  1.00  0.00     0.041 A 
ATOM     14  C   UNL     1       0.642  44.664  54.063  1.00  0.00     0.119 A 
ATOM     15  C   UNL     1       1.652  44.797  55.015  1.00  0.00     0.048 A 
ATOM     16  C   UNL     1       0.759  45.357  52.862  1.00  0.00     0.048 A 
ATOM     17  C   UNL     1       2.767  45.609  54.773  1.00  0.00     0.030 A 
ATOM     18  C   UNL     1       1.878  46.169  52.624  1.00  0.00     0.030 A 
BRANCH  14  19
ATOM     19  O   UNL     1      -0.388  43.843  54.425  1.00  0.00    -0.497 OA
ATOM     20  C   UNL     1      -1.416  44.415  55.222  1.00  0.00     0.278 C 
ENDBRANCH  14  19
ENDBRANCH  11  13
ENDBRANCH   1  11
BRANCH   3  21
ATOM     21  N   UNL     1       6.926  45.204  50.205  1.00  0.00    -0.367 N 
ATOM     22  H   UNL     1       6.610  45.743  49.399  1.00  0.00     0.162 HD
BRANCH  21  23
ATOM     23  C   UNL     1       6.317  43.873  50.198  1.00  0.00     0.142 C 
BRANCH  23  24
ATOM     24  C   UNL     1       7.075  42.982  49.207  1.00  0.00     0.177 C 
BRANCH  24  25
ATOM     25  O   UNL     1       8.443  43.392  49.113  1.00  0.00    -0.395 OA
ATOM     26  H   UNL     1       8.631  43.956  49.883  1.00  0.00     0.210 HD
ENDBRANCH  24  25
ENDBRANCH  23  24
ENDBRANCH  21  23
ENDBRANCH   3  21
TORSDOF 7
ENDMDL
MODEL 4
REMARK VINA RESULT:    -7.982      1.991      6.592
REMARK INTER + INTRA:         -11.439
REMARK INTER:                 -10.733
REMARK INTRA:                  -0.706
REMARK UNBOUND:                -0.423
REMARK SMILES COc1ccc(Nc2nc(NCCO)c3ccccc3n2)cc1
REMARK SMILES IDX 8 1 9 2 10 3 15 4 16 5 17 6 18 7 19 8 20 9 21 10 7 11 6 13
REMARK SMILES IDX 3 14 4 15 23 16 5 17 22 18 2 19 1 20 11 21 12 23 13 24 14 25
REMARK H PARENT 7 12 11 22 14 26
ROOT
ATOM      1  C   UNL     1       5.057  46.102  52.443  1.00  0.00     0.229 A 
ATOM      2  N   UNL     1       6.181  46.833  52.471  1.00  0.00    -0.195 NA
ATOM      3  C   UNL     1       7.219  46.436  51.713  1.00  0.00     0.139 A 
ATOM      4  C   UNL     1       7.140  45.313  50.875  1.00  0.00     0.043 A 
ATOM      5  C   UNL     1       8.170  44.858  50.009  1.00  0.00     0.014 A 
ATOM      6  C   UNL     1       7.993  43.721  49.225  1.00  0.00     0.001 A 
ATOM      7  C   UNL     1       6.792  43.029  49.292  1.00  0.00     0.002 A 
ATOM      8  C   UNL     1       5.777  43.484  50.138  1.00  0.00     0.029 A 
ATOM      9  C   UNL     1       5.929  44.618  50.928  1.00  0.00     0.078 A 
ATOM     10  N   UNL     1       4.912  45.001  51.702  1.00  0.00    -0.213 NA
ENDROOT
BRANCH   1  11
ATOM     11  N   UNL     1       4.036  46.580  53.261  1.00  0.00    -0.324 N 
ATOM     12  H   UNL     1       4.191  47.562  53.431  1.00  0.00     0.170 HD
BRANCH  11  13
ATOM     13  C   UNL     1       2.882  46.015  53.810  1.00  0.00     0.041 A 
ATOM     14  C   UNL     1       0.616  44.836  55.048  1.00  0.00     0.119 A 
ATOM     15  C   UNL     1       0.579  45.227  53.711  1.00  0.00     0.048 A 
ATOM     16  C   UNL     1       1.788  45.030  55.771  1.00  0.00     0.048 A 
ATOM     17  C   UNL     1       1.698  45.808  53.100  1.00  0.00     0.030 A 
ATOM     18  C   UNL     1       2.906  45.612  55.155  1.00  0.00     0.030 A 
BRANCH  14  19
ATOM     19  O   UNL     1      -0.542  44.284  55.520  1.00  0.00    -0.497 OA
ATOM     20  C   UNL     1      -1.491  43.858  54.552  1.00  0.00     0.278 C 
ENDBRANCH  14  19
ENDBRANCH  11  13
ENDBRANCH   1  11
BRANCH   3  21
ATOM     21  N   UNL     1       8.403  47.202  51.734  1.00  0.00    -0.367 N 
ATOM     22  H   UNL     1       8.863  47.153  50.824  1.00  0.00     0.162 HD
BRANCH  21  23
ATOM     23  C   UNL     1       9.349  46.873  52.801  1.00  0.00     0.142 C 
BRANCH  23  24
ATOM     24  C   UNL     1       9.176  47.876  53.948  1.00  0.00     0.177 C 
BRANCH  24  25
ATOM     25  O   UNL     1       8.121  47.458  54.821  1.00  0.00    -0.395 OA
ATOM     26  H   UNL     1       8.012  48.151  55.496  1.00  0.00     0.210 HD
ENDBRANCH  24  25
ENDBRANCH  23  24
ENDBRANCH  21  23
ENDBRANCH   3  21
TORSDOF 7
ENDMDL
MODEL 5
REMARK VINA RESULT:    -7.857      1.755      3.336
REMARK INTER + INTRA:         -11.266
REMARK INTER:                 -10.631
REMARK INTRA:                  -0.634
REMARK UNBOUND:                -0.423
REMARK SMILES COc1ccc(Nc2nc(NCCO)c3ccccc3n2)cc1
REMARK SMILES IDX 8 1 9 2 10 3 15 4 16 5 17 6 18 7 19 8 20 9 21 10 7 11 6 13
REMARK SMILES IDX 3 14 4 15 23 16 5 17 22 18 2 19 1 20 11 21 12 23 13 24 14 25
REMARK H PARENT 7 12 11 22 14 26
ROOT
ATOM      1  C   UNL     1       5.477  45.123  51.107  1.00  0.00     0.229 A 
ATOM      2  N   UNL     1       5.636  43.801  50.945  1.00  0.00    -0.195 NA
ATOM      3  C   UNL     1       4.550  43.012  51.029  1.00  0.00     0.139 A 
ATOM      4  C   UNL     1       3.265  43.538  51.239  1.00  0.00     0.043 A 
ATOM      5  C   UNL     1       2.065  42.781  51.290  1.00  0.00     0.014 A 
ATOM      6  C   UNL     1       0.839  43.402  51.517  1.00  0.00     0.001 A 
ATOM      7  C   UNL     1       0.795  44.778  51.691  1.00  0.00     0.002 A 
ATOM      8  C   UNL     1       1.977  45.521  51.631  1.00  0.00     0.029 A 
ATOM      9  C   UNL     1       3.212  44.924  51.403  1.00  0.00     0.078 A 
ATOM     10  N   UNL     1       4.297  45.699  51.347  1.00  0.00    -0.213 NA
ENDROOT
BRANCH   1  11
ATOM     11  N   UNL     1       6.654  45.863  51.011  1.00  0.00    -0.324 N 
ATOM     12  H   UNL     1       6.723  46.239  50.078  1.00  0.00     0.170 HD
BRANCH  11  13
ATOM     13  C   UNL     1       7.661  46.211  51.914  1.00  0.00     0.041 A 
ATOM     14  C   UNL     1       9.602  46.956  53.847  1.00  0.00     0.119 A 
ATOM     15  C   UNL     1       9.977  46.621  52.548  1.00  0.00     0.048 A 
ATOM     16  C   UNL     1       8.253  46.924  54.185  1.00  0.00     0.048 A 
ATOM     17  C   UNL     1       9.019  46.254  51.593  1.00  0.00     0.030 A 
ATOM     18  C   UNL     1       7.297  46.556  53.226  1.00  0.00     0.030 A 
BRANCH  14  19
ATOM     19  O   UNL     1      10.634  47.294  54.677  1.00  0.00    -0.497 OA
ATOM     20  C   UNL     1      10.290  47.877  55.926  1.00  0.00     0.278 C 
ENDBRANCH  14  19
ENDBRANCH  11  13
ENDBRANCH   1  11
BRANCH   3  21
ATOM     21  N   UNL     1       4.708  41.622  50.855  1.00  0.00    -0.367 N 
ATOM     22  H   UNL     1       5.382  41.263  51.533  1.00  0.00     0.162 HD
BRANCH  21  23
ATOM     23  C   UNL     1       5.065  41.190  49.503  1.00  0.00     0.142 C 
BRANCH  23  24
ATOM     24  C   UNL     1       3.813  40.645  48.806  1.00  0.00     0.177 C 
BRANCH  24  25
ATOM     25  O   UNL     1       3.102  39.760  49.677  1.00  0.00    -0.395 OA
ATOM     26  H   UNL     1       3.709  39.038  49.916  1.00  0.00     0.210 HD
ENDBRANCH  24  25
ENDBRANCH  23  24
ENDBRANCH  21  23
ENDBRANCH   3  21
TORSDOF 7
ENDMDL
MODEL 6
REMARK VINA RESULT:    -7.813      2.256      7.005
REMARK INTER + INTRA:         -11.205
REMARK INTER:                 -10.761
REMARK INTRA:                  -0.444
REMARK UNBOUND:                -0.423
REMARK SMILES COc1ccc(Nc2nc(NCCO)c3ccccc3n2)cc1
REMARK SMILES IDX 8 1 9 2 10 3 15 4 16 5 17 6 18 7 19 8 20 9 21 10 7 11 6 13
REMARK SMILES IDX 3 14 4 15 23 16 5 17 22 18 2 19 1 20 11 21 12 23 13 24 14 25
REMARK H PARENT 7 12 11 22 14 26
ROOT
ATOM      1  C   UNL     1       6.923  45.539  51.352  1.00  0.00     0.229 A 
ATOM      2  N   UNL     1       5.945  46.170  52.017  1.00  0.00    -0.195 NA
ATOM      3  C   UNL     1       6.277  46.902  53.096  1.00  0.00     0.139 A 
ATOM      4  C   UNL     1       7.610  47.050  53.512  1.00  0.00     0.043 A 
ATOM      5  C   UNL     1       8.047  47.843  54.605  1.00  0.00     0.014 A 
ATOM      6  C   UNL     1       9.397  47.913  54.941  1.00  0.00     0.001 A 
ATOM      7  C   UNL     1      10.322  47.199  54.193  1.00  0.00     0.002 A 
ATOM      8  C   UNL     1       9.889  46.427  53.111  1.00  0.00     0.029 A 
ATOM      9  C   UNL     1       8.548  46.344  52.755  1.00  0.00     0.078 A 
ATOM     10  N   UNL     1       8.210  45.597  51.702  1.00  0.00    -0.213 NA
ENDROOT
BRANCH   1  11
ATOM     11  N   UNL     1       6.490  44.799  50.254  1.00  0.00    -0.324 N 
ATOM     12  H   UNL     1       6.831  45.240  49.413  1.00  0.00     0.170 HD
BRANCH  11  13
ATOM     13  C   UNL     1       5.773  43.609  50.102  1.00  0.00     0.041 A 
ATOM     14  C   UNL     1       4.235  41.231  49.914  1.00  0.00     0.119 A 
ATOM     15  C   UNL     1       5.334  41.440  49.084  1.00  0.00     0.048 A 
ATOM     16  C   UNL     1       3.902  42.209  50.845  1.00  0.00     0.048 A 
ATOM     17  C   UNL     1       6.094  42.614  49.177  1.00  0.00     0.030 A 
ATOM     18  C   UNL     1       4.665  43.383  50.935  1.00  0.00     0.030 A 
BRANCH  14  19
ATOM     19  O   UNL     1       3.583  40.046  49.719  1.00  0.00    -0.497 OA
ATOM     20  C   UNL     1       3.411  39.621  48.374  1.00  0.00     0.278 C 
ENDBRANCH  14  19
ENDBRANCH  11  13
ENDBRANCH   1  11
BRANCH   3  21
ATOM     21  N   UNL     1       5.255  47.573  53.799  1.00  0.00    -0.367 N 
ATOM     22  H   UNL     1       5.647  48.044  54.614  1.00  0.00     0.162 HD
BRANCH  21  23
ATOM     23  C   UNL     1       4.110  46.749  54.188  1.00  0.00     0.142 C 
BRANCH  23  24
ATOM     24  C   UNL     1       4.517  45.853  55.364  1.00  0.00     0.177 C 
BRANCH  24  25
ATOM     25  O   UNL     1       3.640  44.726  55.460  1.00  0.00    -0.395 OA
ATOM     26  H   UNL     1       3.696  44.391  56.371  1.00  0.00     0.210 HD
ENDBRANCH  24  25
ENDBRANCH  23  24
ENDBRANCH  21  23
ENDBRANCH   3  21
TORSDOF 7
ENDMDL
MODEL 7
REMARK VINA RESULT:    -7.765      2.527      7.335
REMARK INTER + INTRA:         -11.139
REMARK INTER:                 -10.729
REMARK INTRA:                  -0.410
REMARK UNBOUND:                -0.423
REMARK SMILES COc1ccc(Nc2nc(NCCO)c3ccccc3n2)cc1
REMARK SMILES IDX 8 1 9 2 10 3 15 4 16 5 17 6 18 7 19 8 20 9 21 10 7 11 6 13
REMARK SMILES IDX 3 14 4 15 23 16 5 17 22 18 2 19 1 20 11 21 12 23 13 24 14 25
REMARK H PARENT 7 12 11 22 14 26
ROOT
ATOM      1  C   UNL     1       5.344  45.106  53.868  1.00  0.00     0.229 A 
ATOM      2  N   UNL     1       5.332  44.753  52.574  1.00  0.00    -0.195 NA
ATOM      3  C   UNL     1       6.336  45.178  51.787  1.00  0.00     0.139 A 
ATOM      4  C   UNL     1       7.403  45.939  52.291  1.00  0.00     0.043 A 
ATOM      5  C   UNL     1       8.524  46.382  51.540  1.00  0.00     0.014 A 
ATOM      6  C   UNL     1       9.526  47.144  52.136  1.00  0.00     0.001 A 
ATOM      7  C   UNL     1       9.424  47.469  53.481  1.00  0.00     0.002 A 
ATOM      8  C   UNL     1       8.325  47.023  54.220  1.00  0.00     0.029 A 
ATOM      9  C   UNL     1       7.314  46.258  53.648  1.00  0.00     0.078 A 
ATOM     10  N   UNL     1       6.301  45.857  54.418  1.00  0.00    -0.213 NA
ENDROOT
BRANCH   1  11
ATOM     11  N   UNL     1       4.264  44.629  54.608  1.00  0.00    -0.324 N 
ATOM     12  H   UNL     1       4.615  44.196  55.447  1.00  0.00     0.170 HD
BRANCH  11  13
ATOM     13  C   UNL     1       2.876  44.683  54.451  1.00  0.00     0.041 A 
ATOM     14  C   UNL     1       0.047  44.839  54.275  1.00  0.00     0.119 A 
ATOM     15  C   UNL     1       0.800  44.292  53.238  1.00  0.00     0.048 A 
ATOM     16  C   UNL     1       0.706  45.309  55.407  1.00  0.00     0.048 A 
ATOM     17  C   UNL     1       2.197  44.214  53.326  1.00  0.00     0.030 A 
ATOM     18  C   UNL     1       2.104  45.229  55.490  1.00  0.00     0.030 A 
BRANCH  14  19
ATOM     19  O   UNL     1      -1.302  44.855  54.062  1.00  0.00    -0.497 OA
ATOM     20  C   UNL     1      -1.847  43.777  53.312  1.00  0.00     0.278 C 
ENDBRANCH  14  19
ENDBRANCH  11  13
ENDBRANCH   1  11
BRANCH   3  21
ATOM     21  N   UNL     1       6.332  44.808  50.427  1.00  0.00    -0.367 N 
ATOM     22  H   UNL     1       5.636  45.355  49.920  1.00  0.00     0.162 HD
BRANCH  21  23
ATOM     23  C   UNL     1       6.150  43.380  50.161  1.00  0.00     0.142 C 
BRANCH  23  24
ATOM     24  C   UNL     1       7.027  42.978  48.968  1.00  0.00     0.177 C 
BRANCH  24  25
ATOM     25  O   UNL     1       8.392  43.332  49.210  1.00  0.00    -0.395 OA
ATOM     26  H   UNL     1       8.486  44.279  49.010  1.00  0.00     0.210 HD
ENDBRANCH  24  25
ENDBRANCH  23  24
ENDBRANCH  21  23
ENDBRANCH   3  21
TORSDOF 7
ENDMDL
MODEL 8
REMARK VINA RESULT:    -7.739      1.979      3.971
REMARK INTER + INTRA:         -11.103
REMARK INTER:                 -10.554
REMARK INTRA:                  -0.549
REMARK UNBOUND:                -0.423
REMARK SMILES COc1ccc(Nc2nc(NCCO)c3ccccc3n2)cc1
REMARK SMILES IDX 8 1 9 2 10 3 15 4 16 5 17 6 18 7 19 8 20 9 21 10 7 11 6 13
REMARK SMILES IDX 3 14 4 15 23 16 5 17 22 18 2 19 1 20 11 21 12 23 13 24 14 25
REMARK H PARENT 7 12 11 22 14 26
ROOT
ATOM      1  C   UNL     1       4.323  45.177  52.046  1.00  0.00     0.229 A 
ATOM      2  N   UNL     1       4.340  44.009  51.389  1.00  0.00    -0.195 NA
ATOM      3  C   UNL     1       3.378  43.109  51.661  1.00  0.00     0.139 A 
ATOM      4  C   UNL     1       2.348  43.377  52.575  1.00  0.00     0.043 A 
ATOM      5  C   UNL     1       1.270  42.504  52.880  1.00  0.00     0.014 A 
ATOM      6  C   UNL     1       0.303  42.864  53.816  1.00  0.00     0.001 A 
ATOM      7  C   UNL     1       0.397  44.093  54.453  1.00  0.00     0.002 A 
ATOM      8  C   UNL     1       1.453  44.954  54.144  1.00  0.00     0.029 A 
ATOM      9  C   UNL     1       2.429  44.619  53.211  1.00  0.00     0.078 A 
ATOM     10  N   UNL     1       3.401  45.497  52.958  1.00  0.00    -0.213 NA
ENDROOT
BRANCH   1  11
ATOM     11  N   UNL     1       5.358  46.047  51.709  1.00  0.00    -0.324 N 
ATOM     12  H   UNL     1       5.089  46.565  50.887  1.00  0.00     0.170 HD
BRANCH  11  13
ATOM     13  C   UNL     1       6.592  46.361  52.284  1.00  0.00     0.041 A 
ATOM     14  C   UNL     1       9.163  46.978  53.318  1.00  0.00     0.119 A 
ATOM     15  C   UNL     1       8.059  46.867  54.161  1.00  0.00     0.048 A 
ATOM     16  C   UNL     1       8.986  46.778  51.953  1.00  0.00     0.048 A 
ATOM     17  C   UNL     1       6.791  46.561  53.651  1.00  0.00     0.030 A 
ATOM     18  C   UNL     1       7.714  46.472  51.446  1.00  0.00     0.030 A 
BRANCH  14  19
ATOM     19  O   UNL     1      10.339  47.280  53.944  1.00  0.00    -0.497 OA
ATOM     20  C   UNL     1      10.282  47.504  55.346  1.00  0.00     0.278 C 
ENDBRANCH  14  19
ENDBRANCH  11  13
ENDBRANCH   1  11
BRANCH   3  21
ATOM     21  N   UNL     1       3.387  41.880  50.970  1.00  0.00    -0.367 N 
ATOM     22  H   UNL     1       2.820  41.196  51.472  1.00  0.00     0.162 HD
BRANCH  21  23
ATOM     23  C   UNL     1       4.711  41.328  50.678  1.00  0.00     0.142 C 
BRANCH  23  24
ATOM     24  C   UNL     1       4.852  41.142  49.163  1.00  0.00     0.177 C 
BRANCH  24  25
ATOM     25  O   UNL     1       6.228  40.984  48.805  1.00  0.00    -0.395 OA
ATOM     26  H   UNL     1       6.761  41.259  49.571  1.00  0.00     0.210 HD
ENDBRANCH  24  25
ENDBRANCH  23  24
ENDBRANCH  21  23
ENDBRANCH   3  21
TORSDOF 7
ENDMDL
MODEL 9
REMARK VINA RESULT:    -7.630      2.772      7.505
REMARK INTER + INTRA:         -10.953
REMARK INTER:                 -10.588
REMARK INTRA:                  -0.365
REMARK UNBOUND:                -0.423
REMARK SMILES COc1ccc(Nc2nc(NCCO)c3ccccc3n2)cc1
REMARK SMILES IDX 8 1 9 2 10 3 15 4 16 5 17 6 18 7 19 8 20 9 21 10 7 11 6 13
REMARK SMILES IDX 3 14 4 15 23 16 5 17 22 18 2 19 1 20 11 21 12 23 13 24 14 25
REMARK H PARENT 7 12 11 22 14 26
ROOT
ATOM      1  C   UNL     1       4.469  44.914  53.475  1.00  0.00     0.229 A 
ATOM      2  N   UNL     1       4.614  44.201  52.349  1.00  0.00    -0.195 NA
ATOM      3  C   UNL     1       5.610  44.531  51.507  1.00  0.00     0.139 A 
ATOM      4  C   UNL     1       6.513  45.566  51.796  1.00  0.00     0.043 A 
ATOM      5  C   UNL     1       7.618  45.943  50.988  1.00  0.00     0.014 A 
ATOM      6  C   UNL     1       8.449  46.996  51.361  1.00  0.00     0.001 A 
ATOM      7  C   UNL     1       8.192  47.680  52.541  1.00  0.00     0.002 A 
ATOM      8  C   UNL     1       7.110  47.300  53.339  1.00  0.00     0.029 A 
ATOM      9  C   UNL     1       6.268  46.251  52.989  1.00  0.00     0.078 A 
ATOM     10  N   UNL     1       5.262  45.936  53.807  1.00  0.00    -0.213 NA
ENDROOT
BRANCH   1  11
ATOM     11  N   UNL     1       3.411  44.509  54.285  1.00  0.00    -0.324 N 
ATOM     12  H   UNL     1       3.707  44.551  55.247  1.00  0.00     0.170 HD
BRANCH  11  13
ATOM     13  C   UNL     1       2.086  44.136  54.042  1.00  0.00     0.041 A 
ATOM     14  C   UNL     1      -0.648  43.491  53.637  1.00  0.00     0.119 A 
ATOM     15  C   UNL     1       0.362  42.664  53.149  1.00  0.00     0.048 A 
ATOM     16  C   UNL     1      -0.296  44.642  54.333  1.00  0.00     0.048 A 
ATOM     17  C   UNL     1       1.712  42.982  53.350  1.00  0.00     0.030 A 
ATOM     18  C   UNL     1       1.057  44.957  54.531  1.00  0.00     0.030 A 
BRANCH  14  19
ATOM     19  O   UNL     1      -1.920  43.064  53.372  1.00  0.00    -0.497 OA
ATOM     20  C   UNL     1      -2.827  44.030  52.859  1.00  0.00     0.278 C 
ENDBRANCH  14  19
ENDBRANCH  11  13
ENDBRANCH   1  11
BRANCH   3  21
ATOM     21  N   UNL     1       5.771  43.783  50.323  1.00  0.00    -0.367 N 
ATOM     22  H   UNL     1       5.251  44.222  49.563  1.00  0.00     0.162 HD
BRANCH  21  23
ATOM     23  C   UNL     1       5.429  42.363  50.421  1.00  0.00     0.142 C 
BRANCH  23  24
ATOM     24  C   UNL     1       6.270  41.576  49.409  1.00  0.00     0.177 C 
BRANCH  24  25
ATOM     25  O   UNL     1       7.282  40.820  50.082  1.00  0.00    -0.395 OA
ATOM     26  H   UNL     1       6.837  40.095  50.554  1.00  0.00     0.210 HD
ENDBRANCH  24  25
ENDBRANCH  23  24
ENDBRANCH  21  23
ENDBRANCH   3  21
TORSDOF 7
ENDMDL
MODEL 10
REMARK VINA RESULT:    -7.611      1.930      7.453
REMARK INTER + INTRA:         -10.927
REMARK INTER:                 -10.431
REMARK INTRA:                  -0.495
REMARK UNBOUND:                -0.423
REMARK SMILES COc1ccc(Nc2nc(NCCO)c3ccccc3n2)cc1
REMARK SMILES IDX 8 1 9 2 10 3 15 4 16 5 17 6 18 7 19 8 20 9 21 10 7 11 6 13
REMARK SMILES IDX 3 14 4 15 23 16 5 17 22 18 2 19 1 20 11 21 12 23 13 24 14 25
REMARK H PARENT 7 12 11 22 14 26
ROOT
ATOM      1  C   UNL     1       4.256  44.466  52.943  1.00  0.00     0.229 A 
ATOM      2  N   UNL     1       4.973  45.556  53.249  1.00  0.00    -0.195 NA
ATOM      3  C   UNL     1       6.063  45.831  52.510  1.00  0.00     0.139 A 
ATOM      4  C   UNL     1       6.439  45.035  51.417  1.00  0.00     0.043 A 
ATOM      5  C   UNL     1       7.542  45.284  50.558  1.00  0.00     0.014 A 
ATOM      6  C   UNL     1       7.836  44.422  49.505  1.00  0.00     0.001 A 
ATOM      7  C   UNL     1       7.035  43.309  49.294  1.00  0.00     0.002 A 
ATOM      8  C   UNL     1       5.944  43.072  50.134  1.00  0.00     0.029 A 
ATOM      9  C   UNL     1       5.629  43.920  51.190  1.00  0.00     0.078 A 
ATOM     10  N   UNL     1       4.565  43.636  51.943  1.00  0.00    -0.213 NA
ENDROOT
BRANCH   1  11
ATOM     11  N   UNL     1       3.149  44.253  53.762  1.00  0.00    -0.324 N 
ATOM     12  H   UNL     1       3.418  44.425  54.719  1.00  0.00     0.170 HD
BRANCH  11  13
ATOM     13  C   UNL     1       1.811  43.926  53.526  1.00  0.00     0.041 A 
ATOM     14  C   UNL     1      -0.941  43.407  53.060  1.00  0.00     0.119 A 
ATOM     15  C   UNL     1      -0.030  42.362  53.212  1.00  0.00     0.048 A 
ATOM     16  C   UNL     1      -0.479  44.716  53.143  1.00  0.00     0.048 A 
ATOM     17  C   UNL     1       1.328  42.619  53.444  1.00  0.00     0.030 A 
ATOM     18  C   UNL     1       0.881  44.968  53.375  1.00  0.00     0.030 A 
BRANCH  14  19
ATOM     19  O   UNL     1      -2.232  43.018  52.840  1.00  0.00    -0.497 OA
ATOM     20  C   UNL     1      -3.254  43.878  53.327  1.00  0.00     0.278 C 
ENDBRANCH  14  19
ENDBRANCH  11  13
ENDBRANCH   1  11
BRANCH   3  21
ATOM     21  N   UNL     1       6.820  46.979  52.823  1.00  0.00    -0.367 N 
ATOM     22  H   UNL     1       7.529  47.132  52.105  1.00  0.00     0.162 HD
BRANCH  21  23
ATOM     23  C   UNL     1       7.431  46.990  54.153  1.00  0.00     0.142 C 
BRANCH  23  24
ATOM     24  C   UNL     1       8.791  47.694  54.072  1.00  0.00     0.177 C 
BRANCH  24  25
ATOM     25  O   UNL     1       9.071  48.381  55.296  1.00  0.00    -0.395 OA
ATOM     26  H   UNL     1       8.351  49.019  55.442  1.00  0.00     0.210 HD
ENDBRANCH  24  25
ENDBRANCH  23  24
ENDBRANCH  21  23
ENDBRANCH   3  21
TORSDOF 7
ENDMDL
MODEL 11
REMARK VINA RESULT:    -7.606      3.153      6.958
REMARK INTER + INTRA:         -10.920
REMARK INTER:                 -10.497
REMARK INTRA:                  -0.423
REMARK UNBOUND:                -0.423
REMARK SMILES COc1ccc(Nc2nc(NCCO)c3ccccc3n2)cc1
REMARK SMILES IDX 8 1 9 2 10 3 15 4 16 5 17 6 18 7 19 8 20 9 21 10 7 11 6 13
REMARK SMILES IDX 3 14 4 15 23 16 5 17 22 18 2 19 1 20 11 21 12 23 13 24 14 25
REMARK H PARENT 7 12 11 22 14 26
ROOT
ATOM      1  C   UNL     1       4.452  44.362  52.856  1.00  0.00     0.229 A 
ATOM      2  N   UNL     1       4.772  43.805  51.679  1.00  0.00    -0.195 NA
ATOM      3  C   UNL     1       5.799  44.327  50.984  1.00  0.00     0.139 A 
ATOM      4  C   UNL     1       6.557  45.401  51.474  1.00  0.00     0.043 A 
ATOM      5  C   UNL     1       7.684  45.975  50.828  1.00  0.00     0.014 A 
ATOM      6  C   UNL     1       8.362  47.051  51.397  1.00  0.00     0.001 A 
ATOM      7  C   UNL     1       7.928  47.562  52.612  1.00  0.00     0.002 A 
ATOM      8  C   UNL     1       6.825  46.988  53.251  1.00  0.00     0.029 A 
ATOM      9  C   UNL     1       6.135  45.912  52.704  1.00  0.00     0.078 A 
ATOM     10  N   UNL     1       5.098  45.408  53.376  1.00  0.00    -0.213 NA
ENDROOT
BRANCH   1  11
ATOM     11  N   UNL     1       3.373  43.764  53.504  1.00  0.00    -0.324 N 
ATOM     12  H   UNL     1       3.524  42.767  53.528  1.00  0.00     0.170 HD
BRANCH  11  13
ATOM     13  C   UNL     1       2.227  44.250  54.139  1.00  0.00     0.041 A 
ATOM     14  C   UNL     1      -0.016  45.278  55.542  1.00  0.00     0.119 A 
ATOM     15  C   UNL     1      -0.177  44.579  54.348  1.00  0.00     0.048 A 
ATOM     16  C   UNL     1       1.269  45.464  56.042  1.00  0.00     0.048 A 
ATOM     17  C   UNL     1       0.930  44.070  53.656  1.00  0.00     0.030 A 
ATOM     18  C   UNL     1       2.375  44.954  55.345  1.00  0.00     0.030 A 
BRANCH  14  19
ATOM     19  O   UNL     1      -1.176  45.719  56.114  1.00  0.00    -0.497 OA
ATOM     20  C   UNL     1      -1.052  46.591  57.229  1.00  0.00     0.278 C 
ENDBRANCH  14  19
ENDBRANCH  11  13
ENDBRANCH   1  11
BRANCH   3  21
ATOM     21  N   UNL     1       6.144  43.743  49.747  1.00  0.00    -0.367 N 
ATOM     22  H   UNL     1       5.346  43.777  49.113  1.00  0.00     0.162 HD
BRANCH  21  23
ATOM     23  C   UNL     1       6.682  42.384  49.818  1.00  0.00     0.142 C 
BRANCH  23  24
ATOM     24  C   UNL     1       5.722  41.430  49.097  1.00  0.00     0.177 C 
BRANCH  24  25
ATOM     25  O   UNL     1       6.087  41.300  47.720  1.00  0.00    -0.395 OA
ATOM     26  H   UNL     1       6.915  40.790  47.686  1.00  0.00     0.210 HD
ENDBRANCH  24  25
ENDBRANCH  23  24
ENDBRANCH  21  23
ENDBRANCH   3  21
TORSDOF 7
ENDMDL
MODEL 12
REMARK VINA RESULT:    -7.599      2.409      6.895
REMARK INTER + INTRA:         -10.910
REMARK INTER:                 -10.487
REMARK INTRA:                  -0.423
REMARK UNBOUND:                -0.423
REMARK SMILES COc1ccc(Nc2nc(NCCO)c3ccccc3n2)cc1
REMARK SMILES IDX 8 1 9 2 10 3 15 4 16 5 17 6 18 7 19 8 20 9 21 10 7 11 6 13
REMARK SMILES IDX 3 14 4 15 23 16 5 17 22 18 2 19 1 20 11 21 12 23 13 24 14 25
REMARK H PARENT 7 12 11 22 14 26
ROOT
ATOM      1  C   UNL     1       5.825  45.330  51.558  1.00  0.00     0.229 A 
ATOM      2  N   UNL     1       5.415  45.726  52.772  1.00  0.00    -0.195 NA
ATOM      3  C   UNL     1       6.321  46.266  53.607  1.00  0.00     0.139 A 
ATOM      4  C   UNL     1       7.659  46.459  53.226  1.00  0.00     0.043 A 
ATOM      5  C   UNL     1       8.662  47.067  54.026  1.00  0.00     0.014 A 
ATOM      6  C   UNL     1       9.967  47.200  53.556  1.00  0.00     0.001 A 
ATOM      7  C   UNL     1      10.283  46.734  52.288  1.00  0.00     0.002 A 
ATOM      8  C   UNL     1       9.291  46.146  51.499  1.00  0.00     0.029 A 
ATOM      9  C   UNL     1       7.982  46.005  51.945  1.00  0.00     0.078 A 
ATOM     10  N   UNL     1       7.085  45.444  51.132  1.00  0.00    -0.213 NA
ENDROOT
BRANCH   1  11
ATOM     11  N   UNL     1       4.824  44.776  50.762  1.00  0.00    -0.324 N 
ATOM     12  H   UNL     1       5.171  44.694  49.819  1.00  0.00     0.170 HD
BRANCH  11  13
ATOM     13  C   UNL     1       3.538  44.290  51.012  1.00  0.00     0.041 A 
ATOM     14  C   UNL     1       0.982  43.163  51.515  1.00  0.00     0.119 A 
ATOM     15  C   UNL     1       1.129  44.529  51.279  1.00  0.00     0.048 A 
ATOM     16  C   UNL     1       2.113  42.354  51.498  1.00  0.00     0.048 A 
ATOM     17  C   UNL     1       2.391  45.084  51.029  1.00  0.00     0.030 A 
ATOM     18  C   UNL     1       3.375  42.915  51.248  1.00  0.00     0.030 A 
BRANCH  14  19
ATOM     19  O   UNL     1      -0.301  42.753  51.745  1.00  0.00    -0.497 OA
ATOM     20  C   UNL     1      -0.819  42.963  53.051  1.00  0.00     0.278 C 
ENDBRANCH  14  19
ENDBRANCH  11  13
ENDBRANCH   1  11
BRANCH   3  21
ATOM     21  N   UNL     1       5.898  46.689  54.883  1.00  0.00    -0.367 N 
ATOM     22  H   UNL     1       6.035  45.938  55.560  1.00  0.00     0.162 HD
BRANCH  21  23
ATOM     23  C   UNL     1       4.527  47.197  54.958  1.00  0.00     0.142 C 
BRANCH  23  24
ATOM     24  C   UNL     1       3.598  46.064  55.410  1.00  0.00     0.177 C 
BRANCH  24  25
ATOM     25  O   UNL     1       4.360  44.906  55.768  1.00  0.00    -0.395 OA
ATOM     26  H   UNL     1       5.211  45.217  56.122  1.00  0.00     0.210 HD
ENDBRANCH  24  25
ENDBRANCH  23  24
ENDBRANCH  21  23
ENDBRANCH   3  21
TORSDOF 7
ENDMDL
MODEL 13
REMARK VINA RESULT:    -7.594      2.705      7.332
REMARK INTER + INTRA:         -10.903
REMARK INTER:                 -10.329
REMARK INTRA:                  -0.574
REMARK UNBOUND:                -0.423
REMARK SMILES COc1ccc(Nc2nc(NCCO)c3ccccc3n2)cc1
REMARK SMILES IDX 8 1 9 2 10 3 15 4 16 5 17 6 18 7 19 8 20 9 21 10 7 11 6 13
REMARK SMILES IDX 3 14 4 15 23 16 5 17 22 18 2 19 1 20 11 21 12 23 13 24 14 25
REMARK H PARENT 7 12 11 22 14 26
ROOT
ATOM      1  C   UNL     1       6.700  43.726  50.073  1.00  0.00     0.229 A 
ATOM      2  N   UNL     1       5.686  43.678  50.949  1.00  0.00    -0.195 NA
ATOM      3  C   UNL     1       5.595  44.649  51.875  1.00  0.00     0.139 A 
ATOM      4  C   UNL     1       6.502  45.720  51.919  1.00  0.00     0.043 A 
ATOM      5  C   UNL     1       6.447  46.808  52.829  1.00  0.00     0.014 A 
ATOM      6  C   UNL     1       7.407  47.817  52.796  1.00  0.00     0.001 A 
ATOM      7  C   UNL     1       8.426  47.753  51.857  1.00  0.00     0.002 A 
ATOM      8  C   UNL     1       8.473  46.686  50.956  1.00  0.00     0.029 A 
ATOM      9  C   UNL     1       7.524  45.670  50.968  1.00  0.00     0.078 A 
ATOM     10  N   UNL     1       7.626  44.688  50.070  1.00  0.00    -0.213 NA
ENDROOT
BRANCH   1  11
ATOM     11  N   UNL     1       6.722  42.678  49.155  1.00  0.00    -0.324 N 
ATOM     12  H   UNL     1       7.682  42.431  48.971  1.00  0.00     0.170 HD
BRANCH  11  13
ATOM     13  C   UNL     1       5.736  41.914  48.525  1.00  0.00     0.041 A 
ATOM     14  C   UNL     1       3.773  40.426  47.115  1.00  0.00     0.119 A 
ATOM     15  C   UNL     1       3.836  40.390  48.507  1.00  0.00     0.048 A 
ATOM     16  C   UNL     1       4.691  41.209  46.422  1.00  0.00     0.048 A 
ATOM     17  C   UNL     1       4.805  41.126  49.203  1.00  0.00     0.030 A 
ATOM     18  C   UNL     1       5.658  41.944  47.123  1.00  0.00     0.030 A 
BRANCH  14  19
ATOM     19  O   UNL     1       2.783  39.663  46.563  1.00  0.00    -0.497 OA
ATOM     20  C   UNL     1       2.726  38.299  46.959  1.00  0.00     0.278 C 
ENDBRANCH  14  19
ENDBRANCH  11  13
ENDBRANCH   1  11
BRANCH   3  21
ATOM     21  N   UNL     1       4.529  44.607  52.797  1.00  0.00    -0.367 N 
ATOM     22  H   UNL     1       4.644  43.810  53.423  1.00  0.00     0.162 HD
BRANCH  21  23
ATOM     23  C   UNL     1       3.188  44.607  52.213  1.00  0.00     0.142 C 
BRANCH  23  24
ATOM     24  C   UNL     1       2.442  43.350  52.675  1.00  0.00     0.177 C 
BRANCH  24  25
ATOM     25  O   UNL     1       3.292  42.202  52.583  1.00  0.00    -0.395 OA
ATOM     26  H   UNL     1       4.087  42.387  53.112  1.00  0.00     0.210 HD
ENDBRANCH  24  25
ENDBRANCH  23  24
ENDBRANCH  21  23
ENDBRANCH   3  21
TORSDOF 7
ENDMDL
MODEL 14
REMARK VINA RESULT:    -7.564      3.015      7.114
REMARK INTER + INTRA:         -10.861
REMARK INTER:                 -10.120
REMARK INTRA:                  -0.742
REMARK UNBOUND:                -0.423
REMARK SMILES COc1ccc(Nc2nc(NCCO)c3ccccc3n2)cc1
REMARK SMILES IDX 8 1 9 2 10 3 15 4 16 5 17 6 18 7 19 8 20 9 21 10 7 11 6 13
REMARK SMILES IDX 3 14 4 15 23 16 5 17 22 18 2 19 1 20 11 21 12 23 13 24 14 25
REMARK H PARENT 7 12 11 22 14 26
ROOT
ATOM      1  C   UNL     1       3.898  43.018  51.797  1.00  0.00     0.229 A 
ATOM      2  N   UNL     1       4.087  44.157  52.479  1.00  0.00    -0.195 NA
ATOM      3  C   UNL     1       5.168  44.903  52.190  1.00  0.00     0.139 A 
ATOM      4  C   UNL     1       6.070  44.542  51.177  1.00  0.00     0.043 A 
ATOM      5  C   UNL     1       7.203  45.297  50.777  1.00  0.00     0.014 A 
ATOM      6  C   UNL     1       8.043  44.842  49.763  1.00  0.00     0.001 A 
ATOM      7  C   UNL     1       7.762  43.635  49.138  1.00  0.00     0.002 A 
ATOM      8  C   UNL     1       6.640  42.899  49.528  1.00  0.00     0.029 A 
ATOM      9  C   UNL     1       5.786  43.334  50.534  1.00  0.00     0.078 A 
ATOM     10  N   UNL     1       4.727  42.584  50.844  1.00  0.00    -0.213 NA
ENDROOT
BRANCH   1  11
ATOM     11  N   UNL     1       2.759  42.305  52.165  1.00  0.00    -0.324 N 
ATOM     12  H   UNL     1       3.020  41.345  52.329  1.00  0.00     0.170 HD
BRANCH  11  13
ATOM     13  C   UNL     1       1.425  42.650  52.392  1.00  0.00     0.041 A 
ATOM     14  C   UNL     1      -1.296  43.395  52.711  1.00  0.00     0.119 A 
ATOM     15  C   UNL     1      -0.526  43.007  53.806  1.00  0.00     0.048 A 
ATOM     16  C   UNL     1      -0.707  43.416  51.451  1.00  0.00     0.048 A 
ATOM     17  C   UNL     1       0.817  42.640  53.649  1.00  0.00     0.030 A 
ATOM     18  C   UNL     1       0.638  43.048  51.298  1.00  0.00     0.030 A 
BRANCH  14  19
ATOM     19  O   UNL     1      -2.589  43.727  53.003  1.00  0.00    -0.497 OA
ATOM     20  C   UNL     1      -2.865  44.117  54.342  1.00  0.00     0.278 C 
ENDBRANCH  14  19
ENDBRANCH  11  13
ENDBRANCH   1  11
BRANCH   3  21
ATOM     21  N   UNL     1       5.371  46.104  52.901  1.00  0.00    -0.367 N 
ATOM     22  H   UNL     1       6.071  46.673  52.426  1.00  0.00     0.162 HD
BRANCH  21  23
ATOM     23  C   UNL     1       5.713  45.951  54.316  1.00  0.00     0.142 C 
BRANCH  23  24
ATOM     24  C   UNL     1       4.437  46.082  55.155  1.00  0.00     0.177 C 
BRANCH  24  25
ATOM     25  O   UNL     1       3.957  44.790  55.541  1.00  0.00    -0.395 OA
ATOM     26  H   UNL     1       2.996  44.781  55.390  1.00  0.00     0.210 HD
ENDBRANCH  24  25
ENDBRANCH  23  24
ENDBRANCH  21  23
ENDBRANCH   3  21
TORSDOF 7
ENDMDL
MODEL 15
REMARK VINA RESULT:    -7.555      2.059      4.436
REMARK INTER + INTRA:         -10.849
REMARK INTER:                 -10.337
REMARK INTRA:                  -0.512
REMARK UNBOUND:                -0.423
REMARK SMILES COc1ccc(Nc2nc(NCCO)c3ccccc3n2)cc1
REMARK SMILES IDX 8 1 9 2 10 3 15 4 16 5 17 6 18 7 19 8 20 9 21 10 7 11 6 13
REMARK SMILES IDX 3 14 4 15 23 16 5 17 22 18 2 19 1 20 11 21 12 23 13 24 14 25
REMARK H PARENT 7 12 11 22 14 26
ROOT
ATOM      1  C   UNL     1       3.619  45.695  53.429  1.00  0.00     0.229 A 
ATOM      2  N   UNL     1       3.989  44.584  52.777  1.00  0.00    -0.195 NA
ATOM      3  C   UNL     1       3.130  43.549  52.740  1.00  0.00     0.139 A 
ATOM      4  C   UNL     1       1.857  43.620  53.327  1.00  0.00     0.043 A 
ATOM      5  C   UNL     1       0.875  42.595  53.289  1.00  0.00     0.014 A 
ATOM      6  C   UNL     1      -0.357  42.762  53.916  1.00  0.00     0.001 A 
ATOM      7  C   UNL     1      -0.625  43.950  54.582  1.00  0.00     0.002 A 
ATOM      8  C   UNL     1       0.339  44.961  54.609  1.00  0.00     0.029 A 
ATOM      9  C   UNL     1       1.575  44.818  53.988  1.00  0.00     0.078 A 
ATOM     10  N   UNL     1       2.442  45.831  54.045  1.00  0.00    -0.213 NA
ENDROOT
BRANCH   1  11
ATOM     11  N   UNL     1       4.569  46.713  53.424  1.00  0.00    -0.324 N 
ATOM     12  H   UNL     1       4.114  47.581  53.659  1.00  0.00     0.170 HD
BRANCH  11  13
ATOM     13  C   UNL     1       5.952  46.754  53.226  1.00  0.00     0.041 A 
ATOM     14  C   UNL     1       8.777  46.866  52.969  1.00  0.00     0.119 A 
ATOM     15  C   UNL     1       7.960  46.744  51.847  1.00  0.00     0.048 A 
ATOM     16  C   UNL     1       8.184  46.935  54.225  1.00  0.00     0.048 A 
ATOM     17  C   UNL     1       6.566  46.690  51.973  1.00  0.00     0.030 A 
ATOM     18  C   UNL     1       6.788  46.881  54.348  1.00  0.00     0.030 A 
BRANCH  14  19
ATOM     19  O   UNL     1      10.117  46.907  52.705  1.00  0.00    -0.497 OA
ATOM     20  C   UNL     1      10.608  45.996  51.731  1.00  0.00     0.278 C 
ENDBRANCH  14  19
ENDBRANCH  11  13
ENDBRANCH   1  11
BRANCH   3  21
ATOM     21  N   UNL     1       3.510  42.378  52.052  1.00  0.00    -0.367 N 
ATOM     22  H   UNL     1       3.728  41.639  52.721  1.00  0.00     0.162 HD
BRANCH  21  23
ATOM     23  C   UNL     1       4.604  42.536  51.093  1.00  0.00     0.142 C 
BRANCH  23  24
ATOM     24  C   UNL     1       4.537  41.399  50.067  1.00  0.00     0.177 C 
BRANCH  24  25
ATOM     25  O   UNL     1       3.495  40.479  50.409  1.00  0.00    -0.395 OA
ATOM     26  H   UNL     1       3.786  39.594  50.130  1.00  0.00     0.210 HD
ENDBRANCH  24  25
ENDBRANCH  23  24
ENDBRANCH  21  23
ENDBRANCH   3  21
TORSDOF 7
ENDMDL
MODEL 16
REMARK VINA RESULT:    -7.528      2.898      7.540
REMARK INTER + INTRA:         -10.812
REMARK INTER:                 -10.187
REMARK INTRA:                  -0.625
REMARK UNBOUND:                -0.423
REMARK SMILES COc1ccc(Nc2nc(NCCO)c3ccccc3n2)cc1
REMARK SMILES IDX 8 1 9 2 10 3 15 4 16 5 17 6 18 7 19 8 20 9 21 10 7 11 6 13
REMARK SMILES IDX 3 14 4 15 23 16 5 17 22 18 2 19 1 20 11 21 12 23 13 24 14 25
REMARK H PARENT 7 12 11 22 14 26
ROOT
ATOM      1  C   UNL     1       6.224  43.061  49.944  1.00  0.00     0.229 A 
ATOM      2  N   UNL     1       5.189  43.042  50.795  1.00  0.00    -0.195 NA
ATOM      3  C   UNL     1       5.073  44.047  51.683  1.00  0.00     0.139 A 
ATOM      4  C   UNL     1       5.977  45.120  51.711  1.00  0.00     0.043 A 
ATOM      5  C   UNL     1       5.897  46.241  52.578  1.00  0.00     0.014 A 
ATOM      6  C   UNL     1       6.857  47.249  52.532  1.00  0.00     0.001 A 
ATOM      7  C   UNL     1       7.900  47.154  51.623  1.00  0.00     0.002 A 
ATOM      8  C   UNL     1       7.971  46.055  50.763  1.00  0.00     0.029 A 
ATOM      9  C   UNL     1       7.024  45.037  50.788  1.00  0.00     0.078 A 
ATOM     10  N   UNL     1       7.149  44.024  49.929  1.00  0.00    -0.213 NA
ENDROOT
BRANCH   1  11
ATOM     11  N   UNL     1       6.271  41.980  49.066  1.00  0.00    -0.324 N 
ATOM     12  H   UNL     1       7.061  41.403  49.307  1.00  0.00     0.170 HD
BRANCH  11  13
ATOM     13  C   UNL     1       5.455  41.539  48.021  1.00  0.00     0.041 A 
ATOM     14  C   UNL     1       3.875  40.730  45.806  1.00  0.00     0.119 A 
ATOM     15  C   UNL     1       3.551  40.330  47.101  1.00  0.00     0.048 A 
ATOM     16  C   UNL     1       4.990  41.539  45.613  1.00  0.00     0.048 A 
ATOM     17  C   UNL     1       4.330  40.730  48.194  1.00  0.00     0.030 A 
ATOM     18  C   UNL     1       5.768  41.937  46.711  1.00  0.00     0.030 A 
BRANCH  14  19
ATOM     19  O   UNL     1       3.033  40.270  44.832  1.00  0.00    -0.497 OA
ATOM     20  C   UNL     1       1.705  40.776  44.840  1.00  0.00     0.278 C 
ENDBRANCH  14  19
ENDBRANCH  11  13
ENDBRANCH   1  11
BRANCH   3  21
ATOM     21  N   UNL     1       3.984  44.036  52.578  1.00  0.00    -0.367 N 
ATOM     22  H   UNL     1       3.954  43.147  53.077  1.00  0.00     0.162 HD
BRANCH  21  23
ATOM     23  C   UNL     1       2.678  44.334  51.989  1.00  0.00     0.142 C 
BRANCH  23  24
ATOM     24  C   UNL     1       1.754  43.127  52.187  1.00  0.00     0.177 C 
BRANCH  24  25
ATOM     25  O   UNL     1       2.330  42.205  53.118  1.00  0.00    -0.395 OA
ATOM     26  H   UNL     1       2.672  42.724  53.866  1.00  0.00     0.210 HD
ENDBRANCH  24  25
ENDBRANCH  23  24
ENDBRANCH  21  23
ENDBRANCH   3  21
TORSDOF 7
ENDMDL
MODEL 17
REMARK VINA RESULT:    -7.510      3.021      7.140
REMARK INTER + INTRA:         -10.787
REMARK INTER:                 -10.079
REMARK INTRA:                  -0.708
REMARK UNBOUND:                -0.423
REMARK SMILES COc1ccc(Nc2nc(NCCO)c3ccccc3n2)cc1
REMARK SMILES IDX 8 1 9 2 10 3 15 4 16 5 17 6 18 7 19 8 20 9 21 10 7 11 6 13
REMARK SMILES IDX 3 14 4 15 23 16 5 17 22 18 2 19 1 20 11 21 12 23 13 24 14 25
REMARK H PARENT 7 12 11 22 14 26
ROOT
ATOM      1  C   UNL     1       3.915  43.065  51.654  1.00  0.00     0.229 A 
ATOM      2  N   UNL     1       4.080  44.194  52.359  1.00  0.00    -0.195 NA
ATOM      3  C   UNL     1       5.170  44.944  52.118  1.00  0.00     0.139 A 
ATOM      4  C   UNL     1       6.106  44.597  51.132  1.00  0.00     0.043 A 
ATOM      5  C   UNL     1       7.253  45.358  50.782  1.00  0.00     0.014 A 
ATOM      6  C   UNL     1       8.128  44.916  49.792  1.00  0.00     0.001 A 
ATOM      7  C   UNL     1       7.869  43.719  49.141  1.00  0.00     0.002 A 
ATOM      8  C   UNL     1       6.735  42.977  49.480  1.00  0.00     0.029 A 
ATOM      9  C   UNL     1       5.846  43.399  50.462  1.00  0.00     0.078 A 
ATOM     10  N   UNL     1       4.776  42.644  50.725  1.00  0.00    -0.213 NA
ENDROOT
BRANCH   1  11
ATOM     11  N   UNL     1       2.764  42.347  51.972  1.00  0.00    -0.324 N 
ATOM     12  H   UNL     1       3.013  41.377  52.094  1.00  0.00     0.170 HD
BRANCH  11  13
ATOM     13  C   UNL     1       1.430  42.695  52.198  1.00  0.00     0.041 A 
ATOM     14  C   UNL     1      -1.263  43.361  52.798  1.00  0.00     0.119 A 
ATOM     15  C   UNL     1      -0.792  43.395  51.487  1.00  0.00     0.048 A 
ATOM     16  C   UNL     1      -0.389  42.991  53.815  1.00  0.00     0.048 A 
ATOM     17  C   UNL     1       0.537  43.065  51.190  1.00  0.00     0.030 A 
ATOM     18  C   UNL     1       0.940  42.662  53.514  1.00  0.00     0.030 A 
BRANCH  14  19
ATOM     19  O   UNL     1      -2.577  43.705  52.947  1.00  0.00    -0.497 OA
ATOM     20  C   UNL     1      -2.965  44.227  54.211  1.00  0.00     0.278 C 
ENDBRANCH  14  19
ENDBRANCH  11  13
ENDBRANCH   1  11
BRANCH   3  21
ATOM     21  N   UNL     1       5.348  46.134  52.853  1.00  0.00    -0.367 N 
ATOM     22  H   UNL     1       6.058  46.714  52.405  1.00  0.00     0.162 HD
BRANCH  21  23
ATOM     23  C   UNL     1       5.653  45.961  54.273  1.00  0.00     0.142 C 
BRANCH  23  24
ATOM     24  C   UNL     1       4.370  46.163  55.088  1.00  0.00     0.177 C 
BRANCH  24  25
ATOM     25  O   UNL     1       3.873  44.906  55.558  1.00  0.00    -0.395 OA
ATOM     26  H   UNL     1       4.347  44.697  56.382  1.00  0.00     0.210 HD
ENDBRANCH  24  25
ENDBRANCH  23  24
ENDBRANCH  21  23
ENDBRANCH   3  21
TORSDOF 7
ENDMDL
MODEL 18
REMARK VINA RESULT:    -7.500      2.551      6.652
REMARK INTER + INTRA:         -10.774
REMARK INTER:                 -10.332
REMARK INTRA:                  -0.442
REMARK UNBOUND:                -0.423
REMARK SMILES COc1ccc(Nc2nc(NCCO)c3ccccc3n2)cc1
REMARK SMILES IDX 8 1 9 2 10 3 15 4 16 5 17 6 18 7 19 8 20 9 21 10 7 11 6 13
REMARK SMILES IDX 3 14 4 15 23 16 5 17 22 18 2 19 1 20 11 21 12 23 13 24 14 25
REMARK H PARENT 7 12 11 22 14 26
ROOT
ATOM      1  C   UNL     1       3.316  43.613  52.659  1.00  0.00     0.229 A 
ATOM      2  N   UNL     1       3.722  44.877  52.844  1.00  0.00    -0.195 NA
ATOM      3  C   UNL     1       4.803  45.306  52.168  1.00  0.00     0.139 A 
ATOM      4  C   UNL     1       5.483  44.484  51.256  1.00  0.00     0.043 A 
ATOM      5  C   UNL     1       6.597  44.875  50.467  1.00  0.00     0.014 A 
ATOM      6  C   UNL     1       7.207  43.975  49.597  1.00  0.00     0.001 A 
ATOM      7  C   UNL     1       6.714  42.681  49.502  1.00  0.00     0.002 A 
ATOM      8  C   UNL     1       5.611  42.302  50.271  1.00  0.00     0.029 A 
ATOM      9  C   UNL     1       4.983  43.184  51.144  1.00  0.00     0.078 A 
ATOM     10  N   UNL     1       3.927  42.755  51.838  1.00  0.00    -0.213 NA
ENDROOT
BRANCH   1  11
ATOM     11  N   UNL     1       2.195  43.251  53.403  1.00  0.00    -0.324 N 
ATOM     12  H   UNL     1       2.048  42.258  53.301  1.00  0.00     0.170 HD
BRANCH  11  13
ATOM     13  C   UNL     1       1.326  43.939  54.253  1.00  0.00     0.041 A 
ATOM     14  C   UNL     1      -0.550  45.310  55.884  1.00  0.00     0.119 A 
ATOM     15  C   UNL     1       0.809  45.322  56.191  1.00  0.00     0.048 A 
ATOM     16  C   UNL     1      -0.977  44.615  54.757  1.00  0.00     0.048 A 
ATOM     17  C   UNL     1       1.735  44.646  55.385  1.00  0.00     0.030 A 
ATOM     18  C   UNL     1      -0.046  43.939  53.953  1.00  0.00     0.030 A 
BRANCH  14  19
ATOM     19  O   UNL     1      -1.343  46.008  56.751  1.00  0.00    -0.497 OA
ATOM     20  C   UNL     1      -0.689  46.893  57.650  1.00  0.00     0.278 C 
ENDBRANCH  14  19
ENDBRANCH  11  13
ENDBRANCH   1  11
BRANCH   3  21
ATOM     21  N   UNL     1       5.234  46.636  52.355  1.00  0.00    -0.367 N 
ATOM     22  H   UNL     1       6.083  46.804  51.814  1.00  0.00     0.162 HD
BRANCH  21  23
ATOM     23  C   UNL     1       5.426  47.049  53.746  1.00  0.00     0.142 C 
BRANCH  23  24
ATOM     24  C   UNL     1       6.737  46.450  54.268  1.00  0.00     0.177 C 
BRANCH  24  25
ATOM     25  O   UNL     1       7.533  47.461  54.895  1.00  0.00    -0.395 OA
ATOM     26  H   UNL     1       6.997  47.854  55.606  1.00  0.00     0.210 HD
ENDBRANCH  24  25
ENDBRANCH  23  24
ENDBRANCH  21  23
ENDBRANCH   3  21
TORSDOF 7
ENDMDL
MODEL 19
REMARK VINA RESULT:    -7.404      3.252      6.709
REMARK INTER + INTRA:         -10.641
REMARK INTER:                 -10.310
REMARK INTRA:                  -0.331
REMARK UNBOUND:                -0.423
REMARK SMILES COc1ccc(Nc2nc(NCCO)c3ccccc3n2)cc1
REMARK SMILES IDX 8 1 9 2 10 3 15 4 16 5 17 6 18 7 19 8 20 9 21 10 7 11 6 13
REMARK SMILES IDX 3 14 4 15 23 16 5 17 22 18 2 19 1 20 11 21 12 23 13 24 14 25
REMARK H PARENT 7 12 11 22 14 26
ROOT
ATOM      1  C   UNL     1       2.369  43.529  53.172  1.00  0.00     0.229 A 
ATOM      2  N   UNL     1       3.285  44.229  53.855  1.00  0.00    -0.195 NA
ATOM      3  C   UNL     1       2.879  44.938  54.924  1.00  0.00     0.139 A 
ATOM      4  C   UNL     1       1.544  44.929  55.357  1.00  0.00     0.043 A 
ATOM      5  C   UNL     1       1.046  45.607  56.501  1.00  0.00     0.014 A 
ATOM      6  C   UNL     1      -0.304  45.542  56.838  1.00  0.00     0.001 A 
ATOM      7  C   UNL     1      -1.168  44.802  56.043  1.00  0.00     0.002 A 
ATOM      8  C   UNL     1      -0.673  44.128  54.924  1.00  0.00     0.029 A 
ATOM      9  C   UNL     1       0.671  44.175  54.570  1.00  0.00     0.078 A 
ATOM     10  N   UNL     1       1.074  43.496  53.494  1.00  0.00    -0.213 NA
ENDROOT
BRANCH   1  11
ATOM     11  N   UNL     1       2.874  42.830  52.077  1.00  0.00    -0.324 N 
ATOM     12  H   UNL     1       2.183  42.162  51.774  1.00  0.00     0.170 HD
BRANCH  11  13
ATOM     13  C   UNL     1       4.052  42.910  51.329  1.00  0.00     0.041 A 
ATOM     14  C   UNL     1       6.444  42.923  49.800  1.00  0.00     0.119 A 
ATOM     15  C   UNL     1       5.949  44.097  50.366  1.00  0.00     0.048 A 
ATOM     16  C   UNL     1       5.746  41.737  50.000  1.00  0.00     0.048 A 
ATOM     17  C   UNL     1       4.768  44.090  51.121  1.00  0.00     0.030 A 
ATOM     18  C   UNL     1       4.565  41.734  50.757  1.00  0.00     0.030 A 
BRANCH  14  19
ATOM     19  O   UNL     1       7.601  43.070  49.089  1.00  0.00    -0.497 OA
ATOM     20  C   UNL     1       8.378  44.229  49.358  1.00  0.00     0.278 C 
ENDBRANCH  14  19
ENDBRANCH  11  13
ENDBRANCH   1  11
BRANCH   3  21
ATOM     21  N   UNL     1       3.838  45.674  55.651  1.00  0.00    -0.367 N 
ATOM     22  H   UNL     1       3.600  46.666  55.631  1.00  0.00     0.162 HD
BRANCH  21  23
ATOM     23  C   UNL     1       5.229  45.475  55.244  1.00  0.00     0.142 C 
BRANCH  23  24
ATOM     24  C   UNL     1       5.724  46.734  54.523  1.00  0.00     0.177 C 
BRANCH  24  25
ATOM     25  O   UNL     1       4.940  47.870  54.905  1.00  0.00    -0.395 OA
ATOM     26  H   UNL     1       5.138  48.584  54.275  1.00  0.00     0.210 HD
ENDBRANCH  24  25
ENDBRANCH  23  24
ENDBRANCH  21  23
ENDBRANCH   3  21
TORSDOF 7
ENDMDL
MODEL 20
REMARK VINA RESULT:    -7.354      2.125      6.955
REMARK INTER + INTRA:         -10.571
REMARK INTER:                  -9.999
REMARK INTRA:                  -0.572
REMARK UNBOUND:                -0.423
REMARK SMILES COc1ccc(Nc2nc(NCCO)c3ccccc3n2)cc1
REMARK SMILES IDX 8 1 9 2 10 3 15 4 16 5 17 6 18 7 19 8 20 9 21 10 7 11 6 13
REMARK SMILES IDX 3 14 4 15 23 16 5 17 22 18 2 19 1 20 11 21 12 23 13 24 14 25
REMARK H PARENT 7 12 11 22 14 26
ROOT
ATOM      1  C   UNL     1       4.903  45.249  53.116  1.00  0.00     0.229 A 
ATOM      2  N   UNL     1       5.780  46.260  53.036  1.00  0.00    -0.195 NA
ATOM      3  C   UNL     1       6.724  46.212  52.078  1.00  0.00     0.139 A 
ATOM      4  C   UNL     1       6.785  45.163  51.149  1.00  0.00     0.043 A 
ATOM      5  C   UNL     1       7.715  45.064  50.080  1.00  0.00     0.014 A 
ATOM      6  C   UNL     1       7.698  43.970  49.217  1.00  0.00     0.001 A 
ATOM      7  C   UNL     1       6.756  42.969  49.408  1.00  0.00     0.002 A 
ATOM      8  C   UNL     1       5.836  43.074  50.454  1.00  0.00     0.029 A 
ATOM      9  C   UNL     1       5.832  44.157  51.326  1.00  0.00     0.078 A 
ATOM     10  N   UNL     1       4.915  44.196  52.295  1.00  0.00    -0.213 NA
ENDROOT
BRANCH   1  11
ATOM     11  N   UNL     1       3.966  45.375  54.139  1.00  0.00    -0.324 N 
ATOM     12  H   UNL     1       4.438  45.694  54.971  1.00  0.00     0.170 HD
BRANCH  11  13
ATOM     13  C   UNL     1       2.581  45.213  54.217  1.00  0.00     0.041 A 
ATOM     14  C   UNL     1      -0.220  44.864  54.522  1.00  0.00     0.119 A 
ATOM     15  C   UNL     1       0.356  44.959  53.257  1.00  0.00     0.048 A 
ATOM     16  C   UNL     1       0.603  44.939  55.641  1.00  0.00     0.048 A 
ATOM     17  C   UNL     1       1.739  45.130  53.106  1.00  0.00     0.030 A 
ATOM     18  C   UNL     1       1.987  45.111  55.486  1.00  0.00     0.030 A 
BRANCH  14  19
ATOM     19  O   UNL     1      -1.576  44.698  54.527  1.00  0.00    -0.497 OA
ATOM     20  C   UNL     1      -2.130  43.904  53.487  1.00  0.00     0.278 C 
ENDBRANCH  14  19
ENDBRANCH  11  13
ENDBRANCH   1  11
BRANCH   3  21
ATOM     21  N   UNL     1       7.647  47.274  51.986  1.00  0.00    -0.367 N 
ATOM     22  H   UNL     1       8.256  47.134  51.179  1.00  0.00     0.162 HD
BRANCH  21  23
ATOM     23  C   UNL     1       8.444  47.526  53.187  1.00  0.00     0.142 C 
BRANCH  23  24
ATOM     24  C   UNL     1       9.628  46.553  53.214  1.00  0.00     0.177 C 
BRANCH  24  25
ATOM     25  O   UNL     1      10.323  46.577  51.963  1.00  0.00    -0.395 OA
ATOM     26  H   UNL     1      10.786  45.726  51.873  1.00  0.00     0.210 HD
ENDBRANCH  24  25
ENDBRANCH  23  24
ENDBRANCH  21  23
ENDBRANCH   3  21
TORSDOF 7
ENDMDL
