MODEL 1
REMARK VINA RESULT:    -8.479      0.000      0.000
REMARK INTER + INTRA:         -14.216
REMARK INTER:                 -12.692
REMARK INTRA:                  -1.523
REMARK UNBOUND:                -1.523
REMARK SMILES CC[NH+](CC)CCNc1nc(Nc2ccc(C)cc2O)c2cnn(C)c2n1
REMARK SMILES IDX 8 1 7 3 6 4 3 5 2 7 1 8 4 9 5 10 9 11 10 12 27 13 11 14
REMARK SMILES IDX 26 15 21 16 24 17 22 18 23 19 25 20 12 21 13 23 14 24 19 25
REMARK SMILES IDX 15 26 18 27 16 28 17 29 20 30
REMARK H PARENT 8 2 3 6 12 22 20 31
ROOT
ATOM      1  N   UNL     1       3.203  44.552  52.199  1.00  0.00    -0.348 N 
ATOM      2  H   UNL     1       2.625  43.820  51.786  1.00  0.00     0.163 HD
ENDROOT
BRANCH   1   3
ATOM      3  C   UNL     1       2.613  45.875  52.271  1.00  0.00     0.177 C 
BRANCH   3   4
ATOM      4  C   UNL     1       1.966  46.117  53.650  1.00  0.00     0.283 C 
BRANCH   4   5
ATOM      5  N   UNL     1       2.632  45.310  54.766  1.00  0.00    -0.334 N 
ATOM      6  H   UNL     1       2.942  44.434  54.323  1.00  0.00     0.348 HD
BRANCH   5   7
ATOM      7  C   UNL     1       3.857  45.971  55.372  1.00  0.00     0.258 C 
ATOM      8  C   UNL     1       5.041  45.023  55.320  1.00  0.00     0.071 C 
ENDBRANCH   5   7
BRANCH   5   9
ATOM      9  C   UNL     1       1.631  44.848  55.811  1.00  0.00     0.258 C 
ATOM     10  C   UNL     1       0.207  44.820  55.286  1.00  0.00     0.071 C 
ENDBRANCH   5   9
ENDBRANCH   4   5
ENDBRANCH   3   4
ENDBRANCH   1   3
BRANCH   1  11
ATOM     11  C   UNL     1       4.421  44.463  51.533  1.00  0.00     0.226 A 
ATOM     12  N   UNL     1       5.214  45.533  51.691  1.00  0.00    -0.195 NA
ATOM     13  N   UNL     1       4.704  43.361  50.819  1.00  0.00    -0.193 NA
ATOM     14  C   UNL     1       6.427  45.578  51.089  1.00  0.00     0.147 A 
ATOM     15  C   UNL     1       5.904  43.440  50.214  1.00  0.00     0.165 A 
ATOM     16  C   UNL     1       6.800  44.490  50.297  1.00  0.00     0.082 A 
ATOM     17  N   UNL     1       6.491  42.518  49.387  1.00  0.00    -0.250 N 
ATOM     18  C   UNL     1       7.881  44.102  49.480  1.00  0.00     0.149 A 
ATOM     19  N   UNL     1       7.704  42.893  48.934  1.00  0.00    -0.179 NA
ATOM     20  C   UNL     1       5.951  41.249  48.970  1.00  0.00     0.176 C 
BRANCH  14  21
ATOM     21  N   UNL     1       7.192  46.742  51.271  1.00  0.00    -0.336 N 
ATOM     22  H   UNL     1       6.540  47.526  51.218  1.00  0.00     0.168 HD
BRANCH  21  23
ATOM     23  C   UNL     1       8.121  46.979  52.313  1.00  0.00     0.082 A 
ATOM     24  C   UNL     1       9.472  46.629  52.221  1.00  0.00     0.030 A 
ATOM     25  C   UNL     1       7.645  47.456  53.543  1.00  0.00     0.139 A 
ATOM     26  C   UNL     1      10.326  46.800  53.317  1.00  0.00     0.006 A 
ATOM     27  C   UNL     1       8.483  47.622  54.640  1.00  0.00     0.051 A 
ATOM     28  C   UNL     1       9.836  47.288  54.536  1.00  0.00    -0.047 A 
ATOM     29  C   UNL     1      10.761  47.498  55.700  1.00  0.00     0.044 C 
BRANCH  25  30
ATOM     30  O   UNL     1       6.326  47.797  53.681  1.00  0.00    -0.506 OA
ATOM     31  H   UNL     1       5.845  46.957  53.795  1.00  0.00     0.293 HD
ENDBRANCH  25  30
ENDBRANCH  21  23
ENDBRANCH  14  21
ENDBRANCH   1  11
TORSDOF 9
ENDMDL
MODEL 2
REMARK VINA RESULT:    -8.278      0.860      1.557
REMARK INTER + INTRA:         -13.915
REMARK INTER:                 -12.721
REMARK INTRA:                  -1.195
REMARK UNBOUND:                -1.523
REMARK SMILES CC[NH+](CC)CCNc1nc(Nc2ccc(C)cc2O)c2cnn(C)c2n1
REMARK SMILES IDX 8 1 7 3 6 4 3 5 2 7 1 8 4 9 5 10 9 11 10 12 27 13 11 14
REMARK SMILES IDX 26 15 21 16 24 17 22 18 23 19 25 20 12 21 13 23 14 24 19 25
REMARK SMILES IDX 15 26 18 27 16 28 17 29 20 30
REMARK H PARENT 8 2 3 6 12 22 20 31
ROOT
ATOM      1  N   UNL     1       3.455  44.077  53.005  1.00  0.00    -0.348 N 
ATOM      2  H   UNL     1       2.637  43.814  52.456  1.00  0.00     0.163 HD
ENDROOT
BRANCH   1   3
ATOM      3  C   UNL     1       3.317  45.248  53.848  1.00  0.00     0.177 C 
BRANCH   3   4
ATOM      4  C   UNL     1       2.032  46.029  53.502  1.00  0.00     0.283 C 
BRANCH   4   5
ATOM      5  N   UNL     1       0.829  45.586  54.336  1.00  0.00    -0.334 N 
ATOM      6  H   UNL     1       0.368  46.455  54.637  1.00  0.00     0.348 HD
BRANCH   5   7
ATOM      7  C   UNL     1      -0.198  44.769  53.571  1.00  0.00     0.258 C 
ATOM      8  C   UNL     1      -0.014  43.291  53.866  1.00  0.00     0.071 C 
ENDBRANCH   5   7
BRANCH   5   9
ATOM      9  C   UNL     1       1.249  44.932  55.642  1.00  0.00     0.258 C 
ATOM     10  C   UNL     1       0.569  45.550  56.851  1.00  0.00     0.071 C 
ENDBRANCH   5   9
ENDBRANCH   4   5
ENDBRANCH   3   4
ENDBRANCH   1   3
BRANCH   1  11
ATOM     11  C   UNL     1       4.503  44.104  52.090  1.00  0.00     0.226 A 
ATOM     12  N   UNL     1       5.269  45.203  52.164  1.00  0.00    -0.195 NA
ATOM     13  N   UNL     1       4.669  43.074  51.244  1.00  0.00    -0.193 NA
ATOM     14  C   UNL     1       6.321  45.359  51.324  1.00  0.00     0.147 A 
ATOM     15  C   UNL     1       5.705  43.264  50.406  1.00  0.00     0.165 A 
ATOM     16  C   UNL     1       6.556  44.354  50.383  1.00  0.00     0.082 A 
ATOM     17  N   UNL     1       6.135  42.438  49.401  1.00  0.00    -0.250 N 
ATOM     18  C   UNL     1       7.449  44.086  49.326  1.00  0.00     0.149 A 
ATOM     19  N   UNL     1       7.206  42.913  48.733  1.00  0.00    -0.179 NA
ATOM     20  C   UNL     1       5.568  41.175  49.004  1.00  0.00     0.176 C 
BRANCH  14  21
ATOM     21  N   UNL     1       7.061  46.548  51.434  1.00  0.00    -0.336 N 
ATOM     22  H   UNL     1       6.387  47.313  51.377  1.00  0.00     0.168 HD
BRANCH  21  23
ATOM     23  C   UNL     1       8.021  46.847  52.432  1.00  0.00     0.082 A 
ATOM     24  C   UNL     1       9.386  46.585  52.276  1.00  0.00     0.030 A 
ATOM     25  C   UNL     1       7.574  47.294  53.684  1.00  0.00     0.139 A 
ATOM     26  C   UNL     1      10.278  46.813  53.330  1.00  0.00     0.006 A 
ATOM     27  C   UNL     1       8.450  47.516  54.740  1.00  0.00     0.051 A 
ATOM     28  C   UNL     1       9.816  47.271  54.572  1.00  0.00    -0.047 A 
ATOM     29  C   UNL     1      10.779  47.543  55.690  1.00  0.00     0.044 C 
BRANCH  25  30
ATOM     30  O   UNL     1       6.243  47.548  53.885  1.00  0.00    -0.506 OA
ATOM     31  H   UNL     1       5.795  47.283  53.061  1.00  0.00     0.293 HD
ENDBRANCH  25  30
ENDBRANCH  21  23
ENDBRANCH  14  21
ENDBRANCH   1  11
TORSDOF 9
ENDMDL
MODEL 3
REMARK VINA RESULT:    -8.276      1.060      1.694
REMARK INTER + INTRA:         -13.911
REMARK INTER:                 -12.642
REMARK INTRA:                  -1.270
REMARK UNBOUND:                -1.523
REMARK SMILES CC[NH+](CC)CCNc1nc(Nc2ccc(C)cc2O)c2cnn(C)c2n1
REMARK SMILES IDX 8 1 7 3 6 4 3 5 2 7 1 8 4 9 5 10 9 11 10 12 27 13 11 14
REMARK SMILES IDX 26 15 21 16 24 17 22 18 23 19 25 20 12 21 13 23 14 24 19 25
REMARK SMILES IDX 15 26 18 27 16 28 17 29 20 30
REMARK H PARENT 8 2 3 6 12 22 20 31
ROOT
ATOM      1  N   UNL     1       3.853  43.744  53.394  1.00  0.00    -0.348 N 
ATOM      2  H   UNL     1       3.019  43.334  52.974  1.00  0.00     0.163 HD
ENDROOT
BRANCH   1   3
ATOM      3  C   UNL     1       3.654  44.943  54.184  1.00  0.00     0.177 C 
BRANCH   3   4
ATOM      4  C   UNL     1       2.159  45.320  54.250  1.00  0.00     0.283 C 
BRANCH   4   5
ATOM      5  N   UNL     1       1.701  46.136  53.040  1.00  0.00    -0.334 N 
ATOM      6  H   UNL     1       0.929  46.725  53.383  1.00  0.00     0.348 HD
BRANCH   5   7
ATOM      7  C   UNL     1       2.761  47.064  52.473  1.00  0.00     0.258 C 
ATOM      8  C   UNL     1       3.087  46.670  51.043  1.00  0.00     0.071 C 
ENDBRANCH   5   7
BRANCH   5   9
ATOM      9  C   UNL     1       1.047  45.267  51.980  1.00  0.00     0.258 C 
ATOM     10  C   UNL     1       0.086  44.249  52.569  1.00  0.00     0.071 C 
ENDBRANCH   5   9
ENDBRANCH   4   5
ENDBRANCH   3   4
ENDBRANCH   1   3
BRANCH   1  11
ATOM     11  C   UNL     1       4.764  43.847  52.349  1.00  0.00     0.226 A 
ATOM     12  N   UNL     1       5.510  44.962  52.377  1.00  0.00    -0.195 NA
ATOM     13  N   UNL     1       4.833  42.867  51.433  1.00  0.00    -0.193 NA
ATOM     14  C   UNL     1       6.434  45.189  51.411  1.00  0.00     0.147 A 
ATOM     15  C   UNL     1       5.740  43.127  50.473  1.00  0.00     0.165 A 
ATOM     16  C   UNL     1       6.557  44.240  50.394  1.00  0.00     0.082 A 
ATOM     17  N   UNL     1       6.044  42.367  49.375  1.00  0.00    -0.250 N 
ATOM     18  C   UNL     1       7.302  44.052  49.212  1.00  0.00     0.149 A 
ATOM     19  N   UNL     1       7.004  42.904  48.594  1.00  0.00    -0.179 NA
ATOM     20  C   UNL     1       5.454  41.110  48.991  1.00  0.00     0.176 C 
BRANCH  14  21
ATOM     21  N   UNL     1       7.157  46.391  51.485  1.00  0.00    -0.336 N 
ATOM     22  H   UNL     1       6.476  47.144  51.381  1.00  0.00     0.168 HD
BRANCH  21  23
ATOM     23  C   UNL     1       8.093  46.744  52.488  1.00  0.00     0.082 A 
ATOM     24  C   UNL     1       9.456  46.445  52.395  1.00  0.00     0.030 A 
ATOM     25  C   UNL     1       7.618  47.293  53.688  1.00  0.00     0.139 A 
ATOM     26  C   UNL     1      10.319  46.734  53.458  1.00  0.00     0.006 A 
ATOM     27  C   UNL     1       8.465  47.577  54.752  1.00  0.00     0.051 A 
ATOM     28  C   UNL     1       9.830  47.293  54.646  1.00  0.00    -0.047 A 
ATOM     29  C   UNL     1      10.764  47.629  55.772  1.00  0.00     0.044 C 
BRANCH  25  30
ATOM     30  O   UNL     1       6.287  47.589  53.826  1.00  0.00    -0.506 OA
ATOM     31  H   UNL     1       6.206  48.053  54.680  1.00  0.00     0.293 HD
ENDBRANCH  25  30
ENDBRANCH  21  23
ENDBRANCH  14  21
ENDBRANCH   1  11
TORSDOF 9
ENDMDL
MODEL 4
REMARK VINA RESULT:    -8.122      0.931      1.602
REMARK INTER + INTRA:         -13.681
REMARK INTER:                 -12.536
REMARK INTRA:                  -1.145
REMARK UNBOUND:                -1.523
REMARK SMILES CC[NH+](CC)CCNc1nc(Nc2ccc(C)cc2O)c2cnn(C)c2n1
REMARK SMILES IDX 8 1 7 3 6 4 3 5 2 7 1 8 4 9 5 10 9 11 10 12 27 13 11 14
REMARK SMILES IDX 26 15 21 16 24 17 22 18 23 19 25 20 12 21 13 23 14 24 19 25
REMARK SMILES IDX 15 26 18 27 16 28 17 29 20 30
REMARK H PARENT 8 2 3 6 12 22 20 31
ROOT
ATOM      1  N   UNL     1       3.472  43.898  53.141  1.00  0.00    -0.348 N 
ATOM      2  H   UNL     1       2.630  43.730  52.591  1.00  0.00     0.163 HD
ENDROOT
BRANCH   1   3
ATOM      3  C   UNL     1       3.402  44.971  54.114  1.00  0.00     0.177 C 
BRANCH   3   4
ATOM      4  C   UNL     1       1.958  45.496  54.256  1.00  0.00     0.283 C 
BRANCH   4   5
ATOM      5  N   UNL     1       1.106  44.636  55.190  1.00  0.00    -0.334 N 
ATOM      6  H   UNL     1       1.627  43.756  55.306  1.00  0.00     0.348 HD
BRANCH   5   7
ATOM      7  C   UNL     1       0.901  45.227  56.574  1.00  0.00     0.258 C 
ATOM      8  C   UNL     1      -0.531  45.705  56.731  1.00  0.00     0.071 C 
ENDBRANCH   5   7
BRANCH   5   9
ATOM      9  C   UNL     1      -0.194  44.200  54.536  1.00  0.00     0.258 C 
ATOM     10  C   UNL     1      -0.047  42.913  53.743  1.00  0.00     0.071 C 
ENDBRANCH   5   9
ENDBRANCH   4   5
ENDBRANCH   3   4
ENDBRANCH   1   3
BRANCH   1  11
ATOM     11  C   UNL     1       4.497  43.989  52.206  1.00  0.00     0.226 A 
ATOM     12  N   UNL     1       5.222  45.115  52.292  1.00  0.00    -0.195 NA
ATOM     13  N   UNL     1       4.682  42.987  51.330  1.00  0.00    -0.193 NA
ATOM     14  C   UNL     1       6.249  45.332  51.433  1.00  0.00     0.147 A 
ATOM     15  C   UNL     1       5.692  43.238  50.475  1.00  0.00     0.165 A 
ATOM     16  C   UNL     1       6.500  44.360  50.462  1.00  0.00     0.082 A 
ATOM     17  N   UNL     1       6.130  42.455  49.440  1.00  0.00    -0.250 N 
ATOM     18  C   UNL     1       7.379  44.154  49.380  1.00  0.00     0.149 A 
ATOM     19  N   UNL     1       7.168  42.987  48.761  1.00  0.00    -0.179 NA
ATOM     20  C   UNL     1       5.603  41.181  49.023  1.00  0.00     0.176 C 
BRANCH  14  21
ATOM     21  N   UNL     1       6.945  46.545  51.558  1.00  0.00    -0.336 N 
ATOM     22  H   UNL     1       6.239  47.283  51.564  1.00  0.00     0.168 HD
BRANCH  21  23
ATOM     23  C   UNL     1       7.939  46.844  52.522  1.00  0.00     0.082 A 
ATOM     24  C   UNL     1       9.297  46.575  52.321  1.00  0.00     0.030 A 
ATOM     25  C   UNL     1       7.536  47.299  53.786  1.00  0.00     0.139 A 
ATOM     26  C   UNL     1      10.224  46.804  53.344  1.00  0.00     0.006 A 
ATOM     27  C   UNL     1       8.448  47.522  54.811  1.00  0.00     0.051 A 
ATOM     28  C   UNL     1       9.806  47.270  54.598  1.00  0.00    -0.047 A 
ATOM     29  C   UNL     1      10.807  47.542  55.682  1.00  0.00     0.044 C 
BRANCH  25  30
ATOM     30  O   UNL     1       6.214  47.561  54.030  1.00  0.00    -0.506 OA
ATOM     31  H   UNL     1       5.947  48.221  53.364  1.00  0.00     0.293 HD
ENDBRANCH  25  30
ENDBRANCH  21  23
ENDBRANCH  14  21
ENDBRANCH   1  11
TORSDOF 9
ENDMDL
MODEL 5
REMARK VINA RESULT:    -8.082      2.029      5.750
REMARK INTER + INTRA:         -13.622
REMARK INTER:                 -12.870
REMARK INTRA:                  -0.752
REMARK UNBOUND:                -1.523
REMARK SMILES CC[NH+](CC)CCNc1nc(Nc2ccc(C)cc2O)c2cnn(C)c2n1
REMARK SMILES IDX 8 1 7 3 6 4 3 5 2 7 1 8 4 9 5 10 9 11 10 12 27 13 11 14
REMARK SMILES IDX 26 15 21 16 24 17 22 18 23 19 25 20 12 21 13 23 14 24 19 25
REMARK SMILES IDX 15 26 18 27 16 28 17 29 20 30
REMARK H PARENT 8 2 3 6 12 22 20 31
ROOT
ATOM      1  N   UNL     1       6.528  42.023  49.364  1.00  0.00    -0.348 N 
ATOM      2  H   UNL     1       7.243  42.523  48.836  1.00  0.00     0.163 HD
ENDROOT
BRANCH   1   3
ATOM      3  C   UNL     1       5.598  41.222  48.594  1.00  0.00     0.177 C 
BRANCH   3   4
ATOM      4  C   UNL     1       5.578  41.666  47.116  1.00  0.00     0.283 C 
BRANCH   4   5
ATOM      5  N   UNL     1       4.751  40.734  46.229  1.00  0.00    -0.334 N 
ATOM      6  H   UNL     1       5.260  39.840  46.222  1.00  0.00     0.348 HD
BRANCH   5   7
ATOM      7  C   UNL     1       3.351  40.454  46.747  1.00  0.00     0.258 C 
ATOM      8  C   UNL     1       3.124  38.957  46.854  1.00  0.00     0.071 C 
ENDBRANCH   5   7
BRANCH   5   9
ATOM      9  C   UNL     1       4.767  41.169  44.774  1.00  0.00     0.258 C 
ATOM     10  C   UNL     1       5.234  42.603  44.597  1.00  0.00     0.071 C 
ENDBRANCH   5   9
ENDBRANCH   4   5
ENDBRANCH   3   4
ENDBRANCH   1   3
BRANCH   1  11
ATOM     11  C   UNL     1       5.962  42.985  50.195  1.00  0.00     0.226 A 
ATOM     12  N   UNL     1       6.660  44.129  50.266  1.00  0.00    -0.195 NA
ATOM     13  N   UNL     1       4.809  42.715  50.829  1.00  0.00    -0.193 NA
ATOM     14  C   UNL     1       6.222  45.147  51.047  1.00  0.00     0.147 A 
ATOM     15  C   UNL     1       4.408  43.733  51.614  1.00  0.00     0.165 A 
ATOM     16  C   UNL     1       5.046  44.949  51.773  1.00  0.00     0.082 A 
ATOM     17  N   UNL     1       3.304  43.785  52.423  1.00  0.00    -0.250 N 
ATOM     18  C   UNL     1       4.249  45.650  52.701  1.00  0.00     0.149 A 
ATOM     19  N   UNL     1       3.178  44.951  53.090  1.00  0.00    -0.179 NA
ATOM     20  C   UNL     1       2.318  42.755  52.625  1.00  0.00     0.176 C 
BRANCH  14  21
ATOM     21  N   UNL     1       7.018  46.303  51.101  1.00  0.00    -0.336 N 
ATOM     22  H   UNL     1       6.385  47.095  50.976  1.00  0.00     0.168 HD
BRANCH  21  23
ATOM     23  C   UNL     1       7.968  46.620  52.103  1.00  0.00     0.082 A 
ATOM     24  C   UNL     1       9.260  46.085  52.122  1.00  0.00     0.030 A 
ATOM     25  C   UNL     1       7.557  47.391  53.199  1.00  0.00     0.139 A 
ATOM     26  C   UNL     1      10.125  46.357  53.187  1.00  0.00     0.006 A 
ATOM     27  C   UNL     1       8.406  47.662  54.266  1.00  0.00     0.051 A 
ATOM     28  C   UNL     1       9.703  47.139  54.270  1.00  0.00    -0.047 A 
ATOM     29  C   UNL     1      10.644  47.455  55.396  1.00  0.00     0.044 C 
BRANCH  25  30
ATOM     30  O   UNL     1       6.295  47.923  53.229  1.00  0.00    -0.506 OA
ATOM     31  H   UNL     1       5.686  47.162  53.224  1.00  0.00     0.293 HD
ENDBRANCH  25  30
ENDBRANCH  21  23
ENDBRANCH  14  21
ENDBRANCH   1  11
TORSDOF 9
ENDMDL
MODEL 6
REMARK VINA RESULT:    -8.068      0.664      1.627
REMARK INTER + INTRA:         -13.601
REMARK INTER:                 -12.142
REMARK INTRA:                  -1.459
REMARK UNBOUND:                -1.523
REMARK SMILES CC[NH+](CC)CCNc1nc(Nc2ccc(C)cc2O)c2cnn(C)c2n1
REMARK SMILES IDX 8 1 7 3 6 4 3 5 2 7 1 8 4 9 5 10 9 11 10 12 27 13 11 14
REMARK SMILES IDX 26 15 21 16 24 17 22 18 23 19 25 20 12 21 13 23 14 24 19 25
REMARK SMILES IDX 15 26 18 27 16 28 17 29 20 30
REMARK H PARENT 8 2 3 6 12 22 20 31
ROOT
ATOM      1  N   UNL     1       2.907  45.447  51.847  1.00  0.00    -0.348 N 
ATOM      2  H   UNL     1       3.103  46.299  52.372  1.00  0.00     0.163 HD
ENDROOT
BRANCH   1   3
ATOM      3  C   UNL     1       2.144  44.426  52.538  1.00  0.00     0.177 C 
BRANCH   3   4
ATOM      4  C   UNL     1       2.701  44.184  53.957  1.00  0.00     0.283 C 
BRANCH   4   5
ATOM      5  N   UNL     1       2.619  45.428  54.844  1.00  0.00    -0.334 N 
ATOM      6  H   UNL     1       2.310  46.188  54.222  1.00  0.00     0.348 HD
BRANCH   5   7
ATOM      7  C   UNL     1       1.609  45.326  55.973  1.00  0.00     0.258 C 
ATOM      8  C   UNL     1       0.206  45.201  55.408  1.00  0.00     0.071 C 
ENDBRANCH   5   7
BRANCH   5   9
ATOM      9  C   UNL     1       3.989  45.883  55.316  1.00  0.00     0.258 C 
ATOM     10  C   UNL     1       5.095  44.923  54.915  1.00  0.00     0.071 C 
ENDBRANCH   5   9
ENDBRANCH   4   5
ENDBRANCH   3   4
ENDBRANCH   1   3
BRANCH   1  11
ATOM     11  C   UNL     1       4.139  45.049  51.341  1.00  0.00     0.226 A 
ATOM     12  N   UNL     1       5.099  45.982  51.433  1.00  0.00    -0.195 NA
ATOM     13  N   UNL     1       4.276  43.815  50.826  1.00  0.00    -0.193 NA
ATOM     14  C   UNL     1       6.347  45.726  50.969  1.00  0.00     0.147 A 
ATOM     15  C   UNL     1       5.516  43.594  50.353  1.00  0.00     0.165 A 
ATOM     16  C   UNL     1       6.579  44.479  50.385  1.00  0.00     0.082 A 
ATOM     17  N   UNL     1       5.992  42.467  49.735  1.00  0.00    -0.250 N 
ATOM     18  C   UNL     1       7.636  43.789  49.757  1.00  0.00     0.149 A 
ATOM     19  N   UNL     1       7.287  42.556  49.372  1.00  0.00    -0.179 NA
ATOM     20  C   UNL     1       5.266  41.257  49.444  1.00  0.00     0.176 C 
BRANCH  14  21
ATOM     21  N   UNL     1       7.293  46.758  51.068  1.00  0.00    -0.336 N 
ATOM     22  H   UNL     1       6.795  47.627  50.869  1.00  0.00     0.168 HD
BRANCH  21  23
ATOM     23  C   UNL     1       8.189  46.972  52.145  1.00  0.00     0.082 A 
ATOM     24  C   UNL     1       9.529  46.574  52.109  1.00  0.00     0.030 A 
ATOM     25  C   UNL     1       7.683  47.478  53.351  1.00  0.00     0.139 A 
ATOM     26  C   UNL     1      10.344  46.725  53.237  1.00  0.00     0.006 A 
ATOM     27  C   UNL     1       8.482  47.626  54.478  1.00  0.00     0.051 A 
ATOM     28  C   UNL     1       9.825  47.243  54.431  1.00  0.00    -0.047 A 
ATOM     29  C   UNL     1      10.710  47.432  55.628  1.00  0.00     0.044 C 
BRANCH  25  30
ATOM     30  O   UNL     1       6.372  47.868  53.433  1.00  0.00    -0.506 OA
ATOM     31  H   UNL     1       5.934  47.205  53.998  1.00  0.00     0.293 HD
ENDBRANCH  25  30
ENDBRANCH  21  23
ENDBRANCH  14  21
ENDBRANCH   1  11
TORSDOF 9
ENDMDL
MODEL 7
REMARK VINA RESULT:    -7.983      2.420      6.753
REMARK INTER + INTRA:         -13.474
REMARK INTER:                 -12.792
REMARK INTRA:                  -0.682
REMARK UNBOUND:                -1.523
REMARK SMILES CC[NH+](CC)CCNc1nc(Nc2ccc(C)cc2O)c2cnn(C)c2n1
REMARK SMILES IDX 8 1 7 3 6 4 3 5 2 7 1 8 4 9 5 10 9 11 10 12 27 13 11 14
REMARK SMILES IDX 26 15 21 16 24 17 22 18 23 19 25 20 12 21 13 23 14 24 19 25
REMARK SMILES IDX 15 26 18 27 16 28 17 29 20 30
REMARK H PARENT 8 2 3 6 12 22 20 31
ROOT
ATOM      1  N   UNL     1       4.345  46.369  55.342  1.00  0.00    -0.348 N 
ATOM      2  H   UNL     1       3.900  47.102  55.893  1.00  0.00     0.163 HD
ENDROOT
BRANCH   1   3
ATOM      3  C   UNL     1       5.300  46.805  54.342  1.00  0.00     0.177 C 
BRANCH   3   4
ATOM      4  C   UNL     1       6.719  46.297  54.675  1.00  0.00     0.283 C 
BRANCH   4   5
ATOM      5  N   UNL     1       7.785  46.862  53.735  1.00  0.00    -0.334 N 
ATOM      6  H   UNL     1       8.348  46.052  53.441  1.00  0.00     0.348 HD
BRANCH   5   7
ATOM      7  C   UNL     1       7.233  47.512  52.479  1.00  0.00     0.258 C 
ATOM      8  C   UNL     1       8.368  47.884  51.542  1.00  0.00     0.071 C 
ENDBRANCH   5   7
BRANCH   5   9
ATOM      9  C   UNL     1       8.781  47.745  54.468  1.00  0.00     0.258 C 
ATOM     10  C   UNL     1      10.153  47.105  54.587  1.00  0.00     0.071 C 
ENDBRANCH   5   9
ENDBRANCH   4   5
ENDBRANCH   3   4
ENDBRANCH   1   3
BRANCH   1  11
ATOM     11  C   UNL     1       3.294  45.584  54.880  1.00  0.00     0.226 A 
ATOM     12  N   UNL     1       3.569  44.902  53.757  1.00  0.00    -0.195 NA
ATOM     13  N   UNL     1       2.136  45.561  55.561  1.00  0.00    -0.193 NA
ATOM     14  C   UNL     1       2.628  44.103  53.197  1.00  0.00     0.147 A 
ATOM     15  C   UNL     1       1.212  44.779  54.972  1.00  0.00     0.165 A 
ATOM     16  C   UNL     1       1.378  44.039  53.816  1.00  0.00     0.082 A 
ATOM     17  N   UNL     1      -0.078  44.554  55.374  1.00  0.00    -0.250 N 
ATOM     18  C   UNL     1       0.130  43.417  53.609  1.00  0.00     0.149 A 
ATOM     19  N   UNL     1      -0.758  43.717  54.564  1.00  0.00    -0.179 NA
ATOM     20  C   UNL     1      -0.746  45.112  56.521  1.00  0.00     0.176 C 
BRANCH  14  21
ATOM     21  N   UNL     1       2.972  43.444  52.005  1.00  0.00    -0.336 N 
ATOM     22  H   UNL     1       2.230  43.651  51.336  1.00  0.00     0.168 HD
BRANCH  21  23
ATOM     23  C   UNL     1       4.224  43.507  51.346  1.00  0.00     0.082 A 
ATOM     24  C   UNL     1       4.877  44.711  51.067  1.00  0.00     0.030 A 
ATOM     25  C   UNL     1       4.770  42.325  50.825  1.00  0.00     0.139 A 
ATOM     26  C   UNL     1       6.066  44.720  50.329  1.00  0.00     0.006 A 
ATOM     27  C   UNL     1       5.946  42.322  50.085  1.00  0.00     0.051 A 
ATOM     28  C   UNL     1       6.605  43.528  49.825  1.00  0.00    -0.047 A 
ATOM     29  C   UNL     1       7.896  43.538  49.060  1.00  0.00     0.044 C 
BRANCH  25  30
ATOM     30  O   UNL     1       4.155  41.124  51.062  1.00  0.00    -0.506 OA
ATOM     31  H   UNL     1       3.504  41.294  51.767  1.00  0.00     0.293 HD
ENDBRANCH  25  30
ENDBRANCH  21  23
ENDBRANCH  14  21
ENDBRANCH   1  11
TORSDOF 9
ENDMDL
MODEL 8
REMARK VINA RESULT:    -7.954      2.192      5.857
REMARK INTER + INTRA:         -13.429
REMARK INTER:                 -12.473
REMARK INTRA:                  -0.956
REMARK UNBOUND:                -1.523
REMARK SMILES CC[NH+](CC)CCNc1nc(Nc2ccc(C)cc2O)c2cnn(C)c2n1
REMARK SMILES IDX 8 1 7 3 6 4 3 5 2 7 1 8 4 9 5 10 9 11 10 12 27 13 11 14
REMARK SMILES IDX 26 15 21 16 24 17 22 18 23 19 25 20 12 21 13 23 14 24 19 25
REMARK SMILES IDX 15 26 18 27 16 28 17 29 20 30
REMARK H PARENT 8 2 3 6 12 22 20 31
ROOT
ATOM      1  N   UNL     1       5.485  41.647  50.453  1.00  0.00    -0.348 N 
ATOM      2  H   UNL     1       6.254  41.460  51.096  1.00  0.00     0.163 HD
ENDROOT
BRANCH   1   3
ATOM      3  C   UNL     1       5.733  41.370  49.052  1.00  0.00     0.177 C 
BRANCH   3   4
ATOM      4  C   UNL     1       4.469  40.809  48.368  1.00  0.00     0.283 C 
BRANCH   4   5
ATOM      5  N   UNL     1       4.608  40.723  46.847  1.00  0.00    -0.334 N 
ATOM      6  H   UNL     1       5.191  39.893  46.672  1.00  0.00     0.348 HD
BRANCH   5   7
ATOM      7  C   UNL     1       3.297  40.521  46.107  1.00  0.00     0.258 C 
ATOM      8  C   UNL     1       2.991  39.039  45.984  1.00  0.00     0.071 C 
ENDBRANCH   5   7
BRANCH   5   9
ATOM      9  C   UNL     1       5.434  41.868  46.285  1.00  0.00     0.258 C 
ATOM     10  C   UNL     1       5.075  42.197  44.847  1.00  0.00     0.071 C 
ENDBRANCH   5   9
ENDBRANCH   4   5
ENDBRANCH   3   4
ENDBRANCH   1   3
BRANCH   1  11
ATOM     11  C   UNL     1       5.075  42.942  50.755  1.00  0.00     0.226 A 
ATOM     12  N   UNL     1       6.064  43.849  50.738  1.00  0.00    -0.195 NA
ATOM     13  N   UNL     1       3.781  43.180  51.024  1.00  0.00    -0.193 NA
ATOM     14  C   UNL     1       5.802  45.149  51.022  1.00  0.00     0.147 A 
ATOM     15  C   UNL     1       3.551  44.472  51.325  1.00  0.00     0.165 A 
ATOM     16  C   UNL     1       4.487  45.490  51.346  1.00  0.00     0.082 A 
ATOM     17  N   UNL     1       2.363  45.054  51.679  1.00  0.00    -0.250 N 
ATOM     18  C   UNL     1       3.759  46.634  51.732  1.00  0.00     0.149 A 
ATOM     19  N   UNL     1       2.461  46.377  51.923  1.00  0.00    -0.179 NA
ATOM     20  C   UNL     1       1.082  44.412  51.818  1.00  0.00     0.176 C 
BRANCH  14  21
ATOM     21  N   UNL     1       6.888  46.039  51.017  1.00  0.00    -0.336 N 
ATOM     22  H   UNL     1       6.546  46.909  50.605  1.00  0.00     0.168 HD
BRANCH  21  23
ATOM     23  C   UNL     1       7.727  46.342  52.117  1.00  0.00     0.082 A 
ATOM     24  C   UNL     1       7.262  46.969  53.277  1.00  0.00     0.030 A 
ATOM     25  C   UNL     1       9.108  46.134  51.987  1.00  0.00     0.139 A 
ATOM     26  C   UNL     1       8.153  47.330  54.294  1.00  0.00     0.006 A 
ATOM     27  C   UNL     1      10.002  46.495  52.988  1.00  0.00     0.051 A 
ATOM     28  C   UNL     1       9.529  47.105  54.153  1.00  0.00    -0.047 A 
ATOM     29  C   UNL     1      10.478  47.466  55.259  1.00  0.00     0.044 C 
BRANCH  25  30
ATOM     30  O   UNL     1       9.607  45.536  50.861  1.00  0.00    -0.506 OA
ATOM     31  H   UNL     1       9.604  44.579  51.045  1.00  0.00     0.293 HD
ENDBRANCH  25  30
ENDBRANCH  21  23
ENDBRANCH  14  21
ENDBRANCH   1  11
TORSDOF 9
ENDMDL
MODEL 9
REMARK VINA RESULT:    -7.919      1.450      2.270
REMARK INTER + INTRA:         -13.377
REMARK INTER:                 -12.282
REMARK INTRA:                  -1.095
REMARK UNBOUND:                -1.523
REMARK SMILES CC[NH+](CC)CCNc1nc(Nc2ccc(C)cc2O)c2cnn(C)c2n1
REMARK SMILES IDX 8 1 7 3 6 4 3 5 2 7 1 8 4 9 5 10 9 11 10 12 27 13 11 14
REMARK SMILES IDX 26 15 21 16 24 17 22 18 23 19 25 20 12 21 13 23 14 24 19 25
REMARK SMILES IDX 15 26 18 27 16 28 17 29 20 30
REMARK H PARENT 8 2 3 6 12 22 20 31
ROOT
ATOM      1  N   UNL     1       2.729  46.274  51.387  1.00  0.00    -0.348 N 
ATOM      2  H   UNL     1       2.997  47.178  50.999  1.00  0.00     0.163 HD
ENDROOT
BRANCH   1   3
ATOM      3  C   UNL     1       2.250  46.276  52.755  1.00  0.00     0.177 C 
BRANCH   3   4
ATOM      4  C   UNL     1       3.381  46.648  53.736  1.00  0.00     0.283 C 
BRANCH   4   5
ATOM      5  N   UNL     1       3.260  45.927  55.080  1.00  0.00    -0.334 N 
ATOM      6  H   UNL     1       3.065  46.665  55.770  1.00  0.00     0.348 HD
BRANCH   5   7
ATOM      7  C   UNL     1       2.122  44.924  55.153  1.00  0.00     0.258 C 
ATOM      8  C   UNL     1       1.155  45.312  56.257  1.00  0.00     0.071 C 
ENDBRANCH   5   7
BRANCH   5   9
ATOM      9  C   UNL     1       4.588  45.348  55.538  1.00  0.00     0.258 C 
ATOM     10  C   UNL     1       5.302  44.581  54.439  1.00  0.00     0.071 C 
ENDBRANCH   5   9
ENDBRANCH   4   5
ENDBRANCH   3   4
ENDBRANCH   1   3
BRANCH   1  11
ATOM     11  C   UNL     1       3.809  45.439  51.120  1.00  0.00     0.226 A 
ATOM     12  N   UNL     1       5.001  46.054  51.151  1.00  0.00    -0.195 NA
ATOM     13  N   UNL     1       3.591  44.137  50.868  1.00  0.00    -0.193 NA
ATOM     14  C   UNL     1       6.135  45.355  50.901  1.00  0.00     0.147 A 
ATOM     15  C   UNL     1       4.730  43.471  50.602  1.00  0.00     0.165 A 
ATOM     16  C   UNL     1       6.009  43.998  50.596  1.00  0.00     0.082 A 
ATOM     17  N   UNL     1       4.873  42.149  50.272  1.00  0.00    -0.250 N 
ATOM     18  C   UNL     1       6.839  42.914  50.245  1.00  0.00     0.149 A 
ATOM     19  N   UNL     1       6.153  41.781  50.060  1.00  0.00    -0.179 NA
ATOM     20  C   UNL     1       3.831  41.166  50.128  1.00  0.00     0.176 C 
BRANCH  14  21
ATOM     21  N   UNL     1       7.345  46.068  50.918  1.00  0.00    -0.336 N 
ATOM     22  H   UNL     1       7.191  46.911  50.364  1.00  0.00     0.168 HD
BRANCH  21  23
ATOM     23  C   UNL     1       8.106  46.397  52.066  1.00  0.00     0.082 A 
ATOM     24  C   UNL     1       7.572  47.085  53.161  1.00  0.00     0.030 A 
ATOM     25  C   UNL     1       9.487  46.150  52.052  1.00  0.00     0.139 A 
ATOM     26  C   UNL     1       8.393  47.468  54.228  1.00  0.00     0.006 A 
ATOM     27  C   UNL     1      10.312  46.533  53.103  1.00  0.00     0.051 A 
ATOM     28  C   UNL     1       9.769  47.203  54.203  1.00  0.00    -0.047 A 
ATOM     29  C   UNL     1      10.640  47.589  55.363  1.00  0.00     0.044 C 
BRANCH  25  30
ATOM     30  O   UNL     1      10.054  45.492  50.994  1.00  0.00    -0.506 OA
ATOM     31  H   UNL     1      10.555  44.751  51.380  1.00  0.00     0.293 HD
ENDBRANCH  25  30
ENDBRANCH  21  23
ENDBRANCH  14  21
ENDBRANCH   1  11
TORSDOF 9
ENDMDL
MODEL 10
REMARK VINA RESULT:    -7.896      2.739      6.624
REMARK INTER + INTRA:         -13.343
REMARK INTER:                 -12.104
REMARK INTRA:                  -1.240
REMARK UNBOUND:                -1.523
REMARK SMILES CC[NH+](CC)CCNc1nc(Nc2ccc(C)cc2O)c2cnn(C)c2n1
REMARK SMILES IDX 8 1 7 3 6 4 3 5 2 7 1 8 4 9 5 10 9 11 10 12 27 13 11 14
REMARK SMILES IDX 26 15 21 16 24 17 22 18 23 19 25 20 12 21 13 23 14 24 19 25
REMARK SMILES IDX 15 26 18 27 16 28 17 29 20 30
REMARK H PARENT 8 2 3 6 12 22 20 31
ROOT
ATOM      1  N   UNL     1       3.625  45.358  55.637  1.00  0.00    -0.348 N 
ATOM      2  H   UNL     1       3.364  46.344  55.656  1.00  0.00     0.163 HD
ENDROOT
BRANCH   1   3
ATOM      3  C   UNL     1       4.973  45.057  55.196  1.00  0.00     0.177 C 
BRANCH   3   4
ATOM      4  C   UNL     1       5.740  46.348  54.841  1.00  0.00     0.283 C 
BRANCH   4   5
ATOM      5  N   UNL     1       5.390  46.880  53.451  1.00  0.00    -0.334 N 
ATOM      6  H   UNL     1       5.065  46.062  52.917  1.00  0.00     0.348 HD
BRANCH   5   7
ATOM      7  C   UNL     1       4.270  47.905  53.435  1.00  0.00     0.258 C 
ATOM      8  C   UNL     1       3.193  47.486  52.452  1.00  0.00     0.071 C 
ENDBRANCH   5   7
BRANCH   5   9
ATOM      9  C   UNL     1       6.622  47.339  52.689  1.00  0.00     0.258 C 
ATOM     10  C   UNL     1       7.813  46.419  52.894  1.00  0.00     0.071 C 
ENDBRANCH   5   9
ENDBRANCH   4   5
ENDBRANCH   3   4
ENDBRANCH   1   3
BRANCH   1  11
ATOM     11  C   UNL     1       2.600  44.732  54.935  1.00  0.00     0.226 A 
ATOM     12  N   UNL     1       2.986  44.177  53.776  1.00  0.00    -0.195 NA
ATOM     13  N   UNL     1       1.358  44.724  55.447  1.00  0.00    -0.193 NA
ATOM     14  C   UNL     1       2.083  43.540  52.991  1.00  0.00     0.147 A 
ATOM     15  C   UNL     1       0.477  44.106  54.639  1.00  0.00     0.165 A 
ATOM     16  C   UNL     1       0.756  43.507  53.424  1.00  0.00     0.082 A 
ATOM     17  N   UNL     1      -0.870  43.945  54.830  1.00  0.00    -0.250 N 
ATOM     18  C   UNL     1      -0.490  43.027  52.970  1.00  0.00     0.149 A 
ATOM     19  N   UNL     1      -1.482  43.279  53.830  1.00  0.00    -0.179 NA
ATOM     20  C   UNL     1      -1.656  44.409  55.945  1.00  0.00     0.176 C 
BRANCH  14  21
ATOM     21  N   UNL     1       2.548  43.010  51.777  1.00  0.00    -0.336 N 
ATOM     22  H   UNL     1       1.861  43.269  51.067  1.00  0.00     0.168 HD
BRANCH  21  23
ATOM     23  C   UNL     1       3.851  43.163  51.242  1.00  0.00     0.082 A 
ATOM     24  C   UNL     1       4.470  44.408  51.092  1.00  0.00     0.030 A 
ATOM     25  C   UNL     1       4.495  42.037  50.709  1.00  0.00     0.139 A 
ATOM     26  C   UNL     1       5.720  44.509  50.470  1.00  0.00     0.006 A 
ATOM     27  C   UNL     1       5.733  42.127  50.083  1.00  0.00     0.051 A 
ATOM     28  C   UNL     1       6.356  43.372  49.953  1.00  0.00    -0.047 A 
ATOM     29  C   UNL     1       7.709  43.480  49.314  1.00  0.00     0.044 C 
BRANCH  25  30
ATOM     30  O   UNL     1       3.918  40.800  50.821  1.00  0.00    -0.506 OA
ATOM     31  H   UNL     1       4.111  40.340  49.984  1.00  0.00     0.293 HD
ENDBRANCH  25  30
ENDBRANCH  21  23
ENDBRANCH  14  21
ENDBRANCH   1  11
TORSDOF 9
ENDMDL
MODEL 11
REMARK VINA RESULT:    -7.867      2.241      5.621
REMARK INTER + INTRA:         -13.300
REMARK INTER:                 -12.384
REMARK INTRA:                  -0.917
REMARK UNBOUND:                -1.523
REMARK SMILES CC[NH+](CC)CCNc1nc(Nc2ccc(C)cc2O)c2cnn(C)c2n1
REMARK SMILES IDX 8 1 7 3 6 4 3 5 2 7 1 8 4 9 5 10 9 11 10 12 27 13 11 14
REMARK SMILES IDX 26 15 21 16 24 17 22 18 23 19 25 20 12 21 13 23 14 24 19 25
REMARK SMILES IDX 15 26 18 27 16 28 17 29 20 30
REMARK H PARENT 8 2 3 6 12 22 20 31
ROOT
ATOM      1  N   UNL     1       5.141  46.639  54.949  1.00  0.00    -0.348 N 
ATOM      2  H   UNL     1       5.428  47.092  55.816  1.00  0.00     0.163 HD
ENDROOT
BRANCH   1   3
ATOM      3  C   UNL     1       4.391  45.406  55.083  1.00  0.00     0.177 C 
BRANCH   3   4
ATOM      4  C   UNL     1       2.872  45.672  55.013  1.00  0.00     0.283 C 
BRANCH   4   5
ATOM      5  N   UNL     1       2.210  45.002  53.808  1.00  0.00    -0.334 N 
ATOM      6  H   UNL     1       2.975  44.548  53.292  1.00  0.00     0.348 HD
BRANCH   5   7
ATOM      7  C   UNL     1       1.202  43.924  54.166  1.00  0.00     0.258 C 
ATOM      8  C   UNL     1       1.325  42.755  53.206  1.00  0.00     0.071 C 
ENDBRANCH   5   7
BRANCH   5   9
ATOM      9  C   UNL     1       1.662  46.018  52.820  1.00  0.00     0.258 C 
ATOM     10  C   UNL     1       2.737  46.942  52.275  1.00  0.00     0.071 C 
ENDBRANCH   5   9
ENDBRANCH   4   5
ENDBRANCH   3   4
ENDBRANCH   1   3
BRANCH   1  11
ATOM     11  C   UNL     1       6.300  46.568  54.184  1.00  0.00     0.226 A 
ATOM     12  N   UNL     1       6.112  46.091  52.944  1.00  0.00    -0.195 NA
ATOM     13  N   UNL     1       7.468  46.968  54.714  1.00  0.00    -0.193 NA
ATOM     14  C   UNL     1       7.162  45.963  52.096  1.00  0.00     0.147 A 
ATOM     15  C   UNL     1       8.497  46.809  53.861  1.00  0.00     0.165 A 
ATOM     16  C   UNL     1       8.426  46.323  52.568  1.00  0.00     0.082 A 
ATOM     17  N   UNL     1       9.821  47.080  54.082  1.00  0.00    -0.250 N 
ATOM     18  C   UNL     1       9.759  46.336  52.109  1.00  0.00     0.149 A 
ATOM     19  N   UNL     1      10.612  46.810  53.023  1.00  0.00    -0.179 NA
ATOM     20  C   UNL     1      10.420  47.593  55.288  1.00  0.00     0.176 C 
BRANCH  14  21
ATOM     21  N   UNL     1       6.899  45.428  50.825  1.00  0.00    -0.336 N 
ATOM     22  H   UNL     1       7.805  45.315  50.366  1.00  0.00     0.168 HD
BRANCH  21  23
ATOM     23  C   UNL     1       6.090  44.300  50.542  1.00  0.00     0.082 A 
ATOM     24  C   UNL     1       4.845  44.088  51.142  1.00  0.00     0.030 A 
ATOM     25  C   UNL     1       6.615  43.281  49.735  1.00  0.00     0.139 A 
ATOM     26  C   UNL     1       4.131  42.909  50.899  1.00  0.00     0.006 A 
ATOM     27  C   UNL     1       5.918  42.103  49.492  1.00  0.00     0.051 A 
ATOM     28  C   UNL     1       4.665  41.905  50.080  1.00  0.00    -0.047 A 
ATOM     29  C   UNL     1       3.883  40.656  49.796  1.00  0.00     0.044 C 
BRANCH  25  30
ATOM     30  O   UNL     1       7.838  43.440  49.139  1.00  0.00    -0.506 OA
ATOM     31  H   UNL     1       7.672  43.952  48.326  1.00  0.00     0.293 HD
ENDBRANCH  25  30
ENDBRANCH  21  23
ENDBRANCH  14  21
ENDBRANCH   1  11
TORSDOF 9
ENDMDL
MODEL 12
REMARK VINA RESULT:    -7.731      2.560      7.429
REMARK INTER + INTRA:         -13.096
REMARK INTER:                 -12.140
REMARK INTRA:                  -0.955
REMARK UNBOUND:                -1.523
REMARK SMILES CC[NH+](CC)CCNc1nc(Nc2ccc(C)cc2O)c2cnn(C)c2n1
REMARK SMILES IDX 8 1 7 3 6 4 3 5 2 7 1 8 4 9 5 10 9 11 10 12 27 13 11 14
REMARK SMILES IDX 26 15 21 16 24 17 22 18 23 19 25 20 12 21 13 23 14 24 19 25
REMARK SMILES IDX 15 26 18 27 16 28 17 29 20 30
REMARK H PARENT 8 2 3 6 12 22 20 31
ROOT
ATOM      1  N   UNL     1       6.626  46.055  51.244  1.00  0.00    -0.348 N 
ATOM      2  H   UNL     1       7.395  45.554  50.799  1.00  0.00     0.163 HD
ENDROOT
BRANCH   1   3
ATOM      3  C   UNL     1       6.972  46.901  52.369  1.00  0.00     0.177 C 
BRANCH   3   4
ATOM      4  C   UNL     1       8.215  47.760  52.053  1.00  0.00     0.283 C 
BRANCH   4   5
ATOM      5  N   UNL     1       9.378  47.492  53.010  1.00  0.00    -0.334 N 
ATOM      6  H   UNL     1      10.142  48.103  52.691  1.00  0.00     0.348 HD
BRANCH   5   7
ATOM      7  C   UNL     1       9.091  47.842  54.459  1.00  0.00     0.258 C 
ATOM      8  C   UNL     1      10.276  47.468  55.331  1.00  0.00     0.071 C 
ENDBRANCH   5   7
BRANCH   5   9
ATOM      9  C   UNL     1       9.944  46.092  52.841  1.00  0.00     0.258 C 
ATOM     10  C   UNL     1      10.383  45.807  51.415  1.00  0.00     0.071 C 
ENDBRANCH   5   9
ENDBRANCH   4   5
ENDBRANCH   3   4
ENDBRANCH   1   3
BRANCH   1  11
ATOM     11  C   UNL     1       5.660  45.084  51.485  1.00  0.00     0.226 A 
ATOM     12  N   UNL     1       5.912  43.901  50.903  1.00  0.00    -0.195 NA
ATOM     13  N   UNL     1       4.598  45.384  52.251  1.00  0.00    -0.193 NA
ATOM     14  C   UNL     1       5.046  42.869  51.053  1.00  0.00     0.147 A 
ATOM     15  C   UNL     1       3.743  44.351  52.365  1.00  0.00     0.165 A 
ATOM     16  C   UNL     1       3.892  43.094  51.808  1.00  0.00     0.082 A 
ATOM     17  N   UNL     1       2.551  44.317  53.039  1.00  0.00    -0.250 N 
ATOM     18  C   UNL     1       2.735  42.391  52.200  1.00  0.00     0.149 A 
ATOM     19  N   UNL     1       1.920  43.127  52.963  1.00  0.00    -0.179 NA
ATOM     20  C   UNL     1       1.933  45.388  53.778  1.00  0.00     0.176 C 
BRANCH  14  21
ATOM     21  N   UNL     1       5.355  41.670  50.391  1.00  0.00    -0.336 N 
ATOM     22  H   UNL     1       4.987  40.916  50.973  1.00  0.00     0.168 HD
BRANCH  21  23
ATOM     23  C   UNL     1       5.098  41.375  49.030  1.00  0.00     0.082 A 
ATOM     24  C   UNL     1       5.839  41.927  47.979  1.00  0.00     0.030 A 
ATOM     25  C   UNL     1       3.968  40.609  48.709  1.00  0.00     0.139 A 
ATOM     26  C   UNL     1       5.481  41.675  46.650  1.00  0.00     0.006 A 
ATOM     27  C   UNL     1       3.600  40.359  47.392  1.00  0.00     0.051 A 
ATOM     28  C   UNL     1       4.355  40.898  46.346  1.00  0.00    -0.047 A 
ATOM     29  C   UNL     1       3.993  40.605  44.920  1.00  0.00     0.044 C 
BRANCH  25  30
ATOM     30  O   UNL     1       3.207  40.061  49.707  1.00  0.00    -0.506 OA
ATOM     31  H   UNL     1       2.753  39.298  49.305  1.00  0.00     0.293 HD
ENDBRANCH  25  30
ENDBRANCH  21  23
ENDBRANCH  14  21
ENDBRANCH   1  11
TORSDOF 9
ENDMDL
MODEL 13
REMARK VINA RESULT:    -7.720      2.225      6.393
REMARK INTER + INTRA:         -13.080
REMARK INTER:                 -11.386
REMARK INTRA:                  -1.694
REMARK UNBOUND:                -1.523
REMARK SMILES CC[NH+](CC)CCNc1nc(Nc2ccc(C)cc2O)c2cnn(C)c2n1
REMARK SMILES IDX 8 1 7 3 6 4 3 5 2 7 1 8 4 9 5 10 9 11 10 12 27 13 11 14
REMARK SMILES IDX 26 15 21 16 24 17 22 18 23 19 25 20 12 21 13 23 14 24 19 25
REMARK SMILES IDX 15 26 18 27 16 28 17 29 20 30
REMARK H PARENT 8 2 3 6 12 22 20 31
ROOT
ATOM      1  N   UNL     1       1.500  42.993  52.801  1.00  0.00    -0.348 N 
ATOM      2  H   UNL     1       0.873  42.198  52.917  1.00  0.00     0.163 HD
ENDROOT
BRANCH   1   3
ATOM      3  C   UNL     1       2.883  42.684  52.495  1.00  0.00     0.177 C 
BRANCH   3   4
ATOM      4  C   UNL     1       3.291  43.268  51.126  1.00  0.00     0.283 C 
BRANCH   4   5
ATOM      5  N   UNL     1       4.633  44.000  51.172  1.00  0.00    -0.334 N 
ATOM      6  H   UNL     1       4.880  44.057  52.169  1.00  0.00     0.348 HD
BRANCH   5   7
ATOM      7  C   UNL     1       5.766  43.278  50.464  1.00  0.00     0.258 C 
ATOM      8  C   UNL     1       6.848  44.266  50.068  1.00  0.00     0.071 C 
ENDBRANCH   5   7
BRANCH   5   9
ATOM      9  C   UNL     1       4.504  45.454  50.750  1.00  0.00     0.258 C 
ATOM     10  C   UNL     1       3.128  46.028  51.041  1.00  0.00     0.071 C 
ENDBRANCH   5   9
ENDBRANCH   4   5
ENDBRANCH   3   4
ENDBRANCH   1   3
BRANCH   1  11
ATOM     11  C   UNL     1       1.286  43.783  53.925  1.00  0.00     0.226 A 
ATOM     12  N   UNL     1       2.370  44.458  54.338  1.00  0.00    -0.195 NA
ATOM     13  N   UNL     1       0.066  43.818  54.486  1.00  0.00    -0.193 NA
ATOM     14  C   UNL     1       2.300  45.260  55.428  1.00  0.00     0.147 A 
ATOM     15  C   UNL     1       0.029  44.603  55.579  1.00  0.00     0.165 A 
ATOM     16  C   UNL     1       1.078  45.337  56.101  1.00  0.00     0.082 A 
ATOM     17  N   UNL     1      -1.036  44.839  56.409  1.00  0.00    -0.250 N 
ATOM     18  C   UNL     1       0.541  45.966  57.242  1.00  0.00     0.149 A 
ATOM     19  N   UNL     1      -0.752  45.677  57.427  1.00  0.00    -0.179 NA
ATOM     20  C   UNL     1      -2.364  44.292  56.304  1.00  0.00     0.176 C 
BRANCH  14  21
ATOM     21  N   UNL     1       3.480  45.911  55.823  1.00  0.00    -0.336 N 
ATOM     22  H   UNL     1       3.838  45.395  56.629  1.00  0.00     0.168 HD
BRANCH  21  23
ATOM     23  C   UNL     1       4.561  46.268  54.981  1.00  0.00     0.082 A 
ATOM     24  C   UNL     1       4.619  47.484  54.293  1.00  0.00     0.030 A 
ATOM     25  C   UNL     1       5.550  45.311  54.713  1.00  0.00     0.139 A 
ATOM     26  C   UNL     1       5.665  47.746  53.400  1.00  0.00     0.006 A 
ATOM     27  C   UNL     1       6.589  45.557  53.823  1.00  0.00     0.051 A 
ATOM     28  C   UNL     1       6.651  46.782  53.152  1.00  0.00    -0.047 A 
ATOM     29  C   UNL     1       7.788  47.077  52.217  1.00  0.00     0.044 C 
BRANCH  25  30
ATOM     30  O   UNL     1       5.523  44.101  55.354  1.00  0.00    -0.506 OA
ATOM     31  H   UNL     1       6.420  43.971  55.714  1.00  0.00     0.293 HD
ENDBRANCH  25  30
ENDBRANCH  21  23
ENDBRANCH  14  21
ENDBRANCH   1  11
TORSDOF 9
ENDMDL
MODEL 14
REMARK VINA RESULT:    -7.717      2.237      6.435
REMARK INTER + INTRA:         -13.074
REMARK INTER:                 -11.338
REMARK INTRA:                  -1.736
REMARK UNBOUND:                -1.523
REMARK SMILES CC[NH+](CC)CCNc1nc(Nc2ccc(C)cc2O)c2cnn(C)c2n1
REMARK SMILES IDX 8 1 7 3 6 4 3 5 2 7 1 8 4 9 5 10 9 11 10 12 27 13 11 14
REMARK SMILES IDX 26 15 21 16 24 17 22 18 23 19 25 20 12 21 13 23 14 24 19 25
REMARK SMILES IDX 15 26 18 27 16 28 17 29 20 30
REMARK H PARENT 8 2 3 6 12 22 20 31
ROOT
ATOM      1  N   UNL     1       0.870  43.385  53.074  1.00  0.00    -0.348 N 
ATOM      2  H   UNL     1       0.127  42.708  53.240  1.00  0.00     0.163 HD
ENDROOT
BRANCH   1   3
ATOM      3  C   UNL     1       2.141  42.851  52.624  1.00  0.00     0.177 C 
BRANCH   3   4
ATOM      4  C   UNL     1       2.613  43.558  51.336  1.00  0.00     0.283 C 
BRANCH   4   5
ATOM      5  N   UNL     1       4.056  44.055  51.429  1.00  0.00    -0.334 N 
ATOM      6  H   UNL     1       4.248  44.154  52.436  1.00  0.00     0.348 HD
BRANCH   5   7
ATOM      7  C   UNL     1       5.088  43.096  50.863  1.00  0.00     0.258 C 
ATOM      8  C   UNL     1       6.208  43.871  50.193  1.00  0.00     0.071 C 
ENDBRANCH   5   7
BRANCH   5   9
ATOM      9  C   UNL     1       4.207  45.470  50.895  1.00  0.00     0.258 C 
ATOM     10  C   UNL     1       3.136  46.410  51.417  1.00  0.00     0.071 C 
ENDBRANCH   5   9
ENDBRANCH   4   5
ENDBRANCH   3   4
ENDBRANCH   1   3
BRANCH   1  11
ATOM     11  C   UNL     1       0.909  44.161  54.228  1.00  0.00     0.226 A 
ATOM     12  N   UNL     1       2.122  44.655  54.518  1.00  0.00    -0.195 NA
ATOM     13  N   UNL     1      -0.219  44.356  54.931  1.00  0.00    -0.193 NA
ATOM     14  C   UNL     1       2.300  45.423  55.621  1.00  0.00     0.147 A 
ATOM     15  C   UNL     1      -0.011  45.102  56.033  1.00  0.00     0.165 A 
ATOM     16  C   UNL     1       1.190  45.655  56.436  1.00  0.00     0.082 A 
ATOM     17  N   UNL     1      -0.924  45.464  56.987  1.00  0.00    -0.250 N 
ATOM     18  C   UNL     1       0.889  46.319  57.643  1.00  0.00     0.149 A 
ATOM     19  N   UNL     1      -0.402  46.218  57.976  1.00  0.00    -0.179 NA
ATOM     20  C   UNL     1      -2.323  45.122  57.034  1.00  0.00     0.176 C 
BRANCH  14  21
ATOM     21  N   UNL     1       3.602  45.880  55.882  1.00  0.00    -0.336 N 
ATOM     22  H   UNL     1       3.922  45.380  56.713  1.00  0.00     0.168 HD
BRANCH  21  23
ATOM     23  C   UNL     1       4.664  45.959  54.949  1.00  0.00     0.082 A 
ATOM     24  C   UNL     1       5.463  44.862  54.611  1.00  0.00     0.030 A 
ATOM     25  C   UNL     1       5.024  47.217  54.445  1.00  0.00     0.139 A 
ATOM     26  C   UNL     1       6.559  45.018  53.754  1.00  0.00     0.006 A 
ATOM     27  C   UNL     1       6.115  47.385  53.599  1.00  0.00     0.051 A 
ATOM     28  C   UNL     1       6.898  46.281  53.250  1.00  0.00    -0.047 A 
ATOM     29  C   UNL     1       8.055  46.440  52.308  1.00  0.00     0.044 C 
BRANCH  25  30
ATOM     30  O   UNL     1       4.278  48.321  54.762  1.00  0.00    -0.506 OA
ATOM     31  H   UNL     1       4.309  48.392  55.734  1.00  0.00     0.293 HD
ENDBRANCH  25  30
ENDBRANCH  21  23
ENDBRANCH  14  21
ENDBRANCH   1  11
TORSDOF 9
ENDMDL
MODEL 15
REMARK VINA RESULT:    -7.695      2.144      6.727
REMARK INTER + INTRA:         -13.042
REMARK INTER:                 -12.096
REMARK INTRA:                  -0.946
REMARK UNBOUND:                -1.523
REMARK SMILES CC[NH+](CC)CCNc1nc(Nc2ccc(C)cc2O)c2cnn(C)c2n1
REMARK SMILES IDX 8 1 7 3 6 4 3 5 2 7 1 8 4 9 5 10 9 11 10 12 27 13 11 14
REMARK SMILES IDX 26 15 21 16 24 17 22 18 23 19 25 20 12 21 13 23 14 24 19 25
REMARK SMILES IDX 15 26 18 27 16 28 17 29 20 30
REMARK H PARENT 8 2 3 6 12 22 20 31
ROOT
ATOM      1  N   UNL     1       5.264  46.684  52.462  1.00  0.00    -0.348 N 
ATOM      2  H   UNL     1       5.140  47.283  51.646  1.00  0.00     0.163 HD
ENDROOT
BRANCH   1   3
ATOM      3  C   UNL     1       6.406  46.975  53.307  1.00  0.00     0.177 C 
BRANCH   3   4
ATOM      4  C   UNL     1       7.481  47.764  52.531  1.00  0.00     0.283 C 
BRANCH   4   5
ATOM      5  N   UNL     1       8.884  47.577  53.109  1.00  0.00    -0.334 N 
ATOM      6  H   UNL     1       9.497  48.180  52.543  1.00  0.00     0.348 HD
BRANCH   5   7
ATOM      7  C   UNL     1       9.030  48.012  54.556  1.00  0.00     0.258 C 
ATOM      8  C   UNL     1      10.258  47.368  55.174  1.00  0.00     0.071 C 
ENDBRANCH   5   7
BRANCH   5   9
ATOM      9  C   UNL     1       9.423  46.179  52.855  1.00  0.00     0.258 C 
ATOM     10  C   UNL     1      10.424  46.136  51.714  1.00  0.00     0.071 C 
ENDBRANCH   5   9
ENDBRANCH   4   5
ENDBRANCH   3   4
ENDBRANCH   1   3
BRANCH   1  11
ATOM     11  C   UNL     1       5.186  45.387  51.967  1.00  0.00     0.226 A 
ATOM     12  N   UNL     1       4.223  44.641  52.530  1.00  0.00    -0.195 NA
ATOM     13  N   UNL     1       6.037  44.994  51.004  1.00  0.00    -0.193 NA
ATOM     14  C   UNL     1       4.044  43.354  52.143  1.00  0.00     0.147 A 
ATOM     15  C   UNL     1       5.853  43.707  50.655  1.00  0.00     0.165 A 
ATOM     16  C   UNL     1       4.903  42.843  51.168  1.00  0.00     0.082 A 
ATOM     17  N   UNL     1       6.560  42.977  49.737  1.00  0.00    -0.250 N 
ATOM     18  C   UNL     1       5.132  41.624  50.498  1.00  0.00     0.149 A 
ATOM     19  N   UNL     1       6.132  41.703  49.614  1.00  0.00    -0.179 NA
ATOM     20  C   UNL     1       7.672  43.419  48.936  1.00  0.00     0.176 C 
BRANCH  14  21
ATOM     21  N   UNL     1       3.039  42.622  52.795  1.00  0.00    -0.336 N 
ATOM     22  H   UNL     1       3.407  42.386  53.718  1.00  0.00     0.168 HD
BRANCH  21  23
ATOM     23  C   UNL     1       1.678  42.994  52.918  1.00  0.00     0.082 A 
ATOM     24  C   UNL     1       0.713  42.676  51.957  1.00  0.00     0.030 A 
ATOM     25  C   UNL     1       1.303  43.836  53.975  1.00  0.00     0.139 A 
ATOM     26  C   UNL     1      -0.598  43.150  52.083  1.00  0.00     0.006 A 
ATOM     27  C   UNL     1       0.006  44.318  54.106  1.00  0.00     0.051 A 
ATOM     28  C   UNL     1      -0.959  43.981  53.152  1.00  0.00    -0.047 A 
ATOM     29  C   UNL     1      -2.372  44.463  53.299  1.00  0.00     0.044 C 
BRANCH  25  30
ATOM     30  O   UNL     1       2.220  44.184  54.931  1.00  0.00    -0.506 OA
ATOM     31  H   UNL     1       1.760  44.804  55.527  1.00  0.00     0.293 HD
ENDBRANCH  25  30
ENDBRANCH  21  23
ENDBRANCH  14  21
ENDBRANCH   1  11
TORSDOF 9
ENDMDL
MODEL 16
REMARK VINA RESULT:    -7.693      2.192      5.540
REMARK INTER + INTRA:         -13.038
REMARK INTER:                 -12.366
REMARK INTRA:                  -0.673
REMARK UNBOUND:                -1.523
REMARK SMILES CC[NH+](CC)CCNc1nc(Nc2ccc(C)cc2O)c2cnn(C)c2n1
REMARK SMILES IDX 8 1 7 3 6 4 3 5 2 7 1 8 4 9 5 10 9 11 10 12 27 13 11 14
REMARK SMILES IDX 26 15 21 16 24 17 22 18 23 19 25 20 12 21 13 23 14 24 19 25
REMARK SMILES IDX 15 26 18 27 16 28 17 29 20 30
REMARK H PARENT 8 2 3 6 12 22 20 31
ROOT
ATOM      1  N   UNL     1       4.931  46.991  54.956  1.00  0.00    -0.348 N 
ATOM      2  H   UNL     1       5.198  47.566  55.755  1.00  0.00     0.163 HD
ENDROOT
BRANCH   1   3
ATOM      3  C   UNL     1       4.203  45.773  55.252  1.00  0.00     0.177 C 
BRANCH   3   4
ATOM      4  C   UNL     1       2.923  45.673  54.397  1.00  0.00     0.283 C 
BRANCH   4   5
ATOM      5  N   UNL     1       1.939  44.628  54.925  1.00  0.00    -0.334 N 
ATOM      6  H   UNL     1       2.509  43.799  55.142  1.00  0.00     0.348 HD
BRANCH   5   7
ATOM      7  C   UNL     1       1.221  45.032  56.201  1.00  0.00     0.258 C 
ATOM      8  C   UNL     1      -0.282  44.971  55.995  1.00  0.00     0.071 C 
ENDBRANCH   5   7
BRANCH   5   9
ATOM      9  C   UNL     1       0.991  44.139  53.843  1.00  0.00     0.258 C 
ATOM     10  C   UNL     1       1.243  42.692  53.455  1.00  0.00     0.071 C 
ENDBRANCH   5   9
ENDBRANCH   4   5
ENDBRANCH   3   4
ENDBRANCH   1   3
BRANCH   1  11
ATOM     11  C   UNL     1       6.102  46.839  54.221  1.00  0.00     0.226 A 
ATOM     12  N   UNL     1       5.914  46.367  52.979  1.00  0.00    -0.195 NA
ATOM     13  N   UNL     1       7.280  47.165  54.779  1.00  0.00    -0.193 NA
ATOM     14  C   UNL     1       6.974  46.165  52.158  1.00  0.00     0.147 A 
ATOM     15  C   UNL     1       8.317  46.933  53.952  1.00  0.00     0.165 A 
ATOM     16  C   UNL     1       8.247  46.444  52.660  1.00  0.00     0.082 A 
ATOM     17  N   UNL     1       9.651  47.118  54.205  1.00  0.00    -0.250 N 
ATOM     18  C   UNL     1       9.589  46.367  52.235  1.00  0.00     0.149 A 
ATOM     19  N   UNL     1      10.448  46.790  53.168  1.00  0.00    -0.179 NA
ATOM     20  C   UNL     1      10.252  47.598  55.423  1.00  0.00     0.176 C 
BRANCH  14  21
ATOM     21  N   UNL     1       6.708  45.639  50.883  1.00  0.00    -0.336 N 
ATOM     22  H   UNL     1       7.604  45.597  50.396  1.00  0.00     0.168 HD
BRANCH  21  23
ATOM     23  C   UNL     1       5.967  44.466  50.600  1.00  0.00     0.082 A 
ATOM     24  C   UNL     1       4.713  44.204  51.160  1.00  0.00     0.030 A 
ATOM     25  C   UNL     1       6.572  43.457  49.836  1.00  0.00     0.139 A 
ATOM     26  C   UNL     1       4.068  42.986  50.919  1.00  0.00     0.006 A 
ATOM     27  C   UNL     1       5.944  42.241  49.596  1.00  0.00     0.051 A 
ATOM     28  C   UNL     1       4.682  41.992  50.144  1.00  0.00    -0.047 A 
ATOM     29  C   UNL     1       3.974  40.699  49.863  1.00  0.00     0.044 C 
BRANCH  25  30
ATOM     30  O   UNL     1       7.806  43.666  49.280  1.00  0.00    -0.506 OA
ATOM     31  H   UNL     1       8.408  43.043  49.728  1.00  0.00     0.293 HD
ENDBRANCH  25  30
ENDBRANCH  21  23
ENDBRANCH  14  21
ENDBRANCH   1  11
TORSDOF 9
ENDMDL
MODEL 17
REMARK VINA RESULT:    -7.605      2.259      6.930
REMARK INTER + INTRA:         -12.907
REMARK INTER:                 -11.937
REMARK INTRA:                  -0.970
REMARK UNBOUND:                -1.523
REMARK SMILES CC[NH+](CC)CCNc1nc(Nc2ccc(C)cc2O)c2cnn(C)c2n1
REMARK SMILES IDX 8 1 7 3 6 4 3 5 2 7 1 8 4 9 5 10 9 11 10 12 27 13 11 14
REMARK SMILES IDX 26 15 21 16 24 17 22 18 23 19 25 20 12 21 13 23 14 24 19 25
REMARK SMILES IDX 15 26 18 27 16 28 17 29 20 30
REMARK H PARENT 8 2 3 6 12 22 20 31
ROOT
ATOM      1  N   UNL     1       5.287  46.038  53.312  1.00  0.00    -0.348 N 
ATOM      2  H   UNL     1       5.413  46.742  52.585  1.00  0.00     0.163 HD
ENDROOT
BRANCH   1   3
ATOM      3  C   UNL     1       6.336  45.945  54.308  1.00  0.00     0.177 C 
BRANCH   3   4
ATOM      4  C   UNL     1       7.462  46.960  54.021  1.00  0.00     0.283 C 
BRANCH   4   5
ATOM      5  N   UNL     1       8.555  46.390  53.115  1.00  0.00    -0.334 N 
ATOM      6  H   UNL     1       8.482  45.368  53.206  1.00  0.00     0.348 HD
BRANCH   5   7
ATOM      7  C   UNL     1       8.388  46.728  51.644  1.00  0.00     0.258 C 
ATOM      8  C   UNL     1       8.445  48.231  51.444  1.00  0.00     0.071 C 
ENDBRANCH   5   7
BRANCH   5   9
ATOM      9  C   UNL     1       9.948  46.699  53.638  1.00  0.00     0.258 C 
ATOM     10  C   UNL     1       9.924  47.448  54.958  1.00  0.00     0.071 C 
ENDBRANCH   5   9
ENDBRANCH   4   5
ENDBRANCH   3   4
ENDBRANCH   1   3
BRANCH   1  11
ATOM     11  C   UNL     1       4.992  44.866  52.625  1.00  0.00     0.226 A 
ATOM     12  N   UNL     1       3.935  44.195  53.109  1.00  0.00    -0.195 NA
ATOM     13  N   UNL     1       5.746  44.509  51.572  1.00  0.00    -0.193 NA
ATOM     14  C   UNL     1       3.545  43.031  52.535  1.00  0.00     0.147 A 
ATOM     15  C   UNL     1       5.352  43.339  51.035  1.00  0.00     0.165 A 
ATOM     16  C   UNL     1       4.289  42.560  51.451  1.00  0.00     0.082 A 
ATOM     17  N   UNL     1       5.913  42.667  49.981  1.00  0.00    -0.250 N 
ATOM     18  C   UNL     1       4.305  41.445  50.589  1.00  0.00     0.149 A 
ATOM     19  N   UNL     1       5.284  41.512  49.680  1.00  0.00    -0.179 NA
ATOM     20  C   UNL     1       7.062  43.058  49.206  1.00  0.00     0.176 C 
BRANCH  14  21
ATOM     21  N   UNL     1       2.451  42.365  53.112  1.00  0.00    -0.336 N 
ATOM     22  H   UNL     1       2.768  42.025  54.021  1.00  0.00     0.168 HD
BRANCH  21  23
ATOM     23  C   UNL     1       1.135  42.872  53.239  1.00  0.00     0.082 A 
ATOM     24  C   UNL     1       0.113  42.566  52.334  1.00  0.00     0.030 A 
ATOM     25  C   UNL     1       0.874  43.830  54.229  1.00  0.00     0.139 A 
ATOM     26  C   UNL     1      -1.145  43.170  52.453  1.00  0.00     0.006 A 
ATOM     27  C   UNL     1      -0.368  44.441  54.352  1.00  0.00     0.051 A 
ATOM     28  C   UNL     1      -1.392  44.118  53.456  1.00  0.00    -0.047 A 
ATOM     29  C   UNL     1      -2.750  44.740  53.599  1.00  0.00     0.044 C 
BRANCH  25  30
ATOM     30  O   UNL     1       1.851  44.170  55.127  1.00  0.00    -0.506 OA
ATOM     31  H   UNL     1       1.383  44.496  55.917  1.00  0.00     0.293 HD
ENDBRANCH  25  30
ENDBRANCH  21  23
ENDBRANCH  14  21
ENDBRANCH   1  11
TORSDOF 9
ENDMDL
MODEL 18
REMARK VINA RESULT:    -7.573      2.148      5.929
REMARK INTER + INTRA:         -12.859
REMARK INTER:                 -11.933
REMARK INTRA:                  -0.926
REMARK UNBOUND:                -1.523
REMARK SMILES CC[NH+](CC)CCNc1nc(Nc2ccc(C)cc2O)c2cnn(C)c2n1
REMARK SMILES IDX 8 1 7 3 6 4 3 5 2 7 1 8 4 9 5 10 9 11 10 12 27 13 11 14
REMARK SMILES IDX 26 15 21 16 24 17 22 18 23 19 25 20 12 21 13 23 14 24 19 25
REMARK SMILES IDX 15 26 18 27 16 28 17 29 20 30
REMARK H PARENT 8 2 3 6 12 22 20 31
ROOT
ATOM      1  N   UNL     1       5.400  41.500  50.487  1.00  0.00    -0.348 N 
ATOM      2  H   UNL     1       6.276  41.443  51.006  1.00  0.00     0.163 HD
ENDROOT
BRANCH   1   3
ATOM      3  C   UNL     1       5.507  41.530  49.042  1.00  0.00     0.177 C 
BRANCH   3   4
ATOM      4  C   UNL     1       4.284  40.858  48.383  1.00  0.00     0.283 C 
BRANCH   4   5
ATOM      5  N   UNL     1       4.499  40.565  46.898  1.00  0.00    -0.334 N 
ATOM      6  H   UNL     1       5.006  39.670  46.865  1.00  0.00     0.348 HD
BRANCH   5   7
ATOM      7  C   UNL     1       3.218  40.390  46.101  1.00  0.00     0.258 C 
ATOM      8  C   UNL     1       3.036  38.932  45.719  1.00  0.00     0.071 C 
ENDBRANCH   5   7
BRANCH   5   9
ATOM      9  C   UNL     1       5.464  41.548  46.256  1.00  0.00     0.258 C 
ATOM     10  C   UNL     1       4.909  42.170  44.988  1.00  0.00     0.071 C 
ENDBRANCH   5   9
ENDBRANCH   4   5
ENDBRANCH   3   4
ENDBRANCH   1   3
BRANCH   1  11
ATOM     11  C   UNL     1       4.710  42.558  51.070  1.00  0.00     0.226 A 
ATOM     12  N   UNL     1       5.322  43.746  50.951  1.00  0.00    -0.195 NA
ATOM     13  N   UNL     1       3.533  42.325  51.675  1.00  0.00    -0.193 NA
ATOM     14  C   UNL     1       4.759  44.859  51.482  1.00  0.00     0.147 A 
ATOM     15  C   UNL     1       3.007  43.442  52.213  1.00  0.00     0.165 A 
ATOM     16  C   UNL     1       3.548  44.713  52.162  1.00  0.00     0.082 A 
ATOM     17  N   UNL     1       1.844  43.563  52.927  1.00  0.00    -0.250 N 
ATOM     18  C   UNL     1       2.638  45.517  52.879  1.00  0.00     0.149 A 
ATOM     19  N   UNL     1       1.590  44.823  53.335  1.00  0.00    -0.179 NA
ATOM     20  C   UNL     1       0.917  42.516  53.272  1.00  0.00     0.176 C 
BRANCH  14  21
ATOM     21  N   UNL     1       5.469  46.063  51.349  1.00  0.00    -0.336 N 
ATOM     22  H   UNL     1       4.792  46.814  51.491  1.00  0.00     0.168 HD
BRANCH  21  23
ATOM     23  C   UNL     1       6.680  46.398  52.004  1.00  0.00     0.082 A 
ATOM     24  C   UNL     1       7.937  46.040  51.507  1.00  0.00     0.030 A 
ATOM     25  C   UNL     1       6.617  46.990  53.274  1.00  0.00     0.139 A 
ATOM     26  C   UNL     1       9.096  46.314  52.243  1.00  0.00     0.006 A 
ATOM     27  C   UNL     1       7.760  47.259  54.016  1.00  0.00     0.051 A 
ATOM     28  C   UNL     1       9.016  46.917  53.505  1.00  0.00    -0.047 A 
ATOM     29  C   UNL     1      10.262  47.236  54.278  1.00  0.00     0.044 C 
BRANCH  25  30
ATOM     30  O   UNL     1       5.405  47.343  53.805  1.00  0.00    -0.506 OA
ATOM     31  H   UNL     1       4.866  46.531  53.800  1.00  0.00     0.293 HD
ENDBRANCH  25  30
ENDBRANCH  21  23
ENDBRANCH  14  21
ENDBRANCH   1  11
TORSDOF 9
ENDMDL
MODEL 19
REMARK VINA RESULT:    -7.554      3.002      6.735
REMARK INTER + INTRA:         -12.831
REMARK INTER:                 -11.370
REMARK INTRA:                  -1.461
REMARK UNBOUND:                -1.523
REMARK SMILES CC[NH+](CC)CCNc1nc(Nc2ccc(C)cc2O)c2cnn(C)c2n1
REMARK SMILES IDX 8 1 7 3 6 4 3 5 2 7 1 8 4 9 5 10 9 11 10 12 27 13 11 14
REMARK SMILES IDX 26 15 21 16 24 17 22 18 23 19 25 20 12 21 13 23 14 24 19 25
REMARK SMILES IDX 15 26 18 27 16 28 17 29 20 30
REMARK H PARENT 8 2 3 6 12 22 20 31
ROOT
ATOM      1  N   UNL     1       3.167  42.311  52.557  1.00  0.00    -0.348 N 
ATOM      2  H   UNL     1       3.139  41.294  52.479  1.00  0.00     0.163 HD
ENDROOT
BRANCH   1   3
ATOM      3  C   UNL     1       1.910  43.007  52.361  1.00  0.00     0.177 C 
BRANCH   3   4
ATOM      4  C   UNL     1       1.610  43.949  53.545  1.00  0.00     0.283 C 
BRANCH   4   5
ATOM      5  N   UNL     1       2.619  45.091  53.663  1.00  0.00    -0.334 N 
ATOM      6  H   UNL     1       3.469  44.757  53.188  1.00  0.00     0.348 HD
BRANCH   5   7
ATOM      7  C   UNL     1       2.193  46.378  52.979  1.00  0.00     0.258 C 
ATOM      8  C   UNL     1       2.889  46.510  51.636  1.00  0.00     0.071 C 
ENDBRANCH   5   7
BRANCH   5   9
ATOM      9  C   UNL     1       3.072  45.307  55.098  1.00  0.00     0.258 C 
ATOM     10  C   UNL     1       4.579  45.444  55.222  1.00  0.00     0.071 C 
ENDBRANCH   5   9
ENDBRANCH   4   5
ENDBRANCH   3   4
ENDBRANCH   1   3
BRANCH   1  11
ATOM     11  C   UNL     1       4.217  42.703  51.734  1.00  0.00     0.226 A 
ATOM     12  N   UNL     1       4.489  41.842  50.741  1.00  0.00    -0.195 NA
ATOM     13  N   UNL     1       4.849  43.863  51.976  1.00  0.00    -0.193 NA
ATOM     14  C   UNL     1       5.494  42.101  49.870  1.00  0.00     0.147 A 
ATOM     15  C   UNL     1       5.857  44.086  51.112  1.00  0.00     0.165 A 
ATOM     16  C   UNL     1       6.233  43.270  50.060  1.00  0.00     0.082 A 
ATOM     17  N   UNL     1       6.725  45.145  51.088  1.00  0.00    -0.250 N 
ATOM     18  C   UNL     1       7.337  43.927  49.479  1.00  0.00     0.149 A 
ATOM     19  N   UNL     1       7.632  45.077  50.092  1.00  0.00    -0.179 NA
ATOM     20  C   UNL     1       6.762  46.266  51.992  1.00  0.00     0.176 C 
BRANCH  14  21
ATOM     21  N   UNL     1       5.745  41.142  48.875  1.00  0.00    -0.336 N 
ATOM     22  H   UNL     1       5.779  40.237  49.349  1.00  0.00     0.168 HD
BRANCH  21  23
ATOM     23  C   UNL     1       5.045  41.001  47.653  1.00  0.00     0.082 A 
ATOM     24  C   UNL     1       5.483  41.575  46.455  1.00  0.00     0.030 A 
ATOM     25  C   UNL     1       3.787  40.381  47.665  1.00  0.00     0.139 A 
ATOM     26  C   UNL     1       4.703  41.484  45.297  1.00  0.00     0.006 A 
ATOM     27  C   UNL     1       3.001  40.291  46.522  1.00  0.00     0.051 A 
ATOM     28  C   UNL     1       3.453  40.850  45.324  1.00  0.00    -0.047 A 
ATOM     29  C   UNL     1       2.633  40.728  44.073  1.00  0.00     0.044 C 
BRANCH  25  30
ATOM     30  O   UNL     1       3.312  39.818  48.820  1.00  0.00    -0.506 OA
ATOM     31  H   UNL     1       2.361  39.666  48.670  1.00  0.00     0.293 HD
ENDBRANCH  25  30
ENDBRANCH  21  23
ENDBRANCH  14  21
ENDBRANCH   1  11
TORSDOF 9
ENDMDL
MODEL 20
REMARK VINA RESULT:    -7.380      2.930      6.447
REMARK INTER + INTRA:         -12.571
REMARK INTER:                 -11.649
REMARK INTRA:                  -0.922
REMARK UNBOUND:                -1.523
REMARK SMILES CC[NH+](CC)CCNc1nc(Nc2ccc(C)cc2O)c2cnn(C)c2n1
REMARK SMILES IDX 8 1 7 3 6 4 3 5 2 7 1 8 4 9 5 10 9 11 10 12 27 13 11 14
REMARK SMILES IDX 26 15 21 16 24 17 22 18 23 19 25 20 12 21 13 23 14 24 19 25
REMARK SMILES IDX 15 26 18 27 16 28 17 29 20 30
REMARK H PARENT 8 2 3 6 12 22 20 31
ROOT
ATOM      1  N   UNL     1       1.998  46.795  53.077  1.00  0.00    -0.348 N 
ATOM      2  H   UNL     1       1.231  47.436  52.878  1.00  0.00     0.163 HD
ENDROOT
BRANCH   1   3
ATOM      3  C   UNL     1       3.228  47.012  52.340  1.00  0.00     0.177 C 
BRANCH   3   4
ATOM      4  C   UNL     1       4.334  47.564  53.263  1.00  0.00     0.283 C 
BRANCH   4   5
ATOM      5  N   UNL     1       5.576  46.671  53.296  1.00  0.00    -0.334 N 
ATOM      6  H   UNL     1       5.277  45.771  52.897  1.00  0.00     0.348 HD
BRANCH   5   7
ATOM      7  C   UNL     1       6.735  47.178  52.456  1.00  0.00     0.258 C 
ATOM      8  C   UNL     1       7.993  46.390  52.775  1.00  0.00     0.071 C 
ENDBRANCH   5   7
BRANCH   5   9
ATOM      9  C   UNL     1       5.985  46.316  54.716  1.00  0.00     0.258 C 
ATOM     10  C   UNL     1       5.469  44.956  55.151  1.00  0.00     0.071 C 
ENDBRANCH   5   9
ENDBRANCH   4   5
ENDBRANCH   3   4
ENDBRANCH   1   3
BRANCH   1  11
ATOM     11  C   UNL     1       1.439  45.526  52.968  1.00  0.00     0.226 A 
ATOM     12  N   UNL     1       2.330  44.550  52.737  1.00  0.00    -0.195 NA
ATOM     13  N   UNL     1       0.110  45.376  53.102  1.00  0.00    -0.193 NA
ATOM     14  C   UNL     1       1.916  43.266  52.603  1.00  0.00     0.147 A 
ATOM     15  C   UNL     1      -0.277  44.096  52.942  1.00  0.00     0.165 A 
ATOM     16  C   UNL     1       0.545  43.013  52.694  1.00  0.00     0.082 A 
ATOM     17  N   UNL     1      -1.551  43.593  52.979  1.00  0.00    -0.250 N 
ATOM     18  C   UNL     1      -0.333  41.915  52.592  1.00  0.00     0.149 A 
ATOM     19  N   UNL     1      -1.612  42.261  52.779  1.00  0.00    -0.179 NA
ATOM     20  C   UNL     1      -2.774  44.324  53.192  1.00  0.00     0.176 C 
BRANCH  14  21
ATOM     21  N   UNL     1       2.897  42.300  52.331  1.00  0.00    -0.336 N 
ATOM     22  H   UNL     1       2.403  41.474  51.989  1.00  0.00     0.168 HD
BRANCH  21  23
ATOM     23  C   UNL     1       4.070  42.492  51.560  1.00  0.00     0.082 A 
ATOM     24  C   UNL     1       4.864  43.639  51.657  1.00  0.00     0.030 A 
ATOM     25  C   UNL     1       4.376  41.561  50.557  1.00  0.00     0.139 A 
ATOM     26  C   UNL     1       5.959  43.819  50.804  1.00  0.00     0.006 A 
ATOM     27  C   UNL     1       5.457  41.733  49.700  1.00  0.00     0.051 A 
ATOM     28  C   UNL     1       6.258  42.873  49.814  1.00  0.00    -0.047 A 
ATOM     29  C   UNL     1       7.450  43.055  48.921  1.00  0.00     0.044 C 
BRANCH  25  30
ATOM     30  O   UNL     1       3.617  40.430  50.418  1.00  0.00    -0.506 OA
ATOM     31  H   UNL     1       3.195  40.285  51.284  1.00  0.00     0.293 HD
ENDBRANCH  25  30
ENDBRANCH  21  23
ENDBRANCH  14  21
ENDBRANCH   1  11
TORSDOF 9
ENDMDL
