MODEL 1
REMARK VINA RESULT:    -9.512      0.000      0.000
REMARK INTER + INTRA:         -13.263
REMARK INTER:                 -12.849
REMARK INTRA:                  -0.414
REMARK UNBOUND:                -0.414
REMARK SMILES CC(C)CCNc1nc(Nc2ccc(F)cc2Cl)c2cnn(C)c2n1
REMARK SMILES IDX 6 1 5 3 4 4 2 5 1 6 3 7 7 8 8 9 25 10 9 11 24 12 19 13 22 14
REMARK SMILES IDX 20 15 21 16 23 17 10 18 11 20 12 21 17 22 13 23 16 24 14 25
REMARK SMILES IDX 18 26 15 27
REMARK H PARENT 6 2 10 19
ROOT
ATOM      1  N   UNL     1       6.045  46.817  54.857  1.00  0.00    -0.354 N 
ATOM      2  H   UNL     1       5.776  47.772  54.637  1.00  0.00     0.163 HD
ENDROOT
BRANCH   1   3
ATOM      3  C   UNL     1       7.317  46.404  54.291  1.00  0.00     0.116 C 
BRANCH   3   4
ATOM      4  C   UNL     1       7.923  47.486  53.389  1.00  0.00     0.024 C 
BRANCH   4   5
ATOM      5  C   UNL     1       9.464  47.509  53.335  1.00  0.00    -0.016 C 
ATOM      6  C   UNL     1      10.030  46.508  52.327  1.00  0.00     0.007 C 
ATOM      7  C   UNL     1      10.034  47.220  54.726  1.00  0.00     0.007 C 
ENDBRANCH   4   5
ENDBRANCH   3   4
ENDBRANCH   1   3
BRANCH   1   8
ATOM      8  C   UNL     1       4.941  46.055  54.489  1.00  0.00     0.226 A 
ATOM      9  N   UNL     1       5.091  45.395  53.327  1.00  0.00    -0.195 NA
ATOM     10  N   UNL     1       3.851  46.027  55.267  1.00  0.00    -0.193 NA
ATOM     11  C   UNL     1       4.097  44.603  52.845  1.00  0.00     0.147 A 
ATOM     12  C   UNL     1       2.877  45.254  54.769  1.00  0.00     0.165 A 
ATOM     13  C   UNL     1       2.921  44.527  53.596  1.00  0.00     0.082 A 
ATOM     14  N   UNL     1       1.642  45.021  55.310  1.00  0.00    -0.250 N 
ATOM     15  C   UNL     1       1.669  43.883  53.535  1.00  0.00     0.149 A 
ATOM     16  N   UNL     1       0.877  44.184  54.570  1.00  0.00    -0.179 NA
ATOM     17  C   UNL     1       1.119  45.566  56.537  1.00  0.00     0.176 C 
BRANCH  11  18
ATOM     18  N   UNL     1       4.245  43.920  51.622  1.00  0.00    -0.338 N 
ATOM     19  H   UNL     1       3.384  43.914  51.092  1.00  0.00     0.168 HD
BRANCH  18  20
ATOM     20  C   UNL     1       5.411  43.917  50.824  1.00  0.00     0.059 A 
ATOM     21  C   UNL     1       6.177  45.096  50.762  1.00  0.00     0.031 A 
ATOM     22  C   UNL     1       5.893  42.770  50.156  1.00  0.00     0.067 A 
ATOM     23  C   UNL     1       7.377  45.132  50.050  1.00  0.00     0.041 A 
ATOM     24  C   UNL     1       7.095  42.810  49.444  1.00  0.00     0.062 A 
ATOM     25  C   UNL     1       7.824  43.988  49.402  1.00  0.00     0.124 A 
ATOM     26  Cl  UNL     1       4.986  41.295  50.091  1.00  0.00    -0.082 Cl
ATOM     27  F   UNL     1       8.976  44.027  48.719  1.00  0.00    -0.207 F 
ENDBRANCH  18  20
ENDBRANCH  11  18
ENDBRANCH   1   8
TORSDOF 6
ENDMDL
MODEL 2
REMARK VINA RESULT:    -9.366      2.240      5.496
REMARK INTER + INTRA:         -13.065
REMARK INTER:                 -12.043
REMARK INTRA:                  -1.022
REMARK UNBOUND:                -0.414
REMARK SMILES CC(C)CCNc1nc(Nc2ccc(F)cc2Cl)c2cnn(C)c2n1
REMARK SMILES IDX 6 1 5 3 4 4 2 5 1 6 3 7 7 8 8 9 25 10 9 11 24 12 19 13 22 14
REMARK SMILES IDX 20 15 21 16 23 17 10 18 11 20 12 21 17 22 13 23 16 24 14 25
REMARK SMILES IDX 18 26 15 27
REMARK H PARENT 6 2 10 19
ROOT
ATOM      1  N   UNL     1       4.799  47.004  54.969  1.00  0.00    -0.354 N 
ATOM      2  H   UNL     1       5.077  47.662  55.692  1.00  0.00     0.163 HD
ENDROOT
BRANCH   1   3
ATOM      3  C   UNL     1       4.176  45.789  55.466  1.00  0.00     0.116 C 
BRANCH   3   4
ATOM      4  C   UNL     1       2.701  45.694  55.062  1.00  0.00     0.024 C 
BRANCH   4   5
ATOM      5  C   UNL     1       2.441  45.117  53.655  1.00  0.00    -0.016 C 
ATOM      6  C   UNL     1       2.029  46.192  52.648  1.00  0.00     0.007 C 
ATOM      7  C   UNL     1       1.356  44.039  53.732  1.00  0.00     0.007 C 
ENDBRANCH   4   5
ENDBRANCH   3   4
ENDBRANCH   1   3
BRANCH   1   8
ATOM      8  C   UNL     1       5.947  46.828  54.204  1.00  0.00     0.226 A 
ATOM      9  N   UNL     1       5.720  46.327  52.978  1.00  0.00    -0.195 NA
ATOM     10  N   UNL     1       7.148  47.145  54.706  1.00  0.00    -0.193 NA
ATOM     11  C   UNL     1       6.747  46.109  52.115  1.00  0.00     0.147 A 
ATOM     12  C   UNL     1       8.149  46.911  53.848  1.00  0.00     0.165 A 
ATOM     13  C   UNL     1       8.035  46.408  52.567  1.00  0.00     0.082 A 
ATOM     14  N   UNL     1       9.486  47.116  54.054  1.00  0.00    -0.250 N 
ATOM     15  C   UNL     1       9.359  46.365  52.088  1.00  0.00     0.149 A 
ATOM     16  N   UNL     1      10.254  46.785  52.989  1.00  0.00    -0.179 NA
ATOM     17  C   UNL     1      10.109  47.627  55.249  1.00  0.00     0.176 C 
BRANCH  11  18
ATOM     18  N   UNL     1       6.513  45.573  50.833  1.00  0.00    -0.338 N 
ATOM     19  H   UNL     1       7.174  45.928  50.155  1.00  0.00     0.168 HD
BRANCH  18  20
ATOM     20  C   UNL     1       6.065  44.260  50.566  1.00  0.00     0.059 A 
ATOM     21  C   UNL     1       4.857  43.838  51.154  1.00  0.00     0.031 A 
ATOM     22  C   UNL     1       6.718  43.381  49.675  1.00  0.00     0.067 A 
ATOM     23  C   UNL     1       4.325  42.580  50.869  1.00  0.00     0.041 A 
ATOM     24  C   UNL     1       6.183  42.121  49.393  1.00  0.00     0.062 A 
ATOM     25  C   UNL     1       4.993  41.736  49.991  1.00  0.00     0.124 A 
ATOM     26  Cl  UNL     1       8.254  43.761  48.969  1.00  0.00    -0.082 Cl
ATOM     27  F   UNL     1       4.480  40.528  49.721  1.00  0.00    -0.207 F 
ENDBRANCH  18  20
ENDBRANCH  11  18
ENDBRANCH   1   8
TORSDOF 6
ENDMDL
MODEL 3
REMARK VINA RESULT:    -9.315      2.667      5.239
REMARK INTER + INTRA:         -12.996
REMARK INTER:                 -11.588
REMARK INTRA:                  -1.408
REMARK UNBOUND:                -0.414
REMARK SMILES CC(C)CCNc1nc(Nc2ccc(F)cc2Cl)c2cnn(C)c2n1
REMARK SMILES IDX 6 1 5 3 4 4 2 5 1 6 3 7 7 8 8 9 25 10 9 11 24 12 19 13 22 14
REMARK SMILES IDX 20 15 21 16 23 17 10 18 11 20 12 21 17 22 13 23 16 24 14 25
REMARK SMILES IDX 18 26 15 27
REMARK H PARENT 6 2 10 19
ROOT
ATOM      1  N   UNL     1       2.698  45.892  51.959  1.00  0.00    -0.354 N 
ATOM      2  H   UNL     1       2.387  46.492  51.200  1.00  0.00     0.163 HD
ENDROOT
BRANCH   1   3
ATOM      3  C   UNL     1       2.976  46.589  53.204  1.00  0.00     0.116 C 
BRANCH   3   4
ATOM      4  C   UNL     1       3.175  45.617  54.373  1.00  0.00     0.024 C 
BRANCH   4   5
ATOM      5  C   UNL     1       4.559  45.678  55.050  1.00  0.00    -0.016 C 
ATOM      6  C   UNL     1       5.241  47.034  54.867  1.00  0.00     0.007 C 
ATOM      7  C   UNL     1       5.455  44.569  54.492  1.00  0.00     0.007 C 
ENDBRANCH   4   5
ENDBRANCH   3   4
ENDBRANCH   1   3
BRANCH   1   8
ATOM      8  C   UNL     1       3.757  45.172  51.417  1.00  0.00     0.226 A 
ATOM      9  N   UNL     1       4.865  45.902  51.201  1.00  0.00    -0.195 NA
ATOM     10  N   UNL     1       3.619  43.867  51.151  1.00  0.00    -0.193 NA
ATOM     11  C   UNL     1       5.984  45.330  50.683  1.00  0.00     0.147 A 
ATOM     12  C   UNL     1       4.726  43.323  50.628  1.00  0.00     0.165 A 
ATOM     13  C   UNL     1       5.919  43.970  50.370  1.00  0.00     0.082 A 
ATOM     14  N   UNL     1       4.910  42.024  50.239  1.00  0.00    -0.250 N 
ATOM     15  C   UNL     1       6.755  42.966  49.843  1.00  0.00     0.149 A 
ATOM     16  N   UNL     1       6.149  41.778  49.749  1.00  0.00    -0.179 NA
ATOM     17  C   UNL     1       3.945  40.956  50.305  1.00  0.00     0.176 C 
BRANCH  11  18
ATOM     18  N   UNL     1       7.143  46.095  50.444  1.00  0.00    -0.338 N 
ATOM     19  H   UNL     1       6.984  46.798  49.734  1.00  0.00     0.168 HD
BRANCH  18  20
ATOM     20  C   UNL     1       8.092  46.467  51.421  1.00  0.00     0.059 A 
ATOM     21  C   UNL     1       7.726  47.445  52.365  1.00  0.00     0.031 A 
ATOM     22  C   UNL     1       9.355  45.850  51.552  1.00  0.00     0.067 A 
ATOM     23  C   UNL     1       8.593  47.801  53.399  1.00  0.00     0.041 A 
ATOM     24  C   UNL     1      10.222  46.210  52.589  1.00  0.00     0.062 A 
ATOM     25  C   UNL     1       9.831  47.178  53.501  1.00  0.00     0.124 A 
ATOM     26  Cl  UNL     1       9.943  44.703  50.395  1.00  0.00    -0.082 Cl
ATOM     27  F   UNL     1      10.661  47.523  54.493  1.00  0.00    -0.207 F 
ENDBRANCH  18  20
ENDBRANCH  11  18
ENDBRANCH   1   8
TORSDOF 6
ENDMDL
MODEL 4
REMARK VINA RESULT:    -9.268      3.037      6.249
REMARK INTER + INTRA:         -12.932
REMARK INTER:                 -12.108
REMARK INTRA:                  -0.824
REMARK UNBOUND:                -0.414
REMARK SMILES CC(C)CCNc1nc(Nc2ccc(F)cc2Cl)c2cnn(C)c2n1
REMARK SMILES IDX 6 1 5 3 4 4 2 5 1 6 3 7 7 8 8 9 25 10 9 11 24 12 19 13 22 14
REMARK SMILES IDX 20 15 21 16 23 17 10 18 11 20 12 21 17 22 13 23 16 24 14 25
REMARK SMILES IDX 18 26 15 27
REMARK H PARENT 6 2 10 19
ROOT
ATOM      1  N   UNL     1       6.220  41.540  49.352  1.00  0.00    -0.354 N 
ATOM      2  H   UNL     1       7.185  41.759  49.121  1.00  0.00     0.163 HD
ENDROOT
BRANCH   1   3
ATOM      3  C   UNL     1       5.393  41.183  48.211  1.00  0.00     0.116 C 
BRANCH   3   4
ATOM      4  C   UNL     1       5.804  41.943  46.945  1.00  0.00     0.024 C 
BRANCH   4   5
ATOM      5  C   UNL     1       5.166  41.432  45.636  1.00  0.00    -0.016 C 
ATOM      6  C   UNL     1       5.049  42.528  44.576  1.00  0.00     0.007 C 
ATOM      7  C   UNL     1       3.782  40.849  45.931  1.00  0.00     0.007 C 
ENDBRANCH   4   5
ENDBRANCH   3   4
ENDBRANCH   1   3
BRANCH   1   8
ATOM      8  C   UNL     1       5.787  42.631  50.097  1.00  0.00     0.226 A 
ATOM      9  N   UNL     1       6.570  43.719  49.985  1.00  0.00    -0.195 NA
ATOM     10  N   UNL     1       4.679  42.541  50.845  1.00  0.00    -0.193 NA
ATOM     11  C   UNL     1       6.265  44.865  50.650  1.00  0.00     0.147 A 
ATOM     12  C   UNL     1       4.403  43.674  51.504  1.00  0.00     0.165 A 
ATOM     13  C   UNL     1       5.126  44.849  51.460  1.00  0.00     0.082 A 
ATOM     14  N   UNL     1       3.356  43.907  52.353  1.00  0.00    -0.250 N 
ATOM     15  C   UNL     1       4.420  45.728  52.306  1.00  0.00     0.149 A 
ATOM     16  N   UNL     1       3.345  45.162  52.864  1.00  0.00    -0.179 NA
ATOM     17  C   UNL     1       2.322  42.977  52.728  1.00  0.00     0.176 C 
BRANCH  11  18
ATOM     18  N   UNL     1       7.089  46.002  50.545  1.00  0.00    -0.338 N 
ATOM     19  H   UNL     1       6.607  46.771  50.099  1.00  0.00     0.168 HD
BRANCH  18  20
ATOM     20  C   UNL     1       8.055  46.402  51.496  1.00  0.00     0.059 A 
ATOM     21  C   UNL     1       7.683  47.357  52.460  1.00  0.00     0.031 A 
ATOM     22  C   UNL     1       9.344  45.832  51.581  1.00  0.00     0.067 A 
ATOM     23  C   UNL     1       8.569  47.736  53.470  1.00  0.00     0.041 A 
ATOM     24  C   UNL     1      10.229  46.215  52.593  1.00  0.00     0.062 A 
ATOM     25  C   UNL     1       9.831  47.159  53.526  1.00  0.00     0.124 A 
ATOM     26  Cl  UNL     1       9.937  44.718  50.394  1.00  0.00    -0.082 Cl
ATOM     27  F   UNL     1      10.680  47.528  54.495  1.00  0.00    -0.207 F 
ENDBRANCH  18  20
ENDBRANCH  11  18
ENDBRANCH   1   8
TORSDOF 6
ENDMDL
MODEL 5
REMARK VINA RESULT:    -9.166      1.544      2.036
REMARK INTER + INTRA:         -12.795
REMARK INTER:                 -11.987
REMARK INTRA:                  -0.808
REMARK UNBOUND:                -0.414
REMARK SMILES CC(C)CCNc1nc(Nc2ccc(F)cc2Cl)c2cnn(C)c2n1
REMARK SMILES IDX 6 1 5 3 4 4 2 5 1 6 3 7 7 8 8 9 25 10 9 11 24 12 19 13 22 14
REMARK SMILES IDX 20 15 21 16 23 17 10 18 11 20 12 21 17 22 13 23 16 24 14 25
REMARK SMILES IDX 18 26 15 27
REMARK H PARENT 6 2 10 19
ROOT
ATOM      1  N   UNL     1       5.651  46.774  54.974  1.00  0.00    -0.354 N 
ATOM      2  H   UNL     1       5.405  47.759  55.025  1.00  0.00     0.163 HD
ENDROOT
BRANCH   1   3
ATOM      3  C   UNL     1       6.770  46.477  54.095  1.00  0.00     0.116 C 
BRANCH   3   4
ATOM      4  C   UNL     1       8.051  47.194  54.535  1.00  0.00     0.024 C 
BRANCH   4   5
ATOM      5  C   UNL     1       8.938  47.718  53.386  1.00  0.00    -0.016 C 
ATOM      6  C   UNL     1       8.120  48.179  52.179  1.00  0.00     0.007 C 
ATOM      7  C   UNL     1       9.923  46.628  52.957  1.00  0.00     0.007 C 
ENDBRANCH   4   5
ENDBRANCH   3   4
ENDBRANCH   1   3
BRANCH   1   8
ATOM      8  C   UNL     1       4.454  46.134  54.670  1.00  0.00     0.226 A 
ATOM      9  N   UNL     1       4.417  45.593  53.441  1.00  0.00    -0.195 NA
ATOM     10  N   UNL     1       3.461  46.100  55.568  1.00  0.00    -0.193 NA
ATOM     11  C   UNL     1       3.313  44.927  53.009  1.00  0.00     0.147 A 
ATOM     12  C   UNL     1       2.377  45.454  55.120  1.00  0.00     0.165 A 
ATOM     13  C   UNL     1       2.227  44.854  53.885  1.00  0.00     0.082 A 
ATOM     14  N   UNL     1       1.196  45.253  55.782  1.00  0.00    -0.250 N 
ATOM     15  C   UNL     1       0.928  44.309  53.915  1.00  0.00     0.149 A 
ATOM     16  N   UNL     1       0.286  44.554  55.062  1.00  0.00    -0.179 NA
ATOM     17  C   UNL     1       0.862  45.699  57.110  1.00  0.00     0.176 C 
BRANCH  11  18
ATOM     18  N   UNL     1       3.265  44.369  51.716  1.00  0.00    -0.338 N 
ATOM     19  H   UNL     1       2.868  45.015  51.046  1.00  0.00     0.168 HD
BRANCH  18  20
ATOM     20  C   UNL     1       4.228  43.491  51.169  1.00  0.00     0.059 A 
ATOM     21  C   UNL     1       3.946  42.112  51.171  1.00  0.00     0.031 A 
ATOM     22  C   UNL     1       5.416  43.931  50.546  1.00  0.00     0.067 A 
ATOM     23  C   UNL     1       4.824  41.203  50.579  1.00  0.00     0.041 A 
ATOM     24  C   UNL     1       6.293  43.017  49.954  1.00  0.00     0.062 A 
ATOM     25  C   UNL     1       5.986  41.665  49.975  1.00  0.00     0.124 A 
ATOM     26  Cl  UNL     1       5.904  45.593  50.566  1.00  0.00    -0.082 Cl
ATOM     27  F   UNL     1       6.827  40.789  49.410  1.00  0.00    -0.207 F 
ENDBRANCH  18  20
ENDBRANCH  11  18
ENDBRANCH   1   8
TORSDOF 6
ENDMDL
MODEL 6
REMARK VINA RESULT:    -9.073      2.596      6.359
REMARK INTER + INTRA:         -12.669
REMARK INTER:                 -11.775
REMARK INTRA:                  -0.895
REMARK UNBOUND:                -0.414
REMARK SMILES CC(C)CCNc1nc(Nc2ccc(F)cc2Cl)c2cnn(C)c2n1
REMARK SMILES IDX 6 1 5 3 4 4 2 5 1 6 3 7 7 8 8 9 25 10 9 11 24 12 19 13 22 14
REMARK SMILES IDX 20 15 21 16 23 17 10 18 11 20 12 21 17 22 13 23 16 24 14 25
REMARK SMILES IDX 18 26 15 27
REMARK H PARENT 6 2 10 19
ROOT
ATOM      1  N   UNL     1       3.041  43.331  53.006  1.00  0.00    -0.354 N 
ATOM      2  H   UNL     1       2.608  42.492  52.629  1.00  0.00     0.163 HD
ENDROOT
BRANCH   1   3
ATOM      3  C   UNL     1       2.125  44.439  53.217  1.00  0.00     0.116 C 
BRANCH   3   4
ATOM      4  C   UNL     1       1.178  44.183  54.396  1.00  0.00     0.024 C 
BRANCH   4   5
ATOM      5  C   UNL     1       1.647  44.754  55.751  1.00  0.00    -0.016 C 
ATOM      6  C   UNL     1       0.511  45.415  56.532  1.00  0.00     0.007 C 
ATOM      7  C   UNL     1       2.774  45.764  55.522  1.00  0.00     0.007 C 
ENDBRANCH   4   5
ENDBRANCH   3   4
ENDBRANCH   1   3
BRANCH   1   8
ATOM      8  C   UNL     1       4.108  43.581  52.149  1.00  0.00     0.226 A 
ATOM      9  N   UNL     1       4.714  44.764  52.356  1.00  0.00    -0.195 NA
ATOM     10  N   UNL     1       4.450  42.683  51.217  1.00  0.00    -0.193 NA
ATOM     11  C   UNL     1       5.778  45.140  51.600  1.00  0.00     0.147 A 
ATOM     12  C   UNL     1       5.491  43.077  50.472  1.00  0.00     0.165 A 
ATOM     13  C   UNL     1       6.193  44.259  50.597  1.00  0.00     0.082 A 
ATOM     14  N   UNL     1       6.076  42.400  49.436  1.00  0.00    -0.250 N 
ATOM     15  C   UNL     1       7.186  44.185  49.601  1.00  0.00     0.149 A 
ATOM     16  N   UNL     1       7.119  43.060  48.880  1.00  0.00    -0.179 NA
ATOM     17  C   UNL     1       5.692  41.111  48.918  1.00  0.00     0.176 C 
BRANCH  11  18
ATOM     18  N   UNL     1       6.408  46.384  51.806  1.00  0.00    -0.338 N 
ATOM     19  H   UNL     1       5.738  47.141  51.820  1.00  0.00     0.168 HD
BRANCH  18  20
ATOM     20  C   UNL     1       7.542  46.601  52.620  1.00  0.00     0.059 A 
ATOM     21  C   UNL     1       8.814  46.511  52.025  1.00  0.00     0.031 A 
ATOM     22  C   UNL     1       7.462  46.985  53.976  1.00  0.00     0.067 A 
ATOM     23  C   UNL     1       9.967  46.788  52.761  1.00  0.00     0.041 A 
ATOM     24  C   UNL     1       8.620  47.261  54.710  1.00  0.00     0.062 A 
ATOM     25  C   UNL     1       9.857  47.162  54.094  1.00  0.00     0.124 A 
ATOM     26  Cl  UNL     1       5.956  47.037  54.831  1.00  0.00    -0.082 Cl
ATOM     27  F   UNL     1      10.967  47.425  54.797  1.00  0.00    -0.207 F 
ENDBRANCH  18  20
ENDBRANCH  11  18
ENDBRANCH   1   8
TORSDOF 6
ENDMDL
MODEL 7
REMARK VINA RESULT:    -8.946      3.309      5.826
REMARK INTER + INTRA:         -12.498
REMARK INTER:                 -11.724
REMARK INTRA:                  -0.775
REMARK UNBOUND:                -0.414
REMARK SMILES CC(C)CCNc1nc(Nc2ccc(F)cc2Cl)c2cnn(C)c2n1
REMARK SMILES IDX 6 1 5 3 4 4 2 5 1 6 3 7 7 8 8 9 25 10 9 11 24 12 19 13 22 14
REMARK SMILES IDX 20 15 21 16 23 17 10 18 11 20 12 21 17 22 13 23 16 24 14 25
REMARK SMILES IDX 18 26 15 27
REMARK H PARENT 6 2 10 19
ROOT
ATOM      1  N   UNL     1       6.854  46.122  51.212  1.00  0.00    -0.354 N 
ATOM      2  H   UNL     1       7.773  45.772  50.955  1.00  0.00     0.163 HD
ENDROOT
BRANCH   1   3
ATOM      3  C   UNL     1       6.839  46.963  52.396  1.00  0.00     0.116 C 
BRANCH   3   4
ATOM      4  C   UNL     1       8.198  47.626  52.647  1.00  0.00     0.024 C 
BRANCH   4   5
ATOM      5  C   UNL     1       9.298  46.687  53.187  1.00  0.00    -0.016 C 
ATOM      6  C   UNL     1      10.017  47.268  54.405  1.00  0.00     0.007 C 
ATOM      7  C   UNL     1      10.313  46.392  52.079  1.00  0.00     0.007 C 
ENDBRANCH   4   5
ENDBRANCH   3   4
ENDBRANCH   1   3
BRANCH   1   8
ATOM      8  C   UNL     1       6.055  44.985  51.266  1.00  0.00     0.226 A 
ATOM      9  N   UNL     1       5.161  44.987  52.270  1.00  0.00    -0.195 NA
ATOM     10  N   UNL     1       6.216  44.005  50.367  1.00  0.00    -0.193 NA
ATOM     11  C   UNL     1       4.307  43.944  52.441  1.00  0.00     0.147 A 
ATOM     12  C   UNL     1       5.375  42.979  50.560  1.00  0.00     0.165 A 
ATOM     13  C   UNL     1       4.416  42.875  51.547  1.00  0.00     0.082 A 
ATOM     14  N   UNL     1       5.289  41.826  49.828  1.00  0.00    -0.250 N 
ATOM     15  C   UNL     1       3.801  41.630  51.309  1.00  0.00     0.149 A 
ATOM     16  N   UNL     1       4.331  40.977  50.269  1.00  0.00    -0.179 NA
ATOM     17  C   UNL     1       6.092  41.463  48.688  1.00  0.00     0.176 C 
BRANCH  11  18
ATOM     18  N   UNL     1       3.377  43.937  53.500  1.00  0.00    -0.338 N 
ATOM     19  H   UNL     1       3.722  44.450  54.301  1.00  0.00     0.168 HD
BRANCH  18  20
ATOM     20  C   UNL     1       1.972  43.973  53.354  1.00  0.00     0.059 A 
ATOM     21  C   UNL     1       1.244  42.805  53.650  1.00  0.00     0.031 A 
ATOM     22  C   UNL     1       1.256  45.140  53.010  1.00  0.00     0.067 A 
ATOM     23  C   UNL     1      -0.151  42.801  53.597  1.00  0.00     0.041 A 
ATOM     24  C   UNL     1      -0.141  45.131  52.956  1.00  0.00     0.062 A 
ATOM     25  C   UNL     1      -0.828  43.964  53.253  1.00  0.00     0.124 A 
ATOM     26  Cl  UNL     1       2.054  46.603  52.538  1.00  0.00    -0.082 Cl
ATOM     27  F   UNL     1      -2.166  43.954  53.200  1.00  0.00    -0.207 F 
ENDBRANCH  18  20
ENDBRANCH  11  18
ENDBRANCH   1   8
TORSDOF 6
ENDMDL
MODEL 8
REMARK VINA RESULT:    -8.916      3.205      5.688
REMARK INTER + INTRA:         -12.458
REMARK INTER:                 -11.654
REMARK INTRA:                  -0.804
REMARK UNBOUND:                -0.414
REMARK SMILES CC(C)CCNc1nc(Nc2ccc(F)cc2Cl)c2cnn(C)c2n1
REMARK SMILES IDX 6 1 5 3 4 4 2 5 1 6 3 7 7 8 8 9 25 10 9 11 24 12 19 13 22 14
REMARK SMILES IDX 20 15 21 16 23 17 10 18 11 20 12 21 17 22 13 23 16 24 14 25
REMARK SMILES IDX 18 26 15 27
REMARK H PARENT 6 2 10 19
ROOT
ATOM      1  N   UNL     1       6.042  47.016  52.593  1.00  0.00    -0.354 N 
ATOM      2  H   UNL     1       5.953  47.649  51.803  1.00  0.00     0.163 HD
ENDROOT
BRANCH   1   3
ATOM      3  C   UNL     1       7.263  47.182  53.363  1.00  0.00     0.116 C 
BRANCH   3   4
ATOM      4  C   UNL     1       8.376  47.842  52.540  1.00  0.00     0.024 C 
BRANCH   4   5
ATOM      5  C   UNL     1       9.795  47.294  52.795  1.00  0.00    -0.016 C 
ATOM      6  C   UNL     1      10.126  46.091  51.911  1.00  0.00     0.007 C 
ATOM      7  C   UNL     1       9.941  46.908  54.269  1.00  0.00     0.007 C 
ENDBRANCH   4   5
ENDBRANCH   3   4
ENDBRANCH   1   3
BRANCH   1   8
ATOM      8  C   UNL     1       5.836  45.754  52.048  1.00  0.00     0.226 A 
ATOM      9  N   UNL     1       4.828  45.068  52.614  1.00  0.00    -0.195 NA
ATOM     10  N   UNL     1       6.612  45.315  51.048  1.00  0.00    -0.193 NA
ATOM     11  C   UNL     1       4.505  43.822  52.178  1.00  0.00     0.147 A 
ATOM     12  C   UNL     1       6.289  44.081  50.641  1.00  0.00     0.165 A 
ATOM     13  C   UNL     1       5.274  43.289  51.141  1.00  0.00     0.082 A 
ATOM     14  N   UNL     1       6.889  43.347  49.654  1.00  0.00    -0.250 N 
ATOM     15  C   UNL     1       5.342  42.108  50.375  1.00  0.00     0.149 A 
ATOM     16  N   UNL     1       6.328  42.128  49.472  1.00  0.00    -0.179 NA
ATOM     17  C   UNL     1       8.008  43.745  48.839  1.00  0.00     0.176 C 
BRANCH  11  18
ATOM     18  N   UNL     1       3.457  43.095  52.778  1.00  0.00    -0.338 N 
ATOM     19  H   UNL     1       3.706  42.782  53.707  1.00  0.00     0.168 HD
BRANCH  18  20
ATOM     20  C   UNL     1       2.079  43.357  52.608  1.00  0.00     0.059 A 
ATOM     21  C   UNL     1       1.469  42.949  51.407  1.00  0.00     0.031 A 
ATOM     22  C   UNL     1       1.267  43.928  53.611  1.00  0.00     0.067 A 
ATOM     23  C   UNL     1       0.097  43.113  51.211  1.00  0.00     0.041 A 
ATOM     24  C   UNL     1      -0.107  44.091  53.411  1.00  0.00     0.062 A 
ATOM     25  C   UNL     1      -0.676  43.680  52.216  1.00  0.00     0.124 A 
ATOM     26  Cl  UNL     1       1.928  44.547  55.088  1.00  0.00    -0.082 Cl
ATOM     27  F   UNL     1      -1.992  43.838  52.024  1.00  0.00    -0.207 F 
ENDBRANCH  18  20
ENDBRANCH  11  18
ENDBRANCH   1   8
TORSDOF 6
ENDMDL
MODEL 9
REMARK VINA RESULT:    -8.810      3.314      5.606
REMARK INTER + INTRA:         -12.314
REMARK INTER:                 -11.301
REMARK INTRA:                  -1.013
REMARK UNBOUND:                -0.414
REMARK SMILES CC(C)CCNc1nc(Nc2ccc(F)cc2Cl)c2cnn(C)c2n1
REMARK SMILES IDX 6 1 5 3 4 4 2 5 1 6 3 7 7 8 8 9 25 10 9 11 24 12 19 13 22 14
REMARK SMILES IDX 20 15 21 16 23 17 10 18 11 20 12 21 17 22 13 23 16 24 14 25
REMARK SMILES IDX 18 26 15 27
REMARK H PARENT 6 2 10 19
ROOT
ATOM      1  N   UNL     1       8.171  46.181  50.575  1.00  0.00    -0.354 N 
ATOM      2  H   UNL     1       8.260  46.276  49.567  1.00  0.00     0.163 HD
ENDROOT
BRANCH   1   3
ATOM      3  C   UNL     1       9.340  45.623  51.234  1.00  0.00     0.116 C 
BRANCH   3   4
ATOM      4  C   UNL     1      10.012  46.638  52.166  1.00  0.00     0.024 C 
BRANCH   4   5
ATOM      5  C   UNL     1       9.226  46.971  53.451  1.00  0.00    -0.016 C 
ATOM      6  C   UNL     1       8.391  48.245  53.312  1.00  0.00     0.007 C 
ATOM      7  C   UNL     1      10.196  47.115  54.627  1.00  0.00     0.007 C 
ENDBRANCH   4   5
ENDBRANCH   3   4
ENDBRANCH   1   3
BRANCH   1   8
ATOM      8  C   UNL     1       6.983  45.480  50.752  1.00  0.00     0.226 A 
ATOM      9  N   UNL     1       5.996  46.201  51.312  1.00  0.00    -0.195 NA
ATOM     10  N   UNL     1       6.896  44.196  50.380  1.00  0.00    -0.193 NA
ATOM     11  C   UNL     1       4.775  45.649  51.537  1.00  0.00     0.147 A 
ATOM     12  C   UNL     1       5.690  43.665  50.623  1.00  0.00     0.165 A 
ATOM     13  C   UNL     1       4.605  44.308  51.183  1.00  0.00     0.082 A 
ATOM     14  N   UNL     1       5.280  42.384  50.372  1.00  0.00    -0.250 N 
ATOM     15  C   UNL     1       3.592  43.330  51.209  1.00  0.00     0.149 A 
ATOM     16  N   UNL     1       3.995  42.149  50.726  1.00  0.00    -0.179 NA
ATOM     17  C   UNL     1       6.064  41.323  49.792  1.00  0.00     0.176 C 
BRANCH  11  18
ATOM     18  N   UNL     1       3.742  46.399  52.135  1.00  0.00    -0.338 N 
ATOM     19  H   UNL     1       3.117  46.789  51.443  1.00  0.00     0.168 HD
BRANCH  18  20
ATOM     20  C   UNL     1       3.121  46.095  53.367  1.00  0.00     0.059 A 
ATOM     21  C   UNL     1       1.774  45.687  53.349  1.00  0.00     0.031 A 
ATOM     22  C   UNL     1       3.803  46.100  54.604  1.00  0.00     0.067 A 
ATOM     23  C   UNL     1       1.128  45.303  54.526  1.00  0.00     0.041 A 
ATOM     24  C   UNL     1       3.152  45.716  55.780  1.00  0.00     0.062 A 
ATOM     25  C   UNL     1       1.824  45.320  55.727  1.00  0.00     0.124 A 
ATOM     26  Cl  UNL     1       5.431  46.671  54.754  1.00  0.00    -0.082 Cl
ATOM     27  F   UNL     1       1.200  44.953  56.854  1.00  0.00    -0.207 F 
ENDBRANCH  18  20
ENDBRANCH  11  18
ENDBRANCH   1   8
TORSDOF 6
ENDMDL
MODEL 10
REMARK VINA RESULT:    -8.770      3.258      5.642
REMARK INTER + INTRA:         -12.260
REMARK INTER:                 -11.434
REMARK INTRA:                  -0.826
REMARK UNBOUND:                -0.414
REMARK SMILES CC(C)CCNc1nc(Nc2ccc(F)cc2Cl)c2cnn(C)c2n1
REMARK SMILES IDX 6 1 5 3 4 4 2 5 1 6 3 7 7 8 8 9 25 10 9 11 24 12 19 13 22 14
REMARK SMILES IDX 20 15 21 16 23 17 10 18 11 20 12 21 17 22 13 23 16 24 14 25
REMARK SMILES IDX 18 26 15 27
REMARK H PARENT 6 2 10 19
ROOT
ATOM      1  N   UNL     1       6.931  46.468  51.065  1.00  0.00    -0.354 N 
ATOM      2  H   UNL     1       7.806  46.056  50.751  1.00  0.00     0.163 HD
ENDROOT
BRANCH   1   3
ATOM      3  C   UNL     1       7.030  47.221  52.304  1.00  0.00     0.116 C 
BRANCH   3   4
ATOM      4  C   UNL     1       8.452  47.737  52.549  1.00  0.00     0.024 C 
BRANCH   4   5
ATOM      5  C   UNL     1       9.435  46.703  53.137  1.00  0.00    -0.016 C 
ATOM      6  C   UNL     1      10.150  47.219  54.386  1.00  0.00     0.007 C 
ATOM      7  C   UNL     1      10.467  46.313  52.075  1.00  0.00     0.007 C 
ENDBRANCH   4   5
ENDBRANCH   3   4
ENDBRANCH   1   3
BRANCH   1   8
ATOM      8  C   UNL     1       6.034  45.405  51.071  1.00  0.00     0.226 A 
ATOM      9  N   UNL     1       4.796  45.732  51.481  1.00  0.00    -0.195 NA
ATOM     10  N   UNL     1       6.433  44.183  50.694  1.00  0.00    -0.193 NA
ATOM     11  C   UNL     1       3.811  44.797  51.530  1.00  0.00     0.147 A 
ATOM     12  C   UNL     1       5.453  43.272  50.763  1.00  0.00     0.165 A 
ATOM     13  C   UNL     1       4.150  43.493  51.159  1.00  0.00     0.082 A 
ATOM     14  N   UNL     1       5.534  41.940  50.460  1.00  0.00    -0.250 N 
ATOM     15  C   UNL     1       3.529  42.233  51.042  1.00  0.00     0.149 A 
ATOM     16  N   UNL     1       4.366  41.277  50.626  1.00  0.00    -0.179 NA
ATOM     17  C   UNL     1       6.700  41.226  50.003  1.00  0.00     0.176 C 
BRANCH  11  18
ATOM     18  N   UNL     1       2.516  45.134  51.970  1.00  0.00    -0.338 N 
ATOM     19  H   UNL     1       1.821  44.951  51.258  1.00  0.00     0.168 HD
BRANCH  18  20
ATOM     20  C   UNL     1       2.038  44.987  53.292  1.00  0.00     0.059 A 
ATOM     21  C   UNL     1       2.707  45.676  54.320  1.00  0.00     0.031 A 
ATOM     22  C   UNL     1       0.877  44.255  53.621  1.00  0.00     0.067 A 
ATOM     23  C   UNL     1       2.238  45.629  55.634  1.00  0.00     0.041 A 
ATOM     24  C   UNL     1       0.410  44.210  54.938  1.00  0.00     0.062 A 
ATOM     25  C   UNL     1       1.094  44.899  55.928  1.00  0.00     0.124 A 
ATOM     26  Cl  UNL     1       0.031  43.297  52.452  1.00  0.00    -0.082 Cl
ATOM     27  F   UNL     1       0.648  44.855  57.191  1.00  0.00    -0.207 F 
ENDBRANCH  18  20
ENDBRANCH  11  18
ENDBRANCH   1   8
TORSDOF 6
ENDMDL
MODEL 11
REMARK VINA RESULT:    -8.724      2.473      6.104
REMARK INTER + INTRA:         -12.198
REMARK INTER:                 -11.377
REMARK INTRA:                  -0.821
REMARK UNBOUND:                -0.414
REMARK SMILES CC(C)CCNc1nc(Nc2ccc(F)cc2Cl)c2cnn(C)c2n1
REMARK SMILES IDX 6 1 5 3 4 4 2 5 1 6 3 7 7 8 8 9 25 10 9 11 24 12 19 13 22 14
REMARK SMILES IDX 20 15 21 16 23 17 10 18 11 20 12 21 17 22 13 23 16 24 14 25
REMARK SMILES IDX 18 26 15 27
REMARK H PARENT 6 2 10 19
ROOT
ATOM      1  N   UNL     1       2.878  45.409  52.880  1.00  0.00    -0.354 N 
ATOM      2  H   UNL     1       2.846  46.384  52.595  1.00  0.00     0.163 HD
ENDROOT
BRANCH   1   3
ATOM      3  C   UNL     1       3.052  45.203  54.308  1.00  0.00     0.116 C 
BRANCH   3   4
ATOM      4  C   UNL     1       1.816  44.561  54.949  1.00  0.00     0.024 C 
BRANCH   4   5
ATOM      5  C   UNL     1       0.702  44.150  53.964  1.00  0.00    -0.016 C 
ATOM      6  C   UNL     1      -0.698  44.420  54.518  1.00  0.00     0.007 C 
ATOM      7  C   UNL     1       0.843  42.665  53.616  1.00  0.00     0.007 C 
ENDBRANCH   4   5
ENDBRANCH   3   4
ENDBRANCH   1   3
BRANCH   1   8
ATOM      8  C   UNL     1       3.851  44.843  52.063  1.00  0.00     0.226 A 
ATOM      9  N   UNL     1       4.896  45.651  51.811  1.00  0.00    -0.195 NA
ATOM     10  N   UNL     1       3.698  43.597  51.596  1.00  0.00    -0.193 NA
ATOM     11  C   UNL     1       5.928  45.229  51.034  1.00  0.00     0.147 A 
ATOM     12  C   UNL     1       4.718  43.204  50.821  1.00  0.00     0.165 A 
ATOM     13  C   UNL     1       5.841  43.940  50.501  1.00  0.00     0.082 A 
ATOM     14  N   UNL     1       4.863  42.000  50.185  1.00  0.00    -0.250 N 
ATOM     15  C   UNL     1       6.602  43.082  49.682  1.00  0.00     0.149 A 
ATOM     16  N   UNL     1       6.011  41.900  49.475  1.00  0.00    -0.179 NA
ATOM     17  C   UNL     1       3.942  40.892  50.210  1.00  0.00     0.176 C 
BRANCH  11  18
ATOM     18  N   UNL     1       7.019  46.077  50.758  1.00  0.00    -0.338 N 
ATOM     19  H   UNL     1       6.770  46.799  50.096  1.00  0.00     0.168 HD
BRANCH  18  20
ATOM     20  C   UNL     1       8.008  46.465  51.689  1.00  0.00     0.059 A 
ATOM     21  C   UNL     1       7.646  47.369  52.704  1.00  0.00     0.031 A 
ATOM     22  C   UNL     1       9.314  45.930  51.703  1.00  0.00     0.067 A 
ATOM     23  C   UNL     1       8.559  47.733  53.696  1.00  0.00     0.041 A 
ATOM     24  C   UNL     1      10.226  46.297  52.697  1.00  0.00     0.062 A 
ATOM     25  C   UNL     1       9.838  47.191  53.683  1.00  0.00     0.124 A 
ATOM     26  Cl  UNL     1       9.893  44.882  50.451  1.00  0.00    -0.082 Cl
ATOM     27  F   UNL     1      10.711  47.544  54.635  1.00  0.00    -0.207 F 
ENDBRANCH  18  20
ENDBRANCH  11  18
ENDBRANCH   1   8
TORSDOF 6
ENDMDL
MODEL 12
REMARK VINA RESULT:    -8.711      3.208      5.535
REMARK INTER + INTRA:         -12.181
REMARK INTER:                 -11.151
REMARK INTRA:                  -1.030
REMARK UNBOUND:                -0.414
REMARK SMILES CC(C)CCNc1nc(Nc2ccc(F)cc2Cl)c2cnn(C)c2n1
REMARK SMILES IDX 6 1 5 3 4 4 2 5 1 6 3 7 7 8 8 9 25 10 9 11 24 12 19 13 22 14
REMARK SMILES IDX 20 15 21 16 23 17 10 18 11 20 12 21 17 22 13 23 16 24 14 25
REMARK SMILES IDX 18 26 15 27
REMARK H PARENT 6 2 10 19
ROOT
ATOM      1  N   UNL     1       8.107  46.173  50.592  1.00  0.00    -0.354 N 
ATOM      2  H   UNL     1       8.841  45.471  50.546  1.00  0.00     0.163 HD
ENDROOT
BRANCH   1   3
ATOM      3  C   UNL     1       8.354  47.240  51.547  1.00  0.00     0.116 C 
BRANCH   3   4
ATOM      4  C   UNL     1       9.593  46.966  52.407  1.00  0.00     0.024 C 
BRANCH   4   5
ATOM      5  C   UNL     1       9.305  46.614  53.881  1.00  0.00    -0.016 C 
ATOM      6  C   UNL     1       7.854  46.890  54.276  1.00  0.00     0.007 C 
ATOM      7  C   UNL     1      10.248  47.404  54.793  1.00  0.00     0.007 C 
ENDBRANCH   4   5
ENDBRANCH   3   4
ENDBRANCH   1   3
BRANCH   1   8
ATOM      8  C   UNL     1       6.942  45.440  50.790  1.00  0.00     0.226 A 
ATOM      9  N   UNL     1       5.946  46.134  51.368  1.00  0.00    -0.195 NA
ATOM     10  N   UNL     1       6.882  44.154  50.419  1.00  0.00    -0.193 NA
ATOM     11  C   UNL     1       4.744  45.549  51.616  1.00  0.00     0.147 A 
ATOM     12  C   UNL     1       5.696  43.591  50.683  1.00  0.00     0.165 A 
ATOM     13  C   UNL     1       4.604  44.204  51.264  1.00  0.00     0.082 A 
ATOM     14  N   UNL     1       5.316  42.299  50.439  1.00  0.00    -0.250 N 
ATOM     15  C   UNL     1       3.618  43.198  51.307  1.00  0.00     0.149 A 
ATOM     16  N   UNL     1       4.044  42.029  50.816  1.00  0.00    -0.179 NA
ATOM     17  C   UNL     1       6.118  41.259  49.845  1.00  0.00     0.176 C 
BRANCH  11  18
ATOM     18  N   UNL     1       3.703  46.270  52.233  1.00  0.00    -0.338 N 
ATOM     19  H   UNL     1       3.114  46.730  51.551  1.00  0.00     0.168 HD
BRANCH  18  20
ATOM     20  C   UNL     1       3.025  45.881  53.410  1.00  0.00     0.059 A 
ATOM     21  C   UNL     1       3.725  45.939  54.629  1.00  0.00     0.031 A 
ATOM     22  C   UNL     1       1.661  45.519  53.437  1.00  0.00     0.067 A 
ATOM     23  C   UNL     1       3.087  45.638  55.834  1.00  0.00     0.041 A 
ATOM     24  C   UNL     1       1.026  45.218  54.645  1.00  0.00     0.062 A 
ATOM     25  C   UNL     1       1.745  45.283  55.829  1.00  0.00     0.124 A 
ATOM     26  Cl  UNL     1       0.731  45.327  51.988  1.00  0.00    -0.082 Cl
ATOM     27  F   UNL     1       1.137  44.993  56.987  1.00  0.00    -0.207 F 
ENDBRANCH  18  20
ENDBRANCH  11  18
ENDBRANCH   1   8
TORSDOF 6
ENDMDL
MODEL 13
REMARK VINA RESULT:    -8.698      2.988      3.977
REMARK INTER + INTRA:         -12.163
REMARK INTER:                 -11.408
REMARK INTRA:                  -0.755
REMARK UNBOUND:                -0.414
REMARK SMILES CC(C)CCNc1nc(Nc2ccc(F)cc2Cl)c2cnn(C)c2n1
REMARK SMILES IDX 6 1 5 3 4 4 2 5 1 6 3 7 7 8 8 9 25 10 9 11 24 12 19 13 22 14
REMARK SMILES IDX 20 15 21 16 23 17 10 18 11 20 12 21 17 22 13 23 16 24 14 25
REMARK SMILES IDX 18 26 15 27
REMARK H PARENT 6 2 10 19
ROOT
ATOM      1  N   UNL     1       7.245  45.694  50.808  1.00  0.00    -0.354 N 
ATOM      2  H   UNL     1       8.117  45.176  50.875  1.00  0.00     0.163 HD
ENDROOT
BRANCH   1   3
ATOM      3  C   UNL     1       7.156  46.843  51.692  1.00  0.00     0.116 C 
BRANCH   3   4
ATOM      4  C   UNL     1       8.537  47.428  52.013  1.00  0.00     0.024 C 
BRANCH   4   5
ATOM      5  C   UNL     1       9.475  46.499  52.811  1.00  0.00    -0.016 C 
ATOM      6  C   UNL     1      10.023  47.164  54.074  1.00  0.00     0.007 C 
ATOM      7  C   UNL     1      10.635  46.049  51.918  1.00  0.00     0.007 C 
ENDBRANCH   4   5
ENDBRANCH   3   4
ENDBRANCH   1   3
BRANCH   1   8
ATOM      8  C   UNL     1       6.258  44.727  50.969  1.00  0.00     0.226 A 
ATOM      9  N   UNL     1       6.418  43.642  50.191  1.00  0.00    -0.195 NA
ATOM     10  N   UNL     1       5.257  44.924  51.837  1.00  0.00    -0.193 NA
ATOM     11  C   UNL     1       5.534  42.611  50.247  1.00  0.00     0.147 A 
ATOM     12  C   UNL     1       4.388  43.904  51.868  1.00  0.00     0.165 A 
ATOM     13  C   UNL     1       4.455  42.743  51.125  1.00  0.00     0.082 A 
ATOM     14  N   UNL     1       3.259  43.797  52.634  1.00  0.00    -0.250 N 
ATOM     15  C   UNL     1       3.328  42.001  51.531  1.00  0.00     0.149 A 
ATOM     16  N   UNL     1       2.586  42.638  52.444  1.00  0.00    -0.179 NA
ATOM     17  C   UNL     1       2.757  44.766  53.574  1.00  0.00     0.176 C 
BRANCH  11  18
ATOM     18  N   UNL     1       5.692  41.478  49.425  1.00  0.00    -0.338 N 
ATOM     19  H   UNL     1       5.720  40.626  49.968  1.00  0.00     0.168 HD
BRANCH  18  20
ATOM     20  C   UNL     1       5.138  41.321  48.134  1.00  0.00     0.059 A 
ATOM     21  C   UNL     1       5.759  41.987  47.060  1.00  0.00     0.031 A 
ATOM     22  C   UNL     1       4.050  40.467  47.854  1.00  0.00     0.067 A 
ATOM     23  C   UNL     1       5.303  41.812  45.753  1.00  0.00     0.041 A 
ATOM     24  C   UNL     1       3.596  40.295  46.544  1.00  0.00     0.062 A 
ATOM     25  C   UNL     1       4.228  40.966  45.509  1.00  0.00     0.124 A 
ATOM     26  Cl  UNL     1       3.157  39.673  49.109  1.00  0.00    -0.082 Cl
ATOM     27  F   UNL     1       3.793  40.803  44.252  1.00  0.00    -0.207 F 
ENDBRANCH  18  20
ENDBRANCH  11  18
ENDBRANCH   1   8
TORSDOF 6
ENDMDL
MODEL 14
REMARK VINA RESULT:    -8.669      2.555      4.832
REMARK INTER + INTRA:         -12.123
REMARK INTER:                 -11.177
REMARK INTRA:                  -0.946
REMARK UNBOUND:                -0.414
REMARK SMILES CC(C)CCNc1nc(Nc2ccc(F)cc2Cl)c2cnn(C)c2n1
REMARK SMILES IDX 6 1 5 3 4 4 2 5 1 6 3 7 7 8 8 9 25 10 9 11 24 12 19 13 22 14
REMARK SMILES IDX 20 15 21 16 23 17 10 18 11 20 12 21 17 22 13 23 16 24 14 25
REMARK SMILES IDX 18 26 15 27
REMARK H PARENT 6 2 10 19
ROOT
ATOM      1  N   UNL     1       4.413  41.507  51.595  1.00  0.00    -0.354 N 
ATOM      2  H   UNL     1       5.263  41.454  52.150  1.00  0.00     0.163 HD
ENDROOT
BRANCH   1   3
ATOM      3  C   UNL     1       4.608  41.291  50.171  1.00  0.00     0.116 C 
BRANCH   3   4
ATOM      4  C   UNL     1       6.069  41.497  49.755  1.00  0.00     0.024 C 
BRANCH   4   5
ATOM      5  C   UNL     1       6.316  42.662  48.775  1.00  0.00    -0.016 C 
ATOM      6  C   UNL     1       6.161  42.241  47.313  1.00  0.00     0.007 C 
ATOM      7  C   UNL     1       7.717  43.238  49.001  1.00  0.00     0.007 C 
ENDBRANCH   4   5
ENDBRANCH   3   4
ENDBRANCH   1   3
BRANCH   1   8
ATOM      8  C   UNL     1       3.844  42.725  51.951  1.00  0.00     0.226 A 
ATOM      9  N   UNL     1       4.617  43.792  51.683  1.00  0.00    -0.195 NA
ATOM     10  N   UNL     1       2.629  42.764  52.513  1.00  0.00    -0.193 NA
ATOM     11  C   UNL     1       4.187  45.050  51.969  1.00  0.00     0.147 A 
ATOM     12  C   UNL     1       2.229  44.009  52.801  1.00  0.00     0.165 A 
ATOM     13  C   UNL     1       2.930  45.175  52.566  1.00  0.00     0.082 A 
ATOM     14  N   UNL     1       1.051  44.389  53.385  1.00  0.00    -0.250 N 
ATOM     15  C   UNL     1       2.078  46.197  53.031  1.00  0.00     0.149 A 
ATOM     16  N   UNL     1       0.934  45.729  53.542  1.00  0.00    -0.179 NA
ATOM     17  C   UNL     1      -0.016  43.526  53.823  1.00  0.00     0.176 C 
BRANCH  11  18
ATOM     18  N   UNL     1       4.999  46.170  51.702  1.00  0.00    -0.338 N 
ATOM     19  H   UNL     1       4.459  47.024  51.677  1.00  0.00     0.168 HD
BRANCH  18  20
ATOM     20  C   UNL     1       6.328  46.342  52.151  1.00  0.00     0.059 A 
ATOM     21  C   UNL     1       7.373  46.120  51.235  1.00  0.00     0.031 A 
ATOM     22  C   UNL     1       6.657  46.805  53.444  1.00  0.00     0.067 A 
ATOM     23  C   UNL     1       8.702  46.346  51.599  1.00  0.00     0.041 A 
ATOM     24  C   UNL     1       7.989  47.029  53.805  1.00  0.00     0.062 A 
ATOM     25  C   UNL     1       8.994  46.800  52.879  1.00  0.00     0.124 A 
ATOM     26  Cl  UNL     1       5.459  47.022  54.676  1.00  0.00    -0.082 Cl
ATOM     27  F   UNL     1      10.271  47.013  53.224  1.00  0.00    -0.207 F 
ENDBRANCH  18  20
ENDBRANCH  11  18
ENDBRANCH   1   8
TORSDOF 6
ENDMDL
MODEL 15
REMARK VINA RESULT:    -8.614      2.257      4.850
REMARK INTER + INTRA:         -12.050
REMARK INTER:                 -11.237
REMARK INTRA:                  -0.813
REMARK UNBOUND:                -0.414
REMARK SMILES CC(C)CCNc1nc(Nc2ccc(F)cc2Cl)c2cnn(C)c2n1
REMARK SMILES IDX 6 1 5 3 4 4 2 5 1 6 3 7 7 8 8 9 25 10 9 11 24 12 19 13 22 14
REMARK SMILES IDX 20 15 21 16 23 17 10 18 11 20 12 21 17 22 13 23 16 24 14 25
REMARK SMILES IDX 18 26 15 27
REMARK H PARENT 6 2 10 19
ROOT
ATOM      1  N   UNL     1       4.065  41.573  51.473  1.00  0.00    -0.354 N 
ATOM      2  H   UNL     1       5.075  41.457  51.508  1.00  0.00     0.163 HD
ENDROOT
BRANCH   1   3
ATOM      3  C   UNL     1       3.462  41.213  50.201  1.00  0.00     0.116 C 
BRANCH   3   4
ATOM      4  C   UNL     1       4.514  40.831  49.154  1.00  0.00     0.024 C 
BRANCH   4   5
ATOM      5  C   UNL     1       5.692  41.818  49.016  1.00  0.00    -0.016 C 
ATOM      6  C   UNL     1       6.084  42.061  47.557  1.00  0.00     0.007 C 
ATOM      7  C   UNL     1       6.900  41.290  49.794  1.00  0.00     0.007 C 
ENDBRANCH   4   5
ENDBRANCH   3   4
ENDBRANCH   1   3
BRANCH   1   8
ATOM      8  C   UNL     1       3.855  42.881  51.895  1.00  0.00     0.226 A 
ATOM      9  N   UNL     1       4.691  43.779  51.345  1.00  0.00    -0.195 NA
ATOM     10  N   UNL     1       2.888  43.157  52.780  1.00  0.00    -0.193 NA
ATOM     11  C   UNL     1       4.597  45.098  51.658  1.00  0.00     0.147 A 
ATOM     12  C   UNL     1       2.820  44.459  53.087  1.00  0.00     0.165 A 
ATOM     13  C   UNL     1       3.616  45.467  52.582  1.00  0.00     0.082 A 
ATOM     14  N   UNL     1       1.955  45.063  53.960  1.00  0.00    -0.250 N 
ATOM     15  C   UNL     1       3.138  46.638  53.204  1.00  0.00     0.149 A 
ATOM     16  N   UNL     1       2.131  46.403  54.053  1.00  0.00    -0.179 NA
ATOM     17  C   UNL     1       0.929  44.423  54.744  1.00  0.00     0.176 C 
BRANCH  11  18
ATOM     18  N   UNL     1       5.480  46.040  51.093  1.00  0.00    -0.338 N 
ATOM     19  H   UNL     1       4.983  46.834  50.712  1.00  0.00     0.168 HD
BRANCH  18  20
ATOM     20  C   UNL     1       6.769  46.348  51.583  1.00  0.00     0.059 A 
ATOM     21  C   UNL     1       6.870  47.221  52.682  1.00  0.00     0.031 A 
ATOM     22  C   UNL     1       7.951  45.762  51.083  1.00  0.00     0.067 A 
ATOM     23  C   UNL     1       8.110  47.505  53.257  1.00  0.00     0.041 A 
ATOM     24  C   UNL     1       9.191  46.049  51.660  1.00  0.00     0.062 A 
ATOM     25  C   UNL     1       9.256  46.914  52.741  1.00  0.00     0.124 A 
ATOM     26  Cl  UNL     1       7.952  44.747  49.678  1.00  0.00    -0.082 Cl
ATOM     27  F   UNL     1      10.445  47.191  53.295  1.00  0.00    -0.207 F 
ENDBRANCH  18  20
ENDBRANCH  11  18
ENDBRANCH   1   8
TORSDOF 6
ENDMDL
MODEL 16
REMARK VINA RESULT:    -8.514      3.013      6.133
REMARK INTER + INTRA:         -11.914
REMARK INTER:                 -10.653
REMARK INTRA:                  -1.261
REMARK UNBOUND:                -0.414
REMARK SMILES CC(C)CCNc1nc(Nc2ccc(F)cc2Cl)c2cnn(C)c2n1
REMARK SMILES IDX 6 1 5 3 4 4 2 5 1 6 3 7 7 8 8 9 25 10 9 11 24 12 19 13 22 14
REMARK SMILES IDX 20 15 21 16 23 17 10 18 11 20 12 21 17 22 13 23 16 24 14 25
REMARK SMILES IDX 18 26 15 27
REMARK H PARENT 6 2 10 19
ROOT
ATOM      1  N   UNL     1       7.772  45.137  49.662  1.00  0.00    -0.354 N 
ATOM      2  H   UNL     1       7.112  45.520  48.991  1.00  0.00     0.163 HD
ENDROOT
BRANCH   1   3
ATOM      3  C   UNL     1       7.878  43.688  49.644  1.00  0.00     0.116 C 
BRANCH   3   4
ATOM      4  C   UNL     1       6.707  43.037  48.899  1.00  0.00     0.024 C 
BRANCH   4   5
ATOM      5  C   UNL     1       5.953  41.945  49.687  1.00  0.00    -0.016 C 
ATOM      6  C   UNL     1       5.047  41.098  48.792  1.00  0.00     0.007 C 
ATOM      7  C   UNL     1       5.123  42.591  50.799  1.00  0.00     0.007 C 
ENDBRANCH   4   5
ENDBRANCH   3   4
ENDBRANCH   1   3
BRANCH   1   8
ATOM      8  C   UNL     1       7.395  45.702  50.876  1.00  0.00     0.226 A 
ATOM      9  N   UNL     1       6.070  45.883  51.012  1.00  0.00    -0.195 NA
ATOM     10  N   UNL     1       8.322  46.021  51.789  1.00  0.00    -0.193 NA
ATOM     11  C   UNL     1       5.554  46.417  52.150  1.00  0.00     0.147 A 
ATOM     12  C   UNL     1       7.798  46.560  52.897  1.00  0.00     0.165 A 
ATOM     13  C   UNL     1       6.459  46.784  53.149  1.00  0.00     0.082 A 
ATOM     14  N   UNL     1       8.469  46.999  54.005  1.00  0.00    -0.250 N 
ATOM     15  C   UNL     1       6.435  47.347  54.441  1.00  0.00     0.149 A 
ATOM     16  N   UNL     1       7.655  47.492  54.969  1.00  0.00    -0.179 NA
ATOM     17  C   UNL     1       9.894  46.981  54.218  1.00  0.00     0.176 C 
BRANCH  11  18
ATOM     18  N   UNL     1       4.167  46.619  52.290  1.00  0.00    -0.338 N 
ATOM     19  H   UNL     1       3.863  47.456  51.811  1.00  0.00     0.168 HD
BRANCH  18  20
ATOM     20  C   UNL     1       3.193  45.597  52.339  1.00  0.00     0.059 A 
ATOM     21  C   UNL     1       2.496  45.287  51.157  1.00  0.00     0.031 A 
ATOM     22  C   UNL     1       2.944  44.815  53.488  1.00  0.00     0.067 A 
ATOM     23  C   UNL     1       1.575  44.238  51.125  1.00  0.00     0.041 A 
ATOM     24  C   UNL     1       2.021  43.765  53.452  1.00  0.00     0.062 A 
ATOM     25  C   UNL     1       1.350  43.488  52.271  1.00  0.00     0.124 A 
ATOM     26  Cl  UNL     1       3.678  45.167  55.017  1.00  0.00    -0.082 Cl
ATOM     27  F   UNL     1       0.464  42.483  52.236  1.00  0.00    -0.207 F 
ENDBRANCH  18  20
ENDBRANCH  11  18
ENDBRANCH   1   8
TORSDOF 6
ENDMDL
MODEL 17
REMARK VINA RESULT:    -8.424      2.609      5.048
REMARK INTER + INTRA:         -11.793
REMARK INTER:                 -10.556
REMARK INTRA:                  -1.237
REMARK UNBOUND:                -0.414
REMARK SMILES CC(C)CCNc1nc(Nc2ccc(F)cc2Cl)c2cnn(C)c2n1
REMARK SMILES IDX 6 1 5 3 4 4 2 5 1 6 3 7 7 8 8 9 25 10 9 11 24 12 19 13 22 14
REMARK SMILES IDX 20 15 21 16 23 17 10 18 11 20 12 21 17 22 13 23 16 24 14 25
REMARK SMILES IDX 18 26 15 27
REMARK H PARENT 6 2 10 19
ROOT
ATOM      1  N   UNL     1       3.918  41.275  51.041  1.00  0.00    -0.354 N 
ATOM      2  H   UNL     1       4.513  41.027  51.827  1.00  0.00     0.163 HD
ENDROOT
BRANCH   1   3
ATOM      3  C   UNL     1       4.633  41.541  49.804  1.00  0.00     0.116 C 
BRANCH   3   4
ATOM      4  C   UNL     1       6.089  41.946  50.059  1.00  0.00     0.024 C 
BRANCH   4   5
ATOM      5  C   UNL     1       6.499  43.319  49.485  1.00  0.00    -0.016 C 
ATOM      6  C   UNL     1       8.002  43.417  49.221  1.00  0.00     0.007 C 
ATOM      7  C   UNL     1       6.070  44.429  50.448  1.00  0.00     0.007 C 
ENDBRANCH   4   5
ENDBRANCH   3   4
ENDBRANCH   1   3
BRANCH   1   8
ATOM      8  C   UNL     1       3.131  42.316  51.522  1.00  0.00     0.226 A 
ATOM      9  N   UNL     1       3.726  43.067  52.464  1.00  0.00    -0.195 NA
ATOM     10  N   UNL     1       1.891  42.498  51.049  1.00  0.00    -0.193 NA
ATOM     11  C   UNL     1       3.080  44.126  53.020  1.00  0.00     0.147 A 
ATOM     12  C   UNL     1       1.264  43.536  51.618  1.00  0.00     0.165 A 
ATOM     13  C   UNL     1       1.776  44.378  52.584  1.00  0.00     0.082 A 
ATOM     14  N   UNL     1      -0.006  43.979  51.366  1.00  0.00    -0.250 N 
ATOM     15  C   UNL     1       0.740  45.300  52.832  1.00  0.00     0.149 A 
ATOM     16  N   UNL     1      -0.356  45.061  52.102  1.00  0.00    -0.179 NA
ATOM     17  C   UNL     1      -0.949  43.418  50.433  1.00  0.00     0.176 C 
BRANCH  11  18
ATOM     18  N   UNL     1       3.696  44.908  54.016  1.00  0.00    -0.338 N 
ATOM     19  H   UNL     1       3.633  44.469  54.925  1.00  0.00     0.168 HD
BRANCH  18  20
ATOM     20  C   UNL     1       4.855  45.696  53.836  1.00  0.00     0.059 A 
ATOM     21  C   UNL     1       6.067  45.229  54.378  1.00  0.00     0.031 A 
ATOM     22  C   UNL     1       4.877  46.883  53.071  1.00  0.00     0.067 A 
ATOM     23  C   UNL     1       7.258  45.926  54.170  1.00  0.00     0.041 A 
ATOM     24  C   UNL     1       6.072  47.578  52.866  1.00  0.00     0.062 A 
ATOM     25  C   UNL     1       7.248  47.091  53.414  1.00  0.00     0.124 A 
ATOM     26  Cl  UNL     1       3.430  47.595  52.438  1.00  0.00    -0.082 Cl
ATOM     27  F   UNL     1       8.393  47.758  53.219  1.00  0.00    -0.207 F 
ENDBRANCH  18  20
ENDBRANCH  11  18
ENDBRANCH   1   8
TORSDOF 6
ENDMDL
MODEL 18
REMARK VINA RESULT:    -8.420      3.175      6.926
REMARK INTER + INTRA:         -11.788
REMARK INTER:                 -10.591
REMARK INTRA:                  -1.197
REMARK UNBOUND:                -0.414
REMARK SMILES CC(C)CCNc1nc(Nc2ccc(F)cc2Cl)c2cnn(C)c2n1
REMARK SMILES IDX 6 1 5 3 4 4 2 5 1 6 3 7 7 8 8 9 25 10 9 11 24 12 19 13 22 14
REMARK SMILES IDX 20 15 21 16 23 17 10 18 11 20 12 21 17 22 13 23 16 24 14 25
REMARK SMILES IDX 18 26 15 27
REMARK H PARENT 6 2 10 19
ROOT
ATOM      1  N   UNL     1       6.305  43.766  49.399  1.00  0.00    -0.354 N 
ATOM      2  H   UNL     1       5.289  43.772  49.360  1.00  0.00     0.163 HD
ENDROOT
BRANCH   1   3
ATOM      3  C   UNL     1       6.891  42.458  49.638  1.00  0.00     0.116 C 
BRANCH   3   4
ATOM      4  C   UNL     1       5.938  41.535  50.407  1.00  0.00     0.024 C 
BRANCH   4   5
ATOM      5  C   UNL     1       4.449  41.932  50.350  1.00  0.00    -0.016 C 
ATOM      6  C   UNL     1       3.883  42.284  51.727  1.00  0.00     0.007 C 
ATOM      7  C   UNL     1       3.634  40.792  49.733  1.00  0.00     0.007 C 
ENDBRANCH   4   5
ENDBRANCH   3   4
ENDBRANCH   1   3
BRANCH   1   8
ATOM      8  C   UNL     1       6.620  44.751  50.329  1.00  0.00     0.226 A 
ATOM      9  N   UNL     1       5.551  45.324  50.907  1.00  0.00    -0.195 NA
ATOM     10  N   UNL     1       7.900  45.059  50.577  1.00  0.00    -0.193 NA
ATOM     11  C   UNL     1       5.706  46.297  51.843  1.00  0.00     0.147 A 
ATOM     12  C   UNL     1       8.033  46.030  51.491  1.00  0.00     0.165 A 
ATOM     13  C   UNL     1       7.013  46.682  52.154  1.00  0.00     0.082 A 
ATOM     14  N   UNL     1       9.196  46.578  51.957  1.00  0.00    -0.250 N 
ATOM     15  C   UNL     1       7.672  47.591  53.005  1.00  0.00     0.149 A 
ATOM     16  N   UNL     1       9.004  47.544  52.887  1.00  0.00    -0.179 NA
ATOM     17  C   UNL     1      10.537  46.230  51.560  1.00  0.00     0.176 C 
BRANCH  11  18
ATOM     18  N   UNL     1       4.587  46.909  52.443  1.00  0.00    -0.338 N 
ATOM     19  H   UNL     1       4.129  47.549  51.808  1.00  0.00     0.168 HD
BRANCH  18  20
ATOM     20  C   UNL     1       3.715  46.291  53.367  1.00  0.00     0.059 A 
ATOM     21  C   UNL     1       4.032  46.371  54.735  1.00  0.00     0.031 A 
ATOM     22  C   UNL     1       2.502  45.672  52.995  1.00  0.00     0.067 A 
ATOM     23  C   UNL     1       3.172  45.843  55.700  1.00  0.00     0.041 A 
ATOM     24  C   UNL     1       1.643  45.144  53.964  1.00  0.00     0.062 A 
ATOM     25  C   UNL     1       1.986  45.239  55.304  1.00  0.00     0.124 A 
ATOM     26  Cl  UNL     1       2.058  45.438  51.337  1.00  0.00    -0.082 Cl
ATOM     27  F   UNL     1       1.164  44.732  56.233  1.00  0.00    -0.207 F 
ENDBRANCH  18  20
ENDBRANCH  11  18
ENDBRANCH   1   8
TORSDOF 6
ENDMDL
MODEL 19
REMARK VINA RESULT:    -8.291      2.429      3.108
REMARK INTER + INTRA:         -11.613
REMARK INTER:                 -10.759
REMARK INTRA:                  -0.853
REMARK UNBOUND:                -0.414
REMARK SMILES CC(C)CCNc1nc(Nc2ccc(F)cc2Cl)c2cnn(C)c2n1
REMARK SMILES IDX 6 1 5 3 4 4 2 5 1 6 3 7 7 8 8 9 25 10 9 11 24 12 19 13 22 14
REMARK SMILES IDX 20 15 21 16 23 17 10 18 11 20 12 21 17 22 13 23 16 24 14 25
REMARK SMILES IDX 18 26 15 27
REMARK H PARENT 6 2 10 19
ROOT
ATOM      1  N   UNL     1       6.238  46.651  51.769  1.00  0.00    -0.354 N 
ATOM      2  H   UNL     1       6.919  46.313  51.094  1.00  0.00     0.163 HD
ENDROOT
BRANCH   1   3
ATOM      3  C   UNL     1       6.813  47.146  53.008  1.00  0.00     0.116 C 
BRANCH   3   4
ATOM      4  C   UNL     1       8.060  46.355  53.419  1.00  0.00     0.024 C 
BRANCH   4   5
ATOM      5  C   UNL     1       9.403  47.081  53.199  1.00  0.00    -0.016 C 
ATOM      6  C   UNL     1      10.275  46.393  52.148  1.00  0.00     0.007 C 
ATOM      7  C   UNL     1      10.164  47.171  54.524  1.00  0.00     0.007 C 
ENDBRANCH   4   5
ENDBRANCH   3   4
ENDBRANCH   1   3
BRANCH   1   8
ATOM      8  C   UNL     1       5.332  45.604  51.897  1.00  0.00     0.226 A 
ATOM      9  N   UNL     1       5.759  44.440  51.378  1.00  0.00    -0.195 NA
ATOM     10  N   UNL     1       4.149  45.805  52.494  1.00  0.00    -0.193 NA
ATOM     11  C   UNL     1       4.982  43.326  51.439  1.00  0.00     0.147 A 
ATOM     12  C   UNL     1       3.391  44.701  52.531  1.00  0.00     0.165 A 
ATOM     13  C   UNL     1       3.727  43.455  52.039  1.00  0.00     0.082 A 
ATOM     14  N   UNL     1       2.135  44.573  53.057  1.00  0.00    -0.250 N 
ATOM     15  C   UNL     1       2.609  42.649  52.335  1.00  0.00     0.149 A 
ATOM     16  N   UNL     1       1.629  43.321  52.947  1.00  0.00    -0.179 NA
ATOM     17  C   UNL     1       1.350  45.605  53.685  1.00  0.00     0.176 C 
BRANCH  11  18
ATOM     18  N   UNL     1       5.420  42.107  50.885  1.00  0.00    -0.338 N 
ATOM     19  H   UNL     1       5.429  41.367  51.574  1.00  0.00     0.168 HD
BRANCH  18  20
ATOM     20  C   UNL     1       5.156  41.666  49.569  1.00  0.00     0.059 A 
ATOM     21  C   UNL     1       4.049  40.822  49.361  1.00  0.00     0.031 A 
ATOM     22  C   UNL     1       5.893  42.094  48.443  1.00  0.00     0.067 A 
ATOM     23  C   UNL     1       3.694  40.413  48.074  1.00  0.00     0.041 A 
ATOM     24  C   UNL     1       5.535  41.681  47.156  1.00  0.00     0.062 A 
ATOM     25  C   UNL     1       4.439  40.849  46.986  1.00  0.00     0.124 A 
ATOM     26  Cl  UNL     1       7.325  43.056  48.593  1.00  0.00    -0.082 Cl
ATOM     27  F   UNL     1       4.097  40.452  45.754  1.00  0.00    -0.207 F 
ENDBRANCH  18  20
ENDBRANCH  11  18
ENDBRANCH   1   8
TORSDOF 6
ENDMDL
MODEL 20
REMARK VINA RESULT:    -8.084      2.362      4.802
REMARK INTER + INTRA:         -11.334
REMARK INTER:                 -10.363
REMARK INTRA:                  -0.971
REMARK UNBOUND:                -0.414
REMARK SMILES CC(C)CCNc1nc(Nc2ccc(F)cc2Cl)c2cnn(C)c2n1
REMARK SMILES IDX 6 1 5 3 4 4 2 5 1 6 3 7 7 8 8 9 25 10 9 11 24 12 19 13 22 14
REMARK SMILES IDX 20 15 21 16 23 17 10 18 11 20 12 21 17 22 13 23 16 24 14 25
REMARK SMILES IDX 18 26 15 27
REMARK H PARENT 6 2 10 19
ROOT
ATOM      1  N   UNL     1       2.135  42.386  52.265  1.00  0.00    -0.354 N 
ATOM      2  H   UNL     1       2.470  41.551  52.738  1.00  0.00     0.163 HD
ENDROOT
BRANCH   1   3
ATOM      3  C   UNL     1       3.020  42.886  51.226  1.00  0.00     0.116 C 
BRANCH   3   4
ATOM      4  C   UNL     1       4.093  41.861  50.844  1.00  0.00     0.024 C 
BRANCH   4   5
ATOM      5  C   UNL     1       5.309  42.433  50.087  1.00  0.00    -0.016 C 
ATOM      6  C   UNL     1       6.474  41.445  50.018  1.00  0.00     0.007 C 
ATOM      7  C   UNL     1       5.770  43.730  50.757  1.00  0.00     0.007 C 
ENDBRANCH   4   5
ENDBRANCH   3   4
ENDBRANCH   1   3
BRANCH   1   8
ATOM      8  C   UNL     1       1.849  43.273  53.297  1.00  0.00     0.226 A 
ATOM      9  N   UNL     1       2.890  44.037  53.672  1.00  0.00    -0.195 NA
ATOM     10  N   UNL     1       0.621  43.312  53.831  1.00  0.00    -0.193 NA
ATOM     11  C   UNL     1       2.755  44.957  54.663  1.00  0.00     0.147 A 
ATOM     12  C   UNL     1       0.511  44.214  54.816  1.00  0.00     0.165 A 
ATOM     13  C   UNL     1       1.504  45.054  55.278  1.00  0.00     0.082 A 
ATOM     14  N   UNL     1      -0.598  44.493  55.567  1.00  0.00    -0.250 N 
ATOM     15  C   UNL     1       0.884  45.805  56.296  1.00  0.00     0.149 A 
ATOM     16  N   UNL     1      -0.396  45.465  56.488  1.00  0.00    -0.179 NA
ATOM     17  C   UNL     1      -1.893  43.869  55.464  1.00  0.00     0.176 C 
BRANCH  11  18
ATOM     18  N   UNL     1       3.848  45.749  55.067  1.00  0.00    -0.338 N 
ATOM     19  H   UNL     1       4.089  45.584  56.035  1.00  0.00     0.168 HD
BRANCH  18  20
ATOM     20  C   UNL     1       4.946  46.104  54.252  1.00  0.00     0.059 A 
ATOM     21  C   UNL     1       6.225  45.653  54.627  1.00  0.00     0.031 A 
ATOM     22  C   UNL     1       4.815  46.814  53.038  1.00  0.00     0.067 A 
ATOM     23  C   UNL     1       7.337  45.909  53.823  1.00  0.00     0.041 A 
ATOM     24  C   UNL     1       5.931  47.069  52.236  1.00  0.00     0.062 A 
ATOM     25  C   UNL     1       7.177  46.611  52.636  1.00  0.00     0.124 A 
ATOM     26  Cl  UNL     1       3.306  47.494  52.528  1.00  0.00    -0.082 Cl
ATOM     27  F   UNL     1       8.248  46.856  51.868  1.00  0.00    -0.207 F 
ENDBRANCH  18  20
ENDBRANCH  11  18
ENDBRANCH   1   8
TORSDOF 6
ENDMDL
