MODEL 1
REMARK VINA RESULT:    -8.236      0.000      0.000
REMARK INTER + INTRA:         -11.900
REMARK INTER:                 -11.125
REMARK INTRA:                  -0.775
REMARK UNBOUND:                -0.775
REMARK SMILES CCCNc1nc(Nc2ccc(C(C)=O)cc2)c2cnn(C)c2n1
REMARK SMILES IDX 5 1 6 2 7 3 18 4 19 5 20 6 21 7 22 8 23 9 24 10 4 11 3 13
REMARK SMILES IDX 2 14 1 15 8 16 9 18 10 19 17 20 11 21 16 22 12 23 13 24
REMARK SMILES IDX 14 25 15 26
REMARK H PARENT 4 12 8 17
ROOT
ATOM      1  C   UNL     1       3.244  42.435  51.330  1.00  0.00     0.226 A 
ATOM      2  N   UNL     1       3.952  43.435  51.889  1.00  0.00    -0.195 NA
ATOM      3  C   UNL     1       3.348  44.589  52.279  1.00  0.00     0.147 A 
ATOM      4  C   UNL     1       1.965  44.672  52.081  1.00  0.00     0.082 A 
ATOM      5  C   UNL     1       0.920  45.594  52.303  1.00  0.00     0.149 A 
ATOM      6  N   UNL     1      -0.272  45.139  51.903  1.00  0.00    -0.179 NA
ATOM      7  N   UNL     1       0.016  43.912  51.410  1.00  0.00    -0.250 N 
ATOM      8  C   UNL     1      -1.043  43.101  50.863  1.00  0.00     0.176 C 
ATOM      9  C   UNL     1       1.341  43.585  51.500  1.00  0.00     0.165 A 
ATOM     10  N   UNL     1       1.925  42.443  51.107  1.00  0.00    -0.193 NA
ENDROOT
BRANCH   1  11
ATOM     11  N   UNL     1       3.895  41.269  50.937  1.00  0.00    -0.354 N 
ATOM     12  H   UNL     1       4.440  40.978  51.742  1.00  0.00     0.163 HD
BRANCH  11  13
ATOM     13  C   UNL     1       4.638  41.390  49.694  1.00  0.00     0.116 C 
BRANCH  13  14
ATOM     14  C   UNL     1       6.129  41.515  50.013  1.00  0.00     0.018 C 
ATOM     15  C   UNL     1       6.690  42.845  49.538  1.00  0.00     0.006 C 
ENDBRANCH  13  14
ENDBRANCH  11  13
ENDBRANCH   1  11
BRANCH   3  16
ATOM     16  N   UNL     1       4.066  45.633  52.881  1.00  0.00    -0.339 N 
ATOM     17  H   UNL     1       3.483  46.313  53.347  1.00  0.00     0.168 HD
BRANCH  16  18
ATOM     18  C   UNL     1       5.435  45.951  52.890  1.00  0.00     0.040 A 
ATOM     19  C   UNL     1       6.222  46.036  51.737  1.00  0.00     0.027 A 
ATOM     20  C   UNL     1       6.070  46.147  54.126  1.00  0.00     0.027 A 
ATOM     21  C   UNL     1       7.593  46.326  51.806  1.00  0.00     0.014 A 
ATOM     22  C   UNL     1       7.438  46.435  54.205  1.00  0.00     0.014 A 
ATOM     23  C   UNL     1       8.209  46.527  53.044  1.00  0.00     0.017 A 
BRANCH  23  24
ATOM     24  C   UNL     1       9.664  46.836  53.173  1.00  0.00     0.159 C 
ATOM     25  C   UNL     1      10.210  47.229  54.520  1.00  0.00     0.093 C 
ATOM     26  O   UNL     1      10.394  46.765  52.186  1.00  0.00    -0.295 OA
ENDBRANCH  23  24
ENDBRANCH  16  18
ENDBRANCH   3  16
TORSDOF 6
ENDMDL
MODEL 2
REMARK VINA RESULT:    -8.094      2.092      4.193
REMARK INTER + INTRA:         -11.708
REMARK INTER:                 -11.315
REMARK INTRA:                  -0.394
REMARK UNBOUND:                -0.775
REMARK SMILES CCCNc1nc(Nc2ccc(C(C)=O)cc2)c2cnn(C)c2n1
REMARK SMILES IDX 5 1 6 2 7 3 18 4 19 5 20 6 21 7 22 8 23 9 24 10 4 11 3 13
REMARK SMILES IDX 2 14 1 15 8 16 9 18 10 19 17 20 11 21 16 22 12 23 13 24
REMARK SMILES IDX 14 25 15 26
REMARK H PARENT 4 12 8 17
ROOT
ATOM      1  C   UNL     1       3.880  43.343  52.224  1.00  0.00     0.226 A 
ATOM      2  N   UNL     1       4.886  44.236  52.156  1.00  0.00    -0.195 NA
ATOM      3  C   UNL     1       5.814  44.171  51.165  1.00  0.00     0.147 A 
ATOM      4  C   UNL     1       5.661  43.144  50.226  1.00  0.00     0.082 A 
ATOM      5  C   UNL     1       6.309  42.668  49.067  1.00  0.00     0.149 A 
ATOM      6  N   UNL     1       5.708  41.598  48.534  1.00  0.00    -0.179 NA
ATOM      7  N   UNL     1       4.665  41.383  49.369  1.00  0.00    -0.250 N 
ATOM      8  C   UNL     1       3.771  40.281  49.117  1.00  0.00     0.176 C 
ATOM      9  C   UNL     1       4.591  42.287  50.394  1.00  0.00     0.165 A 
ATOM     10  N   UNL     1       3.670  42.337  51.368  1.00  0.00    -0.193 NA
ENDROOT
BRANCH   1  11
ATOM     11  N   UNL     1       2.949  43.436  53.255  1.00  0.00    -0.354 N 
ATOM     12  H   UNL     1       2.317  42.653  53.121  1.00  0.00     0.163 HD
BRANCH  11  13
ATOM     13  C   UNL     1       2.311  44.736  53.369  1.00  0.00     0.116 C 
BRANCH  13  14
ATOM     14  C   UNL     1       2.331  45.177  54.833  1.00  0.00     0.018 C 
ATOM     15  C   UNL     1       3.743  45.487  55.303  1.00  0.00     0.006 C 
ENDBRANCH  13  14
ENDBRANCH  11  13
ENDBRANCH   1  11
BRANCH   3  16
ATOM     16  N   UNL     1       6.857  45.104  51.067  1.00  0.00    -0.339 N 
ATOM     17  H   UNL     1       7.222  45.210  50.131  1.00  0.00     0.168 HD
BRANCH  16  18
ATOM     18  C   UNL     1       7.541  45.858  52.036  1.00  0.00     0.040 A 
ATOM     19  C   UNL     1       8.836  46.356  51.864  1.00  0.00     0.027 A 
ATOM     20  C   UNL     1       6.916  46.086  53.271  1.00  0.00     0.027 A 
ATOM     21  C   UNL     1       9.485  47.076  52.878  1.00  0.00     0.014 A 
ATOM     22  C   UNL     1       7.556  46.803  54.290  1.00  0.00     0.014 A 
ATOM     23  C   UNL     1       8.846  47.303  54.099  1.00  0.00     0.017 A 
BRANCH  23  24
ATOM     24  C   UNL     1       9.492  48.060  55.212  1.00  0.00     0.159 C 
ATOM     25  C   UNL     1      10.788  47.551  55.786  1.00  0.00     0.093 C 
ATOM     26  O   UNL     1       8.964  49.084  55.643  1.00  0.00    -0.295 OA
ENDBRANCH  23  24
ENDBRANCH  16  18
ENDBRANCH   3  16
TORSDOF 6
ENDMDL
MODEL 3
REMARK VINA RESULT:    -8.079      1.229      1.254
REMARK INTER + INTRA:         -11.688
REMARK INTER:                 -10.884
REMARK INTRA:                  -0.804
REMARK UNBOUND:                -0.775
REMARK SMILES CCCNc1nc(Nc2ccc(C(C)=O)cc2)c2cnn(C)c2n1
REMARK SMILES IDX 5 1 6 2 7 3 18 4 19 5 20 6 21 7 22 8 23 9 24 10 4 11 3 13
REMARK SMILES IDX 2 14 1 15 8 16 9 18 10 19 17 20 11 21 16 22 12 23 13 24
REMARK SMILES IDX 14 25 15 26
REMARK H PARENT 4 12 8 17
ROOT
ATOM      1  C   UNL     1       2.854  42.737  51.405  1.00  0.00     0.226 A 
ATOM      2  N   UNL     1       3.642  43.825  51.321  1.00  0.00    -0.195 NA
ATOM      3  C   UNL     1       3.367  44.946  52.038  1.00  0.00     0.147 A 
ATOM      4  C   UNL     1       2.239  44.903  52.866  1.00  0.00     0.082 A 
ATOM      5  C   UNL     1       1.559  45.747  53.769  1.00  0.00     0.149 A 
ATOM      6  N   UNL     1       0.481  45.171  54.311  1.00  0.00    -0.179 NA
ATOM      7  N   UNL     1       0.467  43.943  53.741  1.00  0.00    -0.250 N 
ATOM      8  C   UNL     1      -0.581  43.015  54.082  1.00  0.00     0.176 C 
ATOM      9  C   UNL     1       1.504  43.733  52.873  1.00  0.00     0.165 A 
ATOM     10  N   UNL     1       1.762  42.622  52.169  1.00  0.00    -0.193 NA
ENDROOT
BRANCH   1  11
ATOM     11  N   UNL     1       3.162  41.606  50.653  1.00  0.00    -0.354 N 
ATOM     12  H   UNL     1       2.497  40.897  50.944  1.00  0.00     0.163 HD
BRANCH  11  13
ATOM     13  C   UNL     1       4.558  41.210  50.714  1.00  0.00     0.116 C 
BRANCH  13  14
ATOM     14  C   UNL     1       5.178  41.345  49.323  1.00  0.00     0.018 C 
ATOM     15  C   UNL     1       6.262  42.411  49.297  1.00  0.00     0.006 C 
ENDBRANCH  13  14
ENDBRANCH  11  13
ENDBRANCH   1  11
BRANCH   3  16
ATOM     16  N   UNL     1       4.189  46.082  51.979  1.00  0.00    -0.339 N 
ATOM     17  H   UNL     1       3.705  46.922  51.694  1.00  0.00     0.168 HD
BRANCH  16  18
ATOM     18  C   UNL     1       5.571  46.254  52.163  1.00  0.00     0.040 A 
ATOM     19  C   UNL     1       6.532  45.939  51.196  1.00  0.00     0.027 A 
ATOM     20  C   UNL     1       6.030  46.721  53.405  1.00  0.00     0.027 A 
ATOM     21  C   UNL     1       7.903  46.100  51.444  1.00  0.00     0.014 A 
ATOM     22  C   UNL     1       7.396  46.885  53.663  1.00  0.00     0.014 A 
ATOM     23  C   UNL     1       8.342  46.575  52.683  1.00  0.00     0.017 A 
BRANCH  23  24
ATOM     24  C   UNL     1       9.789  46.763  53.000  1.00  0.00     0.159 C 
ATOM     25  C   UNL     1      10.180  47.228  54.378  1.00  0.00     0.093 C 
ATOM     26  O   UNL     1      10.639  46.537  52.140  1.00  0.00    -0.295 OA
ENDBRANCH  23  24
ENDBRANCH  16  18
ENDBRANCH   3  16
TORSDOF 6
ENDMDL
MODEL 4
REMARK VINA RESULT:    -8.061      3.580      7.305
REMARK INTER + INTRA:         -11.664
REMARK INTER:                 -11.041
REMARK INTRA:                  -0.623
REMARK UNBOUND:                -0.775
REMARK SMILES CCCNc1nc(Nc2ccc(C(C)=O)cc2)c2cnn(C)c2n1
REMARK SMILES IDX 5 1 6 2 7 3 18 4 19 5 20 6 21 7 22 8 23 9 24 10 4 11 3 13
REMARK SMILES IDX 2 14 1 15 8 16 9 18 10 19 17 20 11 21 16 22 12 23 13 24
REMARK SMILES IDX 14 25 15 26
REMARK H PARENT 4 12 8 17
ROOT
ATOM      1  C   UNL     1       7.790  47.305  52.623  1.00  0.00     0.226 A 
ATOM      2  N   UNL     1       6.556  47.581  53.085  1.00  0.00    -0.195 NA
ATOM      3  C   UNL     1       5.468  46.913  52.620  1.00  0.00     0.147 A 
ATOM      4  C   UNL     1       5.701  45.927  51.654  1.00  0.00     0.082 A 
ATOM      5  C   UNL     1       4.959  44.995  50.896  1.00  0.00     0.149 A 
ATOM      6  N   UNL     1       5.723  44.260  50.081  1.00  0.00    -0.179 NA
ATOM      7  N   UNL     1       6.970  44.733  50.316  1.00  0.00    -0.250 N 
ATOM      8  C   UNL     1       8.086  44.175  49.596  1.00  0.00     0.176 C 
ATOM      9  C   UNL     1       7.008  45.727  51.255  1.00  0.00     0.165 A 
ATOM     10  N   UNL     1       8.090  46.381  51.703  1.00  0.00    -0.193 NA
ENDROOT
BRANCH   1  11
ATOM     11  N   UNL     1       8.883  48.011  53.118  1.00  0.00    -0.354 N 
ATOM     12  H   UNL     1       9.684  47.673  52.595  1.00  0.00     0.163 HD
BRANCH  11  13
ATOM     13  C   UNL     1       9.020  47.963  54.563  1.00  0.00     0.116 C 
BRANCH  13  14
ATOM     14  C   UNL     1      10.238  47.111  54.922  1.00  0.00     0.018 C 
ATOM     15  C   UNL     1      10.940  47.636  56.164  1.00  0.00     0.006 C 
ENDBRANCH  13  14
ENDBRANCH  11  13
ENDBRANCH   1  11
BRANCH   3  16
ATOM     16  N   UNL     1       4.177  47.174  53.104  1.00  0.00    -0.339 N 
ATOM     17  H   UNL     1       4.006  48.149  53.306  1.00  0.00     0.168 HD
BRANCH  16  18
ATOM     18  C   UNL     1       3.107  46.326  53.436  1.00  0.00     0.040 A 
ATOM     19  C   UNL     1       3.096  45.486  54.554  1.00  0.00     0.027 A 
ATOM     20  C   UNL     1       2.001  46.272  52.573  1.00  0.00     0.027 A 
ATOM     21  C   UNL     1       2.014  44.634  54.821  1.00  0.00     0.014 A 
ATOM     22  C   UNL     1       0.917  45.425  52.830  1.00  0.00     0.014 A 
ATOM     23  C   UNL     1       0.917  44.599  53.957  1.00  0.00     0.017 A 
BRANCH  23  24
ATOM     24  C   UNL     1      -0.259  43.710  54.193  1.00  0.00     0.159 C 
ATOM     25  C   UNL     1      -1.480  44.278  54.867  1.00  0.00     0.093 C 
ATOM     26  O   UNL     1      -0.218  42.534  53.836  1.00  0.00    -0.295 OA
ENDBRANCH  23  24
ENDBRANCH  16  18
ENDBRANCH   3  16
TORSDOF 6
ENDMDL
MODEL 5
REMARK VINA RESULT:    -8.029      1.703      2.178
REMARK INTER + INTRA:         -11.620
REMARK INTER:                 -11.002
REMARK INTRA:                  -0.618
REMARK UNBOUND:                -0.775
REMARK SMILES CCCNc1nc(Nc2ccc(C(C)=O)cc2)c2cnn(C)c2n1
REMARK SMILES IDX 5 1 6 2 7 3 18 4 19 5 20 6 21 7 22 8 23 9 24 10 4 11 3 13
REMARK SMILES IDX 2 14 1 15 8 16 9 18 10 19 17 20 11 21 16 22 12 23 13 24
REMARK SMILES IDX 14 25 15 26
REMARK H PARENT 4 12 8 17
ROOT
ATOM      1  C   UNL     1       3.768  42.633  50.998  1.00  0.00     0.226 A 
ATOM      2  N   UNL     1       4.889  43.359  50.827  1.00  0.00    -0.195 NA
ATOM      3  C   UNL     1       4.899  44.699  51.053  1.00  0.00     0.147 A 
ATOM      4  C   UNL     1       3.695  45.273  51.480  1.00  0.00     0.082 A 
ATOM      5  C   UNL     1       3.201  46.545  51.839  1.00  0.00     0.149 A 
ATOM      6  N   UNL     1       1.909  46.525  52.184  1.00  0.00    -0.179 NA
ATOM      7  N   UNL     1       1.570  45.222  52.037  1.00  0.00    -0.250 N 
ATOM      8  C   UNL     1       0.219  44.806  52.315  1.00  0.00     0.176 C 
ATOM      9  C   UNL     1       2.609  44.432  51.623  1.00  0.00     0.165 A 
ATOM     10  N   UNL     1       2.584  43.111  51.400  1.00  0.00    -0.193 NA
ENDROOT
BRANCH   1  11
ATOM     11  N   UNL     1       3.791  41.263  50.752  1.00  0.00    -0.354 N 
ATOM     12  H   UNL     1       4.198  40.845  51.582  1.00  0.00     0.163 HD
BRANCH  11  13
ATOM     13  C   UNL     1       4.424  40.892  49.497  1.00  0.00     0.116 C 
BRANCH  13  14
ATOM     14  C   UNL     1       3.453  40.039  48.681  1.00  0.00     0.018 C 
ATOM     15  C   UNL     1       3.556  40.345  47.195  1.00  0.00     0.006 C 
ENDBRANCH  13  14
ENDBRANCH  11  13
ENDBRANCH   1  11
BRANCH   3  16
ATOM     16  N   UNL     1       6.063  45.467  50.899  1.00  0.00    -0.339 N 
ATOM     17  H   UNL     1       6.405  45.503  49.949  1.00  0.00     0.168 HD
BRANCH  16  18
ATOM     18  C   UNL     1       6.884  46.127  51.829  1.00  0.00     0.040 A 
ATOM     19  C   UNL     1       7.960  46.946  51.473  1.00  0.00     0.027 A 
ATOM     20  C   UNL     1       6.652  45.918  53.197  1.00  0.00     0.027 A 
ATOM     21  C   UNL     1       8.770  47.556  52.443  1.00  0.00     0.014 A 
ATOM     22  C   UNL     1       7.455  46.521  54.173  1.00  0.00     0.014 A 
ATOM     23  C   UNL     1       8.520  47.345  53.801  1.00  0.00     0.017 A 
BRANCH  23  24
ATOM     24  C   UNL     1       9.351  47.968  54.874  1.00  0.00     0.159 C 
ATOM     25  C   UNL     1      10.578  47.242  55.360  1.00  0.00     0.093 C 
ATOM     26  O   UNL     1       9.028  49.057  55.344  1.00  0.00    -0.295 OA
ENDBRANCH  23  24
ENDBRANCH  16  18
ENDBRANCH   3  16
TORSDOF 6
ENDMDL
MODEL 6
REMARK VINA RESULT:    -7.920      3.857      7.623
REMARK INTER + INTRA:         -11.473
REMARK INTER:                 -10.807
REMARK INTRA:                  -0.666
REMARK UNBOUND:                -0.775
REMARK SMILES CCCNc1nc(Nc2ccc(C(C)=O)cc2)c2cnn(C)c2n1
REMARK SMILES IDX 5 1 6 2 7 3 18 4 19 5 20 6 21 7 22 8 23 9 24 10 4 11 3 13
REMARK SMILES IDX 2 14 1 15 8 16 9 18 10 19 17 20 11 21 16 22 12 23 13 24
REMARK SMILES IDX 14 25 15 26
REMARK H PARENT 4 12 8 17
ROOT
ATOM      1  C   UNL     1       6.916  45.026  50.802  1.00  0.00     0.226 A 
ATOM      2  N   UNL     1       7.016  43.984  49.954  1.00  0.00    -0.195 NA
ATOM      3  C   UNL     1       6.128  42.957  49.998  1.00  0.00     0.147 A 
ATOM      4  C   UNL     1       5.109  43.047  50.954  1.00  0.00     0.082 A 
ATOM      5  C   UNL     1       3.995  42.295  51.384  1.00  0.00     0.149 A 
ATOM      6  N   UNL     1       3.329  42.875  52.388  1.00  0.00    -0.179 NA
ATOM      7  N   UNL     1       4.032  44.011  52.609  1.00  0.00    -0.250 N 
ATOM      8  C   UNL     1       3.612  44.913  53.651  1.00  0.00     0.176 C 
ATOM      9  C   UNL     1       5.103  44.161  51.770  1.00  0.00     0.165 A 
ATOM     10  N   UNL     1       5.975  45.179  51.741  1.00  0.00    -0.193 NA
ENDROOT
BRANCH   1  11
ATOM     11  N   UNL     1       7.846  46.060  50.733  1.00  0.00    -0.354 N 
ATOM     12  H   UNL     1       8.662  45.661  50.282  1.00  0.00     0.163 HD
BRANCH  11  13
ATOM     13  C   UNL     1       8.099  46.720  52.003  1.00  0.00     0.116 C 
BRANCH  13  14
ATOM     14  C   UNL     1       9.592  46.632  52.323  1.00  0.00     0.018 C 
ATOM     15  C   UNL     1       9.902  47.206  53.697  1.00  0.00     0.006 C 
ENDBRANCH  13  14
ENDBRANCH  11  13
ENDBRANCH   1  11
BRANCH   3  16
ATOM     16  N   UNL     1       6.205  41.874  49.109  1.00  0.00    -0.339 N 
ATOM     17  H   UNL     1       7.040  41.315  49.218  1.00  0.00     0.168 HD
BRANCH  16  18
ATOM     18  C   UNL     1       5.381  41.468  48.046  1.00  0.00     0.040 A 
ATOM     19  C   UNL     1       4.266  40.637  48.198  1.00  0.00     0.027 A 
ATOM     20  C   UNL     1       5.715  41.874  46.745  1.00  0.00     0.027 A 
ATOM     21  C   UNL     1       3.495  40.235  47.097  1.00  0.00     0.014 A 
ATOM     22  C   UNL     1       4.952  41.478  45.640  1.00  0.00     0.014 A 
ATOM     23  C   UNL     1       3.836  40.655  45.809  1.00  0.00     0.017 A 
BRANCH  23  24
ATOM     24  C   UNL     1       3.052  40.256  44.604  1.00  0.00     0.159 C 
ATOM     25  C   UNL     1       1.598  40.641  44.518  1.00  0.00     0.093 C 
ATOM     26  O   UNL     1       3.596  39.622  43.701  1.00  0.00    -0.295 OA
ENDBRANCH  23  24
ENDBRANCH  16  18
ENDBRANCH   3  16
TORSDOF 6
ENDMDL
MODEL 7
REMARK VINA RESULT:    -7.879      3.379      6.872
REMARK INTER + INTRA:         -11.417
REMARK INTER:                 -10.979
REMARK INTRA:                  -0.438
REMARK UNBOUND:                -0.775
REMARK SMILES CCCNc1nc(Nc2ccc(C(C)=O)cc2)c2cnn(C)c2n1
REMARK SMILES IDX 5 1 6 2 7 3 18 4 19 5 20 6 21 7 22 8 23 9 24 10 4 11 3 13
REMARK SMILES IDX 2 14 1 15 8 16 9 18 10 19 17 20 11 21 16 22 12 23 13 24
REMARK SMILES IDX 14 25 15 26
REMARK H PARENT 4 12 8 17
ROOT
ATOM      1  C   UNL     1       7.506  46.760  51.728  1.00  0.00     0.226 A 
ATOM      2  N   UNL     1       6.446  47.110  52.480  1.00  0.00    -0.195 NA
ATOM      3  C   UNL     1       5.315  46.357  52.492  1.00  0.00     0.147 A 
ATOM      4  C   UNL     1       5.318  45.205  51.696  1.00  0.00     0.082 A 
ATOM      5  C   UNL     1       4.450  44.140  51.376  1.00  0.00     0.149 A 
ATOM      6  N   UNL     1       4.987  43.267  50.517  1.00  0.00    -0.179 NA
ATOM      7  N   UNL     1       6.215  43.786  50.278  1.00  0.00    -0.250 N 
ATOM      8  C   UNL     1       7.105  43.109  49.370  1.00  0.00     0.176 C 
ATOM      9  C   UNL     1       6.461  44.943  50.967  1.00  0.00     0.165 A 
ATOM     10  N   UNL     1       7.582  45.678  50.943  1.00  0.00    -0.193 NA
ENDROOT
BRANCH   1  11
ATOM     11  N   UNL     1       8.648  47.557  51.735  1.00  0.00    -0.354 N 
ATOM     12  H   UNL     1       8.637  48.055  50.852  1.00  0.00     0.163 HD
BRANCH  11  13
ATOM     13  C   UNL     1       9.876  46.837  52.028  1.00  0.00     0.116 C 
BRANCH  13  14
ATOM     14  C   UNL     1       9.815  46.306  53.461  1.00  0.00     0.018 C 
ATOM     15  C   UNL     1       9.903  47.433  54.477  1.00  0.00     0.006 C 
ENDBRANCH  13  14
ENDBRANCH  11  13
ENDBRANCH   1  11
BRANCH   3  16
ATOM     16  N   UNL     1       4.208  46.696  53.285  1.00  0.00    -0.339 N 
ATOM     17  H   UNL     1       4.331  47.547  53.814  1.00  0.00     0.168 HD
BRANCH  16  18
ATOM     18  C   UNL     1       2.996  46.033  53.542  1.00  0.00     0.040 A 
ATOM     19  C   UNL     1       1.873  46.115  52.713  1.00  0.00     0.027 A 
ATOM     20  C   UNL     1       2.878  45.283  54.722  1.00  0.00     0.027 A 
ATOM     21  C   UNL     1       0.675  45.459  53.034  1.00  0.00     0.014 A 
ATOM     22  C   UNL     1       1.687  44.625  55.052  1.00  0.00     0.014 A 
ATOM     23  C   UNL     1       0.577  44.709  54.208  1.00  0.00     0.017 A 
BRANCH  23  24
ATOM     24  C   UNL     1      -0.674  43.993  54.598  1.00  0.00     0.159 C 
ATOM     25  C   UNL     1      -1.625  44.655  55.560  1.00  0.00     0.093 C 
ATOM     26  O   UNL     1      -0.912  42.880  54.132  1.00  0.00    -0.295 OA
ENDBRANCH  23  24
ENDBRANCH  16  18
ENDBRANCH   3  16
TORSDOF 6
ENDMDL
MODEL 8
REMARK VINA RESULT:    -7.850      3.600      7.541
REMARK INTER + INTRA:         -11.378
REMARK INTER:                 -10.796
REMARK INTRA:                  -0.582
REMARK UNBOUND:                -0.775
REMARK SMILES CCCNc1nc(Nc2ccc(C(C)=O)cc2)c2cnn(C)c2n1
REMARK SMILES IDX 5 1 6 2 7 3 18 4 19 5 20 6 21 7 22 8 23 9 24 10 4 11 3 13
REMARK SMILES IDX 2 14 1 15 8 16 9 18 10 19 17 20 11 21 16 22 12 23 13 24
REMARK SMILES IDX 14 25 15 26
REMARK H PARENT 4 12 8 17
ROOT
ATOM      1  C   UNL     1       5.974  46.799  54.185  1.00  0.00     0.226 A 
ATOM      2  N   UNL     1       5.878  46.225  52.971  1.00  0.00    -0.195 NA
ATOM      3  C   UNL     1       6.982  46.010  52.208  1.00  0.00     0.147 A 
ATOM      4  C   UNL     1       8.210  46.403  52.753  1.00  0.00     0.082 A 
ATOM      5  C   UNL     1       9.575  46.397  52.395  1.00  0.00     0.149 A 
ATOM      6  N   UNL     1      10.365  46.923  53.338  1.00  0.00    -0.179 NA
ATOM      7  N   UNL     1       9.491  47.278  54.309  1.00  0.00    -0.250 N 
ATOM      8  C   UNL     1       9.983  47.903  55.511  1.00  0.00     0.176 C 
ATOM      9  C   UNL     1       8.190  46.981  54.008  1.00  0.00     0.165 A 
ATOM     10  N   UNL     1       7.109  47.203  54.769  1.00  0.00    -0.193 NA
ENDROOT
BRANCH   1  11
ATOM     11  N   UNL     1       4.823  47.010  54.939  1.00  0.00    -0.354 N 
ATOM     12  H   UNL     1       5.082  47.689  55.646  1.00  0.00     0.163 HD
BRANCH  11  13
ATOM     13  C   UNL     1       4.208  45.793  55.441  1.00  0.00     0.116 C 
BRANCH  13  14
ATOM     14  C   UNL     1       2.771  45.708  54.924  1.00  0.00     0.018 C 
ATOM     15  C   UNL     1       2.642  44.694  53.799  1.00  0.00     0.006 C 
ENDBRANCH  13  14
ENDBRANCH  11  13
ENDBRANCH   1  11
BRANCH   3  16
ATOM     16  N   UNL     1       6.903  45.394  50.949  1.00  0.00    -0.339 N 
ATOM     17  H   UNL     1       7.354  45.916  50.211  1.00  0.00     0.168 HD
BRANCH  16  18
ATOM     18  C   UNL     1       6.248  44.231  50.510  1.00  0.00     0.040 A 
ATOM     19  C   UNL     1       6.744  43.389  49.510  1.00  0.00     0.027 A 
ATOM     20  C   UNL     1       4.999  43.914  51.065  1.00  0.00     0.027 A 
ATOM     21  C   UNL     1       6.033  42.257  49.085  1.00  0.00     0.014 A 
ATOM     22  C   UNL     1       4.281  42.787  50.648  1.00  0.00     0.014 A 
ATOM     23  C   UNL     1       4.795  41.950  49.655  1.00  0.00     0.017 A 
BRANCH  23  24
ATOM     24  C   UNL     1       3.996  40.759  49.239  1.00  0.00     0.159 C 
ATOM     25  C   UNL     1       3.894  40.424  47.774  1.00  0.00     0.093 C 
ATOM     26  O   UNL     1       3.436  40.070  50.090  1.00  0.00    -0.295 OA
ENDBRANCH  23  24
ENDBRANCH  16  18
ENDBRANCH   3  16
TORSDOF 6
ENDMDL
MODEL 9
REMARK VINA RESULT:    -7.791      2.806      4.793
REMARK INTER + INTRA:         -11.299
REMARK INTER:                 -10.620
REMARK INTRA:                  -0.679
REMARK UNBOUND:                -0.775
REMARK SMILES CCCNc1nc(Nc2ccc(C(C)=O)cc2)c2cnn(C)c2n1
REMARK SMILES IDX 5 1 6 2 7 3 18 4 19 5 20 6 21 7 22 8 23 9 24 10 4 11 3 13
REMARK SMILES IDX 2 14 1 15 8 16 9 18 10 19 17 20 11 21 16 22 12 23 13 24
REMARK SMILES IDX 14 25 15 26
REMARK H PARENT 4 12 8 17
ROOT
ATOM      1  C   UNL     1       1.619  44.943  55.441  1.00  0.00     0.226 A 
ATOM      2  N   UNL     1       2.554  45.791  54.973  1.00  0.00    -0.195 NA
ATOM      3  C   UNL     1       2.877  45.820  53.653  1.00  0.00     0.147 A 
ATOM      4  C   UNL     1       2.183  44.937  52.817  1.00  0.00     0.082 A 
ATOM      5  C   UNL     1       2.138  44.595  51.449  1.00  0.00     0.149 A 
ATOM      6  N   UNL     1       1.247  43.635  51.180  1.00  0.00    -0.179 NA
ATOM      7  N   UNL     1       0.719  43.354  52.395  1.00  0.00    -0.250 N 
ATOM      8  C   UNL     1      -0.295  42.337  52.509  1.00  0.00     0.176 C 
ATOM      9  C   UNL     1       1.244  44.113  53.405  1.00  0.00     0.165 A 
ATOM     10  N   UNL     1       0.918  44.072  54.705  1.00  0.00    -0.193 NA
ENDROOT
BRANCH   1  11
ATOM     11  N   UNL     1       1.315  44.936  56.800  1.00  0.00    -0.354 N 
ATOM     12  H   UNL     1       1.002  43.993  57.003  1.00  0.00     0.163 HD
BRANCH  11  13
ATOM     13  C   UNL     1       0.410  45.994  57.214  1.00  0.00     0.116 C 
BRANCH  13  14
ATOM     14  C   UNL     1       1.061  46.797  58.341  1.00  0.00     0.018 C 
ATOM     15  C   UNL     1       0.040  47.641  59.086  1.00  0.00     0.006 C 
ENDBRANCH  13  14
ENDBRANCH  11  13
ENDBRANCH   1  11
BRANCH   3  16
ATOM     16  N   UNL     1       3.834  46.711  53.145  1.00  0.00    -0.339 N 
ATOM     17  H   UNL     1       3.442  47.457  52.589  1.00  0.00     0.168 HD
BRANCH  16  18
ATOM     18  C   UNL     1       5.238  46.715  53.199  1.00  0.00     0.040 A 
ATOM     19  C   UNL     1       5.972  46.890  54.377  1.00  0.00     0.027 A 
ATOM     20  C   UNL     1       5.956  46.588  52.000  1.00  0.00     0.027 A 
ATOM     21  C   UNL     1       7.375  46.919  54.369  1.00  0.00     0.014 A 
ATOM     22  C   UNL     1       7.356  46.616  51.982  1.00  0.00     0.014 A 
ATOM     23  C   UNL     1       8.075  46.782  53.168  1.00  0.00     0.017 A 
BRANCH  23  24
ATOM     24  C   UNL     1       9.566  46.807  53.104  1.00  0.00     0.159 C 
ATOM     25  C   UNL     1      10.251  46.333  51.849  1.00  0.00     0.093 C 
ATOM     26  O   UNL     1      10.213  47.212  54.068  1.00  0.00    -0.295 OA
ENDBRANCH  23  24
ENDBRANCH  16  18
ENDBRANCH   3  16
TORSDOF 6
ENDMDL
MODEL 10
REMARK VINA RESULT:    -7.779      3.543      7.044
REMARK INTER + INTRA:         -11.282
REMARK INTER:                 -10.879
REMARK INTRA:                  -0.403
REMARK UNBOUND:                -0.775
REMARK SMILES CCCNc1nc(Nc2ccc(C(C)=O)cc2)c2cnn(C)c2n1
REMARK SMILES IDX 5 1 6 2 7 3 18 4 19 5 20 6 21 7 22 8 23 9 24 10 4 11 3 13
REMARK SMILES IDX 2 14 1 15 8 16 9 18 10 19 17 20 11 21 16 22 12 23 13 24
REMARK SMILES IDX 14 25 15 26
REMARK H PARENT 4 12 8 17
ROOT
ATOM      1  C   UNL     1       6.235  46.300  52.076  1.00  0.00     0.226 A 
ATOM      2  N   UNL     1       5.114  45.743  52.571  1.00  0.00    -0.195 NA
ATOM      3  C   UNL     1       4.669  44.542  52.119  1.00  0.00     0.147 A 
ATOM      4  C   UNL     1       5.439  43.918  51.130  1.00  0.00     0.082 A 
ATOM      5  C   UNL     1       5.421  42.728  50.372  1.00  0.00     0.149 A 
ATOM      6  N   UNL     1       6.452  42.631  49.526  1.00  0.00    -0.179 NA
ATOM      7  N   UNL     1       7.136  43.780  49.741  1.00  0.00    -0.250 N 
ATOM      8  C   UNL     1       8.334  44.044  48.985  1.00  0.00     0.176 C 
ATOM      9  C   UNL     1       6.571  44.580  50.697  1.00  0.00     0.165 A 
ATOM     10  N   UNL     1       7.019  45.767  51.132  1.00  0.00    -0.193 NA
ENDROOT
BRANCH   1  11
ATOM     11  N   UNL     1       6.660  47.535  52.558  1.00  0.00    -0.354 N 
ATOM     12  H   UNL     1       5.943  48.196  52.280  1.00  0.00     0.163 HD
BRANCH  11  13
ATOM     13  C   UNL     1       8.016  47.891  52.175  1.00  0.00     0.116 C 
BRANCH  13  14
ATOM     14  C   UNL     1       8.905  47.888  53.420  1.00  0.00     0.018 C 
ATOM     15  C   UNL     1       9.944  46.779  53.360  1.00  0.00     0.006 C 
ENDBRANCH  13  14
ENDBRANCH  11  13
ENDBRANCH   1  11
BRANCH   3  16
ATOM     16  N   UNL     1       3.514  43.937  52.638  1.00  0.00    -0.339 N 
ATOM     17  H   UNL     1       3.235  43.101  52.145  1.00  0.00     0.168 HD
BRANCH  16  18
ATOM     18  C   UNL     1       2.630  44.320  53.661  1.00  0.00     0.040 A 
ATOM     19  C   UNL     1       3.016  45.041  54.795  1.00  0.00     0.027 A 
ATOM     20  C   UNL     1       1.288  43.917  53.574  1.00  0.00     0.027 A 
ATOM     21  C   UNL     1       2.098  45.369  55.804  1.00  0.00     0.014 A 
ATOM     22  C   UNL     1       0.364  44.240  54.575  1.00  0.00     0.014 A 
ATOM     23  C   UNL     1       0.764  44.969  55.698  1.00  0.00     0.017 A 
BRANCH  23  24
ATOM     24  C   UNL     1      -0.253  45.290  56.742  1.00  0.00     0.159 C 
ATOM     25  C   UNL     1      -1.657  44.772  56.577  1.00  0.00     0.093 C 
ATOM     26  O   UNL     1       0.065  45.967  57.718  1.00  0.00    -0.295 OA
ENDBRANCH  23  24
ENDBRANCH  16  18
ENDBRANCH   3  16
TORSDOF 6
ENDMDL
MODEL 11
REMARK VINA RESULT:    -7.769      3.400      7.596
REMARK INTER + INTRA:         -11.270
REMARK INTER:                 -10.529
REMARK INTRA:                  -0.741
REMARK UNBOUND:                -0.775
REMARK SMILES CCCNc1nc(Nc2ccc(C(C)=O)cc2)c2cnn(C)c2n1
REMARK SMILES IDX 5 1 6 2 7 3 18 4 19 5 20 6 21 7 22 8 23 9 24 10 4 11 3 13
REMARK SMILES IDX 2 14 1 15 8 16 9 18 10 19 17 20 11 21 16 22 12 23 13 24
REMARK SMILES IDX 14 25 15 26
REMARK H PARENT 4 12 8 17
ROOT
ATOM      1  C   UNL     1       6.024  45.897  52.121  1.00  0.00     0.226 A 
ATOM      2  N   UNL     1       4.990  45.251  52.692  1.00  0.00    -0.195 NA
ATOM      3  C   UNL     1       4.600  44.025  52.252  1.00  0.00     0.147 A 
ATOM      4  C   UNL     1       5.334  43.475  51.194  1.00  0.00     0.082 A 
ATOM      5  C   UNL     1       5.344  42.297  50.416  1.00  0.00     0.149 A 
ATOM      6  N   UNL     1       6.309  42.291  49.490  1.00  0.00    -0.179 NA
ATOM      7  N   UNL     1       6.920  43.485  49.674  1.00  0.00    -0.250 N 
ATOM      8  C   UNL     1       8.032  43.848  48.832  1.00  0.00     0.176 C 
ATOM      9  C   UNL     1       6.376  44.226  50.687  1.00  0.00     0.165 A 
ATOM     10  N   UNL     1       6.768  45.437  51.109  1.00  0.00    -0.193 NA
ENDROOT
BRANCH   1  11
ATOM     11  N   UNL     1       6.393  47.154  52.593  1.00  0.00    -0.354 N 
ATOM     12  H   UNL     1       5.609  47.763  52.387  1.00  0.00     0.163 HD
BRANCH  11  13
ATOM     13  C   UNL     1       7.683  47.617  52.111  1.00  0.00     0.116 C 
BRANCH  13  14
ATOM     14  C   UNL     1       8.654  47.709  53.288  1.00  0.00     0.018 C 
ATOM     15  C   UNL     1       9.898  46.867  53.053  1.00  0.00     0.006 C 
ENDBRANCH  13  14
ENDBRANCH  11  13
ENDBRANCH   1  11
BRANCH   3  16
ATOM     16  N   UNL     1       3.538  43.328  52.847  1.00  0.00    -0.339 N 
ATOM     17  H   UNL     1       3.804  42.801  53.666  1.00  0.00     0.168 HD
BRANCH  16  18
ATOM     18  C   UNL     1       2.193  43.164  52.473  1.00  0.00     0.040 A 
ATOM     19  C   UNL     1       1.679  43.543  51.229  1.00  0.00     0.027 A 
ATOM     20  C   UNL     1       1.295  42.635  53.413  1.00  0.00     0.027 A 
ATOM     21  C   UNL     1       0.320  43.386  50.919  1.00  0.00     0.014 A 
ATOM     22  C   UNL     1      -0.063  42.476  53.114  1.00  0.00     0.014 A 
ATOM     23  C   UNL     1      -0.560  42.850  51.863  1.00  0.00     0.017 A 
BRANCH  23  24
ATOM     24  C   UNL     1      -2.015  42.664  51.586  1.00  0.00     0.159 C 
ATOM     25  C   UNL     1      -2.476  42.542  50.157  1.00  0.00     0.093 C 
ATOM     26  O   UNL     1      -2.814  42.612  52.519  1.00  0.00    -0.295 OA
ENDBRANCH  23  24
ENDBRANCH  16  18
ENDBRANCH   3  16
TORSDOF 6
ENDMDL
MODEL 12
REMARK VINA RESULT:    -7.681      2.414      4.523
REMARK INTER + INTRA:         -11.150
REMARK INTER:                 -10.430
REMARK INTRA:                  -0.720
REMARK UNBOUND:                -0.775
REMARK SMILES CCCNc1nc(Nc2ccc(C(C)=O)cc2)c2cnn(C)c2n1
REMARK SMILES IDX 5 1 6 2 7 3 18 4 19 5 20 6 21 7 22 8 23 9 24 10 4 11 3 13
REMARK SMILES IDX 2 14 1 15 8 16 9 18 10 19 17 20 11 21 16 22 12 23 13 24
REMARK SMILES IDX 14 25 15 26
REMARK H PARENT 4 12 8 17
ROOT
ATOM      1  C   UNL     1       0.721  45.023  54.414  1.00  0.00     0.226 A 
ATOM      2  N   UNL     1       2.049  44.813  54.492  1.00  0.00    -0.195 NA
ATOM      3  C   UNL     1       2.718  44.175  53.496  1.00  0.00     0.147 A 
ATOM      4  C   UNL     1       1.960  43.764  52.393  1.00  0.00     0.082 A 
ATOM      5  C   UNL     1       2.161  43.106  51.161  1.00  0.00     0.149 A 
ATOM      6  N   UNL     1       1.034  42.964  50.455  1.00  0.00    -0.179 NA
ATOM      7  N   UNL     1       0.098  43.534  51.251  1.00  0.00    -0.250 N 
ATOM      8  C   UNL     1      -1.276  43.564  50.818  1.00  0.00     0.176 C 
ATOM      9  C   UNL     1       0.606  44.033  52.419  1.00  0.00     0.165 A 
ATOM     10  N   UNL     1      -0.067  44.658  53.396  1.00  0.00    -0.193 NA
ENDROOT
BRANCH   1  11
ATOM     11  N   UNL     1       0.066  45.675  55.455  1.00  0.00    -0.354 N 
ATOM     12  H   UNL     1       0.223  46.665  55.296  1.00  0.00     0.163 HD
BRANCH  11  13
ATOM     13  C   UNL     1       0.422  45.195  56.779  1.00  0.00     0.116 C 
BRANCH  13  14
ATOM     14  C   UNL     1       0.620  46.392  57.709  1.00  0.00     0.018 C 
ATOM     15  C   UNL     1      -0.681  47.146  57.932  1.00  0.00     0.006 C 
ENDBRANCH  13  14
ENDBRANCH  11  13
ENDBRANCH   1  11
BRANCH   3  16
ATOM     16  N   UNL     1       4.104  43.966  53.552  1.00  0.00    -0.339 N 
ATOM     17  H   UNL     1       4.372  43.137  54.064  1.00  0.00     0.168 HD
BRANCH  16  18
ATOM     18  C   UNL     1       5.191  44.734  53.099  1.00  0.00     0.040 A 
ATOM     19  C   UNL     1       5.552  44.854  51.753  1.00  0.00     0.027 A 
ATOM     20  C   UNL     1       5.997  45.381  54.048  1.00  0.00     0.027 A 
ATOM     21  C   UNL     1       6.668  45.607  51.358  1.00  0.00     0.014 A 
ATOM     22  C   UNL     1       7.113  46.135  53.664  1.00  0.00     0.014 A 
ATOM     23  C   UNL     1       7.455  46.253  52.315  1.00  0.00     0.017 A 
BRANCH  23  24
ATOM     24  C   UNL     1       8.653  47.066  51.948  1.00  0.00     0.159 C 
ATOM     25  C   UNL     1      10.020  46.446  52.068  1.00  0.00     0.093 C 
ATOM     26  O   UNL     1       8.511  48.223  51.556  1.00  0.00    -0.295 OA
ENDBRANCH  23  24
ENDBRANCH  16  18
ENDBRANCH   3  16
TORSDOF 6
ENDMDL
MODEL 13
REMARK VINA RESULT:    -7.639      3.351      4.628
REMARK INTER + INTRA:         -11.094
REMARK INTER:                 -10.366
REMARK INTRA:                  -0.727
REMARK UNBOUND:                -0.775
REMARK SMILES CCCNc1nc(Nc2ccc(C(C)=O)cc2)c2cnn(C)c2n1
REMARK SMILES IDX 5 1 6 2 7 3 18 4 19 5 20 6 21 7 22 8 23 9 24 10 4 11 3 13
REMARK SMILES IDX 2 14 1 15 8 16 9 18 10 19 17 20 11 21 16 22 12 23 13 24
REMARK SMILES IDX 14 25 15 26
REMARK H PARENT 4 12 8 17
ROOT
ATOM      1  C   UNL     1      -0.190  44.194  54.457  1.00  0.00     0.226 A 
ATOM      2  N   UNL     1       1.150  44.217  54.588  1.00  0.00    -0.195 NA
ATOM      3  C   UNL     1       1.744  44.883  55.612  1.00  0.00     0.147 A 
ATOM      4  C   UNL     1       0.893  45.526  56.520  1.00  0.00     0.082 A 
ATOM      5  C   UNL     1       0.995  46.304  57.693  1.00  0.00     0.149 A 
ATOM      6  N   UNL     1      -0.194  46.679  58.176  1.00  0.00    -0.179 NA
ATOM      7  N   UNL     1      -1.069  46.140  57.295  1.00  0.00    -0.250 N 
ATOM      8  C   UNL     1      -2.483  46.345  57.485  1.00  0.00     0.176 C 
ATOM      9  C   UNL     1      -0.465  45.435  56.289  1.00  0.00     0.165 A 
ATOM     10  N   UNL     1      -1.064  44.784  55.281  1.00  0.00    -0.193 NA
ENDROOT
BRANCH   1  11
ATOM     11  N   UNL     1      -0.765  43.506  53.392  1.00  0.00    -0.354 N 
ATOM     12  H   UNL     1      -1.638  43.132  53.750  1.00  0.00     0.163 HD
BRANCH  11  13
ATOM     13  C   UNL     1       0.115  42.535  52.764  1.00  0.00     0.116 C 
BRANCH  13  14
ATOM     14  C   UNL     1       0.459  43.013  51.352  1.00  0.00     0.018 C 
ATOM     15  C   UNL     1       1.927  42.785  51.030  1.00  0.00     0.006 C 
ENDBRANCH  13  14
ENDBRANCH  11  13
ENDBRANCH   1  11
BRANCH   3  16
ATOM     16  N   UNL     1       3.137  44.900  55.775  1.00  0.00    -0.339 N 
ATOM     17  H   UNL     1       3.451  44.507  56.651  1.00  0.00     0.168 HD
BRANCH  16  18
ATOM     18  C   UNL     1       4.170  45.433  54.986  1.00  0.00     0.040 A 
ATOM     19  C   UNL     1       5.395  44.794  54.771  1.00  0.00     0.027 A 
ATOM     20  C   UNL     1       3.992  46.703  54.415  1.00  0.00     0.027 A 
ATOM     21  C   UNL     1       6.406  45.386  54.000  1.00  0.00     0.014 A 
ATOM     22  C   UNL     1       4.995  47.303  53.644  1.00  0.00     0.014 A 
ATOM     23  C   UNL     1       6.210  46.647  53.431  1.00  0.00     0.017 A 
BRANCH  23  24
ATOM     24  C   UNL     1       7.253  47.323  52.604  1.00  0.00     0.159 C 
ATOM     25  C   UNL     1       7.876  46.570  51.458  1.00  0.00     0.093 C 
ATOM     26  O   UNL     1       7.588  48.477  52.864  1.00  0.00    -0.295 OA
ENDBRANCH  23  24
ENDBRANCH  16  18
ENDBRANCH   3  16
TORSDOF 6
ENDMDL
MODEL 14
REMARK VINA RESULT:    -7.597      3.280      7.022
REMARK INTER + INTRA:         -11.036
REMARK INTER:                 -10.250
REMARK INTRA:                  -0.786
REMARK UNBOUND:                -0.775
REMARK SMILES CCCNc1nc(Nc2ccc(C(C)=O)cc2)c2cnn(C)c2n1
REMARK SMILES IDX 5 1 6 2 7 3 18 4 19 5 20 6 21 7 22 8 23 9 24 10 4 11 3 13
REMARK SMILES IDX 2 14 1 15 8 16 9 18 10 19 17 20 11 21 16 22 12 23 13 24
REMARK SMILES IDX 14 25 15 26
REMARK H PARENT 4 12 8 17
ROOT
ATOM      1  C   UNL     1       7.264  45.674  50.819  1.00  0.00     0.226 A 
ATOM      2  N   UNL     1       5.940  45.719  51.061  1.00  0.00    -0.195 NA
ATOM      3  C   UNL     1       5.460  46.157  52.254  1.00  0.00     0.147 A 
ATOM      4  C   UNL     1       6.407  46.565  53.201  1.00  0.00     0.082 A 
ATOM      5  C   UNL     1       6.433  47.078  54.516  1.00  0.00     0.149 A 
ATOM      6  N   UNL     1       7.673  47.303  54.964  1.00  0.00    -0.179 NA
ATOM      7  N   UNL     1       8.451  46.920  53.925  1.00  0.00    -0.250 N 
ATOM      8  C   UNL     1       9.885  47.010  54.042  1.00  0.00     0.176 C 
ATOM      9  C   UNL     1       7.738  46.477  52.844  1.00  0.00     0.165 A 
ATOM     10  N   UNL     1       8.226  46.043  51.672  1.00  0.00    -0.193 NA
ENDROOT
BRANCH   1  11
ATOM     11  N   UNL     1       7.722  45.214  49.586  1.00  0.00    -0.354 N 
ATOM     12  H   UNL     1       7.029  45.517  48.910  1.00  0.00     0.163 HD
BRANCH  11  13
ATOM     13  C   UNL     1       8.040  43.797  49.559  1.00  0.00     0.116 C 
BRANCH  13  14
ATOM     14  C   UNL     1       6.851  43.029  48.981  1.00  0.00     0.018 C 
ATOM     15  C   UNL     1       6.185  42.158  50.035  1.00  0.00     0.006 C 
ENDBRANCH  13  14
ENDBRANCH  11  13
ENDBRANCH   1  11
BRANCH   3  16
ATOM     16  N   UNL     1       4.084  46.230  52.517  1.00  0.00    -0.339 N 
ATOM     17  H   UNL     1       3.753  47.165  52.707  1.00  0.00     0.168 HD
BRANCH  16  18
ATOM     18  C   UNL     1       3.096  45.238  52.643  1.00  0.00     0.040 A 
ATOM     19  C   UNL     1       3.357  43.866  52.577  1.00  0.00     0.027 A 
ATOM     20  C   UNL     1       1.759  45.639  52.793  1.00  0.00     0.027 A 
ATOM     21  C   UNL     1       2.327  42.918  52.676  1.00  0.00     0.014 A 
ATOM     22  C   UNL     1       0.724  44.700  52.892  1.00  0.00     0.014 A 
ATOM     23  C   UNL     1       1.003  43.333  52.834  1.00  0.00     0.017 A 
BRANCH  23  24
ATOM     24  C   UNL     1      -0.130  42.367  52.943  1.00  0.00     0.159 C 
ATOM     25  C   UNL     1      -1.277  42.474  51.973  1.00  0.00     0.093 C 
ATOM     26  O   UNL     1      -0.114  41.500  53.816  1.00  0.00    -0.295 OA
ENDBRANCH  23  24
ENDBRANCH  16  18
ENDBRANCH   3  16
TORSDOF 6
ENDMDL
MODEL 15
REMARK VINA RESULT:    -7.587      3.291      7.299
REMARK INTER + INTRA:         -11.023
REMARK INTER:                 -10.341
REMARK INTRA:                  -0.683
REMARK UNBOUND:                -0.775
REMARK SMILES CCCNc1nc(Nc2ccc(C(C)=O)cc2)c2cnn(C)c2n1
REMARK SMILES IDX 5 1 6 2 7 3 18 4 19 5 20 6 21 7 22 8 23 9 24 10 4 11 3 13
REMARK SMILES IDX 2 14 1 15 8 16 9 18 10 19 17 20 11 21 16 22 12 23 13 24
REMARK SMILES IDX 14 25 15 26
REMARK H PARENT 4 12 8 17
ROOT
ATOM      1  C   UNL     1       6.812  46.159  52.075  1.00  0.00     0.226 A 
ATOM      2  N   UNL     1       5.739  45.722  52.761  1.00  0.00    -0.195 NA
ATOM      3  C   UNL     1       5.088  44.587  52.395  1.00  0.00     0.147 A 
ATOM      4  C   UNL     1       5.596  43.901  51.285  1.00  0.00     0.082 A 
ATOM      5  C   UNL     1       5.309  42.736  50.542  1.00  0.00     0.149 A 
ATOM      6  N   UNL     1       6.157  42.542  49.526  1.00  0.00    -0.179 NA
ATOM      7  N   UNL     1       6.994  43.603  49.617  1.00  0.00    -0.250 N 
ATOM      8  C   UNL     1       8.062  43.746  48.660  1.00  0.00     0.176 C 
ATOM      9  C   UNL     1       6.702  44.441  50.658  1.00  0.00     0.165 A 
ATOM     10  N   UNL     1       7.352  45.561  51.006  1.00  0.00    -0.193 NA
ENDROOT
BRANCH   1  11
ATOM     11  N   UNL     1       7.453  47.329  52.474  1.00  0.00    -0.354 N 
ATOM     12  H   UNL     1       6.825  48.084  52.219  1.00  0.00     0.163 HD
BRANCH  11  13
ATOM     13  C   UNL     1       8.814  47.461  51.983  1.00  0.00     0.116 C 
BRANCH  13  14
ATOM     14  C   UNL     1       9.784  46.975  53.061  1.00  0.00     0.018 C 
ATOM     15  C   UNL     1       9.490  47.618  54.407  1.00  0.00     0.006 C 
ENDBRANCH  13  14
ENDBRANCH  11  13
ENDBRANCH   1  11
BRANCH   3  16
ATOM     16  N   UNL     1       3.981  44.105  53.110  1.00  0.00    -0.339 N 
ATOM     17  H   UNL     1       4.209  43.378  53.773  1.00  0.00     0.168 HD
BRANCH  16  18
ATOM     18  C   UNL     1       2.608  44.389  53.022  1.00  0.00     0.040 A 
ATOM     19  C   UNL     1       1.771  44.542  54.132  1.00  0.00     0.027 A 
ATOM     20  C   UNL     1       2.021  44.475  51.750  1.00  0.00     0.027 A 
ATOM     21  C   UNL     1       0.398  44.792  53.987  1.00  0.00     0.014 A 
ATOM     22  C   UNL     1       0.652  44.724  51.594  1.00  0.00     0.014 A 
ATOM     23  C   UNL     1      -0.169  44.884  52.713  1.00  0.00     0.017 A 
BRANCH  23  24
ATOM     24  C   UNL     1      -1.623  45.147  52.502  1.00  0.00     0.159 C 
ATOM     25  C   UNL     1      -2.632  44.295  53.228  1.00  0.00     0.093 C 
ATOM     26  O   UNL     1      -1.979  46.049  51.746  1.00  0.00    -0.295 OA
ENDBRANCH  23  24
ENDBRANCH  16  18
ENDBRANCH   3  16
TORSDOF 6
ENDMDL
MODEL 16
REMARK VINA RESULT:    -7.566      3.416      6.573
REMARK INTER + INTRA:         -10.995
REMARK INTER:                 -10.175
REMARK INTRA:                  -0.820
REMARK UNBOUND:                -0.775
REMARK SMILES CCCNc1nc(Nc2ccc(C(C)=O)cc2)c2cnn(C)c2n1
REMARK SMILES IDX 5 1 6 2 7 3 18 4 19 5 20 6 21 7 22 8 23 9 24 10 4 11 3 13
REMARK SMILES IDX 2 14 1 15 8 16 9 18 10 19 17 20 11 21 16 22 12 23 13 24
REMARK SMILES IDX 14 25 15 26
REMARK H PARENT 4 12 8 17
ROOT
ATOM      1  C   UNL     1       6.636  44.425  50.181  1.00  0.00     0.226 A 
ATOM      2  N   UNL     1       5.480  44.953  50.624  1.00  0.00    -0.195 NA
ATOM      3  C   UNL     1       5.473  46.007  51.481  1.00  0.00     0.147 A 
ATOM      4  C   UNL     1       6.721  46.515  51.862  1.00  0.00     0.082 A 
ATOM      5  C   UNL     1       7.237  47.545  52.678  1.00  0.00     0.149 A 
ATOM      6  N   UNL     1       8.574  47.585  52.683  1.00  0.00    -0.179 NA
ATOM      7  N   UNL     1       8.917  46.563  51.865  1.00  0.00    -0.250 N 
ATOM      8  C   UNL     1      10.311  46.283  51.628  1.00  0.00     0.176 C 
ATOM      9  C   UNL     1       7.841  45.896  51.344  1.00  0.00     0.165 A 
ATOM     10  N   UNL     1       7.863  44.853  50.502  1.00  0.00    -0.193 NA
ENDROOT
BRANCH   1  11
ATOM     11  N   UNL     1       6.607  43.341  49.307  1.00  0.00    -0.354 N 
ATOM     12  H   UNL     1       5.834  43.522  48.676  1.00  0.00     0.163 HD
BRANCH  11  13
ATOM     13  C   UNL     1       6.582  42.045  49.965  1.00  0.00     0.116 C 
BRANCH  13  14
ATOM     14  C   UNL     1       5.241  41.367  49.683  1.00  0.00     0.018 C 
ATOM     15  C   UNL     1       4.304  41.466  50.875  1.00  0.00     0.006 C 
ENDBRANCH  13  14
ENDBRANCH  11  13
ENDBRANCH   1  11
BRANCH   3  16
ATOM     16  N   UNL     1       4.277  46.583  51.937  1.00  0.00    -0.339 N 
ATOM     17  H   UNL     1       4.039  47.449  51.475  1.00  0.00     0.168 HD
BRANCH  16  18
ATOM     18  C   UNL     1       3.392  46.222  52.967  1.00  0.00     0.040 A 
ATOM     19  C   UNL     1       3.783  46.023  54.295  1.00  0.00     0.027 A 
ATOM     20  C   UNL     1       2.045  45.997  52.646  1.00  0.00     0.027 A 
ATOM     21  C   UNL     1       2.863  45.631  55.280  1.00  0.00     0.014 A 
ATOM     22  C   UNL     1       1.119  45.605  53.621  1.00  0.00     0.014 A 
ATOM     23  C   UNL     1       1.523  45.420  54.945  1.00  0.00     0.017 A 
BRANCH  23  24
ATOM     24  C   UNL     1       0.504  45.001  55.953  1.00  0.00     0.159 C 
ATOM     25  C   UNL     1      -0.827  44.486  55.473  1.00  0.00     0.093 C 
ATOM     26  O   UNL     1       0.761  45.080  57.153  1.00  0.00    -0.295 OA
ENDBRANCH  23  24
ENDBRANCH  16  18
ENDBRANCH   3  16
TORSDOF 6
ENDMDL
MODEL 17
REMARK VINA RESULT:    -7.558      2.889      3.531
REMARK INTER + INTRA:         -10.984
REMARK INTER:                 -10.181
REMARK INTRA:                  -0.803
REMARK UNBOUND:                -0.775
REMARK SMILES CCCNc1nc(Nc2ccc(C(C)=O)cc2)c2cnn(C)c2n1
REMARK SMILES IDX 5 1 6 2 7 3 18 4 19 5 20 6 21 7 22 8 23 9 24 10 4 11 3 13
REMARK SMILES IDX 2 14 1 15 8 16 9 18 10 19 17 20 11 21 16 22 12 23 13 24
REMARK SMILES IDX 14 25 15 26
REMARK H PARENT 4 12 8 17
ROOT
ATOM      1  C   UNL     1       1.139  43.705  53.919  1.00  0.00     0.226 A 
ATOM      2  N   UNL     1       2.256  44.402  54.203  1.00  0.00    -0.195 NA
ATOM      3  C   UNL     1       2.309  45.233  55.277  1.00  0.00     0.147 A 
ATOM      4  C   UNL     1       1.157  45.314  56.067  1.00  0.00     0.082 A 
ATOM      5  C   UNL     1       0.718  45.984  57.229  1.00  0.00     0.149 A 
ATOM      6  N   UNL     1      -0.541  45.680  57.564  1.00  0.00    -0.179 NA
ATOM      7  N   UNL     1      -0.915  44.808  56.597  1.00  0.00    -0.250 N 
ATOM      8  C   UNL     1      -2.245  44.256  56.618  1.00  0.00     0.176 C 
ATOM      9  C   UNL     1       0.070  44.553  55.682  1.00  0.00     0.165 A 
ATOM     10  N   UNL     1       0.003  43.732  54.624  1.00  0.00    -0.193 NA
ENDROOT
BRANCH   1  11
ATOM     11  N   UNL     1       1.117  42.866  52.808  1.00  0.00    -0.354 N 
ATOM     12  H   UNL     1       1.370  41.948  53.156  1.00  0.00     0.163 HD
BRANCH  11  13
ATOM     13  C   UNL     1       1.905  43.343  51.684  1.00  0.00     0.116 C 
BRANCH  13  14
ATOM     14  C   UNL     1       3.177  42.501  51.571  1.00  0.00     0.018 C 
ATOM     15  C   UNL     1       4.425  43.367  51.621  1.00  0.00     0.006 C 
ENDBRANCH  13  14
ENDBRANCH  11  13
ENDBRANCH   1  11
BRANCH   3  16
ATOM     16  N   UNL     1       3.471  45.952  55.599  1.00  0.00    -0.339 N 
ATOM     17  H   UNL     1       3.438  46.394  56.507  1.00  0.00     0.168 HD
BRANCH  16  18
ATOM     18  C   UNL     1       4.635  46.236  54.866  1.00  0.00     0.040 A 
ATOM     19  C   UNL     1       4.733  47.269  53.928  1.00  0.00     0.027 A 
ATOM     20  C   UNL     1       5.757  45.411  55.042  1.00  0.00     0.027 A 
ATOM     21  C   UNL     1       5.911  47.489  53.199  1.00  0.00     0.014 A 
ATOM     22  C   UNL     1       6.937  45.622  54.319  1.00  0.00     0.014 A 
ATOM     23  C   UNL     1       7.022  46.663  53.392  1.00  0.00     0.017 A 
BRANCH  23  24
ATOM     24  C   UNL     1       8.298  46.852  52.642  1.00  0.00     0.159 C 
ATOM     25  C   UNL     1       9.566  47.115  53.412  1.00  0.00     0.093 C 
ATOM     26  O   UNL     1       8.301  46.792  51.413  1.00  0.00    -0.295 OA
ENDBRANCH  23  24
ENDBRANCH  16  18
ENDBRANCH   3  16
TORSDOF 6
ENDMDL
MODEL 18
REMARK VINA RESULT:    -7.531      3.609      5.630
REMARK INTER + INTRA:         -10.947
REMARK INTER:                 -10.383
REMARK INTRA:                  -0.564
REMARK UNBOUND:                -0.775
REMARK SMILES CCCNc1nc(Nc2ccc(C(C)=O)cc2)c2cnn(C)c2n1
REMARK SMILES IDX 5 1 6 2 7 3 18 4 19 5 20 6 21 7 22 8 23 9 24 10 4 11 3 13
REMARK SMILES IDX 2 14 1 15 8 16 9 18 10 19 17 20 11 21 16 22 12 23 13 24
REMARK SMILES IDX 14 25 15 26
REMARK H PARENT 4 12 8 17
ROOT
ATOM      1  C   UNL     1       1.453  45.614  56.468  1.00  0.00     0.226 A 
ATOM      2  N   UNL     1       2.551  45.341  55.739  1.00  0.00    -0.195 NA
ATOM      3  C   UNL     1       2.472  44.605  54.600  1.00  0.00     0.147 A 
ATOM      4  C   UNL     1       1.197  44.161  54.226  1.00  0.00     0.082 A 
ATOM      5  C   UNL     1       0.602  43.413  53.188  1.00  0.00     0.149 A 
ATOM      6  N   UNL     1      -0.721  43.284  53.330  1.00  0.00    -0.179 NA
ATOM      7  N   UNL     1      -0.975  43.954  54.479  1.00  0.00    -0.250 N 
ATOM      8  C   UNL     1      -2.327  44.026  54.972  1.00  0.00     0.176 C 
ATOM      9  C   UNL     1       0.142  44.502  55.049  1.00  0.00     0.165 A 
ATOM     10  N   UNL     1       0.206  45.224  56.176  1.00  0.00    -0.193 NA
ENDROOT
BRANCH   1  11
ATOM     11  N   UNL     1       1.571  46.368  57.633  1.00  0.00    -0.354 N 
ATOM     12  H   UNL     1       2.116  45.798  58.271  1.00  0.00     0.163 HD
BRANCH  11  13
ATOM     13  C   UNL     1       0.307  46.854  58.160  1.00  0.00     0.116 C 
BRANCH  13  14
ATOM     14  C   UNL     1       0.567  47.615  59.461  1.00  0.00     0.018 C 
ATOM     15  C   UNL     1      -0.612  48.498  59.835  1.00  0.00     0.006 C 
ENDBRANCH  13  14
ENDBRANCH  11  13
ENDBRANCH   1  11
BRANCH   3  16
ATOM     16  N   UNL     1       3.603  44.328  53.817  1.00  0.00    -0.339 N 
ATOM     17  H   UNL     1       3.618  43.391  53.440  1.00  0.00     0.168 HD
BRANCH  16  18
ATOM     18  C   UNL     1       4.753  45.080  53.526  1.00  0.00     0.040 A 
ATOM     19  C   UNL     1       5.790  45.301  54.438  1.00  0.00     0.027 A 
ATOM     20  C   UNL     1       4.854  45.692  52.267  1.00  0.00     0.027 A 
ATOM     21  C   UNL     1       6.903  46.089  54.106  1.00  0.00     0.014 A 
ATOM     22  C   UNL     1       5.960  46.480  51.927  1.00  0.00     0.014 A 
ATOM     23  C   UNL     1       6.992  46.683  52.845  1.00  0.00     0.017 A 
BRANCH  23  24
ATOM     24  C   UNL     1       8.153  47.532  52.442  1.00  0.00     0.159 C 
ATOM     25  C   UNL     1       9.482  46.874  52.180  1.00  0.00     0.093 C 
ATOM     26  O   UNL     1       8.012  48.748  52.328  1.00  0.00    -0.295 OA
ENDBRANCH  23  24
ENDBRANCH  16  18
ENDBRANCH   3  16
TORSDOF 6
ENDMDL
MODEL 19
REMARK VINA RESULT:    -7.375      2.141      4.126
REMARK INTER + INTRA:         -10.737
REMARK INTER:                  -9.961
REMARK INTRA:                  -0.776
REMARK UNBOUND:                -0.775
REMARK SMILES CCCNc1nc(Nc2ccc(C(C)=O)cc2)c2cnn(C)c2n1
REMARK SMILES IDX 5 1 6 2 7 3 18 4 19 5 20 6 21 7 22 8 23 9 24 10 4 11 3 13
REMARK SMILES IDX 2 14 1 15 8 16 9 18 10 19 17 20 11 21 16 22 12 23 13 24
REMARK SMILES IDX 14 25 15 26
REMARK H PARENT 4 12 8 17
ROOT
ATOM      1  C   UNL     1       0.501  44.124  52.014  1.00  0.00     0.226 A 
ATOM      2  N   UNL     1       1.833  43.950  52.098  1.00  0.00    -0.195 NA
ATOM      3  C   UNL     1       2.494  44.158  53.267  1.00  0.00     0.147 A 
ATOM      4  C   UNL     1       1.720  44.545  54.367  1.00  0.00     0.082 A 
ATOM      5  C   UNL     1       1.905  44.861  55.730  1.00  0.00     0.149 A 
ATOM      6  N   UNL     1       0.765  45.182  56.352  1.00  0.00    -0.179 NA
ATOM      7  N   UNL     1      -0.161  45.076  55.370  1.00  0.00    -0.250 N 
ATOM      8  C   UNL     1      -1.542  45.362  55.666  1.00  0.00     0.176 C 
ATOM      9  C   UNL     1       0.362  44.691  54.166  1.00  0.00     0.165 A 
ATOM     10  N   UNL     1      -0.303  44.494  53.018  1.00  0.00    -0.193 NA
ENDROOT
BRANCH   1  11
ATOM     11  N   UNL     1      -0.145  43.908  50.799  1.00  0.00    -0.354 N 
ATOM     12  H   UNL     1       0.412  44.396  50.105  1.00  0.00     0.163 HD
BRANCH  11  13
ATOM     13  C   UNL     1      -1.559  44.242  50.807  1.00  0.00     0.116 C 
BRANCH  13  14
ATOM     14  C   UNL     1      -2.350  43.082  50.202  1.00  0.00     0.018 C 
ATOM     15  C   UNL     1      -2.654  42.013  51.240  1.00  0.00     0.006 C 
ENDBRANCH  13  14
ENDBRANCH  11  13
ENDBRANCH   1  11
BRANCH   3  16
ATOM     16  N   UNL     1       3.879  43.962  53.379  1.00  0.00    -0.339 N 
ATOM     17  H   UNL     1       4.140  43.012  53.604  1.00  0.00     0.168 HD
BRANCH  16  18
ATOM     18  C   UNL     1       4.964  44.853  53.314  1.00  0.00     0.040 A 
ATOM     19  C   UNL     1       5.565  45.431  54.437  1.00  0.00     0.027 A 
ATOM     20  C   UNL     1       5.447  45.231  52.052  1.00  0.00     0.027 A 
ATOM     21  C   UNL     1       6.626  46.341  54.314  1.00  0.00     0.014 A 
ATOM     22  C   UNL     1       6.504  46.139  51.919  1.00  0.00     0.014 A 
ATOM     23  C   UNL     1       7.101  46.700  53.050  1.00  0.00     0.017 A 
BRANCH  23  24
ATOM     24  C   UNL     1       8.225  47.665  52.863  1.00  0.00     0.159 C 
ATOM     25  C   UNL     1       9.622  47.239  53.230  1.00  0.00     0.093 C 
ATOM     26  O   UNL     1       8.000  48.788  52.415  1.00  0.00    -0.295 OA
ENDBRANCH  23  24
ENDBRANCH  16  18
ENDBRANCH   3  16
TORSDOF 6
ENDMDL
