MODEL 1
REMARK VINA RESULT:    -8.667      0.000      0.000
REMARK INTER + INTRA:         -13.066
REMARK INTER:                 -11.707
REMARK INTRA:                  -1.359
REMARK UNBOUND:                -1.359
REMARK SMILES CC(C)CCNc1nc(Nc2ccc(F)c(F)c2)c2cnn(C)c2n1
REMARK SMILES IDX 6 1 5 3 4 4 2 5 1 6 3 7 7 8 8 9 25 10 9 11 24 12 19 13 22 14
REMARK SMILES IDX 20 15 21 16 23 17 10 18 11 20 12 21 18 22 13 23 16 24 14 25
REMARK SMILES IDX 17 26 15 27
REMARK H PARENT 6 2 10 19
ROOT
ATOM      1  N   UNL     1       2.478  45.712  51.633  1.00  0.00    -0.354 N 
ATOM      2  H   UNL     1       1.768  44.989  51.637  1.00  0.00     0.163 HD
ENDROOT
BRANCH   1   3
ATOM      3  C   UNL     1       2.588  46.520  52.835  1.00  0.00     0.116 C 
BRANCH   3   4
ATOM      4  C   UNL     1       2.765  45.626  54.069  1.00  0.00     0.024 C 
BRANCH   4   5
ATOM      5  C   UNL     1       3.995  45.966  54.938  1.00  0.00    -0.016 C 
ATOM      6  C   UNL     1       5.079  44.905  54.731  1.00  0.00     0.007 C 
ATOM      7  C   UNL     1       4.573  47.353  54.657  1.00  0.00     0.007 C 
ENDBRANCH   4   5
ENDBRANCH   3   4
ENDBRANCH   1   3
BRANCH   1   8
ATOM      8  C   UNL     1       3.655  45.092  51.233  1.00  0.00     0.226 A 
ATOM      9  N   UNL     1       4.791  45.812  51.143  1.00  0.00    -0.195 NA
ATOM     10  N   UNL     1       3.536  43.785  50.969  1.00  0.00    -0.193 NA
ATOM     11  C   UNL     1       5.948  45.218  50.762  1.00  0.00     0.147 A 
ATOM     12  C   UNL     1       4.686  43.230  50.557  1.00  0.00     0.165 A 
ATOM     13  C   UNL     1       5.904  43.865  50.425  1.00  0.00     0.082 A 
ATOM     14  N   UNL     1       4.892  41.933  50.173  1.00  0.00    -0.250 N 
ATOM     15  C   UNL     1       6.768  42.867  49.928  1.00  0.00     0.149 A 
ATOM     16  N   UNL     1       6.166  41.679  49.791  1.00  0.00    -0.179 NA
ATOM     17  C   UNL     1       3.916  40.874  50.130  1.00  0.00     0.176 C 
BRANCH  11  18
ATOM     18  N   UNL     1       7.079  46.042  50.677  1.00  0.00    -0.339 N 
ATOM     19  H   UNL     1       6.823  46.857  50.125  1.00  0.00     0.168 HD
BRANCH  18  20
ATOM     20  C   UNL     1       8.035  46.355  51.664  1.00  0.00     0.043 A 
ATOM     21  C   UNL     1       9.410  46.126  51.506  1.00  0.00     0.029 A 
ATOM     22  C   UNL     1       7.585  46.922  52.866  1.00  0.00     0.068 A 
ATOM     23  C   UNL     1      10.315  46.466  52.518  1.00  0.00     0.044 A 
ATOM     24  C   UNL     1       8.489  47.258  53.869  1.00  0.00     0.160 A 
ATOM     25  C   UNL     1       9.848  47.032  53.696  1.00  0.00     0.158 A 
ATOM     26  F   UNL     1       8.035  47.802  55.007  1.00  0.00    -0.204 F 
ATOM     27  F   UNL     1      10.716  47.353  54.664  1.00  0.00    -0.204 F 
ENDBRANCH  18  20
ENDBRANCH  11  18
ENDBRANCH   1   8
TORSDOF 6
ENDMDL
MODEL 2
REMARK VINA RESULT:    -8.507      2.155      4.887
REMARK INTER + INTRA:         -12.850
REMARK INTER:                 -12.171
REMARK INTRA:                  -0.679
REMARK UNBOUND:                -1.359
REMARK SMILES CC(C)CCNc1nc(Nc2ccc(F)c(F)c2)c2cnn(C)c2n1
REMARK SMILES IDX 6 1 5 3 4 4 2 5 1 6 3 7 7 8 8 9 25 10 9 11 24 12 19 13 22 14
REMARK SMILES IDX 20 15 21 16 23 17 10 18 11 20 12 21 18 22 13 23 16 24 14 25
REMARK SMILES IDX 17 26 15 27
REMARK H PARENT 6 2 10 19
ROOT
ATOM      1  N   UNL     1       6.095  41.438  49.359  1.00  0.00    -0.354 N 
ATOM      2  H   UNL     1       6.198  40.670  50.011  1.00  0.00     0.163 HD
ENDROOT
BRANCH   1   3
ATOM      3  C   UNL     1       5.270  41.190  48.189  1.00  0.00     0.116 C 
BRANCH   3   4
ATOM      4  C   UNL     1       5.812  41.958  46.976  1.00  0.00     0.024 C 
BRANCH   4   5
ATOM      5  C   UNL     1       5.251  41.490  45.616  1.00  0.00    -0.016 C 
ATOM      6  C   UNL     1       3.883  40.833  45.823  1.00  0.00     0.007 C 
ATOM      7  C   UNL     1       5.132  42.614  44.588  1.00  0.00     0.007 C 
ENDBRANCH   4   5
ENDBRANCH   3   4
ENDBRANCH   1   3
BRANCH   1   8
ATOM      8  C   UNL     1       5.718  42.539  50.118  1.00  0.00     0.226 A 
ATOM      9  N   UNL     1       6.495  43.640  50.128  1.00  0.00    -0.195 NA
ATOM     10  N   UNL     1       4.569  42.388  50.790  1.00  0.00    -0.193 NA
ATOM     11  C   UNL     1       6.136  44.724  50.859  1.00  0.00     0.147 A 
ATOM     12  C   UNL     1       4.257  43.459  51.535  1.00  0.00     0.165 A 
ATOM     13  C   UNL     1       4.973  44.635  51.625  1.00  0.00     0.082 A 
ATOM     14  N   UNL     1       3.178  43.609  52.363  1.00  0.00    -0.250 N 
ATOM     15  C   UNL     1       4.255  45.413  52.556  1.00  0.00     0.149 A 
ATOM     16  N   UNL     1       3.147  44.805  52.997  1.00  0.00    -0.179 NA
ATOM     17  C   UNL     1       2.136  42.646  52.617  1.00  0.00     0.176 C 
BRANCH  11  18
ATOM     18  N   UNL     1       7.009  45.820  50.827  1.00  0.00    -0.339 N 
ATOM     19  H   UNL     1       6.493  46.611  50.449  1.00  0.00     0.168 HD
BRANCH  18  20
ATOM     20  C   UNL     1       7.972  46.225  51.772  1.00  0.00     0.043 A 
ATOM     21  C   UNL     1       9.353  46.066  51.583  1.00  0.00     0.029 A 
ATOM     22  C   UNL     1       7.525  46.816  52.963  1.00  0.00     0.068 A 
ATOM     23  C   UNL     1      10.265  46.496  52.553  1.00  0.00     0.044 A 
ATOM     24  C   UNL     1       8.436  47.241  53.926  1.00  0.00     0.160 A 
ATOM     25  C   UNL     1       9.799  47.084  53.721  1.00  0.00     0.158 A 
ATOM     26  F   UNL     1       7.983  47.806  55.054  1.00  0.00    -0.204 F 
ATOM     27  F   UNL     1      10.675  47.491  54.649  1.00  0.00    -0.204 F 
ENDBRANCH  18  20
ENDBRANCH  11  18
ENDBRANCH   1   8
TORSDOF 6
ENDMDL
MODEL 3
REMARK VINA RESULT:    -8.504      4.264      7.039
REMARK INTER + INTRA:         -12.846
REMARK INTER:                 -12.104
REMARK INTRA:                  -0.742
REMARK UNBOUND:                -1.359
REMARK SMILES CC(C)CCNc1nc(Nc2ccc(F)c(F)c2)c2cnn(C)c2n1
REMARK SMILES IDX 6 1 5 3 4 4 2 5 1 6 3 7 7 8 8 9 25 10 9 11 24 12 19 13 22 14
REMARK SMILES IDX 20 15 21 16 23 17 10 18 11 20 12 21 18 22 13 23 16 24 14 25
REMARK SMILES IDX 17 26 15 27
REMARK H PARENT 6 2 10 19
ROOT
ATOM      1  N   UNL     1       7.405  45.957  50.662  1.00  0.00    -0.354 N 
ATOM      2  H   UNL     1       7.351  46.304  49.712  1.00  0.00     0.163 HD
ENDROOT
BRANCH   1   3
ATOM      3  C   UNL     1       7.217  46.934  51.722  1.00  0.00     0.116 C 
BRANCH   3   4
ATOM      4  C   UNL     1       8.559  47.566  52.114  1.00  0.00     0.024 C 
BRANCH   4   5
ATOM      5  C   UNL     1       9.515  46.624  52.876  1.00  0.00    -0.016 C 
ATOM      6  C   UNL     1      10.644  46.175  51.943  1.00  0.00     0.007 C 
ATOM      7  C   UNL     1      10.109  47.249  54.137  1.00  0.00     0.007 C 
ENDBRANCH   4   5
ENDBRANCH   3   4
ENDBRANCH   1   3
BRANCH   1   8
ATOM      8  C   UNL     1       6.555  44.860  50.719  1.00  0.00     0.226 A 
ATOM      9  N   UNL     1       6.713  43.848  49.843  1.00  0.00    -0.195 NA
ATOM     10  N   UNL     1       5.627  44.921  51.683  1.00  0.00    -0.193 NA
ATOM     11  C   UNL     1       5.896  42.767  49.891  1.00  0.00     0.147 A 
ATOM     12  C   UNL     1       4.808  43.859  51.684  1.00  0.00     0.165 A 
ATOM     13  C   UNL     1       4.871  42.769  50.839  1.00  0.00     0.082 A 
ATOM     14  N   UNL     1       3.739  43.635  52.509  1.00  0.00    -0.250 N 
ATOM     15  C   UNL     1       3.778  41.965  51.221  1.00  0.00     0.149 A 
ATOM     16  N   UNL     1       3.094  42.473  52.253  1.00  0.00    -0.179 NA
ATOM     17  C   UNL     1       3.259  44.494  53.562  1.00  0.00     0.176 C 
BRANCH  11  18
ATOM     18  N   UNL     1       6.117  41.768  48.934  1.00  0.00    -0.339 N 
ATOM     19  H   UNL     1       6.446  40.941  49.426  1.00  0.00     0.168 HD
BRANCH  18  20
ATOM     20  C   UNL     1       5.357  41.436  47.795  1.00  0.00     0.043 A 
ATOM     21  C   UNL     1       4.210  40.630  47.842  1.00  0.00     0.029 A 
ATOM     22  C   UNL     1       5.771  41.937  46.552  1.00  0.00     0.068 A 
ATOM     23  C   UNL     1       3.488  40.339  46.678  1.00  0.00     0.044 A 
ATOM     24  C   UNL     1       5.050  41.645  45.398  1.00  0.00     0.160 A 
ATOM     25  C   UNL     1       3.914  40.852  45.461  1.00  0.00     0.158 A 
ATOM     26  F   UNL     1       5.465  42.140  44.223  1.00  0.00    -0.204 F 
ATOM     27  F   UNL     1       3.222  40.570  44.349  1.00  0.00    -0.204 F 
ENDBRANCH  18  20
ENDBRANCH  11  18
ENDBRANCH   1   8
TORSDOF 6
ENDMDL
MODEL 4
REMARK VINA RESULT:    -8.495      2.752      5.505
REMARK INTER + INTRA:         -12.834
REMARK INTER:                 -12.474
REMARK INTRA:                  -0.360
REMARK UNBOUND:                -1.359
REMARK SMILES CC(C)CCNc1nc(Nc2ccc(F)c(F)c2)c2cnn(C)c2n1
REMARK SMILES IDX 6 1 5 3 4 4 2 5 1 6 3 7 7 8 8 9 25 10 9 11 24 12 19 13 22 14
REMARK SMILES IDX 20 15 21 16 23 17 10 18 11 20 12 21 18 22 13 23 16 24 14 25
REMARK SMILES IDX 17 26 15 27
REMARK H PARENT 6 2 10 19
ROOT
ATOM      1  N   UNL     1       5.827  46.845  54.912  1.00  0.00    -0.354 N 
ATOM      2  H   UNL     1       5.722  46.998  55.907  1.00  0.00     0.163 HD
ENDROOT
BRANCH   1   3
ATOM      3  C   UNL     1       7.141  46.428  54.454  1.00  0.00     0.116 C 
BRANCH   3   4
ATOM      4  C   UNL     1       7.696  47.428  53.432  1.00  0.00     0.024 C 
BRANCH   4   5
ATOM      5  C   UNL     1       9.237  47.498  53.373  1.00  0.00    -0.016 C 
ATOM      6  C   UNL     1       9.805  47.507  54.795  1.00  0.00     0.007 C 
ATOM      7  C   UNL     1       9.867  46.357  52.576  1.00  0.00     0.007 C 
ENDBRANCH   4   5
ENDBRANCH   3   4
ENDBRANCH   1   3
BRANCH   1   8
ATOM      8  C   UNL     1       4.783  46.006  54.541  1.00  0.00     0.226 A 
ATOM      9  N   UNL     1       4.905  45.234  53.443  1.00  0.00    -0.195 NA
ATOM     10  N   UNL     1       3.717  46.049  55.351  1.00  0.00    -0.193 NA
ATOM     11  C   UNL     1       3.897  44.405  53.074  1.00  0.00     0.147 A 
ATOM     12  C   UNL     1       2.720  45.250  54.943  1.00  0.00     0.165 A 
ATOM     13  C   UNL     1       2.730  44.421  53.839  1.00  0.00     0.082 A 
ATOM     14  N   UNL     1       1.489  45.094  55.521  1.00  0.00    -0.250 N 
ATOM     15  C   UNL     1       1.447  43.835  53.828  1.00  0.00     0.149 A 
ATOM     16  N   UNL     1       0.690  44.223  54.862  1.00  0.00    -0.179 NA
ATOM     17  C   UNL     1       0.994  45.757  56.700  1.00  0.00     0.176 C 
BRANCH  11  18
ATOM     18  N   UNL     1       4.098  43.650  51.911  1.00  0.00    -0.339 N 
ATOM     19  H   UNL     1       3.219  43.637  51.400  1.00  0.00     0.168 HD
BRANCH  18  20
ATOM     20  C   UNL     1       5.210  43.617  51.046  1.00  0.00     0.043 A 
ATOM     21  C   UNL     1       5.561  42.493  50.285  1.00  0.00     0.029 A 
ATOM     22  C   UNL     1       6.004  44.769  50.943  1.00  0.00     0.068 A 
ATOM     23  C   UNL     1       6.673  42.520  49.434  1.00  0.00     0.044 A 
ATOM     24  C   UNL     1       7.108  44.791  50.096  1.00  0.00     0.160 A 
ATOM     25  C   UNL     1       7.440  43.673  49.344  1.00  0.00     0.158 A 
ATOM     26  F   UNL     1       7.849  45.905  50.013  1.00  0.00    -0.204 F 
ATOM     27  F   UNL     1       8.505  43.695  48.531  1.00  0.00    -0.204 F 
ENDBRANCH  18  20
ENDBRANCH  11  18
ENDBRANCH   1   8
TORSDOF 6
ENDMDL
MODEL 5
REMARK VINA RESULT:    -8.271      3.196      5.751
REMARK INTER + INTRA:         -12.531
REMARK INTER:                 -11.615
REMARK INTRA:                  -0.916
REMARK UNBOUND:                -1.359
REMARK SMILES CC(C)CCNc1nc(Nc2ccc(F)c(F)c2)c2cnn(C)c2n1
REMARK SMILES IDX 6 1 5 3 4 4 2 5 1 6 3 7 7 8 8 9 25 10 9 11 24 12 19 13 22 14
REMARK SMILES IDX 20 15 21 16 23 17 10 18 11 20 12 21 18 22 13 23 16 24 14 25
REMARK SMILES IDX 17 26 15 27
REMARK H PARENT 6 2 10 19
ROOT
ATOM      1  N   UNL     1       4.748  46.920  54.886  1.00  0.00    -0.354 N 
ATOM      2  H   UNL     1       4.131  47.539  54.374  1.00  0.00     0.163 HD
ENDROOT
BRANCH   1   3
ATOM      3  C   UNL     1       4.162  45.691  55.393  1.00  0.00     0.116 C 
BRANCH   3   4
ATOM      4  C   UNL     1       2.665  45.633  55.059  1.00  0.00     0.024 C 
BRANCH   4   5
ATOM      5  C   UNL     1       2.336  44.985  53.697  1.00  0.00    -0.016 C 
ATOM      6  C   UNL     1       1.199  43.974  53.871  1.00  0.00     0.007 C 
ATOM      7  C   UNL     1       1.962  45.998  52.616  1.00  0.00     0.007 C 
ENDBRANCH   4   5
ENDBRANCH   3   4
ENDBRANCH   1   3
BRANCH   1   8
ATOM      8  C   UNL     1       5.869  46.747  54.083  1.00  0.00     0.226 A 
ATOM      9  N   UNL     1       5.740  46.169  52.873  1.00  0.00    -0.195 NA
ATOM     10  N   UNL     1       7.013  47.196  54.616  1.00  0.00    -0.193 NA
ATOM     11  C   UNL     1       6.824  46.001  52.076  1.00  0.00     0.147 A 
ATOM     12  C   UNL     1       8.075  46.982  53.825  1.00  0.00     0.165 A 
ATOM     13  C   UNL     1       8.065  46.400  52.574  1.00  0.00     0.082 A 
ATOM     14  N   UNL     1       9.383  47.283  54.091  1.00  0.00    -0.250 N 
ATOM     15  C   UNL     1       9.421  46.373  52.188  1.00  0.00     0.149 A 
ATOM     16  N   UNL     1      10.231  46.929  53.097  1.00  0.00    -0.179 NA
ATOM     17  C   UNL     1       9.908  47.900  55.283  1.00  0.00     0.176 C 
BRANCH  11  18
ATOM     18  N   UNL     1       6.605  45.375  50.841  1.00  0.00    -0.339 N 
ATOM     19  H   UNL     1       7.427  45.540  50.265  1.00  0.00     0.168 HD
BRANCH  18  20
ATOM     20  C   UNL     1       6.008  44.130  50.561  1.00  0.00     0.043 A 
ATOM     21  C   UNL     1       6.555  43.195  49.670  1.00  0.00     0.029 A 
ATOM     22  C   UNL     1       4.804  43.812  51.208  1.00  0.00     0.068 A 
ATOM     23  C   UNL     1       5.922  41.969  49.437  1.00  0.00     0.044 A 
ATOM     24  C   UNL     1       4.178  42.591  50.972  1.00  0.00     0.160 A 
ATOM     25  C   UNL     1       4.735  41.674  50.093  1.00  0.00     0.158 A 
ATOM     26  F   UNL     1       3.031  42.310  51.605  1.00  0.00    -0.204 F 
ATOM     27  F   UNL     1       4.130  40.500  49.866  1.00  0.00    -0.204 F 
ENDBRANCH  18  20
ENDBRANCH  11  18
ENDBRANCH   1   8
TORSDOF 6
ENDMDL
MODEL 6
REMARK VINA RESULT:    -8.261      4.376      7.125
REMARK INTER + INTRA:         -12.518
REMARK INTER:                 -11.757
REMARK INTRA:                  -0.761
REMARK UNBOUND:                -1.359
REMARK SMILES CC(C)CCNc1nc(Nc2ccc(F)c(F)c2)c2cnn(C)c2n1
REMARK SMILES IDX 6 1 5 3 4 4 2 5 1 6 3 7 7 8 8 9 25 10 9 11 24 12 19 13 22 14
REMARK SMILES IDX 20 15 21 16 23 17 10 18 11 20 12 21 18 22 13 23 16 24 14 25
REMARK SMILES IDX 17 26 15 27
REMARK H PARENT 6 2 10 19
ROOT
ATOM      1  N   UNL     1       7.432  45.609  50.623  1.00  0.00    -0.354 N 
ATOM      2  H   UNL     1       7.516  45.830  49.638  1.00  0.00     0.163 HD
ENDROOT
BRANCH   1   3
ATOM      3  C   UNL     1       7.188  46.725  51.520  1.00  0.00     0.116 C 
BRANCH   3   4
ATOM      4  C   UNL     1       8.509  47.405  51.905  1.00  0.00     0.024 C 
BRANCH   4   5
ATOM      5  C   UNL     1       9.459  46.529  52.750  1.00  0.00    -0.016 C 
ATOM      6  C   UNL     1      10.652  46.093  51.893  1.00  0.00     0.007 C 
ATOM      7  C   UNL     1       9.961  47.223  54.015  1.00  0.00     0.007 C 
ENDBRANCH   4   5
ENDBRANCH   3   4
ENDBRANCH   1   3
BRANCH   1   8
ATOM      8  C   UNL     1       6.508  44.576  50.707  1.00  0.00     0.226 A 
ATOM      9  N   UNL     1       6.603  43.525  49.869  1.00  0.00    -0.195 NA
ATOM     10  N   UNL     1       5.577  44.735  51.657  1.00  0.00    -0.193 NA
ATOM     11  C   UNL     1       5.713  42.506  49.944  1.00  0.00     0.147 A 
ATOM     12  C   UNL     1       4.685  43.733  51.685  1.00  0.00     0.165 A 
ATOM     13  C   UNL     1       4.681  42.612  50.879  1.00  0.00     0.082 A 
ATOM     14  N   UNL     1       3.596  43.612  52.504  1.00  0.00    -0.250 N 
ATOM     15  C   UNL     1       3.531  41.899  51.275  1.00  0.00     0.149 A 
ATOM     16  N   UNL     1       2.874  42.489  52.281  1.00  0.00    -0.179 NA
ATOM     17  C   UNL     1       3.167  44.539  53.521  1.00  0.00     0.176 C 
BRANCH  11  18
ATOM     18  N   UNL     1       5.873  41.461  49.024  1.00  0.00    -0.339 N 
ATOM     19  H   UNL     1       5.949  40.596  49.555  1.00  0.00     0.168 HD
BRANCH  18  20
ATOM     20  C   UNL     1       5.246  41.260  47.779  1.00  0.00     0.043 A 
ATOM     21  C   UNL     1       5.711  41.825  46.582  1.00  0.00     0.029 A 
ATOM     22  C   UNL     1       4.098  40.456  47.737  1.00  0.00     0.068 A 
ATOM     23  C   UNL     1       5.052  41.584  45.370  1.00  0.00     0.044 A 
ATOM     24  C   UNL     1       3.446  40.219  46.530  1.00  0.00     0.160 A 
ATOM     25  C   UNL     1       3.921  40.779  45.352  1.00  0.00     0.158 A 
ATOM     26  F   UNL     1       2.352  39.444  46.515  1.00  0.00    -0.204 F 
ATOM     27  F   UNL     1       3.292  40.553  44.192  1.00  0.00    -0.204 F 
ENDBRANCH  18  20
ENDBRANCH  11  18
ENDBRANCH   1   8
TORSDOF 6
ENDMDL
MODEL 7
REMARK VINA RESULT:    -8.250      3.733      6.589
REMARK INTER + INTRA:         -12.503
REMARK INTER:                 -11.834
REMARK INTRA:                  -0.668
REMARK UNBOUND:                -1.359
REMARK SMILES CC(C)CCNc1nc(Nc2ccc(F)c(F)c2)c2cnn(C)c2n1
REMARK SMILES IDX 6 1 5 3 4 4 2 5 1 6 3 7 7 8 8 9 25 10 9 11 24 12 19 13 22 14
REMARK SMILES IDX 20 15 21 16 23 17 10 18 11 20 12 21 18 22 13 23 16 24 14 25
REMARK SMILES IDX 17 26 15 27
REMARK H PARENT 6 2 10 19
ROOT
ATOM      1  N   UNL     1       5.922  46.884  52.607  1.00  0.00    -0.354 N 
ATOM      2  H   UNL     1       5.077  47.159  53.093  1.00  0.00     0.163 HD
ENDROOT
BRANCH   1   3
ATOM      3  C   UNL     1       7.166  47.011  53.346  1.00  0.00     0.116 C 
BRANCH   3   4
ATOM      4  C   UNL     1       8.215  47.755  52.508  1.00  0.00     0.024 C 
BRANCH   4   5
ATOM      5  C   UNL     1       9.671  47.308  52.757  1.00  0.00    -0.016 C 
ATOM      6  C   UNL     1       9.885  47.065  54.254  1.00  0.00     0.007 C 
ATOM      7  C   UNL     1      10.066  46.058  51.972  1.00  0.00     0.007 C 
ENDBRANCH   4   5
ENDBRANCH   3   4
ENDBRANCH   1   3
BRANCH   1   8
ATOM      8  C   UNL     1       5.673  45.618  52.091  1.00  0.00     0.226 A 
ATOM      9  N   UNL     1       4.677  44.871  52.606  1.00  0.00    -0.195 NA
ATOM     10  N   UNL     1       6.483  45.255  51.088  1.00  0.00    -0.193 NA
ATOM     11  C   UNL     1       4.418  43.638  52.107  1.00  0.00     0.147 A 
ATOM     12  C   UNL     1       6.232  44.016  50.638  1.00  0.00     0.165 A 
ATOM     13  C   UNL     1       5.244  43.162  51.088  1.00  0.00     0.082 A 
ATOM     14  N   UNL     1       6.899  43.336  49.656  1.00  0.00    -0.250 N 
ATOM     15  C   UNL     1       5.424  41.987  50.330  1.00  0.00     0.149 A 
ATOM     16  N   UNL     1       6.418  42.090  49.439  1.00  0.00    -0.179 NA
ATOM     17  C   UNL     1       8.022  43.806  48.884  1.00  0.00     0.176 C 
BRANCH  11  18
ATOM     18  N   UNL     1       3.376  42.921  52.711  1.00  0.00    -0.339 N 
ATOM     19  H   UNL     1       3.611  42.810  53.694  1.00  0.00     0.168 HD
BRANCH  18  20
ATOM     20  C   UNL     1       1.985  43.024  52.512  1.00  0.00     0.043 A 
ATOM     21  C   UNL     1       1.394  43.130  51.244  1.00  0.00     0.029 A 
ATOM     22  C   UNL     1       1.152  43.021  53.640  1.00  0.00     0.068 A 
ATOM     23  C   UNL     1       0.004  43.220  51.105  1.00  0.00     0.044 A 
ATOM     24  C   UNL     1      -0.230  43.111  53.497  1.00  0.00     0.160 A 
ATOM     25  C   UNL     1      -0.801  43.209  52.236  1.00  0.00     0.158 A 
ATOM     26  F   UNL     1      -1.005  43.103  54.591  1.00  0.00    -0.204 F 
ATOM     27  F   UNL     1      -2.131  43.299  52.100  1.00  0.00    -0.204 F 
ENDBRANCH  18  20
ENDBRANCH  11  18
ENDBRANCH   1   8
TORSDOF 6
ENDMDL
MODEL 8
REMARK VINA RESULT:    -8.218      1.605      4.620
REMARK INTER + INTRA:         -12.459
REMARK INTER:                 -11.855
REMARK INTRA:                  -0.605
REMARK UNBOUND:                -1.359
REMARK SMILES CC(C)CCNc1nc(Nc2ccc(F)c(F)c2)c2cnn(C)c2n1
REMARK SMILES IDX 6 1 5 3 4 4 2 5 1 6 3 7 7 8 8 9 25 10 9 11 24 12 19 13 22 14
REMARK SMILES IDX 20 15 21 16 23 17 10 18 11 20 12 21 18 22 13 23 16 24 14 25
REMARK SMILES IDX 17 26 15 27
REMARK H PARENT 6 2 10 19
ROOT
ATOM      1  N   UNL     1       4.113  41.660  51.336  1.00  0.00    -0.354 N 
ATOM      2  H   UNL     1       3.434  41.250  51.966  1.00  0.00     0.163 HD
ENDROOT
BRANCH   1   3
ATOM      3  C   UNL     1       4.083  41.197  49.959  1.00  0.00     0.116 C 
BRANCH   3   4
ATOM      4  C   UNL     1       5.502  41.157  49.376  1.00  0.00     0.024 C 
BRANCH   4   5
ATOM      5  C   UNL     1       5.821  42.297  48.384  1.00  0.00    -0.016 C 
ATOM      6  C   UNL     1       7.177  42.917  48.735  1.00  0.00     0.007 C 
ATOM      7  C   UNL     1       5.823  41.849  46.923  1.00  0.00     0.007 C 
ENDBRANCH   4   5
ENDBRANCH   3   4
ENDBRANCH   1   3
BRANCH   1   8
ATOM      8  C   UNL     1       4.000  43.036  51.493  1.00  0.00     0.226 A 
ATOM      9  N   UNL     1       5.057  43.827  51.223  1.00  0.00    -0.195 NA
ATOM     10  N   UNL     1       2.799  43.454  51.913  1.00  0.00    -0.193 NA
ATOM     11  C   UNL     1       4.959  45.172  51.365  1.00  0.00     0.147 A 
ATOM     12  C   UNL     1       2.740  44.783  52.083  1.00  0.00     0.165 A 
ATOM     13  C   UNL     1       3.753  45.689  51.842  1.00  0.00     0.082 A 
ATOM     14  N   UNL     1       1.678  45.518  52.537  1.00  0.00    -0.250 N 
ATOM     15  C   UNL     1       3.206  46.935  52.210  1.00  0.00     0.149 A 
ATOM     16  N   UNL     1       1.933  46.844  52.616  1.00  0.00    -0.179 NA
ATOM     17  C   UNL     1       0.384  45.021  52.932  1.00  0.00     0.176 C 
BRANCH  11  18
ATOM     18  N   UNL     1       6.109  45.920  51.079  1.00  0.00    -0.339 N 
ATOM     19  H   UNL     1       5.836  46.674  50.453  1.00  0.00     0.168 HD
BRANCH  18  20
ATOM     20  C   UNL     1       7.164  46.300  51.931  1.00  0.00     0.043 A 
ATOM     21  C   UNL     1       6.968  46.788  53.231  1.00  0.00     0.029 A 
ATOM     22  C   UNL     1       8.478  46.185  51.452  1.00  0.00     0.068 A 
ATOM     23  C   UNL     1       8.055  47.143  54.038  1.00  0.00     0.044 A 
ATOM     24  C   UNL     1       9.556  46.540  52.258  1.00  0.00     0.160 A 
ATOM     25  C   UNL     1       9.346  47.014  53.545  1.00  0.00     0.158 A 
ATOM     26  F   UNL     1      10.802  46.417  51.778  1.00  0.00    -0.204 F 
ATOM     27  F   UNL     1      10.385  47.357  54.318  1.00  0.00    -0.204 F 
ENDBRANCH  18  20
ENDBRANCH  11  18
ENDBRANCH   1   8
TORSDOF 6
ENDMDL
MODEL 9
REMARK VINA RESULT:    -8.199      1.602      2.266
REMARK INTER + INTRA:         -12.434
REMARK INTER:                 -11.660
REMARK INTRA:                  -0.774
REMARK UNBOUND:                -1.359
REMARK SMILES CC(C)CCNc1nc(Nc2ccc(F)c(F)c2)c2cnn(C)c2n1
REMARK SMILES IDX 6 1 5 3 4 4 2 5 1 6 3 7 7 8 8 9 25 10 9 11 24 12 19 13 22 14
REMARK SMILES IDX 20 15 21 16 23 17 10 18 11 20 12 21 18 22 13 23 16 24 14 25
REMARK SMILES IDX 17 26 15 27
REMARK H PARENT 6 2 10 19
ROOT
ATOM      1  N   UNL     1       2.822  43.004  52.862  1.00  0.00    -0.354 N 
ATOM      2  H   UNL     1       3.177  42.577  53.709  1.00  0.00     0.163 HD
ENDROOT
BRANCH   1   3
ATOM      3  C   UNL     1       1.779  44.001  53.024  1.00  0.00     0.116 C 
BRANCH   3   4
ATOM      4  C   UNL     1       1.271  44.017  54.472  1.00  0.00     0.024 C 
BRANCH   4   5
ATOM      5  C   UNL     1       1.514  45.344  55.224  1.00  0.00    -0.016 C 
ATOM      6  C   UNL     1       0.796  45.306  56.576  1.00  0.00     0.007 C 
ATOM      7  C   UNL     1       2.993  45.662  55.435  1.00  0.00     0.007 C 
ENDBRANCH   4   5
ENDBRANCH   3   4
ENDBRANCH   1   3
BRANCH   1   8
ATOM      8  C   UNL     1       3.937  43.431  52.152  1.00  0.00     0.226 A 
ATOM      9  N   UNL     1       4.497  44.621  52.443  1.00  0.00    -0.195 NA
ATOM     10  N   UNL     1       4.361  42.578  51.211  1.00  0.00    -0.193 NA
ATOM     11  C   UNL     1       5.590  45.048  51.764  1.00  0.00     0.147 A 
ATOM     12  C   UNL     1       5.419  43.040  50.527  1.00  0.00     0.165 A 
ATOM     13  C   UNL     1       6.072  44.238  50.734  1.00  0.00     0.082 A 
ATOM     14  N   UNL     1       6.063  42.433  49.483  1.00  0.00    -0.250 N 
ATOM     15  C   UNL     1       7.074  44.267  49.743  1.00  0.00     0.149 A 
ATOM     16  N   UNL     1       7.091  43.161  48.988  1.00  0.00    -0.179 NA
ATOM     17  C   UNL     1       5.746  41.160  48.888  1.00  0.00     0.176 C 
BRANCH  11  18
ATOM     18  N   UNL     1       6.100  46.304  52.117  1.00  0.00    -0.339 N 
ATOM     19  H   UNL     1       5.316  46.879  52.416  1.00  0.00     0.168 HD
BRANCH  18  20
ATOM     20  C   UNL     1       7.283  46.628  52.810  1.00  0.00     0.043 A 
ATOM     21  C   UNL     1       7.300  47.088  54.134  1.00  0.00     0.029 A 
ATOM     22  C   UNL     1       8.506  46.481  52.137  1.00  0.00     0.068 A 
ATOM     23  C   UNL     1       8.508  47.386  54.776  1.00  0.00     0.044 A 
ATOM     24  C   UNL     1       9.704  46.779  52.780  1.00  0.00     0.160 A 
ATOM     25  C   UNL     1       9.706  47.227  54.093  1.00  0.00     0.158 A 
ATOM     26  F   UNL     1      10.859  46.627  52.117  1.00  0.00    -0.204 F 
ATOM     27  F   UNL     1      10.860  47.516  54.709  1.00  0.00    -0.204 F 
ENDBRANCH  18  20
ENDBRANCH  11  18
ENDBRANCH   1   8
TORSDOF 6
ENDMDL
MODEL 10
REMARK VINA RESULT:    -8.197      1.856      4.645
REMARK INTER + INTRA:         -12.431
REMARK INTER:                 -11.533
REMARK INTRA:                  -0.899
REMARK UNBOUND:                -1.359
REMARK SMILES CC(C)CCNc1nc(Nc2ccc(F)c(F)c2)c2cnn(C)c2n1
REMARK SMILES IDX 6 1 5 3 4 4 2 5 1 6 3 7 7 8 8 9 25 10 9 11 24 12 19 13 22 14
REMARK SMILES IDX 20 15 21 16 23 17 10 18 11 20 12 21 18 22 13 23 16 24 14 25
REMARK SMILES IDX 17 26 15 27
REMARK H PARENT 6 2 10 19
ROOT
ATOM      1  N   UNL     1       3.925  41.250  51.307  1.00  0.00    -0.354 N 
ATOM      2  H   UNL     1       3.162  40.630  51.553  1.00  0.00     0.163 HD
ENDROOT
BRANCH   1   3
ATOM      3  C   UNL     1       4.414  41.167  49.941  1.00  0.00     0.116 C 
BRANCH   3   4
ATOM      4  C   UNL     1       5.905  41.525  49.882  1.00  0.00     0.024 C 
BRANCH   4   5
ATOM      5  C   UNL     1       6.255  42.655  48.890  1.00  0.00    -0.016 C 
ATOM      6  C   UNL     1       7.679  43.151  49.160  1.00  0.00     0.007 C 
ATOM      7  C   UNL     1       6.124  42.240  47.425  1.00  0.00     0.007 C 
ENDBRANCH   4   5
ENDBRANCH   3   4
ENDBRANCH   1   3
BRANCH   1   8
ATOM      8  C   UNL     1       3.533  42.519  51.714  1.00  0.00     0.226 A 
ATOM      9  N   UNL     1       4.421  43.328  52.323  1.00  0.00    -0.195 NA
ATOM     10  N   UNL     1       2.257  42.823  51.444  1.00  0.00    -0.193 NA
ATOM     11  C   UNL     1       4.055  44.572  52.718  1.00  0.00     0.147 A 
ATOM     12  C   UNL     1       1.909  44.043  51.880  1.00  0.00     0.165 A 
ATOM     13  C   UNL     1       2.728  44.954  52.515  1.00  0.00     0.082 A 
ATOM     14  N   UNL     1       0.678  44.636  51.798  1.00  0.00    -0.250 N 
ATOM     15  C   UNL     1       1.885  46.048  52.798  1.00  0.00     0.149 A 
ATOM     16  N   UNL     1       0.637  45.873  52.346  1.00  0.00    -0.179 NA
ATOM     17  C   UNL     1      -0.519  44.077  51.222  1.00  0.00     0.176 C 
BRANCH  11  18
ATOM     18  N   UNL     1       5.035  45.343  53.359  1.00  0.00    -0.339 N 
ATOM     19  H   UNL     1       5.072  45.043  54.330  1.00  0.00     0.168 HD
BRANCH  18  20
ATOM     20  C   UNL     1       6.296  45.759  52.889  1.00  0.00     0.043 A 
ATOM     21  C   UNL     1       6.621  45.846  51.527  1.00  0.00     0.029 A 
ATOM     22  C   UNL     1       7.275  46.104  53.833  1.00  0.00     0.068 A 
ATOM     23  C   UNL     1       7.888  46.276  51.117  1.00  0.00     0.044 A 
ATOM     24  C   UNL     1       8.534  46.530  53.420  1.00  0.00     0.160 A 
ATOM     25  C   UNL     1       8.839  46.618  52.069  1.00  0.00     0.158 A 
ATOM     26  F   UNL     1       9.451  46.857  54.341  1.00  0.00    -0.204 F 
ATOM     27  F   UNL     1      10.052  47.026  51.673  1.00  0.00    -0.204 F 
ENDBRANCH  18  20
ENDBRANCH  11  18
ENDBRANCH   1   8
TORSDOF 6
ENDMDL
MODEL 11
REMARK VINA RESULT:    -8.176      3.119      5.724
REMARK INTER + INTRA:         -12.403
REMARK INTER:                 -11.948
REMARK INTRA:                  -0.455
REMARK UNBOUND:                -1.359
REMARK SMILES CC(C)CCNc1nc(Nc2ccc(F)c(F)c2)c2cnn(C)c2n1
REMARK SMILES IDX 6 1 5 3 4 4 2 5 1 6 3 7 7 8 8 9 25 10 9 11 24 12 19 13 22 14
REMARK SMILES IDX 20 15 21 16 23 17 10 18 11 20 12 21 18 22 13 23 16 24 14 25
REMARK SMILES IDX 17 26 15 27
REMARK H PARENT 6 2 10 19
ROOT
ATOM      1  N   UNL     1       5.657  46.970  54.940  1.00  0.00    -0.354 N 
ATOM      2  H   UNL     1       5.535  47.123  55.934  1.00  0.00     0.163 HD
ENDROOT
BRANCH   1   3
ATOM      3  C   UNL     1       6.982  46.559  54.505  1.00  0.00     0.116 C 
BRANCH   3   4
ATOM      4  C   UNL     1       7.479  47.465  53.371  1.00  0.00     0.024 C 
BRANCH   4   5
ATOM      5  C   UNL     1       9.016  47.571  53.261  1.00  0.00    -0.016 C 
ATOM      6  C   UNL     1       9.633  47.549  54.663  1.00  0.00     0.007 C 
ATOM      7  C   UNL     1       9.642  46.471  52.406  1.00  0.00     0.007 C 
ENDBRANCH   4   5
ENDBRANCH   3   4
ENDBRANCH   1   3
BRANCH   1   8
ATOM      8  C   UNL     1       4.625  46.125  54.552  1.00  0.00     0.226 A 
ATOM      9  N   UNL     1       4.738  45.412  53.415  1.00  0.00    -0.195 NA
ATOM     10  N   UNL     1       3.578  46.102  55.387  1.00  0.00    -0.193 NA
ATOM     11  C   UNL     1       3.742  44.578  53.028  1.00  0.00     0.147 A 
ATOM     12  C   UNL     1       2.590  45.300  54.963  1.00  0.00     0.165 A 
ATOM     13  C   UNL     1       2.593  44.527  53.819  1.00  0.00     0.082 A 
ATOM     14  N   UNL     1       1.378  45.085  55.561  1.00  0.00    -0.250 N 
ATOM     15  C   UNL     1       1.325  43.911  53.809  1.00  0.00     0.149 A 
ATOM     16  N   UNL     1       0.584  44.228  54.878  1.00  0.00    -0.179 NA
ATOM     17  C   UNL     1       0.896  45.676  56.783  1.00  0.00     0.176 C 
BRANCH  11  18
ATOM     18  N   UNL     1       3.932  43.887  51.823  1.00  0.00    -0.339 N 
ATOM     19  H   UNL     1       3.085  43.998  51.270  1.00  0.00     0.168 HD
BRANCH  18  20
ATOM     20  C   UNL     1       5.081  43.798  51.014  1.00  0.00     0.043 A 
ATOM     21  C   UNL     1       5.954  44.873  50.794  1.00  0.00     0.029 A 
ATOM     22  C   UNL     1       5.363  42.570  50.396  1.00  0.00     0.068 A 
ATOM     23  C   UNL     1       7.088  44.725  49.986  1.00  0.00     0.044 A 
ATOM     24  C   UNL     1       6.492  42.428  49.594  1.00  0.00     0.160 A 
ATOM     25  C   UNL     1       7.350  43.498  49.391  1.00  0.00     0.158 A 
ATOM     26  F   UNL     1       6.741  41.243  49.018  1.00  0.00    -0.204 F 
ATOM     27  F   UNL     1       8.434  43.360  48.616  1.00  0.00    -0.204 F 
ENDBRANCH  18  20
ENDBRANCH  11  18
ENDBRANCH   1   8
TORSDOF 6
ENDMDL
MODEL 12
REMARK VINA RESULT:    -8.155      3.037      5.873
REMARK INTER + INTRA:         -12.375
REMARK INTER:                 -11.654
REMARK INTRA:                  -0.721
REMARK UNBOUND:                -1.359
REMARK SMILES CC(C)CCNc1nc(Nc2ccc(F)c(F)c2)c2cnn(C)c2n1
REMARK SMILES IDX 6 1 5 3 4 4 2 5 1 6 3 7 7 8 8 9 25 10 9 11 24 12 19 13 22 14
REMARK SMILES IDX 20 15 21 16 23 17 10 18 11 20 12 21 18 22 13 23 16 24 14 25
REMARK SMILES IDX 17 26 15 27
REMARK H PARENT 6 2 10 19
ROOT
ATOM      1  N   UNL     1       6.874  46.411  51.155  1.00  0.00    -0.354 N 
ATOM      2  H   UNL     1       6.782  46.866  50.255  1.00  0.00     0.163 HD
ENDROOT
BRANCH   1   3
ATOM      3  C   UNL     1       6.872  47.275  52.322  1.00  0.00     0.116 C 
BRANCH   3   4
ATOM      4  C   UNL     1       8.279  47.829  52.583  1.00  0.00     0.024 C 
BRANCH   4   5
ATOM      5  C   UNL     1       9.288  46.793  53.121  1.00  0.00    -0.016 C 
ATOM      6  C   UNL     1      10.312  46.460  52.031  1.00  0.00     0.007 C 
ATOM      7  C   UNL     1      10.014  47.250  54.385  1.00  0.00     0.007 C 
ENDBRANCH   4   5
ENDBRANCH   3   4
ENDBRANCH   1   3
BRANCH   1   8
ATOM      8  C   UNL     1       5.922  45.399  51.172  1.00  0.00     0.226 A 
ATOM      9  N   UNL     1       4.677  45.663  51.615  1.00  0.00    -0.195 NA
ATOM     10  N   UNL     1       6.357  44.214  50.725  1.00  0.00    -0.193 NA
ATOM     11  C   UNL     1       3.735  44.688  51.630  1.00  0.00     0.147 A 
ATOM     12  C   UNL     1       5.419  43.258  50.787  1.00  0.00     0.165 A 
ATOM     13  C   UNL     1       4.117  43.409  51.221  1.00  0.00     0.082 A 
ATOM     14  N   UNL     1       5.552  41.939  50.446  1.00  0.00    -0.250 N 
ATOM     15  C   UNL     1       3.564  42.116  51.129  1.00  0.00     0.149 A 
ATOM     16  N   UNL     1       4.424  41.216  50.636  1.00  0.00    -0.179 NA
ATOM     17  C   UNL     1       6.734  41.288  49.941  1.00  0.00     0.176 C 
BRANCH  11  18
ATOM     18  N   UNL     1       2.471  45.041  52.121  1.00  0.00    -0.339 N 
ATOM     19  H   UNL     1       1.780  44.708  51.454  1.00  0.00     0.168 HD
BRANCH  18  20
ATOM     20  C   UNL     1       1.984  45.012  53.443  1.00  0.00     0.043 A 
ATOM     21  C   UNL     1       2.735  45.429  54.551  1.00  0.00     0.029 A 
ATOM     22  C   UNL     1       0.681  44.538  53.658  1.00  0.00     0.068 A 
ATOM     23  C   UNL     1       2.195  45.386  55.842  1.00  0.00     0.044 A 
ATOM     24  C   UNL     1       0.149  44.497  54.944  1.00  0.00     0.160 A 
ATOM     25  C   UNL     1       0.901  44.920  56.030  1.00  0.00     0.158 A 
ATOM     26  F   UNL     1      -1.100  44.044  55.123  1.00  0.00    -0.204 F 
ATOM     27  F   UNL     1       0.389  44.876  57.267  1.00  0.00    -0.204 F 
ENDBRANCH  18  20
ENDBRANCH  11  18
ENDBRANCH   1   8
TORSDOF 6
ENDMDL
MODEL 13
REMARK VINA RESULT:    -8.140      3.310      6.191
REMARK INTER + INTRA:         -12.355
REMARK INTER:                 -11.614
REMARK INTRA:                  -0.740
REMARK UNBOUND:                -1.359
REMARK SMILES CC(C)CCNc1nc(Nc2ccc(F)c(F)c2)c2cnn(C)c2n1
REMARK SMILES IDX 6 1 5 3 4 4 2 5 1 6 3 7 7 8 8 9 25 10 9 11 24 12 19 13 22 14
REMARK SMILES IDX 20 15 21 16 23 17 10 18 11 20 12 21 18 22 13 23 16 24 14 25
REMARK SMILES IDX 17 26 15 27
REMARK H PARENT 6 2 10 19
ROOT
ATOM      1  N   UNL     1       6.842  46.426  51.267  1.00  0.00    -0.354 N 
ATOM      2  H   UNL     1       6.562  46.788  50.364  1.00  0.00     0.163 HD
ENDROOT
BRANCH   1   3
ATOM      3  C   UNL     1       6.940  47.387  52.351  1.00  0.00     0.116 C 
BRANCH   3   4
ATOM      4  C   UNL     1       8.394  47.838  52.540  1.00  0.00     0.024 C 
BRANCH   4   5
ATOM      5  C   UNL     1       9.337  46.751  53.100  1.00  0.00    -0.016 C 
ATOM      6  C   UNL     1      10.367  46.367  52.033  1.00  0.00     0.007 C 
ATOM      7  C   UNL     1      10.055  47.170  54.381  1.00  0.00     0.007 C 
ENDBRANCH   4   5
ENDBRANCH   3   4
ENDBRANCH   1   3
BRANCH   1   8
ATOM      8  C   UNL     1       6.012  45.340  51.519  1.00  0.00     0.226 A 
ATOM      9  N   UNL     1       5.210  45.351  52.601  1.00  0.00    -0.195 NA
ATOM     10  N   UNL     1       6.095  44.353  50.618  1.00  0.00    -0.193 NA
ATOM     11  C   UNL     1       4.389  44.302  52.855  1.00  0.00     0.147 A 
ATOM     12  C   UNL     1       5.303  43.311  50.912  1.00  0.00     0.165 A 
ATOM     13  C   UNL     1       4.445  43.209  51.989  1.00  0.00     0.082 A 
ATOM     14  N   UNL     1       5.183  42.136  50.222  1.00  0.00    -0.250 N 
ATOM     15  C   UNL     1       3.881  41.922  51.868  1.00  0.00     0.149 A 
ATOM     16  N   UNL     1       4.309  41.267  50.782  1.00  0.00    -0.179 NA
ATOM     17  C   UNL     1       5.885  41.759  49.021  1.00  0.00     0.176 C 
BRANCH  11  18
ATOM     18  N   UNL     1       3.601  44.386  54.011  1.00  0.00    -0.339 N 
ATOM     19  H   UNL     1       4.113  44.944  54.690  1.00  0.00     0.168 HD
BRANCH  18  20
ATOM     20  C   UNL     1       2.208  44.555  54.134  1.00  0.00     0.043 A 
ATOM     21  C   UNL     1       1.329  44.540  53.041  1.00  0.00     0.029 A 
ATOM     22  C   UNL     1       1.674  44.749  55.417  1.00  0.00     0.068 A 
ATOM     23  C   UNL     1      -0.049  44.705  53.223  1.00  0.00     0.044 A 
ATOM     24  C   UNL     1       0.304  44.913  55.594  1.00  0.00     0.160 A 
ATOM     25  C   UNL     1      -0.554  44.890  54.503  1.00  0.00     0.158 A 
ATOM     26  F   UNL     1      -0.181  45.094  56.830  1.00  0.00    -0.204 F 
ATOM     27  F   UNL     1      -1.873  45.050  54.675  1.00  0.00    -0.204 F 
ENDBRANCH  18  20
ENDBRANCH  11  18
ENDBRANCH   1   8
TORSDOF 6
ENDMDL
MODEL 14
REMARK VINA RESULT:    -8.031      0.844      1.373
REMARK INTER + INTRA:         -12.207
REMARK INTER:                 -11.440
REMARK INTRA:                  -0.767
REMARK UNBOUND:                -1.359
REMARK SMILES CC(C)CCNc1nc(Nc2ccc(F)c(F)c2)c2cnn(C)c2n1
REMARK SMILES IDX 6 1 5 3 4 4 2 5 1 6 3 7 7 8 8 9 25 10 9 11 24 12 19 13 22 14
REMARK SMILES IDX 20 15 21 16 23 17 10 18 11 20 12 21 18 22 13 23 16 24 14 25
REMARK SMILES IDX 17 26 15 27
REMARK H PARENT 6 2 10 19
ROOT
ATOM      1  N   UNL     1       2.582  45.838  51.593  1.00  0.00    -0.354 N 
ATOM      2  H   UNL     1       1.800  45.196  51.551  1.00  0.00     0.163 HD
ENDROOT
BRANCH   1   3
ATOM      3  C   UNL     1       2.738  46.593  52.824  1.00  0.00     0.116 C 
BRANCH   3   4
ATOM      4  C   UNL     1       2.642  45.662  54.040  1.00  0.00     0.024 C 
BRANCH   4   5
ATOM      5  C   UNL     1       1.235  45.079  54.295  1.00  0.00    -0.016 C 
ATOM      6  C   UNL     1       1.234  43.582  53.973  1.00  0.00     0.007 C 
ATOM      7  C   UNL     1       0.735  45.300  55.721  1.00  0.00     0.007 C 
ENDBRANCH   4   5
ENDBRANCH   3   4
ENDBRANCH   1   3
BRANCH   1   8
ATOM      8  C   UNL     1       3.699  45.108  51.207  1.00  0.00     0.226 A 
ATOM      9  N   UNL     1       4.893  45.723  51.096  1.00  0.00    -0.195 NA
ATOM     10  N   UNL     1       3.466  43.809  50.979  1.00  0.00    -0.193 NA
ATOM     11  C   UNL     1       5.993  45.021  50.728  1.00  0.00     0.147 A 
ATOM     12  C   UNL     1       4.561  43.145  50.579  1.00  0.00     0.165 A 
ATOM     13  C   UNL     1       5.830  43.668  50.428  1.00  0.00     0.082 A 
ATOM     14  N   UNL     1       4.653  41.825  50.230  1.00  0.00    -0.250 N 
ATOM     15  C   UNL     1       6.601  42.586  49.956  1.00  0.00     0.149 A 
ATOM     16  N   UNL     1       5.897  41.452  49.853  1.00  0.00    -0.179 NA
ATOM     17  C   UNL     1       3.588  40.854  50.218  1.00  0.00     0.176 C 
BRANCH  11  18
ATOM     18  N   UNL     1       7.191  45.740  50.620  1.00  0.00    -0.339 N 
ATOM     19  H   UNL     1       7.053  46.457  49.912  1.00  0.00     0.168 HD
BRANCH  18  20
ATOM     20  C   UNL     1       8.077  46.162  51.631  1.00  0.00     0.043 A 
ATOM     21  C   UNL     1       9.472  46.141  51.491  1.00  0.00     0.029 A 
ATOM     22  C   UNL     1       7.533  46.626  52.838  1.00  0.00     0.068 A 
ATOM     23  C   UNL     1      10.305  46.581  52.527  1.00  0.00     0.044 A 
ATOM     24  C   UNL     1       8.364  47.062  53.865  1.00  0.00     0.160 A 
ATOM     25  C   UNL     1       9.743  47.041  53.710  1.00  0.00     0.158 A 
ATOM     26  F   UNL     1       7.820  47.504  55.007  1.00  0.00    -0.204 F 
ATOM     27  F   UNL     1      10.542  47.459  54.701  1.00  0.00    -0.204 F 
ENDBRANCH  18  20
ENDBRANCH  11  18
ENDBRANCH   1   8
TORSDOF 6
ENDMDL
MODEL 15
REMARK VINA RESULT:    -7.979      1.860      4.621
REMARK INTER + INTRA:         -12.137
REMARK INTER:                 -11.512
REMARK INTRA:                  -0.626
REMARK UNBOUND:                -1.359
REMARK SMILES CC(C)CCNc1nc(Nc2ccc(F)c(F)c2)c2cnn(C)c2n1
REMARK SMILES IDX 6 1 5 3 4 4 2 5 1 6 3 7 7 8 8 9 25 10 9 11 24 12 19 13 22 14
REMARK SMILES IDX 20 15 21 16 23 17 10 18 11 20 12 21 18 22 13 23 16 24 14 25
REMARK SMILES IDX 17 26 15 27
REMARK H PARENT 6 2 10 19
ROOT
ATOM      1  N   UNL     1       4.127  42.752  50.621  1.00  0.00    -0.354 N 
ATOM      2  H   UNL     1       4.506  43.366  49.910  1.00  0.00     0.163 HD
ENDROOT
BRANCH   1   3
ATOM      3  C   UNL     1       4.889  41.551  50.916  1.00  0.00     0.116 C 
BRANCH   3   4
ATOM      4  C   UNL     1       6.172  41.508  50.076  1.00  0.00     0.024 C 
BRANCH   4   5
ATOM      5  C   UNL     1       6.301  42.648  49.043  1.00  0.00    -0.016 C 
ATOM      6  C   UNL     1       7.656  43.342  49.211  1.00  0.00     0.007 C 
ATOM      7  C   UNL     1       6.140  42.179  47.597  1.00  0.00     0.007 C 
ENDBRANCH   4   5
ENDBRANCH   3   4
ENDBRANCH   1   3
BRANCH   1   8
ATOM      8  C   UNL     1       3.857  43.560  51.719  1.00  0.00     0.226 A 
ATOM      9  N   UNL     1       4.756  44.487  52.103  1.00  0.00    -0.195 NA
ATOM     10  N   UNL     1       2.677  43.326  52.308  1.00  0.00    -0.193 NA
ATOM     11  C   UNL     1       4.502  45.287  53.167  1.00  0.00     0.147 A 
ATOM     12  C   UNL     1       2.467  44.103  53.381  1.00  0.00     0.165 A 
ATOM     13  C   UNL     1       3.312  45.080  53.867  1.00  0.00     0.082 A 
ATOM     14  N   UNL     1       1.386  44.087  54.221  1.00  0.00    -0.250 N 
ATOM     15  C   UNL     1       2.659  45.569  55.017  1.00  0.00     0.149 A 
ATOM     16  N   UNL     1       1.473  44.985  55.229  1.00  0.00    -0.179 NA
ATOM     17  C   UNL     1       0.232  43.229  54.134  1.00  0.00     0.176 C 
BRANCH  11  18
ATOM     18  N   UNL     1       5.497  46.213  53.510  1.00  0.00    -0.339 N 
ATOM     19  H   UNL     1       5.434  46.372  54.513  1.00  0.00     0.168 HD
BRANCH  18  20
ATOM     20  C   UNL     1       6.822  46.317  53.043  1.00  0.00     0.043 A 
ATOM     21  C   UNL     1       7.171  46.232  51.687  1.00  0.00     0.029 A 
ATOM     22  C   UNL     1       7.843  46.516  53.984  1.00  0.00     0.068 A 
ATOM     23  C   UNL     1       8.504  46.352  51.279  1.00  0.00     0.044 A 
ATOM     24  C   UNL     1       9.167  46.634  53.574  1.00  0.00     0.160 A 
ATOM     25  C   UNL     1       9.497  46.554  52.228  1.00  0.00     0.158 A 
ATOM     26  F   UNL     1      10.124  46.827  54.493  1.00  0.00    -0.204 F 
ATOM     27  F   UNL     1      10.772  46.666  51.835  1.00  0.00    -0.204 F 
ENDBRANCH  18  20
ENDBRANCH  11  18
ENDBRANCH   1   8
TORSDOF 6
ENDMDL
MODEL 16
REMARK VINA RESULT:    -7.878      1.682      2.506
REMARK INTER + INTRA:         -12.001
REMARK INTER:                 -11.161
REMARK INTRA:                  -0.840
REMARK UNBOUND:                -1.359
REMARK SMILES CC(C)CCNc1nc(Nc2ccc(F)c(F)c2)c2cnn(C)c2n1
REMARK SMILES IDX 6 1 5 3 4 4 2 5 1 6 3 7 7 8 8 9 25 10 9 11 24 12 19 13 22 14
REMARK SMILES IDX 20 15 21 16 23 17 10 18 11 20 12 21 18 22 13 23 16 24 14 25
REMARK SMILES IDX 17 26 15 27
REMARK H PARENT 6 2 10 19
ROOT
ATOM      1  N   UNL     1       1.843  45.406  52.251  1.00  0.00    -0.354 N 
ATOM      2  H   UNL     1       1.158  44.790  51.830  1.00  0.00     0.163 HD
ENDROOT
BRANCH   1   3
ATOM      3  C   UNL     1       1.775  45.563  53.694  1.00  0.00     0.116 C 
BRANCH   3   4
ATOM      4  C   UNL     1       1.363  44.243  54.359  1.00  0.00     0.024 C 
BRANCH   4   5
ATOM      5  C   UNL     1      -0.004  43.692  53.900  1.00  0.00    -0.016 C 
ATOM      6  C   UNL     1       0.132  42.205  53.557  1.00  0.00     0.007 C 
ATOM      7  C   UNL     1      -1.114  43.881  54.933  1.00  0.00     0.007 C 
ENDBRANCH   4   5
ENDBRANCH   3   4
ENDBRANCH   1   3
BRANCH   1   8
ATOM      8  C   UNL     1       3.078  44.996  51.764  1.00  0.00     0.226 A 
ATOM      9  N   UNL     1       4.100  45.872  51.716  1.00  0.00    -0.195 NA
ATOM     10  N   UNL     1       3.128  43.715  51.377  1.00  0.00    -0.193 NA
ATOM     11  C   UNL     1       5.313  45.484  51.250  1.00  0.00     0.147 A 
ATOM     12  C   UNL     1       4.326  43.367  50.883  1.00  0.00     0.165 A 
ATOM     13  C   UNL     1       5.441  44.175  50.784  1.00  0.00     0.082 A 
ATOM     14  N   UNL     1       4.693  42.153  50.370  1.00  0.00    -0.250 N 
ATOM     15  C   UNL     1       6.413  43.358  50.170  1.00  0.00     0.149 A 
ATOM     16  N   UNL     1       5.974  42.116  49.933  1.00  0.00    -0.179 NA
ATOM     17  C   UNL     1       3.870  40.976  50.248  1.00  0.00     0.176 C 
BRANCH  11  18
ATOM     18  N   UNL     1       6.317  46.462  51.218  1.00  0.00    -0.339 N 
ATOM     19  H   UNL     1       5.880  47.340  50.947  1.00  0.00     0.168 HD
BRANCH  18  20
ATOM     20  C   UNL     1       7.400  46.662  52.096  1.00  0.00     0.043 A 
ATOM     21  C   UNL     1       7.245  47.050  53.435  1.00  0.00     0.029 A 
ATOM     22  C   UNL     1       8.698  46.463  51.604  1.00  0.00     0.068 A 
ATOM     23  C   UNL     1       8.358  47.226  54.265  1.00  0.00     0.044 A 
ATOM     24  C   UNL     1       9.802  46.639  52.433  1.00  0.00     0.160 A 
ATOM     25  C   UNL     1       9.633  47.017  53.757  1.00  0.00     0.158 A 
ATOM     26  F   UNL     1      11.032  46.439  51.939  1.00  0.00    -0.204 F 
ATOM     27  F   UNL     1      10.697  47.188  54.554  1.00  0.00    -0.204 F 
ENDBRANCH  18  20
ENDBRANCH  11  18
ENDBRANCH   1   8
TORSDOF 6
ENDMDL
MODEL 17
REMARK VINA RESULT:    -7.629      3.120      5.746
REMARK INTER + INTRA:         -11.664
REMARK INTER:                 -10.647
REMARK INTRA:                  -1.017
REMARK UNBOUND:                -1.359
REMARK SMILES CC(C)CCNc1nc(Nc2ccc(F)c(F)c2)c2cnn(C)c2n1
REMARK SMILES IDX 6 1 5 3 4 4 2 5 1 6 3 7 7 8 8 9 25 10 9 11 24 12 19 13 22 14
REMARK SMILES IDX 20 15 21 16 23 17 10 18 11 20 12 21 18 22 13 23 16 24 14 25
REMARK SMILES IDX 17 26 15 27
REMARK H PARENT 6 2 10 19
ROOT
ATOM      1  N   UNL     1       4.259  45.435  55.718  1.00  0.00    -0.354 N 
ATOM      2  H   UNL     1       4.010  45.265  56.685  1.00  0.00     0.163 HD
ENDROOT
BRANCH   1   3
ATOM      3  C   UNL     1       5.571  44.978  55.295  1.00  0.00     0.116 C 
BRANCH   3   4
ATOM      4  C   UNL     1       6.442  46.167  54.867  1.00  0.00     0.024 C 
BRANCH   4   5
ATOM      5  C   UNL     1       6.847  46.164  53.378  1.00  0.00    -0.016 C 
ATOM      6  C   UNL     1       6.012  47.198  52.617  1.00  0.00     0.007 C 
ATOM      7  C   UNL     1       8.334  46.436  53.152  1.00  0.00     0.007 C 
ENDBRANCH   4   5
ENDBRANCH   3   4
ENDBRANCH   1   3
BRANCH   1   8
ATOM      8  C   UNL     1       3.198  44.955  54.959  1.00  0.00     0.226 A 
ATOM      9  N   UNL     1       3.421  44.510  53.707  1.00  0.00    -0.195 NA
ATOM     10  N   UNL     1       2.011  44.982  55.579  1.00  0.00    -0.193 NA
ATOM     11  C   UNL     1       2.397  44.031  52.958  1.00  0.00     0.147 A 
ATOM     12  C   UNL     1       1.009  44.540  54.804  1.00  0.00     0.165 A 
ATOM     13  C   UNL     1       1.116  44.064  53.512  1.00  0.00     0.082 A 
ATOM     14  N   UNL     1      -0.321  44.476  55.120  1.00  0.00    -0.250 N 
ATOM     15  C   UNL     1      -0.210  43.770  53.135  1.00  0.00     0.149 A 
ATOM     16  N   UNL     1      -1.092  43.997  54.116  1.00  0.00    -0.179 NA
ATOM     17  C   UNL     1      -0.938  44.870  56.361  1.00  0.00     0.176 C 
BRANCH  11  18
ATOM     18  N   UNL     1       2.712  43.604  51.661  1.00  0.00    -0.339 N 
ATOM     19  H   UNL     1       2.135  44.138  51.016  1.00  0.00     0.168 HD
BRANCH  18  20
ATOM     20  C   UNL     1       3.966  43.283  51.104  1.00  0.00     0.043 A 
ATOM     21  C   UNL     1       4.354  41.974  50.783  1.00  0.00     0.029 A 
ATOM     22  C   UNL     1       4.870  44.327  50.861  1.00  0.00     0.068 A 
ATOM     23  C   UNL     1       5.610  41.714  50.222  1.00  0.00     0.044 A 
ATOM     24  C   UNL     1       6.118  44.064  50.303  1.00  0.00     0.160 A 
ATOM     25  C   UNL     1       6.486  42.764  49.984  1.00  0.00     0.158 A 
ATOM     26  F   UNL     1       6.963  45.080  50.077  1.00  0.00    -0.204 F 
ATOM     27  F   UNL     1       7.688  42.512  49.450  1.00  0.00    -0.204 F 
ENDBRANCH  18  20
ENDBRANCH  11  18
ENDBRANCH   1   8
TORSDOF 6
ENDMDL
MODEL 18
REMARK VINA RESULT:    -7.605      2.697      3.750
REMARK INTER + INTRA:         -11.632
REMARK INTER:                 -10.937
REMARK INTRA:                  -0.695
REMARK UNBOUND:                -1.359
REMARK SMILES CC(C)CCNc1nc(Nc2ccc(F)c(F)c2)c2cnn(C)c2n1
REMARK SMILES IDX 6 1 5 3 4 4 2 5 1 6 3 7 7 8 8 9 25 10 9 11 24 12 19 13 22 14
REMARK SMILES IDX 20 15 21 16 23 17 10 18 11 20 12 21 18 22 13 23 16 24 14 25
REMARK SMILES IDX 17 26 15 27
REMARK H PARENT 6 2 10 19
ROOT
ATOM      1  N   UNL     1       2.363  45.893  56.458  1.00  0.00    -0.354 N 
ATOM      2  H   UNL     1       2.188  46.886  56.553  1.00  0.00     0.163 HD
ENDROOT
BRANCH   1   3
ATOM      3  C   UNL     1       1.223  45.012  56.645  1.00  0.00     0.116 C 
BRANCH   3   4
ATOM      4  C   UNL     1      -0.070  45.827  56.780  1.00  0.00     0.024 C 
BRANCH   4   5
ATOM      5  C   UNL     1      -1.312  45.172  56.139  1.00  0.00    -0.016 C 
ATOM      6  C   UNL     1      -0.890  44.370  54.904  1.00  0.00     0.007 C 
ATOM      7  C   UNL     1      -2.087  44.270  57.098  1.00  0.00     0.007 C 
ENDBRANCH   4   5
ENDBRANCH   3   4
ENDBRANCH   1   3
BRANCH   1   8
ATOM      8  C   UNL     1       3.034  45.736  55.251  1.00  0.00     0.226 A 
ATOM      9  N   UNL     1       4.036  46.577  54.931  1.00  0.00    -0.195 NA
ATOM     10  N   UNL     1       2.598  44.717  54.499  1.00  0.00    -0.193 NA
ATOM     11  C   UNL     1       4.704  46.431  53.761  1.00  0.00     0.147 A 
ATOM     12  C   UNL     1       3.249  44.618  53.330  1.00  0.00     0.165 A 
ATOM     13  C   UNL     1       4.285  45.420  52.895  1.00  0.00     0.082 A 
ATOM     14  N   UNL     1       3.021  43.717  52.325  1.00  0.00    -0.250 N 
ATOM     15  C   UNL     1       4.586  44.935  51.605  1.00  0.00     0.149 A 
ATOM     16  N   UNL     1       3.835  43.883  51.257  1.00  0.00    -0.179 NA
ATOM     17  C   UNL     1       2.028  42.673  52.304  1.00  0.00     0.176 C 
BRANCH  11  18
ATOM     18  N   UNL     1       5.722  47.358  53.497  1.00  0.00    -0.339 N 
ATOM     19  H   UNL     1       5.630  48.112  54.174  1.00  0.00     0.168 HD
BRANCH  18  20
ATOM     20  C   UNL     1       7.065  47.135  53.135  1.00  0.00     0.043 A 
ATOM     21  C   UNL     1       7.476  46.872  51.821  1.00  0.00     0.029 A 
ATOM     22  C   UNL     1       8.038  47.179  54.145  1.00  0.00     0.068 A 
ATOM     23  C   UNL     1       8.827  46.667  51.518  1.00  0.00     0.044 A 
ATOM     24  C   UNL     1       9.381  46.974  53.839  1.00  0.00     0.160 A 
ATOM     25  C   UNL     1       9.774  46.721  52.532  1.00  0.00     0.158 A 
ATOM     26  F   UNL     1      10.292  47.023  54.820  1.00  0.00    -0.204 F 
ATOM     27  F   UNL     1      11.066  46.521  52.240  1.00  0.00    -0.204 F 
ENDBRANCH  18  20
ENDBRANCH  11  18
ENDBRANCH   1   8
TORSDOF 6
ENDMDL
MODEL 19
REMARK VINA RESULT:    -7.496      3.411      6.898
REMARK INTER + INTRA:         -11.484
REMARK INTER:                 -10.482
REMARK INTRA:                  -1.003
REMARK UNBOUND:                -1.359
REMARK SMILES CC(C)CCNc1nc(Nc2ccc(F)c(F)c2)c2cnn(C)c2n1
REMARK SMILES IDX 6 1 5 3 4 4 2 5 1 6 3 7 7 8 8 9 25 10 9 11 24 12 19 13 22 14
REMARK SMILES IDX 20 15 21 16 23 17 10 18 11 20 12 21 18 22 13 23 16 24 14 25
REMARK SMILES IDX 17 26 15 27
REMARK H PARENT 6 2 10 19
ROOT
ATOM      1  N   UNL     1       7.677  45.149  49.655  1.00  0.00    -0.354 N 
ATOM      2  H   UNL     1       8.458  45.738  49.393  1.00  0.00     0.163 HD
ENDROOT
BRANCH   1   3
ATOM      3  C   UNL     1       7.902  43.715  49.612  1.00  0.00     0.116 C 
BRANCH   3   4
ATOM      4  C   UNL     1       6.872  43.036  48.700  1.00  0.00     0.024 C 
BRANCH   4   5
ATOM      5  C   UNL     1       6.172  41.809  49.322  1.00  0.00    -0.016 C 
ATOM      6  C   UNL     1       5.480  42.218  50.625  1.00  0.00     0.007 C 
ATOM      7  C   UNL     1       5.160  41.147  48.388  1.00  0.00     0.007 C 
ENDBRANCH   4   5
ENDBRANCH   3   4
ENDBRANCH   1   3
BRANCH   1   8
ATOM      8  C   UNL     1       7.223  45.635  50.875  1.00  0.00     0.226 A 
ATOM      9  N   UNL     1       5.899  45.713  51.111  1.00  0.00    -0.195 NA
ATOM     10  N   UNL     1       8.191  45.989  51.731  1.00  0.00    -0.193 NA
ATOM     11  C   UNL     1       5.442  46.178  52.300  1.00  0.00     0.147 A 
ATOM     12  C   UNL     1       7.713  46.482  52.883  1.00  0.00     0.165 A 
ATOM     13  C   UNL     1       6.384  46.611  53.234  1.00  0.00     0.082 A 
ATOM     14  N   UNL     1       8.432  46.967  53.942  1.00  0.00    -0.250 N 
ATOM     15  C   UNL     1       6.415  47.210  54.510  1.00  0.00     0.149 A 
ATOM     16  N   UNL     1       7.659  47.412  54.960  1.00  0.00    -0.179 NA
ATOM     17  C   UNL     1       9.866  47.052  54.052  1.00  0.00     0.176 C 
BRANCH  11  18
ATOM     18  N   UNL     1       4.050  46.242  52.457  1.00  0.00    -0.339 N 
ATOM     19  H   UNL     1       3.684  46.817  51.702  1.00  0.00     0.168 HD
BRANCH  18  20
ATOM     20  C   UNL     1       3.145  45.233  52.838  1.00  0.00     0.043 A 
ATOM     21  C   UNL     1       2.531  45.182  54.098  1.00  0.00     0.029 A 
ATOM     22  C   UNL     1       2.844  44.227  51.906  1.00  0.00     0.068 A 
ATOM     23  C   UNL     1       1.631  44.159  54.418  1.00  0.00     0.044 A 
ATOM     24  C   UNL     1       1.949  43.212  52.230  1.00  0.00     0.160 A 
ATOM     25  C   UNL     1       1.344  43.178  53.478  1.00  0.00     0.158 A 
ATOM     26  F   UNL     1       1.675  42.265  51.321  1.00  0.00    -0.204 F 
ATOM     27  F   UNL     1       0.485  42.199  53.788  1.00  0.00    -0.204 F 
ENDBRANCH  18  20
ENDBRANCH  11  18
ENDBRANCH   1   8
TORSDOF 6
ENDMDL
