MODEL 1
REMARK VINA RESULT:    -8.405      0.000      0.000
REMARK INTER + INTRA:         -12.009
REMARK INTER:                 -11.353
REMARK INTRA:                  -0.656
REMARK UNBOUND:                -0.656
REMARK SMILES CCCCNc1nc(Nc2ccccc2)c2cnn(C)c2n1
REMARK SMILES IDX 4 1 3 2 2 3 1 4 5 5 6 7 7 8 22 9 8 10 21 11 16 12 19 13
REMARK SMILES IDX 17 14 18 15 20 16 9 17 10 19 11 20 15 21 12 22 14 23 13 24
REMARK H PARENT 5 6 9 18
ROOT
ATOM      1  C   UNL     1       5.273  41.196  48.189  1.00  0.00     0.116 C 
ENDROOT
BRANCH   1   2
ATOM      2  C   UNL     1       5.772  41.936  46.945  1.00  0.00     0.021 C 
BRANCH   2   3
ATOM      3  C   UNL     1       5.053  41.507  45.664  1.00  0.00    -0.002 C 
ATOM      4  C   UNL     1       5.215  42.543  44.563  1.00  0.00     0.004 C 
ENDBRANCH   2   3
ENDBRANCH   1   2
BRANCH   1   5
ATOM      5  N   UNL     1       6.146  41.460  49.319  1.00  0.00    -0.354 N 
ATOM      6  H   UNL     1       7.126  41.595  49.099  1.00  0.00     0.163 HD
BRANCH   5   7
ATOM      7  C   UNL     1       5.784  42.562  50.087  1.00  0.00     0.226 A 
ATOM      8  N   UNL     1       6.559  43.664  50.078  1.00  0.00    -0.195 NA
ATOM      9  N   UNL     1       4.656  42.406  50.791  1.00  0.00    -0.193 NA
ATOM     10  C   UNL     1       6.223  44.744  50.829  1.00  0.00     0.147 A 
ATOM     11  C   UNL     1       4.326  43.499  51.497  1.00  0.00     0.165 A 
ATOM     12  C   UNL     1       5.037  44.680  51.563  1.00  0.00     0.082 A 
ATOM     13  N   UNL     1       3.222  43.679  52.285  1.00  0.00    -0.250 N 
ATOM     14  C   UNL     1       4.262  45.510  52.398  1.00  0.00     0.149 A 
ATOM     15  N   UNL     1       3.161  44.904  52.858  1.00  0.00    -0.179 NA
ATOM     16  C   UNL     1       2.167  42.729  52.530  1.00  0.00     0.176 C 
BRANCH  10  17
ATOM     17  N   UNL     1       7.068  45.859  50.750  1.00  0.00    -0.339 N 
ATOM     18  H   UNL     1       7.408  45.918  49.793  1.00  0.00     0.168 HD
BRANCH  17  19
ATOM     19  C   UNL     1       8.042  46.298  51.668  1.00  0.00     0.040 A 
ATOM     20  C   UNL     1       7.627  47.081  52.753  1.00  0.00     0.026 A 
ATOM     21  C   UNL     1       9.407  46.015  51.537  1.00  0.00     0.026 A 
ATOM     22  C   UNL     1       8.545  47.552  53.695  1.00  0.00     0.002 A 
ATOM     23  C   UNL     1      10.328  46.485  52.477  1.00  0.00     0.002 A 
ATOM     24  C   UNL     1       9.897  47.252  53.557  1.00  0.00     0.000 A 
ENDBRANCH  17  19
ENDBRANCH  10  17
ENDBRANCH   5   7
ENDBRANCH   1   5
TORSDOF 6
ENDMDL
MODEL 2
REMARK VINA RESULT:    -8.404      0.046      1.026
REMARK INTER + INTRA:         -12.007
REMARK INTER:                 -11.346
REMARK INTRA:                  -0.661
REMARK UNBOUND:                -0.656
REMARK SMILES CCCCNc1nc(Nc2ccccc2)c2cnn(C)c2n1
REMARK SMILES IDX 4 1 3 2 2 3 1 4 5 5 6 7 7 8 22 9 8 10 21 11 16 12 19 13
REMARK SMILES IDX 17 14 18 15 20 16 9 17 10 19 11 20 15 21 12 22 14 23 13 24
REMARK H PARENT 5 6 9 18
ROOT
ATOM      1  C   UNL     1       5.282  41.181  48.181  1.00  0.00     0.116 C 
ENDROOT
BRANCH   1   2
ATOM      2  C   UNL     1       5.775  41.925  46.937  1.00  0.00     0.021 C 
BRANCH   2   3
ATOM      3  C   UNL     1       5.032  41.516  45.662  1.00  0.00    -0.002 C 
ATOM      4  C   UNL     1       5.146  42.584  44.586  1.00  0.00     0.004 C 
ENDBRANCH   2   3
ENDBRANCH   1   2
BRANCH   1   5
ATOM      5  N   UNL     1       6.156  41.449  49.310  1.00  0.00    -0.354 N 
ATOM      6  H   UNL     1       7.135  41.589  49.088  1.00  0.00     0.163 HD
BRANCH   5   7
ATOM      7  C   UNL     1       5.791  42.551  50.077  1.00  0.00     0.226 A 
ATOM      8  N   UNL     1       6.563  43.655  50.068  1.00  0.00    -0.195 NA
ATOM      9  N   UNL     1       4.662  42.393  50.781  1.00  0.00    -0.193 NA
ATOM     10  C   UNL     1       6.224  44.734  50.818  1.00  0.00     0.147 A 
ATOM     11  C   UNL     1       4.329  43.485  51.486  1.00  0.00     0.165 A 
ATOM     12  C   UNL     1       5.038  44.668  51.552  1.00  0.00     0.082 A 
ATOM     13  N   UNL     1       3.225  43.664  52.273  1.00  0.00    -0.250 N 
ATOM     14  C   UNL     1       4.261  45.497  52.386  1.00  0.00     0.149 A 
ATOM     15  N   UNL     1       3.160  44.888  52.846  1.00  0.00    -0.179 NA
ATOM     16  C   UNL     1       2.172  42.711  52.518  1.00  0.00     0.176 C 
BRANCH  10  17
ATOM     17  N   UNL     1       7.067  45.852  50.740  1.00  0.00    -0.339 N 
ATOM     18  H   UNL     1       7.459  45.873  49.801  1.00  0.00     0.168 HD
BRANCH  17  19
ATOM     19  C   UNL     1       7.986  46.335  51.690  1.00  0.00     0.040 A 
ATOM     20  C   UNL     1       9.348  46.064  51.495  1.00  0.00     0.026 A 
ATOM     21  C   UNL     1       7.610  47.049  52.834  1.00  0.00     0.026 A 
ATOM     22  C   UNL     1      10.309  46.511  52.404  1.00  0.00     0.002 A 
ATOM     23  C   UNL     1       8.570  47.497  53.746  1.00  0.00     0.002 A 
ATOM     24  C   UNL     1       9.919  47.229  53.530  1.00  0.00     0.000 A 
ENDBRANCH  17  19
ENDBRANCH  10  17
ENDBRANCH   5   7
ENDBRANCH   1   5
TORSDOF 6
ENDMDL
MODEL 3
REMARK VINA RESULT:    -8.329      1.973      4.901
REMARK INTER + INTRA:         -11.906
REMARK INTER:                 -10.866
REMARK INTRA:                  -1.039
REMARK UNBOUND:                -0.656
REMARK SMILES CCCCNc1nc(Nc2ccccc2)c2cnn(C)c2n1
REMARK SMILES IDX 4 1 3 2 2 3 1 4 5 5 6 7 7 8 22 9 8 10 21 11 16 12 19 13
REMARK SMILES IDX 17 14 18 15 20 16 9 17 10 19 11 20 15 21 12 22 14 23 13 24
REMARK H PARENT 5 6 9 18
ROOT
ATOM      1  C   UNL     1       3.014  46.261  53.619  1.00  0.00     0.116 C 
ENDROOT
BRANCH   1   2
ATOM      2  C   UNL     1       3.359  45.468  54.883  1.00  0.00     0.021 C 
BRANCH   2   3
ATOM      3  C   UNL     1       4.780  45.736  55.388  1.00  0.00    -0.002 C 
ATOM      4  C   UNL     1       5.727  44.609  55.003  1.00  0.00     0.004 C 
ENDBRANCH   2   3
ENDBRANCH   1   2
BRANCH   1   5
ATOM      5  N   UNL     1       2.679  45.359  52.532  1.00  0.00    -0.354 N 
ATOM      6  H   UNL     1       2.044  45.725  51.832  1.00  0.00     0.163 HD
BRANCH   5   7
ATOM      7  C   UNL     1       3.773  44.876  51.821  1.00  0.00     0.226 A 
ATOM      8  N   UNL     1       4.857  45.659  51.652  1.00  0.00    -0.195 NA
ATOM      9  N   UNL     1       3.630  43.629  51.352  1.00  0.00    -0.193 NA
ATOM     10  C   UNL     1       5.927  45.204  50.953  1.00  0.00     0.147 A 
ATOM     11  C   UNL     1       4.715  43.190  50.697  1.00  0.00     0.165 A 
ATOM     12  C   UNL     1       5.877  43.898  50.464  1.00  0.00     0.082 A 
ATOM     13  N   UNL     1       4.905  41.958  50.133  1.00  0.00    -0.250 N 
ATOM     14  C   UNL     1       6.708  42.992  49.774  1.00  0.00     0.149 A 
ATOM     15  N   UNL     1       6.118  41.811  49.551  1.00  0.00    -0.179 NA
ATOM     16  C   UNL     1       3.975  40.857  50.121  1.00  0.00     0.176 C 
BRANCH  10  17
ATOM     17  N   UNL     1       7.024  46.070  50.838  1.00  0.00    -0.339 N 
ATOM     18  H   UNL     1       7.488  45.860  49.957  1.00  0.00     0.168 HD
BRANCH  17  19
ATOM     19  C   UNL     1       7.949  46.462  51.824  1.00  0.00     0.040 A 
ATOM     20  C   UNL     1       9.297  46.121  51.643  1.00  0.00     0.026 A 
ATOM     21  C   UNL     1       7.590  47.151  52.989  1.00  0.00     0.026 A 
ATOM     22  C   UNL     1      10.263  46.476  52.588  1.00  0.00     0.002 A 
ATOM     23  C   UNL     1       8.554  47.507  53.936  1.00  0.00     0.002 A 
ATOM     24  C   UNL     1       9.891  47.171  53.734  1.00  0.00     0.000 A 
ENDBRANCH  17  19
ENDBRANCH  10  17
ENDBRANCH   5   7
ENDBRANCH   1   5
TORSDOF 6
ENDMDL
MODEL 4
REMARK VINA RESULT:    -8.236      1.679      5.021
REMARK INTER + INTRA:         -11.781
REMARK INTER:                 -11.023
REMARK INTRA:                  -0.758
REMARK UNBOUND:                -0.656
REMARK SMILES CCCCNc1nc(Nc2ccccc2)c2cnn(C)c2n1
REMARK SMILES IDX 4 1 3 2 2 3 1 4 5 5 6 7 7 8 22 9 8 10 21 11 16 12 19 13
REMARK SMILES IDX 17 14 18 15 20 16 9 17 10 19 11 20 15 21 12 22 14 23 13 24
REMARK H PARENT 5 6 9 18
ROOT
ATOM      1  C   UNL     1       2.563  44.980  53.559  1.00  0.00     0.116 C 
ENDROOT
BRANCH   1   2
ATOM      2  C   UNL     1       2.920  44.961  55.048  1.00  0.00     0.021 C 
BRANCH   2   3
ATOM      3  C   UNL     1       4.114  45.857  55.389  1.00  0.00    -0.002 C 
ATOM      4  C   UNL     1       5.384  45.043  55.580  1.00  0.00     0.004 C 
ENDBRANCH   2   3
ENDBRANCH   1   2
BRANCH   1   5
ATOM      5  N   UNL     1       3.090  43.799  52.898  1.00  0.00    -0.354 N 
ATOM      6  H   UNL     1       2.438  43.294  52.309  1.00  0.00     0.163 HD
BRANCH   5   7
ATOM      7  C   UNL     1       4.206  44.030  52.100  1.00  0.00     0.226 A 
ATOM      8  N   UNL     1       4.912  45.167  52.254  1.00  0.00    -0.195 NA
ATOM      9  N   UNL     1       4.474  43.058  51.218  1.00  0.00    -0.193 NA
ATOM     10  C   UNL     1       5.997  45.410  51.477  1.00  0.00     0.147 A 
ATOM     11  C   UNL     1       5.571  43.305  50.487  1.00  0.00     0.165 A 
ATOM     12  C   UNL     1       6.370  44.428  50.557  1.00  0.00     0.082 A 
ATOM     13  N   UNL     1       6.133  42.502  49.532  1.00  0.00    -0.250 N 
ATOM     14  C   UNL     1       7.397  44.188  49.621  1.00  0.00     0.149 A 
ATOM     15  N   UNL     1       7.252  43.023  48.977  1.00  0.00    -0.179 NA
ATOM     16  C   UNL     1       5.665  41.209  49.102  1.00  0.00     0.176 C 
BRANCH  10  17
ATOM     17  N   UNL     1       6.691  46.606  51.711  1.00  0.00    -0.339 N 
ATOM     18  H   UNL     1       6.765  47.095  50.822  1.00  0.00     0.168 HD
BRANCH  17  19
ATOM     19  C   UNL     1       7.826  46.827  52.514  1.00  0.00     0.040 A 
ATOM     20  C   UNL     1       9.081  46.465  52.004  1.00  0.00     0.026 A 
ATOM     21  C   UNL     1       7.765  47.365  53.805  1.00  0.00     0.026 A 
ATOM     22  C   UNL     1      10.245  46.655  52.753  1.00  0.00     0.002 A 
ATOM     23  C   UNL     1       8.927  47.555  54.557  1.00  0.00     0.002 A 
ATOM     24  C   UNL     1      10.167  47.202  54.030  1.00  0.00     0.000 A 
ENDBRANCH  17  19
ENDBRANCH  10  17
ENDBRANCH   5   7
ENDBRANCH   1   5
TORSDOF 6
ENDMDL
MODEL 5
REMARK VINA RESULT:    -8.220      1.989      2.778
REMARK INTER + INTRA:         -11.759
REMARK INTER:                 -10.938
REMARK INTRA:                  -0.820
REMARK UNBOUND:                -0.656
REMARK SMILES CCCCNc1nc(Nc2ccccc2)c2cnn(C)c2n1
REMARK SMILES IDX 4 1 3 2 2 3 1 4 5 5 6 7 7 8 22 9 8 10 21 11 16 12 19 13
REMARK SMILES IDX 17 14 18 15 20 16 9 17 10 19 11 20 15 21 12 22 14 23 13 24
REMARK H PARENT 5 6 9 18
ROOT
ATOM      1  C   UNL     1       4.531  41.544  50.907  1.00  0.00     0.116 C 
ENDROOT
BRANCH   1   2
ATOM      2  C   UNL     1       5.358  41.556  49.619  1.00  0.00     0.021 C 
BRANCH   2   3
ATOM      3  C   UNL     1       6.850  41.797  49.868  1.00  0.00    -0.002 C 
ATOM      4  C   UNL     1       7.305  43.121  49.274  1.00  0.00     0.004 C 
ENDBRANCH   2   3
ENDBRANCH   1   2
BRANCH   1   5
ATOM      5  N   UNL     1       3.565  42.628  50.898  1.00  0.00    -0.354 N 
ATOM      6  H   UNL     1       2.616  42.377  51.150  1.00  0.00     0.163 HD
BRANCH   5   7
ATOM      7  C   UNL     1       3.892  43.704  51.717  1.00  0.00     0.226 A 
ATOM      8  N   UNL     1       4.869  44.553  51.344  1.00  0.00    -0.195 NA
ATOM      9  N   UNL     1       3.174  43.787  52.845  1.00  0.00    -0.193 NA
ATOM     10  C   UNL     1       5.205  45.602  52.137  1.00  0.00     0.147 A 
ATOM     11  C   UNL     1       3.499  44.851  53.594  1.00  0.00     0.165 A 
ATOM     12  C   UNL     1       4.477  45.785  53.314  1.00  0.00     0.082 A 
ATOM     13  N   UNL     1       2.934  45.241  54.777  1.00  0.00    -0.250 N 
ATOM     14  C   UNL     1       4.399  46.704  54.380  1.00  0.00     0.149 A 
ATOM     15  N   UNL     1       3.472  46.373  55.288  1.00  0.00    -0.179 NA
ATOM     16  C   UNL     1       1.858  44.588  55.481  1.00  0.00     0.176 C 
BRANCH  10  17
ATOM     17  N   UNL     1       6.217  46.452  51.671  1.00  0.00    -0.339 N 
ATOM     18  H   UNL     1       6.205  46.412  50.654  1.00  0.00     0.168 HD
BRANCH  17  19
ATOM     19  C   UNL     1       7.526  46.622  52.162  1.00  0.00     0.040 A 
ATOM     20  C   UNL     1       8.589  46.102  51.411  1.00  0.00     0.026 A 
ATOM     21  C   UNL     1       7.818  47.260  53.374  1.00  0.00     0.026 A 
ATOM     22  C   UNL     1       9.910  46.234  51.846  1.00  0.00     0.002 A 
ATOM     23  C   UNL     1       9.139  47.392  53.812  1.00  0.00     0.002 A 
ATOM     24  C   UNL     1      10.184  46.881  53.047  1.00  0.00     0.000 A 
ENDBRANCH  17  19
ENDBRANCH  10  17
ENDBRANCH   5   7
ENDBRANCH   1   5
TORSDOF 6
ENDMDL
MODEL 6
REMARK VINA RESULT:    -8.210      1.777      2.484
REMARK INTER + INTRA:         -11.746
REMARK INTER:                 -11.128
REMARK INTRA:                  -0.618
REMARK UNBOUND:                -0.656
REMARK SMILES CCCCNc1nc(Nc2ccccc2)c2cnn(C)c2n1
REMARK SMILES IDX 4 1 3 2 2 3 1 4 5 5 6 7 7 8 22 9 8 10 21 11 16 12 19 13
REMARK SMILES IDX 17 14 18 15 20 16 9 17 10 19 11 20 15 21 12 22 14 23 13 24
REMARK H PARENT 5 6 9 18
ROOT
ATOM      1  C   UNL     1       4.759  41.571  50.181  1.00  0.00     0.116 C 
ENDROOT
BRANCH   1   2
ATOM      2  C   UNL     1       6.228  41.546  49.752  1.00  0.00     0.021 C 
BRANCH   2   3
ATOM      3  C   UNL     1       6.581  42.659  48.762  1.00  0.00    -0.002 C 
ATOM      4  C   UNL     1       7.831  43.411  49.194  1.00  0.00     0.004 C 
ENDBRANCH   2   3
ENDBRANCH   1   2
BRANCH   1   5
ATOM      5  N   UNL     1       4.644  41.987  51.568  1.00  0.00    -0.354 N 
ATOM      6  H   UNL     1       5.425  41.750  52.168  1.00  0.00     0.163 HD
BRANCH   5   7
ATOM      7  C   UNL     1       4.440  43.351  51.749  1.00  0.00     0.226 A 
ATOM      8  N   UNL     1       5.457  44.210  51.544  1.00  0.00    -0.195 NA
ATOM      9  N   UNL     1       3.200  43.685  52.131  1.00  0.00    -0.193 NA
ATOM     10  C   UNL     1       5.275  45.543  51.726  1.00  0.00     0.147 A 
ATOM     11  C   UNL     1       3.035  45.009  52.269  1.00  0.00     0.165 A 
ATOM     12  C   UNL     1       3.999  45.981  52.085  1.00  0.00     0.082 A 
ATOM     13  N   UNL     1       1.890  45.675  52.608  1.00  0.00    -0.250 N 
ATOM     14  C   UNL     1       3.321  47.195  52.316  1.00  0.00     0.149 A 
ATOM     15  N   UNL     1       2.038  47.020  52.652  1.00  0.00    -0.179 NA
ATOM     16  C   UNL     1       0.602  45.095  52.893  1.00  0.00     0.176 C 
BRANCH  10  17
ATOM     17  N   UNL     1       6.375  46.374  51.473  1.00  0.00    -0.339 N 
ATOM     18  H   UNL     1       6.602  46.288  50.485  1.00  0.00     0.168 HD
BRANCH  17  19
ATOM     19  C   UNL     1       7.533  46.569  52.249  1.00  0.00     0.040 A 
ATOM     20  C   UNL     1       8.778  46.303  51.663  1.00  0.00     0.026 A 
ATOM     21  C   UNL     1       7.505  46.989  53.585  1.00  0.00     0.026 A 
ATOM     22  C   UNL     1       9.964  46.472  52.381  1.00  0.00     0.002 A 
ATOM     23  C   UNL     1       8.690  47.159  54.307  1.00  0.00     0.002 A 
ATOM     24  C   UNL     1       9.919  46.902  53.704  1.00  0.00     0.000 A 
ENDBRANCH  17  19
ENDBRANCH  10  17
ENDBRANCH   5   7
ENDBRANCH   1   5
TORSDOF 6
ENDMDL
MODEL 7
REMARK VINA RESULT:    -8.179      1.706      2.206
REMARK INTER + INTRA:         -11.704
REMARK INTER:                 -11.100
REMARK INTRA:                  -0.604
REMARK UNBOUND:                -0.656
REMARK SMILES CCCCNc1nc(Nc2ccccc2)c2cnn(C)c2n1
REMARK SMILES IDX 4 1 3 2 2 3 1 4 5 5 6 7 7 8 22 9 8 10 21 11 16 12 19 13
REMARK SMILES IDX 17 14 18 15 20 16 9 17 10 19 11 20 15 21 12 22 14 23 13 24
REMARK H PARENT 5 6 9 18
ROOT
ATOM      1  C   UNL     1       4.683  41.545  50.014  1.00  0.00     0.116 C 
ENDROOT
BRANCH   1   2
ATOM      2  C   UNL     1       6.151  41.434  49.592  1.00  0.00     0.021 C 
BRANCH   2   3
ATOM      3  C   UNL     1       6.575  42.528  48.608  1.00  0.00    -0.002 C 
ATOM      4  C   UNL     1       7.730  43.351  49.157  1.00  0.00     0.004 C 
ENDBRANCH   2   3
ENDBRANCH   1   2
BRANCH   1   5
ATOM      5  N   UNL     1       4.586  41.952  51.404  1.00  0.00    -0.354 N 
ATOM      6  H   UNL     1       5.366  41.692  51.997  1.00  0.00     0.163 HD
BRANCH   5   7
ATOM      7  C   UNL     1       4.414  43.319  51.598  1.00  0.00     0.226 A 
ATOM      8  N   UNL     1       5.450  44.156  51.395  1.00  0.00    -0.195 NA
ATOM      9  N   UNL     1       3.184  43.678  51.988  1.00  0.00    -0.193 NA
ATOM     10  C   UNL     1       5.299  45.491  51.589  1.00  0.00     0.147 A 
ATOM     11  C   UNL     1       3.051  45.005  52.138  1.00  0.00     0.165 A 
ATOM     12  C   UNL     1       4.036  45.955  51.958  1.00  0.00     0.082 A 
ATOM     13  N   UNL     1       1.923  45.694  52.488  1.00  0.00    -0.250 N 
ATOM     14  C   UNL     1       3.388  47.183  52.201  1.00  0.00     0.149 A 
ATOM     15  N   UNL     1       2.102  47.035  52.543  1.00  0.00    -0.179 NA
ATOM     16  C   UNL     1       0.623  45.141  52.775  1.00  0.00     0.176 C 
BRANCH  10  17
ATOM     17  N   UNL     1       6.418  46.299  51.337  1.00  0.00    -0.339 N 
ATOM     18  H   UNL     1       6.656  46.192  50.354  1.00  0.00     0.168 HD
BRANCH  17  19
ATOM     19  C   UNL     1       7.568  46.487  52.126  1.00  0.00     0.040 A 
ATOM     20  C   UNL     1       7.405  46.952  53.438  1.00  0.00     0.026 A 
ATOM     21  C   UNL     1       8.869  46.262  51.659  1.00  0.00     0.026 A 
ATOM     22  C   UNL     1       8.507  47.164  54.270  1.00  0.00     0.002 A 
ATOM     23  C   UNL     1       9.974  46.474  52.488  1.00  0.00     0.002 A 
ATOM     24  C   UNL     1       9.792  46.923  53.794  1.00  0.00     0.000 A 
ENDBRANCH  17  19
ENDBRANCH  10  17
ENDBRANCH   5   7
ENDBRANCH   1   5
TORSDOF 6
ENDMDL
MODEL 8
REMARK VINA RESULT:    -8.169      2.045      5.287
REMARK INTER + INTRA:         -11.690
REMARK INTER:                 -11.026
REMARK INTRA:                  -0.663
REMARK UNBOUND:                -0.656
REMARK SMILES CCCCNc1nc(Nc2ccccc2)c2cnn(C)c2n1
REMARK SMILES IDX 4 1 3 2 2 3 1 4 5 5 6 7 7 8 22 9 8 10 21 11 16 12 19 13
REMARK SMILES IDX 17 14 18 15 20 16 9 17 10 19 11 20 15 21 12 22 14 23 13 24
REMARK H PARENT 5 6 9 18
ROOT
ATOM      1  C   UNL     1       1.646  44.142  53.756  1.00  0.00     0.116 C 
ENDROOT
BRANCH   1   2
ATOM      2  C   UNL     1       0.678  44.810  54.737  1.00  0.00     0.021 C 
BRANCH   2   3
ATOM      3  C   UNL     1       1.380  45.386  55.970  1.00  0.00    -0.002 C 
ATOM      4  C   UNL     1       0.485  45.323  57.198  1.00  0.00     0.004 C 
ENDBRANCH   2   3
ENDBRANCH   1   2
BRANCH   1   5
ATOM      5  N   UNL     1       3.020  44.393  54.151  1.00  0.00    -0.354 N 
ATOM      6  H   UNL     1       3.403  43.762  54.846  1.00  0.00     0.163 HD
BRANCH   5   7
ATOM      7  C   UNL     1       3.936  44.387  53.103  1.00  0.00     0.226 A 
ATOM      8  N   UNL     1       4.788  45.419  52.956  1.00  0.00    -0.195 NA
ATOM      9  N   UNL     1       3.870  43.309  52.309  1.00  0.00    -0.193 NA
ATOM     10  C   UNL     1       5.680  45.431  51.933  1.00  0.00     0.147 A 
ATOM     11  C   UNL     1       4.784  43.327  51.328  1.00  0.00     0.165 A 
ATOM     12  C   UNL     1       5.705  44.325  51.081  1.00  0.00     0.082 A 
ATOM     13  N   UNL     1       5.005  42.367  50.379  1.00  0.00    -0.250 N 
ATOM     14  C   UNL     1       6.445  43.855  49.977  1.00  0.00     0.149 A 
ATOM     15  N   UNL     1       6.015  42.669  49.529  1.00  0.00    -0.179 NA
ATOM     16  C   UNL     1       4.298  41.121  50.224  1.00  0.00     0.176 C 
BRANCH  10  17
ATOM     17  N   UNL     1       6.547  46.530  51.859  1.00  0.00    -0.339 N 
ATOM     18  H   UNL     1       6.545  46.857  50.895  1.00  0.00     0.168 HD
BRANCH  17  19
ATOM     19  C   UNL     1       7.810  46.702  52.456  1.00  0.00     0.040 A 
ATOM     20  C   UNL     1       7.864  47.208  53.762  1.00  0.00     0.026 A 
ATOM     21  C   UNL     1       9.016  46.421  51.803  1.00  0.00     0.026 A 
ATOM     22  C   UNL     1       9.087  47.407  54.408  1.00  0.00     0.002 A 
ATOM     23  C   UNL     1      10.242  46.620  52.446  1.00  0.00     0.002 A 
ATOM     24  C   UNL     1      10.276  47.111  53.749  1.00  0.00     0.000 A 
ENDBRANCH  17  19
ENDBRANCH  10  17
ENDBRANCH   5   7
ENDBRANCH   1   5
TORSDOF 6
ENDMDL
MODEL 9
REMARK VINA RESULT:    -8.153      2.076      4.787
REMARK INTER + INTRA:         -11.668
REMARK INTER:                 -10.896
REMARK INTRA:                  -0.772
REMARK UNBOUND:                -0.656
REMARK SMILES CCCCNc1nc(Nc2ccccc2)c2cnn(C)c2n1
REMARK SMILES IDX 4 1 3 2 2 3 1 4 5 5 6 7 7 8 22 9 8 10 21 11 16 12 19 13
REMARK SMILES IDX 17 14 18 15 20 16 9 17 10 19 11 20 15 21 12 22 14 23 13 24
REMARK H PARENT 5 6 9 18
ROOT
ATOM      1  C   UNL     1       1.900  45.400  54.026  1.00  0.00     0.116 C 
ENDROOT
BRANCH   1   2
ATOM      2  C   UNL     1       0.677  44.783  53.343  1.00  0.00     0.021 C 
BRANCH   2   3
ATOM      3  C   UNL     1       0.115  43.577  54.099  1.00  0.00    -0.002 C 
ATOM      4  C   UNL     1       0.082  42.336  53.220  1.00  0.00     0.004 C 
ENDBRANCH   2   3
ENDBRANCH   1   2
BRANCH   1   5
ATOM      5  N   UNL     1       2.957  44.413  54.160  1.00  0.00    -0.354 N 
ATOM      6  H   UNL     1       2.654  43.451  54.252  1.00  0.00     0.163 HD
BRANCH   5   7
ATOM      7  C   UNL     1       3.884  44.411  53.122  1.00  0.00     0.226 A 
ATOM      8  N   UNL     1       4.733  45.448  52.984  1.00  0.00    -0.195 NA
ATOM      9  N   UNL     1       3.831  43.334  52.328  1.00  0.00    -0.193 NA
ATOM     10  C   UNL     1       5.636  45.463  51.971  1.00  0.00     0.147 A 
ATOM     11  C   UNL     1       4.757  43.355  51.357  1.00  0.00     0.165 A 
ATOM     12  C   UNL     1       5.676  44.358  51.120  1.00  0.00     0.082 A 
ATOM     13  N   UNL     1       4.993  42.397  50.410  1.00  0.00    -0.250 N 
ATOM     14  C   UNL     1       6.430  43.891  50.024  1.00  0.00     0.149 A 
ATOM     15  N   UNL     1       6.010  42.703  49.572  1.00  0.00    -0.179 NA
ATOM     16  C   UNL     1       4.293  41.147  50.248  1.00  0.00     0.176 C 
BRANCH  10  17
ATOM     17  N   UNL     1       6.498  46.567  51.907  1.00  0.00    -0.339 N 
ATOM     18  H   UNL     1       6.547  46.860  50.933  1.00  0.00     0.168 HD
BRANCH  17  19
ATOM     19  C   UNL     1       7.725  46.770  52.565  1.00  0.00     0.040 A 
ATOM     20  C   UNL     1       8.909  46.514  51.859  1.00  0.00     0.026 A 
ATOM     21  C   UNL     1       7.826  47.190  53.898  1.00  0.00     0.026 A 
ATOM     22  C   UNL     1      10.158  46.691  52.458  1.00  0.00     0.002 A 
ATOM     23  C   UNL     1       9.075  47.367  54.500  1.00  0.00     0.002 A 
ATOM     24  C   UNL     1      10.240  47.120  53.779  1.00  0.00     0.000 A 
ENDBRANCH  17  19
ENDBRANCH  10  17
ENDBRANCH   5   7
ENDBRANCH   1   5
TORSDOF 6
ENDMDL
MODEL 10
REMARK VINA RESULT:    -8.096      2.435      6.669
REMARK INTER + INTRA:         -11.592
REMARK INTER:                 -10.844
REMARK INTRA:                  -0.748
REMARK UNBOUND:                -0.656
REMARK SMILES CCCCNc1nc(Nc2ccccc2)c2cnn(C)c2n1
REMARK SMILES IDX 4 1 3 2 2 3 1 4 5 5 6 7 7 8 22 9 8 10 21 11 16 12 19 13
REMARK SMILES IDX 17 14 18 15 20 16 9 17 10 19 11 20 15 21 12 22 14 23 13 24
REMARK H PARENT 5 6 9 18
ROOT
ATOM      1  C   UNL     1       3.983  45.849  55.350  1.00  0.00     0.116 C 
ENDROOT
BRANCH   1   2
ATOM      2  C   UNL     1       2.519  45.920  54.904  1.00  0.00     0.021 C 
BRANCH   2   3
ATOM      3  C   UNL     1       2.276  45.262  53.544  1.00  0.00    -0.002 C 
ATOM      4  C   UNL     1       2.164  46.300  52.437  1.00  0.00     0.004 C 
ENDBRANCH   2   3
ENDBRANCH   1   2
BRANCH   1   5
ATOM      5  N   UNL     1       4.690  47.054  54.956  1.00  0.00    -0.354 N 
ATOM      6  H   UNL     1       5.015  47.644  55.714  1.00  0.00     0.163 HD
BRANCH   5   7
ATOM      7  C   UNL     1       5.805  46.836  54.153  1.00  0.00     0.226 A 
ATOM      8  N   UNL     1       5.650  46.293  52.930  1.00  0.00    -0.195 NA
ATOM      9  N   UNL     1       6.971  47.200  54.704  1.00  0.00    -0.193 NA
ATOM     10  C   UNL     1       6.730  46.067  52.140  1.00  0.00     0.147 A 
ATOM     11  C   UNL     1       8.018  47.000  53.890  1.00  0.00     0.165 A 
ATOM     12  C   UNL     1       7.981  46.455  52.622  1.00  0.00     0.082 A 
ATOM     13  N   UNL     1       9.331  47.297  54.133  1.00  0.00    -0.250 N 
ATOM     14  C   UNL     1       9.320  46.493  52.184  1.00  0.00     0.149 A 
ATOM     15  N   UNL     1      10.155  46.989  53.105  1.00  0.00    -0.179 NA
ATOM     16  C   UNL     1       9.878  47.894  55.325  1.00  0.00     0.176 C 
BRANCH  10  17
ATOM     17  N   UNL     1       6.485  45.518  50.873  1.00  0.00    -0.339 N 
ATOM     18  H   UNL     1       5.940  46.197  50.346  1.00  0.00     0.168 HD
BRANCH  17  19
ATOM     19  C   UNL     1       6.126  44.199  50.534  1.00  0.00     0.040 A 
ATOM     20  C   UNL     1       4.996  43.640  51.147  1.00  0.00     0.026 A 
ATOM     21  C   UNL     1       6.855  43.407  49.639  1.00  0.00     0.026 A 
ATOM     22  C   UNL     1       4.591  42.335  50.857  1.00  0.00     0.002 A 
ATOM     23  C   UNL     1       6.453  42.101  49.348  1.00  0.00     0.002 A 
ATOM     24  C   UNL     1       5.320  41.566  49.955  1.00  0.00     0.000 A 
ENDBRANCH  17  19
ENDBRANCH  10  17
ENDBRANCH   5   7
ENDBRANCH   1   5
TORSDOF 6
ENDMDL
MODEL 11
REMARK VINA RESULT:    -8.091      1.104      6.770
REMARK INTER + INTRA:         -11.585
REMARK INTER:                 -10.995
REMARK INTRA:                  -0.590
REMARK UNBOUND:                -0.656
REMARK SMILES CCCCNc1nc(Nc2ccccc2)c2cnn(C)c2n1
REMARK SMILES IDX 4 1 3 2 2 3 1 4 5 5 6 7 7 8 22 9 8 10 21 11 16 12 19 13
REMARK SMILES IDX 17 14 18 15 20 16 9 17 10 19 11 20 15 21 12 22 14 23 13 24
REMARK H PARENT 5 6 9 18
ROOT
ATOM      1  C   UNL     1       7.626  46.680  52.070  1.00  0.00     0.116 C 
ENDROOT
BRANCH   1   2
ATOM      2  C   UNL     1       8.938  47.466  52.140  1.00  0.00     0.021 C 
BRANCH   2   3
ATOM      3  C   UNL     1       9.924  46.894  53.162  1.00  0.00    -0.002 C 
ATOM      4  C   UNL     1       9.709  47.500  54.541  1.00  0.00     0.004 C 
ENDBRANCH   2   3
ENDBRANCH   1   2
BRANCH   1   5
ATOM      5  N   UNL     1       7.561  45.913  50.839  1.00  0.00    -0.354 N 
ATOM      6  H   UNL     1       8.432  45.498  50.529  1.00  0.00     0.163 HD
BRANCH   5   7
ATOM      7  C   UNL     1       6.640  44.870  50.853  1.00  0.00     0.226 A 
ATOM      8  N   UNL     1       6.777  43.848  49.986  1.00  0.00    -0.195 NA
ATOM      9  N   UNL     1       5.667  44.996  51.764  1.00  0.00    -0.193 NA
ATOM     10  C   UNL     1       5.882  42.828  49.983  1.00  0.00     0.147 A 
ATOM     11  C   UNL     1       4.816  43.959  51.766  1.00  0.00     0.165 A 
ATOM     12  C   UNL     1       4.857  42.862  50.930  1.00  0.00     0.082 A 
ATOM     13  N   UNL     1       3.743  43.764  52.592  1.00  0.00    -0.250 N 
ATOM     14  C   UNL     1       3.779  42.057  51.354  1.00  0.00     0.149 A 
ATOM     15  N   UNL     1       3.082  42.606  52.356  1.00  0.00    -0.179 NA
ATOM     16  C   UNL     1       3.291  44.635  53.647  1.00  0.00     0.176 C 
BRANCH  10  17
ATOM     17  N   UNL     1       6.103  41.792  49.066  1.00  0.00    -0.339 N 
ATOM     18  H   UNL     1       7.105  41.747  48.891  1.00  0.00     0.168 HD
BRANCH  17  19
ATOM     19  C   UNL     1       5.368  41.458  47.913  1.00  0.00     0.040 A 
ATOM     20  C   UNL     1       4.243  40.634  48.058  1.00  0.00     0.026 A 
ATOM     21  C   UNL     1       5.716  41.884  46.625  1.00  0.00     0.026 A 
ATOM     22  C   UNL     1       3.474  40.263  46.952  1.00  0.00     0.002 A 
ATOM     23  C   UNL     1       4.949  41.514  45.517  1.00  0.00     0.002 A 
ATOM     24  C   UNL     1       3.827  40.705  45.681  1.00  0.00     0.000 A 
ENDBRANCH  17  19
ENDBRANCH  10  17
ENDBRANCH   5   7
ENDBRANCH   1   5
TORSDOF 6
ENDMDL
MODEL 12
REMARK VINA RESULT:    -7.901      2.322      5.905
REMARK INTER + INTRA:         -11.327
REMARK INTER:                 -11.144
REMARK INTRA:                  -0.184
REMARK UNBOUND:                -0.656
REMARK SMILES CCCCNc1nc(Nc2ccccc2)c2cnn(C)c2n1
REMARK SMILES IDX 4 1 3 2 2 3 1 4 5 5 6 7 7 8 22 9 8 10 21 11 16 12 19 13
REMARK SMILES IDX 17 14 18 15 20 16 9 17 10 19 11 20 15 21 12 22 14 23 13 24
REMARK H PARENT 5 6 9 18
ROOT
ATOM      1  C   UNL     1       7.484  46.466  54.231  1.00  0.00     0.116 C 
ENDROOT
BRANCH   1   2
ATOM      2  C   UNL     1       8.492  47.569  54.564  1.00  0.00     0.021 C 
BRANCH   2   3
ATOM      3  C   UNL     1       9.903  47.264  54.054  1.00  0.00    -0.002 C 
ATOM      4  C   UNL     1       9.872  46.681  52.650  1.00  0.00     0.004 C 
ENDBRANCH   2   3
ENDBRANCH   1   2
BRANCH   1   5
ATOM      5  N   UNL     1       6.212  46.730  54.880  1.00  0.00    -0.354 N 
ATOM      6  H   UNL     1       5.900  47.694  54.866  1.00  0.00     0.163 HD
BRANCH   5   7
ATOM      7  C   UNL     1       5.143  45.990  54.384  1.00  0.00     0.226 A 
ATOM      8  N   UNL     1       5.260  45.363  53.197  1.00  0.00    -0.195 NA
ATOM      9  N   UNL     1       4.059  45.979  55.170  1.00  0.00    -0.193 NA
ATOM     10  C   UNL     1       4.222  44.645  52.698  1.00  0.00     0.147 A 
ATOM     11  C   UNL     1       3.060  45.234  54.672  1.00  0.00     0.165 A 
ATOM     12  C   UNL     1       3.066  44.549  53.474  1.00  0.00     0.082 A 
ATOM     13  N   UNL     1       1.841  44.988  55.241  1.00  0.00    -0.250 N 
ATOM     14  C   UNL     1       1.812  43.906  53.432  1.00  0.00     0.149 A 
ATOM     15  N   UNL     1       1.049  44.181  54.497  1.00  0.00    -0.179 NA
ATOM     16  C   UNL     1       1.361  45.479  56.508  1.00  0.00     0.176 C 
BRANCH  10  17
ATOM     17  N   UNL     1       4.427  44.005  51.468  1.00  0.00    -0.339 N 
ATOM     18  H   UNL     1       3.900  43.135  51.483  1.00  0.00     0.168 HD
BRANCH  17  19
ATOM     19  C   UNL     1       5.618  43.868  50.729  1.00  0.00     0.040 A 
ATOM     20  C   UNL     1       6.454  44.987  50.603  1.00  0.00     0.026 A 
ATOM     21  C   UNL     1       5.998  42.681  50.091  1.00  0.00     0.026 A 
ATOM     22  C   UNL     1       7.647  44.917  49.880  1.00  0.00     0.002 A 
ATOM     23  C   UNL     1       7.191  42.609  49.366  1.00  0.00     0.002 A 
ATOM     24  C   UNL     1       8.016  43.726  49.262  1.00  0.00     0.000 A 
ENDBRANCH  17  19
ENDBRANCH  10  17
ENDBRANCH   5   7
ENDBRANCH   1   5
TORSDOF 6
ENDMDL
MODEL 13
REMARK VINA RESULT:    -7.865      2.278      5.855
REMARK INTER + INTRA:         -11.280
REMARK INTER:                 -11.026
REMARK INTRA:                  -0.254
REMARK UNBOUND:                -0.656
REMARK SMILES CCCCNc1nc(Nc2ccccc2)c2cnn(C)c2n1
REMARK SMILES IDX 4 1 3 2 2 3 1 4 5 5 6 7 7 8 22 9 8 10 21 11 16 12 19 13
REMARK SMILES IDX 17 14 18 15 20 16 9 17 10 19 11 20 15 21 12 22 14 23 13 24
REMARK H PARENT 5 6 9 18
ROOT
ATOM      1  C   UNL     1       7.066  46.629  54.546  1.00  0.00     0.116 C 
ENDROOT
BRANCH   1   2
ATOM      2  C   UNL     1       7.732  47.517  53.491  1.00  0.00     0.021 C 
BRANCH   2   3
ATOM      3  C   UNL     1       9.259  47.539  53.606  1.00  0.00    -0.002 C 
ATOM      4  C   UNL     1       9.904  46.586  52.611  1.00  0.00     0.004 C 
ENDBRANCH   2   3
ENDBRANCH   1   2
BRANCH   1   5
ATOM      5  N   UNL     1       5.689  47.041  54.757  1.00  0.00    -0.354 N 
ATOM      6  H   UNL     1       5.431  47.939  54.365  1.00  0.00     0.163 HD
BRANCH   5   7
ATOM      7  C   UNL     1       4.737  46.144  54.285  1.00  0.00     0.226 A 
ATOM      8  N   UNL     1       4.974  45.454  53.153  1.00  0.00    -0.195 NA
ATOM      9  N   UNL     1       3.630  46.057  55.035  1.00  0.00    -0.193 NA
ATOM     10  C   UNL     1       4.050  44.582  52.676  1.00  0.00     0.147 A 
ATOM     11  C   UNL     1       2.748  45.164  54.563  1.00  0.00     0.165 A 
ATOM     12  C   UNL     1       2.883  44.401  53.420  1.00  0.00     0.082 A 
ATOM     13  N   UNL     1       1.545  44.812  55.110  1.00  0.00    -0.250 N 
ATOM     14  C   UNL     1       1.717  43.610  53.386  1.00  0.00     0.149 A 
ATOM     15  N   UNL     1       0.885  43.864  54.404  1.00  0.00    -0.179 NA
ATOM     16  C   UNL     1       0.959  45.329  56.321  1.00  0.00     0.176 C 
BRANCH  10  17
ATOM     17  N   UNL     1       4.379  43.887  51.503  1.00  0.00    -0.339 N 
ATOM     18  H   UNL     1       4.016  42.941  51.597  1.00  0.00     0.168 HD
BRANCH  17  19
ATOM     19  C   UNL     1       5.582  43.904  50.773  1.00  0.00     0.040 A 
ATOM     20  C   UNL     1       5.945  42.751  50.063  1.00  0.00     0.026 A 
ATOM     21  C   UNL     1       6.449  45.004  50.740  1.00  0.00     0.026 A 
ATOM     22  C   UNL     1       7.129  42.703  49.323  1.00  0.00     0.002 A 
ATOM     23  C   UNL     1       7.635  44.958  50.001  1.00  0.00     0.002 A 
ATOM     24  C   UNL     1       7.973  43.808  49.291  1.00  0.00     0.000 A 
ENDBRANCH  17  19
ENDBRANCH  10  17
ENDBRANCH   5   7
ENDBRANCH   1   5
TORSDOF 6
ENDMDL
MODEL 14
REMARK VINA RESULT:    -7.825      2.210      6.719
REMARK INTER + INTRA:         -11.226
REMARK INTER:                 -10.692
REMARK INTRA:                  -0.534
REMARK UNBOUND:                -0.656
REMARK SMILES CCCCNc1nc(Nc2ccccc2)c2cnn(C)c2n1
REMARK SMILES IDX 4 1 3 2 2 3 1 4 5 5 6 7 7 8 22 9 8 10 21 11 16 12 19 13
REMARK SMILES IDX 17 14 18 15 20 16 9 17 10 19 11 20 15 21 12 22 14 23 13 24
REMARK H PARENT 5 6 9 18
ROOT
ATOM      1  C   UNL     1       9.923  46.861  52.259  1.00  0.00     0.116 C 
ENDROOT
BRANCH   1   2
ATOM      2  C   UNL     1       9.576  46.433  53.688  1.00  0.00     0.021 C 
BRANCH   2   3
ATOM      3  C   UNL     1       9.592  47.597  54.682  1.00  0.00    -0.002 C 
ATOM      4  C   UNL     1      10.677  47.416  55.732  1.00  0.00     0.004 C 
ENDBRANCH   2   3
ENDBRANCH   1   2
BRANCH   1   5
ATOM      5  N   UNL     1       8.787  47.519  51.638  1.00  0.00    -0.354 N 
ATOM      6  H   UNL     1       8.917  47.814  50.677  1.00  0.00     0.163 HD
BRANCH   5   7
ATOM      7  C   UNL     1       7.613  46.772  51.639  1.00  0.00     0.226 A 
ATOM      8  N   UNL     1       6.545  47.210  52.333  1.00  0.00    -0.195 NA
ATOM      9  N   UNL     1       7.669  45.642  50.922  1.00  0.00    -0.193 NA
ATOM     10  C   UNL     1       5.396  46.487  52.350  1.00  0.00     0.147 A 
ATOM     11  C   UNL     1       6.512  44.964  50.925  1.00  0.00     0.165 A 
ATOM     12  C   UNL     1       5.356  45.314  51.595  1.00  0.00     0.082 A 
ATOM     13  N   UNL     1       6.227  43.800  50.266  1.00  0.00    -0.250 N 
ATOM     14  C   UNL     1       4.432  44.305  51.252  1.00  0.00     0.149 A 
ATOM     15  N   UNL     1       4.958  43.367  50.455  1.00  0.00    -0.179 NA
ATOM     16  C   UNL     1       7.115  43.042  49.420  1.00  0.00     0.176 C 
BRANCH  10  17
ATOM     17  N   UNL     1       4.323  47.019  53.078  1.00  0.00    -0.339 N 
ATOM     18  H   UNL     1       4.687  47.778  53.649  1.00  0.00     0.168 HD
BRANCH  17  19
ATOM     19  C   UNL     1       3.276  46.342  53.733  1.00  0.00     0.040 A 
ATOM     20  C   UNL     1       3.521  45.817  55.010  1.00  0.00     0.026 A 
ATOM     21  C   UNL     1       2.012  46.143  53.165  1.00  0.00     0.026 A 
ATOM     22  C   UNL     1       2.527  45.131  55.710  1.00  0.00     0.002 A 
ATOM     23  C   UNL     1       1.015  45.456  53.863  1.00  0.00     0.002 A 
ATOM     24  C   UNL     1       1.271  44.952  55.136  1.00  0.00     0.000 A 
ENDBRANCH  17  19
ENDBRANCH  10  17
ENDBRANCH   5   7
ENDBRANCH   1   5
TORSDOF 6
ENDMDL
MODEL 15
REMARK VINA RESULT:    -7.806      2.002      7.053
REMARK INTER + INTRA:         -11.199
REMARK INTER:                 -10.492
REMARK INTRA:                  -0.708
REMARK UNBOUND:                -0.656
REMARK SMILES CCCCNc1nc(Nc2ccccc2)c2cnn(C)c2n1
REMARK SMILES IDX 4 1 3 2 2 3 1 4 5 5 6 7 7 8 22 9 8 10 21 11 16 12 19 13
REMARK SMILES IDX 17 14 18 15 20 16 9 17 10 19 11 20 15 21 12 22 14 23 13 24
REMARK H PARENT 5 6 9 18
ROOT
ATOM      1  C   UNL     1       7.536  47.537  52.311  1.00  0.00     0.116 C 
ENDROOT
BRANCH   1   2
ATOM      2  C   UNL     1       8.388  47.282  53.558  1.00  0.00     0.021 C 
BRANCH   2   3
ATOM      3  C   UNL     1       9.881  47.147  53.245  1.00  0.00    -0.002 C 
ATOM      4  C   UNL     1      10.124  46.158  52.115  1.00  0.00     0.004 C 
ENDBRANCH   2   3
ENDBRANCH   1   2
BRANCH   1   5
ATOM      5  N   UNL     1       6.169  47.100  52.535  1.00  0.00    -0.354 N 
ATOM      6  H   UNL     1       5.446  47.687  52.136  1.00  0.00     0.163 HD
BRANCH   5   7
ATOM      7  C   UNL     1       5.891  45.814  52.083  1.00  0.00     0.226 A 
ATOM      8  N   UNL     1       4.889  45.111  52.647  1.00  0.00    -0.195 NA
ATOM      9  N   UNL     1       6.685  45.385  51.093  1.00  0.00    -0.193 NA
ATOM     10  C   UNL     1       4.613  43.852  52.223  1.00  0.00     0.147 A 
ATOM     11  C   UNL     1       6.369  44.153  50.667  1.00  0.00     0.165 A 
ATOM     12  C   UNL     1       5.368  43.343  51.165  1.00  0.00     0.082 A 
ATOM     13  N   UNL     1       6.956  43.446  49.654  1.00  0.00    -0.250 N 
ATOM     14  C   UNL     1       5.424  42.183  50.365  1.00  0.00     0.149 A 
ATOM     15  N   UNL     1       6.401  42.228  49.451  1.00  0.00    -0.179 NA
ATOM     16  C   UNL     1       8.049  43.874  48.818  1.00  0.00     0.176 C 
BRANCH  10  17
ATOM     17  N   UNL     1       3.543  43.194  52.845  1.00  0.00    -0.339 N 
ATOM     18  H   UNL     1       3.878  42.280  53.143  1.00  0.00     0.168 HD
BRANCH  17  19
ATOM     19  C   UNL     1       2.190  43.142  52.459  1.00  0.00     0.040 A 
ATOM     20  C   UNL     1       1.258  42.627  53.370  1.00  0.00     0.026 A 
ATOM     21  C   UNL     1       1.731  43.553  51.201  1.00  0.00     0.026 A 
ATOM     22  C   UNL     1      -0.098  42.545  53.045  1.00  0.00     0.002 A 
ATOM     23  C   UNL     1       0.375  43.471  50.873  1.00  0.00     0.002 A 
ATOM     24  C   UNL     1      -0.540  42.969  51.796  1.00  0.00     0.000 A 
ENDBRANCH  17  19
ENDBRANCH  10  17
ENDBRANCH   5   7
ENDBRANCH   1   5
TORSDOF 6
ENDMDL
MODEL 16
REMARK VINA RESULT:    -7.786      1.875      7.107
REMARK INTER + INTRA:         -11.173
REMARK INTER:                 -10.538
REMARK INTRA:                  -0.635
REMARK UNBOUND:                -0.656
REMARK SMILES CCCCNc1nc(Nc2ccccc2)c2cnn(C)c2n1
REMARK SMILES IDX 4 1 3 2 2 3 1 4 5 5 6 7 7 8 22 9 8 10 21 11 16 12 19 13
REMARK SMILES IDX 17 14 18 15 20 16 9 17 10 19 11 20 15 21 12 22 14 23 13 24
REMARK H PARENT 5 6 9 18
ROOT
ATOM      1  C   UNL     1       7.772  46.749  51.659  1.00  0.00     0.116 C 
ENDROOT
BRANCH   1   2
ATOM      2  C   UNL     1       8.688  47.718  52.412  1.00  0.00     0.021 C 
BRANCH   2   3
ATOM      3  C   UNL     1       9.900  47.026  53.043  1.00  0.00    -0.002 C 
ATOM      4  C   UNL     1       9.943  47.246  54.548  1.00  0.00     0.004 C 
ENDBRANCH   2   3
ENDBRANCH   1   2
BRANCH   1   5
ATOM      5  N   UNL     1       6.423  46.809  52.194  1.00  0.00    -0.354 N 
ATOM      6  H   UNL     1       5.815  47.508  51.784  1.00  0.00     0.163 HD
BRANCH   5   7
ATOM      7  C   UNL     1       5.715  45.614  52.117  1.00  0.00     0.226 A 
ATOM      8  N   UNL     1       4.700  45.384  52.972  1.00  0.00    -0.195 NA
ATOM      9  N   UNL     1       6.137  44.775  51.162  1.00  0.00    -0.193 NA
ATOM     10  C   UNL     1       4.007  44.219  52.915  1.00  0.00     0.147 A 
ATOM     11  C   UNL     1       5.414  43.646  51.102  1.00  0.00     0.165 A 
ATOM     12  C   UNL     1       4.356  43.304  51.920  1.00  0.00     0.082 A 
ATOM     13  N   UNL     1       5.560  42.610  50.221  1.00  0.00    -0.250 N 
ATOM     14  C   UNL     1       3.925  42.054  51.431  1.00  0.00     0.149 A 
ATOM     15  N   UNL     1       4.663  41.613  50.405  1.00  0.00    -0.179 NA
ATOM     16  C   UNL     1       6.530  42.503  49.161  1.00  0.00     0.176 C 
BRANCH  10  17
ATOM     17  N   UNL     1       2.952  44.063  53.825  1.00  0.00    -0.339 N 
ATOM     18  H   UNL     1       3.276  43.446  54.566  1.00  0.00     0.168 HD
BRANCH  17  19
ATOM     19  C   UNL     1       1.581  43.875  53.566  1.00  0.00     0.040 A 
ATOM     20  C   UNL     1       0.789  45.007  53.326  1.00  0.00     0.026 A 
ATOM     21  C   UNL     1       0.961  42.620  53.562  1.00  0.00     0.026 A 
ATOM     22  C   UNL     1      -0.579  44.889  53.069  1.00  0.00     0.002 A 
ATOM     23  C   UNL     1      -0.408  42.498  53.306  1.00  0.00     0.002 A 
ATOM     24  C   UNL     1      -1.177  43.632  53.057  1.00  0.00     0.000 A 
ENDBRANCH  17  19
ENDBRANCH  10  17
ENDBRANCH   5   7
ENDBRANCH   1   5
TORSDOF 6
ENDMDL
MODEL 17
REMARK VINA RESULT:    -7.737      2.986      5.982
REMARK INTER + INTRA:         -11.107
REMARK INTER:                 -10.407
REMARK INTRA:                  -0.700
REMARK UNBOUND:                -0.656
REMARK SMILES CCCCNc1nc(Nc2ccccc2)c2cnn(C)c2n1
REMARK SMILES IDX 4 1 3 2 2 3 1 4 5 5 6 7 7 8 22 9 8 10 21 11 16 12 19 13
REMARK SMILES IDX 17 14 18 15 20 16 9 17 10 19 11 20 15 21 12 22 14 23 13 24
REMARK H PARENT 5 6 9 18
ROOT
ATOM      1  C   UNL     1       1.673  45.088  56.352  1.00  0.00     0.116 C 
ENDROOT
BRANCH   1   2
ATOM      2  C   UNL     1       0.550  45.750  57.155  1.00  0.00     0.021 C 
BRANCH   2   3
ATOM      3  C   UNL     1      -0.814  45.653  56.468  1.00  0.00    -0.002 C 
ATOM      4  C   UNL     1      -0.807  44.608  55.363  1.00  0.00     0.004 C 
ENDBRANCH   2   3
ENDBRANCH   1   2
BRANCH   1   5
ATOM      5  N   UNL     1       2.765  46.022  56.142  1.00  0.00    -0.354 N 
ATOM      6  H   UNL     1       3.482  46.032  56.857  1.00  0.00     0.163 HD
BRANCH   5   7
ATOM      7  C   UNL     1       3.445  45.860  54.939  1.00  0.00     0.226 A 
ATOM      8  N   UNL     1       4.438  46.710  54.615  1.00  0.00    -0.195 NA
ATOM      9  N   UNL     1       3.021  44.832  54.192  1.00  0.00    -0.193 NA
ATOM     10  C   UNL     1       5.104  46.569  53.440  1.00  0.00     0.147 A 
ATOM     11  C   UNL     1       3.717  44.692  53.054  1.00  0.00     0.165 A 
ATOM     12  C   UNL     1       4.751  45.497  52.619  1.00  0.00     0.082 A 
ATOM     13  N   UNL     1       3.563  43.727  52.097  1.00  0.00    -0.250 N 
ATOM     14  C   UNL     1       5.161  44.914  51.402  1.00  0.00     0.149 A 
ATOM     15  N   UNL     1       4.432  43.844  51.065  1.00  0.00    -0.179 NA
ATOM     16  C   UNL     1       2.611  42.645  52.102  1.00  0.00     0.176 C 
BRANCH  10  17
ATOM     17  N   UNL     1       6.137  47.480  53.184  1.00  0.00    -0.339 N 
ATOM     18  H   UNL     1       5.807  48.124  52.469  1.00  0.00     0.168 HD
BRANCH  17  19
ATOM     19  C   UNL     1       7.518  47.239  53.056  1.00  0.00     0.040 A 
ATOM     20  C   UNL     1       8.304  47.243  54.217  1.00  0.00     0.026 A 
ATOM     21  C   UNL     1       8.153  47.022  51.827  1.00  0.00     0.026 A 
ATOM     22  C   UNL     1       9.681  47.015  54.157  1.00  0.00     0.002 A 
ATOM     23  C   UNL     1       9.531  46.795  51.763  1.00  0.00     0.002 A 
ATOM     24  C   UNL     1      10.294  46.789  52.928  1.00  0.00     0.000 A 
ENDBRANCH  17  19
ENDBRANCH  10  17
ENDBRANCH   5   7
ENDBRANCH   1   5
TORSDOF 6
ENDMDL
MODEL 18
REMARK VINA RESULT:    -7.372      2.272      5.677
REMARK INTER + INTRA:         -10.614
REMARK INTER:                  -9.856
REMARK INTRA:                  -0.758
REMARK UNBOUND:                -0.656
REMARK SMILES CCCCNc1nc(Nc2ccccc2)c2cnn(C)c2n1
REMARK SMILES IDX 4 1 3 2 2 3 1 4 5 5 6 7 7 8 22 9 8 10 21 11 16 12 19 13
REMARK SMILES IDX 17 14 18 15 20 16 9 17 10 19 11 20 15 21 12 22 14 23 13 24
REMARK H PARENT 5 6 9 18
ROOT
ATOM      1  C   UNL     1       8.370  44.109  49.531  1.00  0.00     0.116 C 
ENDROOT
BRANCH   1   2
ATOM      2  C   UNL     1       7.643  43.045  48.704  1.00  0.00     0.021 C 
BRANCH   2   3
ATOM      3  C   UNL     1       6.229  42.754  49.214  1.00  0.00    -0.002 C 
ATOM      4  C   UNL     1       6.198  41.509  50.087  1.00  0.00     0.004 C 
ENDBRANCH   2   3
ENDBRANCH   1   2
BRANCH   1   5
ATOM      5  N   UNL     1       7.607  45.344  49.548  1.00  0.00    -0.354 N 
ATOM      6  H   UNL     1       6.772  45.357  48.974  1.00  0.00     0.163 HD
BRANCH   5   7
ATOM      7  C   UNL     1       7.192  45.752  50.811  1.00  0.00     0.226 A 
ATOM      8  N   UNL     1       5.885  45.700  51.133  1.00  0.00    -0.195 NA
ATOM      9  N   UNL     1       8.177  46.179  51.613  1.00  0.00    -0.193 NA
ATOM     10  C   UNL     1       5.465  46.103  52.359  1.00  0.00     0.147 A 
ATOM     11  C   UNL     1       7.741  46.538  52.830  1.00  0.00     0.165 A 
ATOM     12  C   UNL     1       6.433  46.525  53.271  1.00  0.00     0.082 A 
ATOM     13  N   UNL     1       8.491  46.979  53.886  1.00  0.00    -0.250 N 
ATOM     14  C   UNL     1       6.511  46.954  54.612  1.00  0.00     0.149 A 
ATOM     15  N   UNL     1       7.760  47.250  54.992  1.00  0.00    -0.179 NA
ATOM     16  C   UNL     1       9.921  47.155  53.921  1.00  0.00     0.176 C 
BRANCH  10  17
ATOM     17  N   UNL     1       4.092  45.999  52.625  1.00  0.00    -0.339 N 
ATOM     18  H   UNL     1       3.947  46.273  53.594  1.00  0.00     0.168 HD
BRANCH  17  19
ATOM     19  C   UNL     1       3.190  44.991  52.238  1.00  0.00     0.040 A 
ATOM     20  C   UNL     1       3.474  43.668  52.605  1.00  0.00     0.026 A 
ATOM     21  C   UNL     1       2.037  45.236  51.481  1.00  0.00     0.026 A 
ATOM     22  C   UNL     1       2.621  42.622  52.246  1.00  0.00     0.002 A 
ATOM     23  C   UNL     1       1.182  44.191  51.120  1.00  0.00     0.002 A 
ATOM     24  C   UNL     1       1.473  42.885  51.505  1.00  0.00     0.000 A 
ENDBRANCH  17  19
ENDBRANCH  10  17
ENDBRANCH   5   7
ENDBRANCH   1   5
TORSDOF 6
ENDMDL
MODEL 19
REMARK VINA RESULT:    -7.345      2.768      6.282
REMARK INTER + INTRA:         -10.578
REMARK INTER:                 -10.079
REMARK INTRA:                  -0.499
REMARK UNBOUND:                -0.656
REMARK SMILES CCCCNc1nc(Nc2ccccc2)c2cnn(C)c2n1
REMARK SMILES IDX 4 1 3 2 2 3 1 4 5 5 6 7 7 8 22 9 8 10 21 11 16 12 19 13
REMARK SMILES IDX 17 14 18 15 20 16 9 17 10 19 11 20 15 21 12 22 14 23 13 24
REMARK H PARENT 5 6 9 18
ROOT
ATOM      1  C   UNL     1       4.485  46.622  54.136  1.00  0.00     0.116 C 
ENDROOT
BRANCH   1   2
ATOM      2  C   UNL     1       5.966  46.534  54.517  1.00  0.00     0.021 C 
BRANCH   2   3
ATOM      3  C   UNL     1       6.843  45.989  53.387  1.00  0.00    -0.002 C 
ATOM      4  C   UNL     1       7.043  47.023  52.291  1.00  0.00     0.004 C 
ENDBRANCH   2   3
ENDBRANCH   1   2
BRANCH   1   5
ATOM      5  N   UNL     1       3.680  45.834  55.051  1.00  0.00    -0.354 N 
ATOM      6  H   UNL     1       3.090  46.359  55.687  1.00  0.00     0.163 HD
BRANCH   5   7
ATOM      7  C   UNL     1       2.834  44.915  54.437  1.00  0.00     0.226 A 
ATOM      8  N   UNL     1       3.315  44.109  53.471  1.00  0.00    -0.195 NA
ATOM      9  N   UNL     1       1.572  44.930  54.885  1.00  0.00    -0.193 NA
ATOM     10  C   UNL     1       2.500  43.215  52.856  1.00  0.00     0.147 A 
ATOM     11  C   UNL     1       0.795  44.014  54.288  1.00  0.00     0.165 A 
ATOM     12  C   UNL     1       1.176  43.137  53.292  1.00  0.00     0.082 A 
ATOM     13  N   UNL     1      -0.522  43.747  54.541  1.00  0.00    -0.250 N 
ATOM     14  C   UNL     1       0.019  42.373  53.036  1.00  0.00     0.149 A 
ATOM     15  N   UNL     1      -1.028  42.748  53.780  1.00  0.00    -0.179 NA
ATOM     16  C   UNL     1      -1.368  44.397  55.510  1.00  0.00     0.176 C 
BRANCH  10  17
ATOM     17  N   UNL     1       3.079  42.398  51.875  1.00  0.00    -0.339 N 
ATOM     18  H   UNL     1       2.986  41.433  52.187  1.00  0.00     0.168 HD
BRANCH  17  19
ATOM     19  C   UNL     1       4.274  42.590  51.156  1.00  0.00     0.040 A 
ATOM     20  C   UNL     1       4.910  41.466  50.611  1.00  0.00     0.026 A 
ATOM     21  C   UNL     1       4.875  43.842  50.980  1.00  0.00     0.026 A 
ATOM     22  C   UNL     1       6.100  41.589  49.892  1.00  0.00     0.002 A 
ATOM     23  C   UNL     1       6.067  43.969  50.261  1.00  0.00     0.002 A 
ATOM     24  C   UNL     1       6.678  42.843  49.715  1.00  0.00     0.000 A 
ENDBRANCH  17  19
ENDBRANCH  10  17
ENDBRANCH   5   7
ENDBRANCH   1   5
TORSDOF 6
ENDMDL
MODEL 20
REMARK VINA RESULT:    -7.337      2.288      5.449
REMARK INTER + INTRA:         -10.566
REMARK INTER:                  -9.888
REMARK INTRA:                  -0.678
REMARK UNBOUND:                -0.656
REMARK SMILES CCCCNc1nc(Nc2ccccc2)c2cnn(C)c2n1
REMARK SMILES IDX 4 1 3 2 2 3 1 4 5 5 6 7 7 8 22 9 8 10 21 11 16 12 19 13
REMARK SMILES IDX 17 14 18 15 20 16 9 17 10 19 11 20 15 21 12 22 14 23 13 24
REMARK H PARENT 5 6 9 18
ROOT
ATOM      1  C   UNL     1       6.991  42.869  49.670  1.00  0.00     0.116 C 
ENDROOT
BRANCH   1   2
ATOM      2  C   UNL     1       6.205  41.555  49.631  1.00  0.00     0.021 C 
BRANCH   2   3
ATOM      3  C   UNL     1       4.984  41.561  50.554  1.00  0.00    -0.002 C 
ATOM      4  C   UNL     1       3.773  40.938  49.876  1.00  0.00     0.004 C 
ENDBRANCH   2   3
ENDBRANCH   1   2
BRANCH   1   5
ATOM      5  N   UNL     1       6.082  44.002  49.671  1.00  0.00    -0.354 N 
ATOM      6  H   UNL     1       5.103  43.784  49.811  1.00  0.00     0.163 HD
BRANCH   5   7
ATOM      7  C   UNL     1       6.380  44.984  50.610  1.00  0.00     0.226 A 
ATOM      8  N   UNL     1       5.382  45.581  51.290  1.00  0.00    -0.195 NA
ATOM      9  N   UNL     1       7.686  45.249  50.746  1.00  0.00    -0.193 NA
ATOM     10  C   UNL     1       5.657  46.547  52.203  1.00  0.00     0.147 A 
ATOM     11  C   UNL     1       7.935  46.181  51.680  1.00  0.00     0.165 A 
ATOM     12  C   UNL     1       6.998  46.857  52.435  1.00  0.00     0.082 A 
ATOM     13  N   UNL     1       9.155  46.648  52.085  1.00  0.00    -0.250 N 
ATOM     14  C   UNL     1       7.763  47.689  53.279  1.00  0.00     0.149 A 
ATOM     15  N   UNL     1       9.079  47.582  53.062  1.00  0.00    -0.179 NA
ATOM     16  C   UNL     1      10.447  46.239  51.595  1.00  0.00     0.176 C 
BRANCH  10  17
ATOM     17  N   UNL     1       4.567  47.107  52.882  1.00  0.00    -0.339 N 
ATOM     18  H   UNL     1       4.934  47.798  53.533  1.00  0.00     0.168 HD
BRANCH  17  19
ATOM     19  C   UNL     1       3.427  46.467  53.405  1.00  0.00     0.040 A 
ATOM     20  C   UNL     1       3.477  45.992  54.722  1.00  0.00     0.026 A 
ATOM     21  C   UNL     1       2.255  46.257  52.668  1.00  0.00     0.026 A 
ATOM     22  C   UNL     1       2.381  45.344  55.297  1.00  0.00     0.002 A 
ATOM     23  C   UNL     1       1.156  45.608  53.240  1.00  0.00     0.002 A 
ATOM     24  C   UNL     1       1.219  45.153  54.555  1.00  0.00     0.000 A 
ENDBRANCH  17  19
ENDBRANCH  10  17
ENDBRANCH   5   7
ENDBRANCH   1   5
TORSDOF 6
ENDMDL
