MODEL 1
REMARK VINA RESULT:    -8.419      0.000      0.000
REMARK INTER + INTRA:         -13.087
REMARK INTER:                 -11.864
REMARK INTRA:                  -1.223
REMARK UNBOUND:                -1.223
REMARK SMILES COCCCNc1nc(Nc2ccc(Cl)cc2C)c2cnn(C)c2n1
REMARK SMILES IDX 5 1 4 2 3 3 2 4 1 5 6 6 7 8 8 9 25 10 9 11 24 12 19 13 22 14
REMARK SMILES IDX 20 15 21 16 23 17 10 18 11 20 12 21 17 22 13 23 16 24 14 25
REMARK SMILES IDX 18 26 15 27
REMARK H PARENT 6 7 10 19
ROOT
ATOM      1  C   UNL     1       2.569  44.611  52.955  1.00  0.00     0.118 C 
ENDROOT
BRANCH   1   2
ATOM      2  C   UNL     1       2.239  45.730  53.946  1.00  0.00     0.050 C 
BRANCH   2   3
ATOM      3  C   UNL     1       2.964  45.539  55.274  1.00  0.00     0.161 C 
BRANCH   3   4
ATOM      4  O   UNL     1       4.244  46.167  55.289  1.00  0.00    -0.385 OA
ATOM      5  C   UNL     1       4.272  47.402  54.584  1.00  0.00     0.194 C 
ENDBRANCH   3   4
ENDBRANCH   2   3
ENDBRANCH   1   2
BRANCH   1   6
ATOM      6  N   UNL     1       3.877  44.033  53.221  1.00  0.00    -0.354 N 
ATOM      7  H   UNL     1       4.331  44.327  54.076  1.00  0.00     0.163 HD
BRANCH   6   8
ATOM      8  C   UNL     1       4.818  44.074  52.207  1.00  0.00     0.226 A 
ATOM      9  N   UNL     1       5.641  45.140  52.251  1.00  0.00    -0.195 NA
ATOM     10  N   UNL     1       4.845  43.104  51.283  1.00  0.00    -0.193 NA
ATOM     11  C   UNL     1       6.603  45.298  51.308  1.00  0.00     0.147 A 
ATOM     12  C   UNL     1       5.824  43.267  50.381  1.00  0.00     0.165 A 
ATOM     13  C   UNL     1       6.724  44.312  50.328  1.00  0.00     0.082 A 
ATOM     14  N   UNL     1       6.142  42.442  49.337  1.00  0.00    -0.250 N 
ATOM     15  C   UNL     1       7.549  44.008  49.225  1.00  0.00     0.149 A 
ATOM     16  N   UNL     1       7.191  42.879  48.602  1.00  0.00    -0.179 NA
ATOM     17  C   UNL     1       5.493  41.206  48.982  1.00  0.00     0.176 C 
BRANCH  11  18
ATOM     18  N   UNL     1       7.435  46.421  51.428  1.00  0.00    -0.339 N 
ATOM     19  H   UNL     1       7.930  46.517  50.543  1.00  0.00     0.168 HD
BRANCH  18  20
ATOM     20  C   UNL     1       8.268  46.779  52.512  1.00  0.00     0.043 A 
ATOM     21  C   UNL     1       7.761  47.418  53.655  1.00  0.00     0.028 A 
ATOM     22  C   UNL     1       9.631  46.416  52.483  1.00  0.00    -0.026 A 
ATOM     23  C   UNL     1       8.591  47.727  54.734  1.00  0.00     0.022 A 
ATOM     24  C   UNL     1      10.459  46.729  53.575  1.00  0.00     0.026 A 
ATOM     25  C   UNL     1       9.937  47.384  54.689  1.00  0.00     0.041 A 
ATOM     26  C   UNL     1      10.221  45.712  51.292  1.00  0.00     0.046 C 
ATOM     27  Cl  UNL     1      10.962  47.759  56.019  1.00  0.00    -0.084 Cl
ENDBRANCH  18  20
ENDBRANCH  11  18
ENDBRANCH   6   8
ENDBRANCH   1   6
TORSDOF 7
ENDMDL
MODEL 2
REMARK VINA RESULT:    -8.375      1.042      1.098
REMARK INTER + INTRA:         -13.026
REMARK INTER:                 -11.864
REMARK INTRA:                  -1.162
REMARK UNBOUND:                -1.223
REMARK SMILES COCCCNc1nc(Nc2ccc(Cl)cc2C)c2cnn(C)c2n1
REMARK SMILES IDX 5 1 4 2 3 3 2 4 1 5 6 6 7 8 8 9 25 10 9 11 24 12 19 13 22 14
REMARK SMILES IDX 20 15 21 16 23 17 10 18 11 20 12 21 17 22 13 23 16 24 14 25
REMARK SMILES IDX 18 26 15 27
REMARK H PARENT 6 7 10 19
ROOT
ATOM      1  C   UNL     1       2.474  43.381  52.804  1.00  0.00     0.118 C 
ENDROOT
BRANCH   1   2
ATOM      2  C   UNL     1       1.394  44.113  53.606  1.00  0.00     0.050 C 
BRANCH   2   3
ATOM      3  C   UNL     1       1.643  45.617  53.644  1.00  0.00     0.161 C 
BRANCH   3   4
ATOM      4  O   UNL     1       1.993  46.142  52.365  1.00  0.00    -0.385 OA
ATOM      5  C   UNL     1       2.891  47.243  52.437  1.00  0.00     0.194 C 
ENDBRANCH   3   4
ENDBRANCH   2   3
ENDBRANCH   1   2
BRANCH   1   6
ATOM      6  N   UNL     1       3.808  43.809  53.193  1.00  0.00    -0.354 N 
ATOM      7  H   UNL     1       3.861  44.628  53.785  1.00  0.00     0.163 HD
BRANCH   6   8
ATOM      8  C   UNL     1       4.758  43.945  52.196  1.00  0.00     0.226 A 
ATOM      9  N   UNL     1       5.514  45.056  52.293  1.00  0.00    -0.195 NA
ATOM     10  N   UNL     1       4.856  43.015  51.236  1.00  0.00    -0.193 NA
ATOM     11  C   UNL     1       6.477  45.309  51.372  1.00  0.00     0.147 A 
ATOM     12  C   UNL     1       5.834  43.272  50.356  1.00  0.00     0.165 A 
ATOM     13  C   UNL     1       6.670  44.371  50.357  1.00  0.00     0.082 A 
ATOM     14  N   UNL     1       6.215  42.509  49.287  1.00  0.00    -0.250 N 
ATOM     15  C   UNL     1       7.527  44.160  49.256  1.00  0.00     0.149 A 
ATOM     16  N   UNL     1       7.245  43.036  48.585  1.00  0.00    -0.179 NA
ATOM     17  C   UNL     1       5.647  41.251  48.875  1.00  0.00     0.176 C 
BRANCH  11  18
ATOM     18  N   UNL     1       7.238  46.474  51.547  1.00  0.00    -0.339 N 
ATOM     19  H   UNL     1       7.674  46.679  50.650  1.00  0.00     0.168 HD
BRANCH  18  20
ATOM     20  C   UNL     1       8.106  46.798  52.614  1.00  0.00     0.043 A 
ATOM     21  C   UNL     1       7.626  47.328  53.823  1.00  0.00     0.028 A 
ATOM     22  C   UNL     1       9.482  46.510  52.496  1.00  0.00    -0.026 A 
ATOM     23  C   UNL     1       8.494  47.604  54.882  1.00  0.00     0.022 A 
ATOM     24  C   UNL     1      10.347  46.788  53.568  1.00  0.00     0.026 A 
ATOM     25  C   UNL     1       9.851  47.335  54.749  1.00  0.00     0.041 A 
ATOM     26  C   UNL     1      10.045  45.922  51.230  1.00  0.00     0.046 C 
ATOM     27  Cl  UNL     1      10.921  47.669  56.053  1.00  0.00    -0.084 Cl
ENDBRANCH  18  20
ENDBRANCH  11  18
ENDBRANCH   6   8
ENDBRANCH   1   6
TORSDOF 7
ENDMDL
MODEL 3
REMARK VINA RESULT:    -8.037      2.808      5.243
REMARK INTER + INTRA:         -12.548
REMARK INTER:                 -11.872
REMARK INTRA:                  -0.676
REMARK UNBOUND:                -1.223
REMARK SMILES COCCCNc1nc(Nc2ccc(Cl)cc2C)c2cnn(C)c2n1
REMARK SMILES IDX 5 1 4 2 3 3 2 4 1 5 6 6 7 8 8 9 25 10 9 11 24 12 19 13 22 14
REMARK SMILES IDX 20 15 21 16 23 17 10 18 11 20 12 21 17 22 13 23 16 24 14 25
REMARK SMILES IDX 18 26 15 27
REMARK H PARENT 6 7 10 19
ROOT
ATOM      1  C   UNL     1       5.626  41.556  48.225  1.00  0.00     0.118 C 
ENDROOT
BRANCH   1   2
ATOM      2  C   UNL     1       5.747  41.829  46.723  1.00  0.00     0.050 C 
BRANCH   2   3
ATOM      3  C   UNL     1       4.606  41.187  45.940  1.00  0.00     0.161 C 
BRANCH   3   4
ATOM      4  O   UNL     1       4.709  41.423  44.538  1.00  0.00    -0.385 OA
ATOM      5  C   UNL     1       5.464  40.430  43.855  1.00  0.00     0.194 C 
ENDBRANCH   3   4
ENDBRANCH   2   3
ENDBRANCH   1   2
BRANCH   1   6
ATOM      6  N   UNL     1       6.606  42.314  48.985  1.00  0.00    -0.354 N 
ATOM      7  H   UNL     1       7.384  41.789  49.364  1.00  0.00     0.163 HD
BRANCH   6   8
ATOM      8  C   UNL     1       6.141  43.156  49.981  1.00  0.00     0.226 A 
ATOM      9  N   UNL     1       6.889  44.259  50.176  1.00  0.00    -0.195 NA
ATOM     10  N   UNL     1       5.034  42.831  50.664  1.00  0.00    -0.193 NA
ATOM     11  C   UNL     1       6.542  45.159  51.129  1.00  0.00     0.147 A 
ATOM     12  C   UNL     1       4.695  43.752  51.578  1.00  0.00     0.165 A 
ATOM     13  C   UNL     1       5.380  44.916  51.863  1.00  0.00     0.082 A 
ATOM     14  N   UNL     1       3.609  43.740  52.409  1.00  0.00    -0.250 N 
ATOM     15  C   UNL     1       4.610  45.538  52.868  1.00  0.00     0.149 A 
ATOM     16  N   UNL     1       3.537  44.820  53.222  1.00  0.00    -0.179 NA
ATOM     17  C   UNL     1       2.582  42.731  52.479  1.00  0.00     0.176 C 
BRANCH  11  18
ATOM     18  N   UNL     1       7.357  46.293  51.263  1.00  0.00    -0.339 N 
ATOM     19  H   UNL     1       7.875  46.386  50.390  1.00  0.00     0.168 HD
BRANCH  18  20
ATOM     20  C   UNL     1       8.157  46.668  52.365  1.00  0.00     0.043 A 
ATOM     21  C   UNL     1       7.607  47.285  53.501  1.00  0.00     0.028 A 
ATOM     22  C   UNL     1       9.530  46.346  52.364  1.00  0.00    -0.026 A 
ATOM     23  C   UNL     1       8.405  47.613  54.599  1.00  0.00     0.022 A 
ATOM     24  C   UNL     1      10.325  46.676  53.475  1.00  0.00     0.026 A 
ATOM     25  C   UNL     1       9.761  47.309  54.581  1.00  0.00     0.041 A 
ATOM     26  C   UNL     1      10.166  45.666  51.181  1.00  0.00     0.046 C 
ATOM     27  Cl  UNL     1      10.746  47.707  55.933  1.00  0.00    -0.084 Cl
ENDBRANCH  18  20
ENDBRANCH  11  18
ENDBRANCH   6   8
ENDBRANCH   1   6
TORSDOF 7
ENDMDL
MODEL 4
REMARK VINA RESULT:    -8.020      3.059      5.690
REMARK INTER + INTRA:         -12.525
REMARK INTER:                 -11.710
REMARK INTRA:                  -0.815
REMARK UNBOUND:                -1.223
REMARK SMILES COCCCNc1nc(Nc2ccc(Cl)cc2C)c2cnn(C)c2n1
REMARK SMILES IDX 5 1 4 2 3 3 2 4 1 5 6 6 7 8 8 9 25 10 9 11 24 12 19 13 22 14
REMARK SMILES IDX 20 15 21 16 23 17 10 18 11 20 12 21 17 22 13 23 16 24 14 25
REMARK SMILES IDX 18 26 15 27
REMARK H PARENT 6 7 10 19
ROOT
ATOM      1  C   UNL     1       4.082  45.732  55.493  1.00  0.00     0.118 C 
ENDROOT
BRANCH   1   2
ATOM      2  C   UNL     1       2.605  45.645  55.099  1.00  0.00     0.050 C 
BRANCH   2   3
ATOM      3  C   UNL     1       2.387  44.682  53.936  1.00  0.00     0.161 C 
BRANCH   3   4
ATOM      4  O   UNL     1       1.604  45.259  52.893  1.00  0.00    -0.385 OA
ATOM      5  C   UNL     1       2.182  46.435  52.341  1.00  0.00     0.194 C 
ENDBRANCH   3   4
ENDBRANCH   2   3
ENDBRANCH   1   2
BRANCH   1   6
ATOM      6  N   UNL     1       4.708  46.928  54.953  1.00  0.00    -0.354 N 
ATOM      7  H   UNL     1       4.114  47.537  54.405  1.00  0.00     0.163 HD
BRANCH   6   8
ATOM      8  C   UNL     1       5.903  46.778  54.269  1.00  0.00     0.226 A 
ATOM      9  N   UNL     1       5.782  46.223  53.048  1.00  0.00    -0.195 NA
ATOM     10  N   UNL     1       7.051  47.165  54.841  1.00  0.00    -0.193 NA
ATOM     11  C   UNL     1       6.881  46.016  52.281  1.00  0.00     0.147 A 
ATOM     12  C   UNL     1       8.118  46.979  54.051  1.00  0.00     0.165 A 
ATOM     13  C   UNL     1       8.116  46.425  52.786  1.00  0.00     0.082 A 
ATOM     14  N   UNL     1       9.420  47.299  54.320  1.00  0.00    -0.250 N 
ATOM     15  C   UNL     1       9.465  46.475  52.379  1.00  0.00     0.149 A 
ATOM     16  N   UNL     1      10.272  46.990  53.314  1.00  0.00    -0.179 NA
ATOM     17  C   UNL     1       9.931  47.916  55.517  1.00  0.00     0.176 C 
BRANCH  11  18
ATOM     18  N   UNL     1       6.677  45.451  51.013  1.00  0.00    -0.339 N 
ATOM     19  H   UNL     1       6.374  46.206  50.400  1.00  0.00     0.168 HD
BRANCH  18  20
ATOM     20  C   UNL     1       6.014  44.245  50.690  1.00  0.00     0.043 A 
ATOM     21  C   UNL     1       4.753  43.930  51.222  1.00  0.00     0.028 A 
ATOM     22  C   UNL     1       6.594  43.370  49.748  1.00  0.00    -0.026 A 
ATOM     23  C   UNL     1       4.094  42.753  50.860  1.00  0.00     0.022 A 
ATOM     24  C   UNL     1       5.922  42.189  49.388  1.00  0.00     0.026 A 
ATOM     25  C   UNL     1       4.682  41.886  49.947  1.00  0.00     0.041 A 
ATOM     26  C   UNL     1       7.934  43.671  49.132  1.00  0.00     0.046 C 
ATOM     27  Cl  UNL     1       3.870  40.438  49.495  1.00  0.00    -0.084 Cl
ENDBRANCH  18  20
ENDBRANCH  11  18
ENDBRANCH   6   8
ENDBRANCH   1   6
TORSDOF 7
ENDMDL
MODEL 5
REMARK VINA RESULT:    -7.906      2.555      4.817
REMARK INTER + INTRA:         -12.365
REMARK INTER:                 -11.571
REMARK INTRA:                  -0.794
REMARK UNBOUND:                -1.223
REMARK SMILES COCCCNc1nc(Nc2ccc(Cl)cc2C)c2cnn(C)c2n1
REMARK SMILES IDX 5 1 4 2 3 3 2 4 1 5 6 6 7 8 8 9 25 10 9 11 24 12 19 13 22 14
REMARK SMILES IDX 20 15 21 16 23 17 10 18 11 20 12 21 17 22 13 23 16 24 14 25
REMARK SMILES IDX 18 26 15 27
REMARK H PARENT 6 7 10 19
ROOT
ATOM      1  C   UNL     1       5.667  41.620  50.082  1.00  0.00     0.118 C 
ENDROOT
BRANCH   1   2
ATOM      2  C   UNL     1       5.050  41.086  48.786  1.00  0.00     0.050 C 
BRANCH   2   3
ATOM      3  C   UNL     1       3.620  40.601  49.002  1.00  0.00     0.161 C 
BRANCH   3   4
ATOM      4  O   UNL     1       3.178  39.734  47.959  1.00  0.00    -0.385 OA
ATOM      5  C   UNL     1       3.471  40.226  46.658  1.00  0.00     0.194 C 
ENDBRANCH   3   4
ENDBRANCH   2   3
ENDBRANCH   1   2
BRANCH   1   6
ATOM      6  N   UNL     1       4.644  41.966  51.056  1.00  0.00    -0.354 N 
ATOM      7  H   UNL     1       3.725  41.574  50.899  1.00  0.00     0.163 HD
BRANCH   6   8
ATOM      8  C   UNL     1       4.484  43.304  51.375  1.00  0.00     0.226 A 
ATOM      9  N   UNL     1       5.605  44.043  51.263  1.00  0.00    -0.195 NA
ATOM     10  N   UNL     1       3.285  43.756  51.767  1.00  0.00    -0.193 NA
ATOM     11  C   UNL     1       5.580  45.368  51.555  1.00  0.00     0.147 A 
ATOM     12  C   UNL     1       3.280  45.073  52.020  1.00  0.00     0.165 A 
ATOM     13  C   UNL     1       4.360  45.929  51.937  1.00  0.00     0.082 A 
ATOM     14  N   UNL     1       2.216  45.844  52.401  1.00  0.00    -0.250 N 
ATOM     15  C   UNL     1       3.833  47.193  52.273  1.00  0.00     0.149 A 
ATOM     16  N   UNL     1       2.530  47.149  52.576  1.00  0.00    -0.179 NA
ATOM     17  C   UNL     1       0.860  45.406  52.611  1.00  0.00     0.176 C 
BRANCH  11  18
ATOM     18  N   UNL     1       6.779  46.078  51.398  1.00  0.00    -0.339 N 
ATOM     19  H   UNL     1       7.257  45.673  50.595  1.00  0.00     0.168 HD
BRANCH  18  20
ATOM     20  C   UNL     1       7.706  46.459  52.395  1.00  0.00     0.043 A 
ATOM     21  C   UNL     1       7.291  47.011  53.617  1.00  0.00     0.028 A 
ATOM     22  C   UNL     1       9.079  46.206  52.193  1.00  0.00    -0.026 A 
ATOM     23  C   UNL     1       8.217  47.345  54.608  1.00  0.00     0.022 A 
ATOM     24  C   UNL     1      10.004  46.542  53.197  1.00  0.00     0.026 A 
ATOM     25  C   UNL     1       9.570  47.111  54.392  1.00  0.00     0.041 A 
ATOM     26  C   UNL     1       9.575  45.597  50.910  1.00  0.00     0.046 C 
ATOM     27  Cl  UNL     1      10.714  47.515  55.612  1.00  0.00    -0.084 Cl
ENDBRANCH  18  20
ENDBRANCH  11  18
ENDBRANCH   6   8
ENDBRANCH   1   6
TORSDOF 7
ENDMDL
MODEL 6
REMARK VINA RESULT:    -7.871      2.209      4.398
REMARK INTER + INTRA:         -12.315
REMARK INTER:                 -11.234
REMARK INTRA:                  -1.081
REMARK UNBOUND:                -1.223
REMARK SMILES COCCCNc1nc(Nc2ccc(Cl)cc2C)c2cnn(C)c2n1
REMARK SMILES IDX 5 1 4 2 3 3 2 4 1 5 6 6 7 8 8 9 25 10 9 11 24 12 19 13 22 14
REMARK SMILES IDX 20 15 21 16 23 17 10 18 11 20 12 21 17 22 13 23 16 24 14 25
REMARK SMILES IDX 18 26 15 27
REMARK H PARENT 6 7 10 19
ROOT
ATOM      1  C   UNL     1       3.865  41.352  50.428  1.00  0.00     0.118 C 
ENDROOT
BRANCH   1   2
ATOM      2  C   UNL     1       4.553  41.111  49.081  1.00  0.00     0.050 C 
BRANCH   2   3
ATOM      3  C   UNL     1       6.047  41.417  49.149  1.00  0.00     0.161 C 
BRANCH   3   4
ATOM      4  O   UNL     1       6.369  42.678  48.568  1.00  0.00    -0.385 OA
ATOM      5  C   UNL     1       7.615  43.199  49.012  1.00  0.00     0.194 C 
ENDBRANCH   3   4
ENDBRANCH   2   3
ENDBRANCH   1   2
BRANCH   1   6
ATOM      6  N   UNL     1       4.741  42.049  51.356  1.00  0.00    -0.354 N 
ATOM      7  H   UNL     1       4.893  41.601  52.251  1.00  0.00     0.163 HD
BRANCH   6   8
ATOM      8  C   UNL     1       4.494  43.391  51.592  1.00  0.00     0.226 A 
ATOM      9  N   UNL     1       5.575  44.186  51.476  1.00  0.00    -0.195 NA
ATOM     10  N   UNL     1       3.258  43.794  51.916  1.00  0.00    -0.193 NA
ATOM     11  C   UNL     1       5.465  45.521  51.689  1.00  0.00     0.147 A 
ATOM     12  C   UNL     1       3.170  45.121  52.092  1.00  0.00     0.165 A 
ATOM     13  C   UNL     1       4.203  46.031  51.996  1.00  0.00     0.082 A 
ATOM     14  N   UNL     1       2.051  45.849  52.392  1.00  0.00    -0.250 N 
ATOM     15  C   UNL     1       3.593  47.280  52.241  1.00  0.00     0.149 A 
ATOM     16  N   UNL     1       2.284  47.178  52.501  1.00  0.00    -0.179 NA
ATOM     17  C   UNL     1       0.714  45.345  52.580  1.00  0.00     0.176 C 
BRANCH  11  18
ATOM     18  N   UNL     1       6.628  46.290  51.532  1.00  0.00    -0.339 N 
ATOM     19  H   UNL     1       7.074  45.975  50.672  1.00  0.00     0.168 HD
BRANCH  18  20
ATOM     20  C   UNL     1       7.595  46.621  52.508  1.00  0.00     0.043 A 
ATOM     21  C   UNL     1       7.233  47.145  53.759  1.00  0.00     0.028 A 
ATOM     22  C   UNL     1       8.955  46.345  52.253  1.00  0.00    -0.026 A 
ATOM     23  C   UNL     1       8.198  47.428  54.727  1.00  0.00     0.022 A 
ATOM     24  C   UNL     1       9.919  46.630  53.235  1.00  0.00     0.026 A 
ATOM     25  C   UNL     1       9.538  47.172  54.460  1.00  0.00     0.041 A 
ATOM     26  C   UNL     1       9.395  45.764  50.937  1.00  0.00     0.046 C 
ATOM     27  Cl  UNL     1      10.730  47.515  55.652  1.00  0.00    -0.084 Cl
ENDBRANCH  18  20
ENDBRANCH  11  18
ENDBRANCH   6   8
ENDBRANCH   1   6
TORSDOF 7
ENDMDL
MODEL 7
REMARK VINA RESULT:    -7.863      1.115      1.881
REMARK INTER + INTRA:         -12.304
REMARK INTER:                 -11.488
REMARK INTRA:                  -0.817
REMARK UNBOUND:                -1.223
REMARK SMILES COCCCNc1nc(Nc2ccc(Cl)cc2C)c2cnn(C)c2n1
REMARK SMILES IDX 5 1 4 2 3 3 2 4 1 5 6 6 7 8 8 9 25 10 9 11 24 12 19 13 22 14
REMARK SMILES IDX 20 15 21 16 23 17 10 18 11 20 12 21 17 22 13 23 16 24 14 25
REMARK SMILES IDX 18 26 15 27
REMARK H PARENT 6 7 10 19
ROOT
ATOM      1  C   UNL     1       2.094  43.338  52.656  1.00  0.00     0.118 C 
ENDROOT
BRANCH   1   2
ATOM      2  C   UNL     1       1.170  44.135  53.581  1.00  0.00     0.050 C 
BRANCH   2   3
ATOM      3  C   UNL     1       1.692  45.549  53.816  1.00  0.00     0.161 C 
BRANCH   3   4
ATOM      4  O   UNL     1       1.542  46.381  52.667  1.00  0.00    -0.385 OA
ATOM      5  C   UNL     1       2.734  47.071  52.315  1.00  0.00     0.194 C 
ENDBRANCH   3   4
ENDBRANCH   2   3
ENDBRANCH   1   2
BRANCH   1   6
ATOM      6  N   UNL     1       3.471  43.370  53.122  1.00  0.00    -0.354 N 
ATOM      7  H   UNL     1       3.655  43.941  53.937  1.00  0.00     0.163 HD
BRANCH   6   8
ATOM      8  C   UNL     1       4.461  43.631  52.190  1.00  0.00     0.226 A 
ATOM      9  N   UNL     1       5.112  44.795  52.378  1.00  0.00    -0.195 NA
ATOM     10  N   UNL     1       4.692  42.757  51.201  1.00  0.00    -0.193 NA
ATOM     11  C   UNL     1       6.100  45.169  51.527  1.00  0.00     0.147 A 
ATOM     12  C   UNL     1       5.694  43.135  50.392  1.00  0.00     0.165 A 
ATOM     13  C   UNL     1       6.431  44.298  50.489  1.00  0.00     0.082 A 
ATOM     14  N   UNL     1       6.199  42.455  49.318  1.00  0.00    -0.250 N 
ATOM     15  C   UNL     1       7.363  44.210  49.433  1.00  0.00     0.149 A 
ATOM     16  N   UNL     1       7.218  43.098  48.702  1.00  0.00    -0.179 NA
ATOM     17  C   UNL     1       5.765  41.174  48.822  1.00  0.00     0.176 C 
BRANCH  11  18
ATOM     18  N   UNL     1       6.747  46.385  51.796  1.00  0.00    -0.339 N 
ATOM     19  H   UNL     1       6.975  46.801  50.895  1.00  0.00     0.168 HD
BRANCH  18  20
ATOM     20  C   UNL     1       7.764  46.643  52.742  1.00  0.00     0.043 A 
ATOM     21  C   UNL     1       9.125  46.552  52.407  1.00  0.00     0.028 A 
ATOM     22  C   UNL     1       7.409  47.081  54.035  1.00  0.00    -0.026 A 
ATOM     23  C   UNL     1      10.118  46.850  53.343  1.00  0.00     0.022 A 
ATOM     24  C   UNL     1       8.415  47.382  54.969  1.00  0.00     0.026 A 
ATOM     25  C   UNL     1       9.759  47.262  54.621  1.00  0.00     0.041 A 
ATOM     26  C   UNL     1       5.966  47.216  54.439  1.00  0.00     0.046 C 
ATOM     27  Cl  UNL     1      10.979  47.635  55.774  1.00  0.00    -0.084 Cl
ENDBRANCH  18  20
ENDBRANCH  11  18
ENDBRANCH   6   8
ENDBRANCH   1   6
TORSDOF 7
ENDMDL
MODEL 8
REMARK VINA RESULT:    -7.692      2.236      5.114
REMARK INTER + INTRA:         -12.062
REMARK INTER:                 -10.981
REMARK INTRA:                  -1.081
REMARK UNBOUND:                -1.223
REMARK SMILES COCCCNc1nc(Nc2ccc(Cl)cc2C)c2cnn(C)c2n1
REMARK SMILES IDX 5 1 4 2 3 3 2 4 1 5 6 6 7 8 8 9 25 10 9 11 24 12 19 13 22 14
REMARK SMILES IDX 20 15 21 16 23 17 10 18 11 20 12 21 17 22 13 23 16 24 14 25
REMARK SMILES IDX 18 26 15 27
REMARK H PARENT 6 7 10 19
ROOT
ATOM      1  C   UNL     1       4.032  41.180  49.876  1.00  0.00     0.118 C 
ENDROOT
BRANCH   1   2
ATOM      2  C   UNL     1       5.244  41.164  48.942  1.00  0.00     0.050 C 
BRANCH   2   3
ATOM      3  C   UNL     1       6.491  41.715  49.627  1.00  0.00     0.161 C 
BRANCH   3   4
ATOM      4  O   UNL     1       6.626  43.124  49.457  1.00  0.00    -0.385 OA
ATOM      5  C   UNL     1       7.963  43.534  49.203  1.00  0.00     0.194 C 
ENDBRANCH   3   4
ENDBRANCH   2   3
ENDBRANCH   1   2
BRANCH   1   6
ATOM      6  N   UNL     1       4.405  41.564  51.228  1.00  0.00    -0.354 N 
ATOM      7  H   UNL     1       4.428  40.822  51.915  1.00  0.00     0.163 HD
BRANCH   6   8
ATOM      8  C   UNL     1       3.753  42.645  51.795  1.00  0.00     0.226 A 
ATOM      9  N   UNL     1       4.436  43.805  51.735  1.00  0.00    -0.195 NA
ATOM     10  N   UNL     1       2.545  42.478  52.350  1.00  0.00    -0.193 NA
ATOM     11  C   UNL     1       3.907  44.937  52.263  1.00  0.00     0.147 A 
ATOM     12  C   UNL     1       2.030  43.617  52.837  1.00  0.00     0.165 A 
ATOM     13  C   UNL     1       2.634  44.858  52.829  1.00  0.00     0.082 A 
ATOM     14  N   UNL     1       0.810  43.794  53.429  1.00  0.00    -0.250 N 
ATOM     15  C   UNL     1       1.684  45.713  53.427  1.00  0.00     0.149 A 
ATOM     16  N   UNL     1       0.575  45.070  53.814  1.00  0.00    -0.179 NA
ATOM     17  C   UNL     1      -0.196  42.788  53.657  1.00  0.00     0.176 C 
BRANCH  11  18
ATOM     18  N   UNL     1       4.667  46.110  52.148  1.00  0.00    -0.339 N 
ATOM     19  H   UNL     1       4.501  46.477  51.212  1.00  0.00     0.168 HD
BRANCH  18  20
ATOM     20  C   UNL     1       6.007  46.325  52.543  1.00  0.00     0.043 A 
ATOM     21  C   UNL     1       7.070  46.234  51.629  1.00  0.00     0.028 A 
ATOM     22  C   UNL     1       6.281  46.719  53.869  1.00  0.00    -0.026 A 
ATOM     23  C   UNL     1       8.384  46.490  52.027  1.00  0.00     0.022 A 
ATOM     24  C   UNL     1       7.606  46.978  54.260  1.00  0.00     0.026 A 
ATOM     25  C   UNL     1       8.647  46.859  53.341  1.00  0.00     0.041 A 
ATOM     26  C   UNL     1       5.176  46.852  54.882  1.00  0.00     0.046 C 
ATOM     27  Cl  UNL     1      10.263  47.180  53.833  1.00  0.00    -0.084 Cl
ENDBRANCH  18  20
ENDBRANCH  11  18
ENDBRANCH   6   8
ENDBRANCH   1   6
TORSDOF 7
ENDMDL
MODEL 9
REMARK VINA RESULT:    -7.651      2.894      6.280
REMARK INTER + INTRA:         -12.006
REMARK INTER:                 -11.582
REMARK INTRA:                  -0.424
REMARK UNBOUND:                -1.223
REMARK SMILES COCCCNc1nc(Nc2ccc(Cl)cc2C)c2cnn(C)c2n1
REMARK SMILES IDX 5 1 4 2 3 3 2 4 1 5 6 6 7 8 8 9 25 10 9 11 24 12 19 13 22 14
REMARK SMILES IDX 20 15 21 16 23 17 10 18 11 20 12 21 17 22 13 23 16 24 14 25
REMARK SMILES IDX 18 26 15 27
REMARK H PARENT 6 7 10 19
ROOT
ATOM      1  C   UNL     1       5.266  45.678  55.319  1.00  0.00     0.118 C 
ENDROOT
BRANCH   1   2
ATOM      2  C   UNL     1       5.813  46.865  54.521  1.00  0.00     0.050 C 
BRANCH   2   3
ATOM      3  C   UNL     1       7.291  46.687  54.187  1.00  0.00     0.161 C 
BRANCH   3   4
ATOM      4  O   UNL     1       8.125  47.581  54.920  1.00  0.00    -0.385 OA
ATOM      5  C   UNL     1       9.477  47.577  54.479  1.00  0.00     0.194 C 
ENDBRANCH   3   4
ENDBRANCH   2   3
ENDBRANCH   1   2
BRANCH   1   6
ATOM      6  N   UNL     1       3.886  45.896  55.721  1.00  0.00    -0.354 N 
ATOM      7  H   UNL     1       3.691  45.824  56.711  1.00  0.00     0.163 HD
BRANCH   6   8
ATOM      8  C   UNL     1       2.899  45.200  55.044  1.00  0.00     0.226 A 
ATOM      9  N   UNL     1       3.294  44.672  53.869  1.00  0.00    -0.195 NA
ATOM     10  N   UNL     1       1.670  45.108  55.569  1.00  0.00    -0.193 NA
ATOM     11  C   UNL     1       2.417  43.973  53.107  1.00  0.00     0.147 A 
ATOM     12  C   UNL     1       0.831  44.386  54.811  1.00  0.00     0.165 A 
ATOM     13  C   UNL     1       1.122  43.797  53.597  1.00  0.00     0.082 A 
ATOM     14  N   UNL     1      -0.474  44.075  55.078  1.00  0.00    -0.250 N 
ATOM     15  C   UNL     1      -0.073  43.144  53.229  1.00  0.00     0.149 A 
ATOM     16  N   UNL     1      -1.058  43.322  54.117  1.00  0.00    -0.179 NA
ATOM     17  C   UNL     1      -1.234  44.453  56.242  1.00  0.00     0.176 C 
BRANCH  11  18
ATOM     18  N   UNL     1       2.903  43.437  51.905  1.00  0.00    -0.339 N 
ATOM     19  H   UNL     1       2.689  42.440  51.920  1.00  0.00     0.168 HD
BRANCH  18  20
ATOM     20  C   UNL     1       4.149  43.674  51.284  1.00  0.00     0.043 A 
ATOM     21  C   UNL     1       4.752  44.942  51.296  1.00  0.00     0.028 A 
ATOM     22  C   UNL     1       4.849  42.594  50.704  1.00  0.00    -0.026 A 
ATOM     23  C   UNL     1       6.003  45.150  50.713  1.00  0.00     0.022 A 
ATOM     24  C   UNL     1       6.109  42.812  50.122  1.00  0.00     0.026 A 
ATOM     25  C   UNL     1       6.676  44.085  50.126  1.00  0.00     0.041 A 
ATOM     26  C   UNL     1       4.258  41.210  50.683  1.00  0.00     0.046 C 
ATOM     27  Cl  UNL     1       8.220  44.336  49.411  1.00  0.00    -0.084 Cl
ENDBRANCH  18  20
ENDBRANCH  11  18
ENDBRANCH   6   8
ENDBRANCH   1   6
TORSDOF 7
ENDMDL
MODEL 10
REMARK VINA RESULT:    -7.568      3.036      6.044
REMARK INTER + INTRA:         -11.888
REMARK INTER:                 -10.519
REMARK INTRA:                  -1.369
REMARK UNBOUND:                -1.223
REMARK SMILES COCCCNc1nc(Nc2ccc(Cl)cc2C)c2cnn(C)c2n1
REMARK SMILES IDX 5 1 4 2 3 3 2 4 1 5 6 6 7 8 8 9 25 10 9 11 24 12 19 13 22 14
REMARK SMILES IDX 20 15 21 16 23 17 10 18 11 20 12 21 17 22 13 23 16 24 14 25
REMARK SMILES IDX 18 26 15 27
REMARK H PARENT 6 7 10 19
ROOT
ATOM      1  C   UNL     1       6.531  42.482  49.964  1.00  0.00     0.118 C 
ENDROOT
BRANCH   1   2
ATOM      2  C   UNL     1       5.489  41.473  49.475  1.00  0.00     0.050 C 
BRANCH   2   3
ATOM      3  C   UNL     1       4.380  41.267  50.502  1.00  0.00     0.161 C 
BRANCH   3   4
ATOM      4  O   UNL     1       3.742  42.490  50.864  1.00  0.00    -0.385 OA
ATOM      5  C   UNL     1       3.502  42.607  52.260  1.00  0.00     0.194 C 
ENDBRANCH   3   4
ENDBRANCH   2   3
ENDBRANCH   1   2
BRANCH   1   6
ATOM      6  N   UNL     1       6.124  43.849  49.679  1.00  0.00    -0.354 N 
ATOM      7  H   UNL     1       6.295  44.181  48.738  1.00  0.00     0.163 HD
BRANCH   6   8
ATOM      8  C   UNL     1       6.531  44.839  50.557  1.00  0.00     0.226 A 
ATOM      9  N   UNL     1       5.526  45.452  51.211  1.00  0.00    -0.195 NA
ATOM     10  N   UNL     1       7.835  45.121  50.686  1.00  0.00    -0.193 NA
ATOM     11  C   UNL     1       5.794  46.447  52.094  1.00  0.00     0.147 A 
ATOM     12  C   UNL     1       8.075  46.085  51.587  1.00  0.00     0.165 A 
ATOM     13  C   UNL     1       7.131  46.778  52.317  1.00  0.00     0.082 A 
ATOM     14  N   UNL     1       9.290  46.577  51.977  1.00  0.00    -0.250 N 
ATOM     15  C   UNL     1       7.886  47.652  53.127  1.00  0.00     0.149 A 
ATOM     16  N   UNL     1       9.204  47.550  52.914  1.00  0.00    -0.179 NA
ATOM     17  C   UNL     1      10.585  46.159  51.505  1.00  0.00     0.176 C 
BRANCH  11  18
ATOM     18  N   UNL     1       4.699  47.026  52.753  1.00  0.00    -0.339 N 
ATOM     19  H   UNL     1       5.079  47.659  53.455  1.00  0.00     0.168 HD
BRANCH  18  20
ATOM     20  C   UNL     1       3.530  46.392  53.229  1.00  0.00     0.043 A 
ATOM     21  C   UNL     1       2.345  46.365  52.476  1.00  0.00     0.028 A 
ATOM     22  C   UNL     1       3.572  45.697  54.456  1.00  0.00    -0.026 A 
ATOM     23  C   UNL     1       1.210  45.698  52.944  1.00  0.00     0.022 A 
ATOM     24  C   UNL     1       2.427  45.025  54.917  1.00  0.00     0.026 A 
ATOM     25  C   UNL     1       1.255  45.032  54.164  1.00  0.00     0.041 A 
ATOM     26  C   UNL     1       4.824  45.676  55.292  1.00  0.00     0.046 C 
ATOM     27  Cl  UNL     1      -0.138  44.205  54.740  1.00  0.00    -0.084 Cl
ENDBRANCH  18  20
ENDBRANCH  11  18
ENDBRANCH   6   8
ENDBRANCH   1   6
TORSDOF 7
ENDMDL
MODEL 11
REMARK VINA RESULT:    -7.450      2.885      5.821
REMARK INTER + INTRA:         -11.722
REMARK INTER:                 -10.659
REMARK INTRA:                  -1.063
REMARK UNBOUND:                -1.223
REMARK SMILES COCCCNc1nc(Nc2ccc(Cl)cc2C)c2cnn(C)c2n1
REMARK SMILES IDX 5 1 4 2 3 3 2 4 1 5 6 6 7 8 8 9 25 10 9 11 24 12 19 13 22 14
REMARK SMILES IDX 20 15 21 16 23 17 10 18 11 20 12 21 17 22 13 23 16 24 14 25
REMARK SMILES IDX 18 26 15 27
REMARK H PARENT 6 7 10 19
ROOT
ATOM      1  C   UNL     1       4.620  41.174  50.398  1.00  0.00     0.118 C 
ENDROOT
BRANCH   1   2
ATOM      2  C   UNL     1       5.010  41.083  48.921  1.00  0.00     0.050 C 
BRANCH   2   3
ATOM      3  C   UNL     1       3.823  40.684  48.049  1.00  0.00     0.161 C 
BRANCH   3   4
ATOM      4  O   UNL     1       3.213  39.471  48.485  1.00  0.00    -0.385 OA
ATOM      5  C   UNL     1       2.828  38.619  47.414  1.00  0.00     0.194 C 
ENDBRANCH   3   4
ENDBRANCH   2   3
ENDBRANCH   1   2
BRANCH   1   6
ATOM      6  N   UNL     1       3.219  41.528  50.559  1.00  0.00    -0.354 N 
ATOM      7  H   UNL     1       2.661  41.543  49.715  1.00  0.00     0.163 HD
BRANCH   6   8
ATOM      8  C   UNL     1       2.921  42.670  51.283  1.00  0.00     0.226 A 
ATOM      9  N   UNL     1       3.702  43.730  51.001  1.00  0.00    -0.195 NA
ATOM     10  N   UNL     1       1.929  42.647  52.184  1.00  0.00    -0.193 NA
ATOM     11  C   UNL     1       3.515  44.907  51.649  1.00  0.00     0.147 A 
ATOM     12  C   UNL     1       1.744  43.830  52.788  1.00  0.00     0.165 A 
ATOM     13  C   UNL     1       2.477  44.981  52.579  1.00  0.00     0.082 A 
ATOM     14  N   UNL     1       0.799  44.150  53.723  1.00  0.00    -0.250 N 
ATOM     15  C   UNL     1       1.878  45.937  53.426  1.00  0.00     0.149 A 
ATOM     16  N   UNL     1       0.865  45.435  54.142  1.00  0.00    -0.179 NA
ATOM     17  C   UNL     1      -0.215  43.279  54.262  1.00  0.00     0.176 C 
BRANCH  11  18
ATOM     18  N   UNL     1       4.353  45.973  51.290  1.00  0.00    -0.339 N 
ATOM     19  H   UNL     1       4.124  46.216  50.327  1.00  0.00     0.168 HD
BRANCH  18  20
ATOM     20  C   UNL     1       5.739  46.112  51.527  1.00  0.00     0.043 A 
ATOM     21  C   UNL     1       6.697  45.565  50.658  1.00  0.00     0.028 A 
ATOM     22  C   UNL     1       6.178  46.888  52.621  1.00  0.00    -0.026 A 
ATOM     23  C   UNL     1       8.063  45.747  50.885  1.00  0.00     0.022 A 
ATOM     24  C   UNL     1       7.554  47.070  52.839  1.00  0.00     0.026 A 
ATOM     25  C   UNL     1       8.486  46.497  51.976  1.00  0.00     0.041 A 
ATOM     26  C   UNL     1       5.193  47.515  53.571  1.00  0.00     0.046 C 
ATOM     27  Cl  UNL     1      10.167  46.728  52.256  1.00  0.00    -0.084 Cl
ENDBRANCH  18  20
ENDBRANCH  11  18
ENDBRANCH   6   8
ENDBRANCH   1   6
TORSDOF 7
ENDMDL
MODEL 12
REMARK VINA RESULT:    -7.369      3.325      6.605
REMARK INTER + INTRA:         -11.608
REMARK INTER:                 -10.467
REMARK INTRA:                  -1.141
REMARK UNBOUND:                -1.223
REMARK SMILES COCCCNc1nc(Nc2ccc(Cl)cc2C)c2cnn(C)c2n1
REMARK SMILES IDX 5 1 4 2 3 3 2 4 1 5 6 6 7 8 8 9 25 10 9 11 24 12 19 13 22 14
REMARK SMILES IDX 20 15 21 16 23 17 10 18 11 20 12 21 17 22 13 23 16 24 14 25
REMARK SMILES IDX 18 26 15 27
REMARK H PARENT 6 7 10 19
ROOT
ATOM      1  C   UNL     1       7.480  47.145  54.243  1.00  0.00     0.118 C 
ENDROOT
BRANCH   1   2
ATOM      2  C   UNL     1       8.855  47.816  54.303  1.00  0.00     0.050 C 
BRANCH   2   3
ATOM      3  C   UNL     1       9.936  46.943  53.672  1.00  0.00     0.161 C 
BRANCH   3   4
ATOM      4  O   UNL     1       9.958  47.049  52.250  1.00  0.00    -0.385 OA
ATOM      5  C   UNL     1      10.439  45.876  51.607  1.00  0.00     0.194 C 
ENDBRANCH   3   4
ENDBRANCH   2   3
ENDBRANCH   1   2
BRANCH   1   6
ATOM      6  N   UNL     1       6.915  47.206  52.904  1.00  0.00    -0.354 N 
ATOM      7  H   UNL     1       6.233  47.935  52.738  1.00  0.00     0.163 HD
BRANCH   6   8
ATOM      8  C   UNL     1       6.422  46.033  52.358  1.00  0.00     0.226 A 
ATOM      9  N   UNL     1       5.328  45.547  52.975  1.00  0.00    -0.195 NA
ATOM     10  N   UNL     1       7.041  45.476  51.308  1.00  0.00    -0.193 NA
ATOM     11  C   UNL     1       4.753  44.398  52.539  1.00  0.00     0.147 A 
ATOM     12  C   UNL     1       6.435  44.359  50.877  1.00  0.00     0.165 A 
ATOM     13  C   UNL     1       5.313  43.771  51.425  1.00  0.00     0.082 A 
ATOM     14  N   UNL     1       6.790  43.577  49.813  1.00  0.00    -0.250 N 
ATOM     15  C   UNL     1       5.068  42.651  50.603  1.00  0.00     0.149 A 
ATOM     16  N   UNL     1       5.974  42.513  49.628  1.00  0.00    -0.179 NA
ATOM     17  C   UNL     1       7.896  43.788  48.913  1.00  0.00     0.176 C 
BRANCH  11  18
ATOM     18  N   UNL     1       3.606  43.962  53.218  1.00  0.00    -0.339 N 
ATOM     19  H   UNL     1       3.717  42.960  53.369  1.00  0.00     0.168 HD
BRANCH  18  20
ATOM     20  C   UNL     1       2.257  44.282  52.948  1.00  0.00     0.043 A 
ATOM     21  C   UNL     1       1.714  44.169  51.658  1.00  0.00     0.028 A 
ATOM     22  C   UNL     1       1.408  44.650  54.013  1.00  0.00    -0.026 A 
ATOM     23  C   UNL     1       0.367  44.451  51.416  1.00  0.00     0.022 A 
ATOM     24  C   UNL     1       0.053  44.928  53.761  1.00  0.00     0.026 A 
ATOM     25  C   UNL     1      -0.457  44.832  52.468  1.00  0.00     0.041 A 
ATOM     26  C   UNL     1       1.934  44.766  55.418  1.00  0.00     0.046 C 
ATOM     27  Cl  UNL     1      -2.117  45.174  52.176  1.00  0.00    -0.084 Cl
ENDBRANCH  18  20
ENDBRANCH  11  18
ENDBRANCH   6   8
ENDBRANCH   1   6
TORSDOF 7
ENDMDL
MODEL 13
REMARK VINA RESULT:    -7.333      2.542      5.098
REMARK INTER + INTRA:         -11.557
REMARK INTER:                 -11.157
REMARK INTRA:                  -0.401
REMARK UNBOUND:                -1.223
REMARK SMILES COCCCNc1nc(Nc2ccc(Cl)cc2C)c2cnn(C)c2n1
REMARK SMILES IDX 5 1 4 2 3 3 2 4 1 5 6 6 7 8 8 9 25 10 9 11 24 12 19 13 22 14
REMARK SMILES IDX 20 15 21 16 23 17 10 18 11 20 12 21 17 22 13 23 16 24 14 25
REMARK SMILES IDX 18 26 15 27
REMARK H PARENT 6 7 10 19
ROOT
ATOM      1  C   UNL     1       3.932  40.988  49.830  1.00  0.00     0.118 C 
ENDROOT
BRANCH   1   2
ATOM      2  C   UNL     1       5.221  41.148  49.019  1.00  0.00     0.050 C 
BRANCH   2   3
ATOM      3  C   UNL     1       6.402  41.529  49.906  1.00  0.00     0.161 C 
BRANCH   3   4
ATOM      4  O   UNL     1       6.568  42.941  50.012  1.00  0.00    -0.385 OA
ATOM      5  C   UNL     1       7.666  43.436  49.256  1.00  0.00     0.194 C 
ENDBRANCH   3   4
ENDBRANCH   2   3
ENDBRANCH   1   2
BRANCH   1   6
ATOM      6  N   UNL     1       4.099  41.461  51.195  1.00  0.00    -0.354 N 
ATOM      7  H   UNL     1       4.024  40.764  51.924  1.00  0.00     0.163 HD
BRANCH   6   8
ATOM      8  C   UNL     1       3.363  42.566  51.589  1.00  0.00     0.226 A 
ATOM      9  N   UNL     1       4.066  43.490  52.273  1.00  0.00    -0.195 NA
ATOM     10  N   UNL     1       2.059  42.638  51.290  1.00  0.00    -0.193 NA
ATOM     11  C   UNL     1       3.456  44.615  52.721  1.00  0.00     0.147 A 
ATOM     12  C   UNL     1       1.487  43.774  51.717  1.00  0.00     0.165 A 
ATOM     13  C   UNL     1       2.104  44.788  52.421  1.00  0.00     0.082 A 
ATOM     14  N   UNL     1       0.189  44.169  51.543  1.00  0.00    -0.250 N 
ATOM     15  C   UNL     1       1.091  45.753  52.605  1.00  0.00     0.149 A 
ATOM     16  N   UNL     1      -0.086  45.377  52.089  1.00  0.00    -0.179 NA
ATOM     17  C   UNL     1      -0.851  43.449  50.854  1.00  0.00     0.176 C 
BRANCH  11  18
ATOM     18  N   UNL     1       4.253  45.542  53.409  1.00  0.00    -0.339 N 
ATOM     19  H   UNL     1       3.691  46.384  53.526  1.00  0.00     0.168 HD
BRANCH  18  20
ATOM     20  C   UNL     1       5.608  45.870  53.177  1.00  0.00     0.043 A 
ATOM     21  C   UNL     1       6.549  45.904  54.219  1.00  0.00     0.028 A 
ATOM     22  C   UNL     1       6.048  46.091  51.855  1.00  0.00    -0.026 A 
ATOM     23  C   UNL     1       7.892  46.190  53.966  1.00  0.00     0.022 A 
ATOM     24  C   UNL     1       7.403  46.375  51.610  1.00  0.00     0.026 A 
ATOM     25  C   UNL     1       8.313  46.427  52.663  1.00  0.00     0.041 A 
ATOM     26  C   UNL     1       5.085  46.045  50.699  1.00  0.00     0.046 C 
ATOM     27  Cl  UNL     1       9.968  46.774  52.347  1.00  0.00    -0.084 Cl
ENDBRANCH  18  20
ENDBRANCH  11  18
ENDBRANCH   6   8
ENDBRANCH   1   6
TORSDOF 7
ENDMDL
MODEL 14
REMARK VINA RESULT:    -7.303      2.933      4.581
REMARK INTER + INTRA:         -11.514
REMARK INTER:                 -10.583
REMARK INTRA:                  -0.931
REMARK UNBOUND:                -1.223
REMARK SMILES COCCCNc1nc(Nc2ccc(Cl)cc2C)c2cnn(C)c2n1
REMARK SMILES IDX 5 1 4 2 3 3 2 4 1 5 6 6 7 8 8 9 25 10 9 11 24 12 19 13 22 14
REMARK SMILES IDX 20 15 21 16 23 17 10 18 11 20 12 21 17 22 13 23 16 24 14 25
REMARK SMILES IDX 18 26 15 27
REMARK H PARENT 6 7 10 19
ROOT
ATOM      1  C   UNL     1       0.603  45.182  57.170  1.00  0.00     0.118 C 
ENDROOT
BRANCH   1   2
ATOM      2  C   UNL     1      -0.604  46.091  56.920  1.00  0.00     0.050 C 
BRANCH   2   3
ATOM      3  C   UNL     1      -0.699  47.199  57.964  1.00  0.00     0.161 C 
BRANCH   3   4
ATOM      4  O   UNL     1       0.405  47.192  58.866  1.00  0.00    -0.385 OA
ATOM      5  C   UNL     1       0.173  47.951  60.046  1.00  0.00     0.194 C 
ENDBRANCH   3   4
ENDBRANCH   2   3
ENDBRANCH   1   2
BRANCH   1   6
ATOM      6  N   UNL     1       1.780  45.652  56.458  1.00  0.00    -0.354 N 
ATOM      7  H   UNL     1       1.963  46.647  56.501  1.00  0.00     0.163 HD
BRANCH   6   8
ATOM      8  C   UNL     1       1.943  45.249  55.144  1.00  0.00     0.226 A 
ATOM      9  N   UNL     1       2.826  45.985  54.440  1.00  0.00    -0.195 NA
ATOM     10  N   UNL     1       1.239  44.211  54.673  1.00  0.00    -0.193 NA
ATOM     11  C   UNL     1       3.069  45.695  53.137  1.00  0.00     0.147 A 
ATOM     12  C   UNL     1       1.521  43.926  53.393  1.00  0.00     0.165 A 
ATOM     13  C   UNL     1       2.404  44.603  52.577  1.00  0.00     0.082 A 
ATOM     14  N   UNL     1       1.006  42.912  52.632  1.00  0.00    -0.250 N 
ATOM     15  C   UNL     1       2.357  43.905  51.352  1.00  0.00     0.149 A 
ATOM     16  N   UNL     1       1.493  42.882  51.370  1.00  0.00    -0.179 NA
ATOM     17  C   UNL     1       0.047  41.920  53.047  1.00  0.00     0.176 C 
BRANCH  11  18
ATOM     18  N   UNL     1       4.013  46.491  52.473  1.00  0.00    -0.339 N 
ATOM     19  H   UNL     1       3.787  46.450  51.480  1.00  0.00     0.168 HD
BRANCH  18  20
ATOM     20  C   UNL     1       5.412  46.532  52.667  1.00  0.00     0.043 A 
ATOM     21  C   UNL     1       5.981  47.067  53.834  1.00  0.00     0.028 A 
ATOM     22  C   UNL     1       6.261  45.950  51.702  1.00  0.00    -0.026 A 
ATOM     23  C   UNL     1       7.364  47.063  54.029  1.00  0.00     0.022 A 
ATOM     24  C   UNL     1       7.651  45.947  51.907  1.00  0.00     0.026 A 
ATOM     25  C   UNL     1       8.194  46.505  53.063  1.00  0.00     0.041 A 
ATOM     26  C   UNL     1       5.702  45.344  50.443  1.00  0.00     0.046 C 
ATOM     27  Cl  UNL     1       9.897  46.493  53.301  1.00  0.00    -0.084 Cl
ENDBRANCH  18  20
ENDBRANCH  11  18
ENDBRANCH   6   8
ENDBRANCH   1   6
TORSDOF 7
ENDMDL
MODEL 15
REMARK VINA RESULT:    -7.277      2.692      5.781
REMARK INTER + INTRA:         -11.478
REMARK INTER:                 -10.364
REMARK INTRA:                  -1.114
REMARK UNBOUND:                -1.223
REMARK SMILES COCCCNc1nc(Nc2ccc(Cl)cc2C)c2cnn(C)c2n1
REMARK SMILES IDX 5 1 4 2 3 3 2 4 1 5 6 6 7 8 8 9 25 10 9 11 24 12 19 13 22 14
REMARK SMILES IDX 20 15 21 16 23 17 10 18 11 20 12 21 17 22 13 23 16 24 14 25
REMARK SMILES IDX 18 26 15 27
REMARK H PARENT 6 7 10 19
ROOT
ATOM      1  C   UNL     1       9.016  45.959  51.479  1.00  0.00     0.118 C 
ENDROOT
BRANCH   1   2
ATOM      2  C   UNL     1       9.479  47.175  52.285  1.00  0.00     0.050 C 
BRANCH   2   3
ATOM      3  C   UNL     1       9.396  46.921  53.787  1.00  0.00     0.161 C 
BRANCH   3   4
ATOM      4  O   UNL     1       8.306  47.612  54.395  1.00  0.00    -0.385 OA
ATOM      5  C   UNL     1       7.131  46.820  54.507  1.00  0.00     0.194 C 
ENDBRANCH   3   4
ENDBRANCH   2   3
ENDBRANCH   1   2
BRANCH   1   6
ATOM      6  N   UNL     1       7.819  46.255  50.709  1.00  0.00    -0.354 N 
ATOM      7  H   UNL     1       7.481  47.208  50.754  1.00  0.00     0.163 HD
BRANCH   6   8
ATOM      8  C   UNL     1       6.731  45.412  50.858  1.00  0.00     0.226 A 
ATOM      9  N   UNL     1       5.641  45.998  51.391  1.00  0.00    -0.195 NA
ATOM     10  N   UNL     1       6.828  44.127  50.493  1.00  0.00    -0.193 NA
ATOM     11  C   UNL     1       4.510  45.276  51.595  1.00  0.00     0.147 A 
ATOM     12  C   UNL     1       5.688  43.443  50.676  1.00  0.00     0.165 A 
ATOM     13  C   UNL     1       4.513  43.936  51.208  1.00  0.00     0.082 A 
ATOM     14  N   UNL     1       5.446  42.132  50.374  1.00  0.00    -0.250 N 
ATOM     15  C   UNL     1       3.624  42.842  51.164  1.00  0.00     0.149 A 
ATOM     16  N   UNL     1       4.188  41.731  50.674  1.00  0.00    -0.179 NA
ATOM     17  C   UNL     1       6.366  41.194  49.783  1.00  0.00     0.176 C 
BRANCH  11  18
ATOM     18  N   UNL     1       3.409  45.956  52.136  1.00  0.00    -0.339 N 
ATOM     19  H   UNL     1       3.591  46.952  52.016  1.00  0.00     0.168 HD
BRANCH  18  20
ATOM     20  C   UNL     1       2.744  45.710  53.358  1.00  0.00     0.043 A 
ATOM     21  C   UNL     1       3.360  45.953  54.596  1.00  0.00     0.028 A 
ATOM     22  C   UNL     1       1.399  45.285  53.339  1.00  0.00    -0.026 A 
ATOM     23  C   UNL     1       2.674  45.743  55.795  1.00  0.00     0.022 A 
ATOM     24  C   UNL     1       0.715  45.080  54.549  1.00  0.00     0.026 A 
ATOM     25  C   UNL     1       1.355  45.305  55.766  1.00  0.00     0.041 A 
ATOM     26  C   UNL     1       0.685  45.031  52.038  1.00  0.00     0.046 C 
ATOM     27  Cl  UNL     1       0.505  45.051  57.240  1.00  0.00    -0.084 Cl
ENDBRANCH  18  20
ENDBRANCH  11  18
ENDBRANCH   6   8
ENDBRANCH   1   6
TORSDOF 7
ENDMDL
MODEL 16
REMARK VINA RESULT:    -7.277      3.310      6.865
REMARK INTER + INTRA:         -11.478
REMARK INTER:                 -10.275
REMARK INTRA:                  -1.202
REMARK UNBOUND:                -1.223
REMARK SMILES COCCCNc1nc(Nc2ccc(Cl)cc2C)c2cnn(C)c2n1
REMARK SMILES IDX 5 1 4 2 3 3 2 4 1 5 6 6 7 8 8 9 25 10 9 11 24 12 19 13 22 14
REMARK SMILES IDX 20 15 21 16 23 17 10 18 11 20 12 21 17 22 13 23 16 24 14 25
REMARK SMILES IDX 18 26 15 27
REMARK H PARENT 6 7 10 19
ROOT
ATOM      1  C   UNL     1       7.846  43.808  49.549  1.00  0.00     0.118 C 
ENDROOT
BRANCH   1   2
ATOM      2  C   UNL     1       6.983  42.686  48.966  1.00  0.00     0.050 C 
BRANCH   2   3
ATOM      3  C   UNL     1       6.298  41.876  50.062  1.00  0.00     0.161 C 
BRANCH   3   4
ATOM      4  O   UNL     1       5.181  42.561  50.625  1.00  0.00    -0.385 OA
ATOM      5  C   UNL     1       4.138  41.688  51.041  1.00  0.00     0.194 C 
ENDBRANCH   3   4
ENDBRANCH   2   3
ENDBRANCH   1   2
BRANCH   1   6
ATOM      6  N   UNL     1       7.118  45.066  49.604  1.00  0.00    -0.354 N 
ATOM      7  H   UNL     1       7.447  45.801  48.991  1.00  0.00     0.163 HD
BRANCH   6   8
ATOM      8  C   UNL     1       6.891  45.625  50.850  1.00  0.00     0.226 A 
ATOM      9  N   UNL     1       5.590  45.798  51.155  1.00  0.00    -0.195 NA
ATOM     10  N   UNL     1       7.928  45.953  51.633  1.00  0.00    -0.193 NA
ATOM     11  C   UNL     1       5.236  46.344  52.346  1.00  0.00     0.147 A 
ATOM     12  C   UNL     1       7.550  46.462  52.815  1.00  0.00     0.165 A 
ATOM     13  C   UNL     1       6.255  46.681  53.237  1.00  0.00     0.082 A 
ATOM     14  N   UNL     1       8.356  46.860  53.846  1.00  0.00    -0.250 N 
ATOM     15  C   UNL     1       6.394  47.198  54.542  1.00  0.00     0.149 A 
ATOM     16  N   UNL     1       7.673  47.329  54.916  1.00  0.00    -0.179 NA
ATOM     17  C   UNL     1       9.796  46.814  53.888  1.00  0.00     0.176 C 
BRANCH  11  18
ATOM     18  N   UNL     1       3.863  46.476  52.603  1.00  0.00    -0.339 N 
ATOM     19  H   UNL     1       3.775  47.048  53.441  1.00  0.00     0.168 HD
BRANCH  18  20
ATOM     20  C   UNL     1       2.868  45.473  52.571  1.00  0.00     0.043 A 
ATOM     21  C   UNL     1       2.264  45.069  51.370  1.00  0.00     0.028 A 
ATOM     22  C   UNL     1       2.526  44.802  53.764  1.00  0.00    -0.026 A 
ATOM     23  C   UNL     1       1.312  44.048  51.351  1.00  0.00     0.022 A 
ATOM     24  C   UNL     1       1.569  43.774  53.736  1.00  0.00     0.026 A 
ATOM     25  C   UNL     1       0.966  43.406  52.535  1.00  0.00     0.041 A 
ATOM     26  C   UNL     1       3.159  45.182  55.076  1.00  0.00     0.046 C 
ATOM     27  Cl  UNL     1      -0.203  42.144  52.515  1.00  0.00    -0.084 Cl
ENDBRANCH  18  20
ENDBRANCH  11  18
ENDBRANCH   6   8
ENDBRANCH   1   6
TORSDOF 7
ENDMDL
MODEL 17
REMARK VINA RESULT:    -7.245      3.315      5.173
REMARK INTER + INTRA:         -11.433
REMARK INTER:                 -10.385
REMARK INTRA:                  -1.048
REMARK UNBOUND:                -1.223
REMARK SMILES COCCCNc1nc(Nc2ccc(Cl)cc2C)c2cnn(C)c2n1
REMARK SMILES IDX 5 1 4 2 3 3 2 4 1 5 6 6 7 8 8 9 25 10 9 11 24 12 19 13 22 14
REMARK SMILES IDX 20 15 21 16 23 17 10 18 11 20 12 21 17 22 13 23 16 24 14 25
REMARK SMILES IDX 18 26 15 27
REMARK H PARENT 6 7 10 19
ROOT
ATOM      1  C   UNL     1      -0.408  45.016  56.462  1.00  0.00     0.118 C 
ENDROOT
BRANCH   1   2
ATOM      2  C   UNL     1      -1.558  45.959  56.825  1.00  0.00     0.050 C 
BRANCH   2   3
ATOM      3  C   UNL     1      -1.083  47.115  57.700  1.00  0.00     0.161 C 
BRANCH   3   4
ATOM      4  O   UNL     1       0.188  46.860  58.294  1.00  0.00    -0.385 OA
ATOM      5  C   UNL     1       0.440  47.655  59.446  1.00  0.00     0.194 C 
ENDBRANCH   3   4
ENDBRANCH   2   3
ENDBRANCH   1   2
BRANCH   1   6
ATOM      6  N   UNL     1       0.565  45.669  55.602  1.00  0.00    -0.354 N 
ATOM      7  H   UNL     1       0.379  46.636  55.367  1.00  0.00     0.163 HD
BRANCH   6   8
ATOM      8  C   UNL     1       0.940  45.016  54.440  1.00  0.00     0.226 A 
ATOM      9  N   UNL     1       2.254  44.731  54.359  1.00  0.00    -0.195 NA
ATOM     10  N   UNL     1       0.020  44.732  53.509  1.00  0.00    -0.193 NA
ATOM     11  C   UNL     1       2.748  44.098  53.265  1.00  0.00     0.147 A 
ATOM     12  C   UNL     1       0.528  44.080  52.453  1.00  0.00     0.165 A 
ATOM     13  C   UNL     1       1.850  43.733  52.262  1.00  0.00     0.082 A 
ATOM     14  N   UNL     1      -0.146  43.618  51.356  1.00  0.00    -0.250 N 
ATOM     15  C   UNL     1       1.859  43.052  51.027  1.00  0.00     0.149 A 
ATOM     16  N   UNL     1       0.649  42.992  50.457  1.00  0.00    -0.179 NA
ATOM     17  C   UNL     1      -1.559  43.728  51.097  1.00  0.00     0.176 C 
BRANCH  11  18
ATOM     18  N   UNL     1       4.123  43.817  53.258  1.00  0.00    -0.339 N 
ATOM     19  H   UNL     1       4.336  43.373  54.151  1.00  0.00     0.168 HD
BRANCH  18  20
ATOM     20  C   UNL     1       5.184  44.654  52.846  1.00  0.00     0.043 A 
ATOM     21  C   UNL     1       5.430  44.922  51.490  1.00  0.00     0.028 A 
ATOM     22  C   UNL     1       5.969  45.304  53.822  1.00  0.00    -0.026 A 
ATOM     23  C   UNL     1       6.457  45.785  51.102  1.00  0.00     0.022 A 
ATOM     24  C   UNL     1       6.999  46.173  53.422  1.00  0.00     0.026 A 
ATOM     25  C   UNL     1       7.239  46.404  52.069  1.00  0.00     0.041 A 
ATOM     26  C   UNL     1       5.734  45.068  55.289  1.00  0.00     0.046 C 
ATOM     27  Cl  UNL     1       8.502  47.471  51.595  1.00  0.00    -0.084 Cl
ENDBRANCH  18  20
ENDBRANCH  11  18
ENDBRANCH   6   8
ENDBRANCH   1   6
TORSDOF 7
ENDMDL
MODEL 18
REMARK VINA RESULT:    -7.192      3.372      6.565
REMARK INTER + INTRA:         -11.358
REMARK INTER:                 -10.477
REMARK INTRA:                  -0.881
REMARK UNBOUND:                -1.223
REMARK SMILES COCCCNc1nc(Nc2ccc(Cl)cc2C)c2cnn(C)c2n1
REMARK SMILES IDX 5 1 4 2 3 3 2 4 1 5 6 6 7 8 8 9 25 10 9 11 24 12 19 13 22 14
REMARK SMILES IDX 20 15 21 16 23 17 10 18 11 20 12 21 17 22 13 23 16 24 14 25
REMARK SMILES IDX 18 26 15 27
REMARK H PARENT 6 7 10 19
ROOT
ATOM      1  C   UNL     1       5.563  42.696  50.309  1.00  0.00     0.118 C 
ENDROOT
BRANCH   1   2
ATOM      2  C   UNL     1       6.105  41.444  49.614  1.00  0.00     0.050 C 
BRANCH   2   3
ATOM      3  C   UNL     1       5.364  41.157  48.312  1.00  0.00     0.161 C 
BRANCH   3   4
ATOM      4  O   UNL     1       5.832  41.963  47.232  1.00  0.00    -0.385 OA
ATOM      5  C   UNL     1       5.305  41.572  45.970  1.00  0.00     0.194 C 
ENDBRANCH   3   4
ENDBRANCH   2   3
ENDBRANCH   1   2
BRANCH   1   6
ATOM      6  N   UNL     1       6.139  43.908  49.748  1.00  0.00    -0.354 N 
ATOM      7  H   UNL     1       6.869  43.780  49.058  1.00  0.00     0.163 HD
BRANCH   6   8
ATOM      8  C   UNL     1       6.558  44.890  50.629  1.00  0.00     0.226 A 
ATOM      9  N   UNL     1       5.561  45.505  51.296  1.00  0.00    -0.195 NA
ATOM     10  N   UNL     1       7.864  45.164  50.750  1.00  0.00    -0.193 NA
ATOM     11  C   UNL     1       5.842  46.491  52.183  1.00  0.00     0.147 A 
ATOM     12  C   UNL     1       8.117  46.120  51.656  1.00  0.00     0.165 A 
ATOM     13  C   UNL     1       7.182  46.814  52.398  1.00  0.00     0.082 A 
ATOM     14  N   UNL     1       9.337  46.603  52.040  1.00  0.00    -0.250 N 
ATOM     15  C   UNL     1       7.949  47.678  53.208  1.00  0.00     0.149 A 
ATOM     16  N   UNL     1       9.264  47.570  52.984  1.00  0.00    -0.179 NA
ATOM     17  C   UNL     1      10.627  46.181  51.555  1.00  0.00     0.176 C 
BRANCH  11  18
ATOM     18  N   UNL     1       4.755  47.073  52.854  1.00  0.00    -0.339 N 
ATOM     19  H   UNL     1       5.144  47.645  53.602  1.00  0.00     0.168 HD
BRANCH  18  20
ATOM     20  C   UNL     1       3.552  46.457  53.265  1.00  0.00     0.043 A 
ATOM     21  C   UNL     1       2.393  46.497  52.473  1.00  0.00     0.028 A 
ATOM     22  C   UNL     1       3.531  45.714  54.464  1.00  0.00    -0.026 A 
ATOM     23  C   UNL     1       1.223  45.848  52.876  1.00  0.00     0.022 A 
ATOM     24  C   UNL     1       2.351  45.061  54.860  1.00  0.00     0.026 A 
ATOM     25  C   UNL     1       1.206  45.135  54.068  1.00  0.00     0.041 A 
ATOM     26  C   UNL     1       4.752  45.621  55.340  1.00  0.00     0.046 C 
ATOM     27  Cl  UNL     1      -0.230  44.330  54.565  1.00  0.00    -0.084 Cl
ENDBRANCH  18  20
ENDBRANCH  11  18
ENDBRANCH   6   8
ENDBRANCH   1   6
TORSDOF 7
ENDMDL
MODEL 19
REMARK VINA RESULT:    -7.171      3.733      7.368
REMARK INTER + INTRA:         -11.329
REMARK INTER:                 -10.382
REMARK INTRA:                  -0.947
REMARK UNBOUND:                -1.223
REMARK SMILES COCCCNc1nc(Nc2ccc(Cl)cc2C)c2cnn(C)c2n1
REMARK SMILES IDX 5 1 4 2 3 3 2 4 1 5 6 6 7 8 8 9 25 10 9 11 24 12 19 13 22 14
REMARK SMILES IDX 20 15 21 16 23 17 10 18 11 20 12 21 17 22 13 23 16 24 14 25
REMARK SMILES IDX 18 26 15 27
REMARK H PARENT 6 7 10 19
ROOT
ATOM      1  C   UNL     1       6.364  41.922  49.768  1.00  0.00     0.118 C 
ENDROOT
BRANCH   1   2
ATOM      2  C   UNL     1       5.419  41.234  48.779  1.00  0.00     0.050 C 
BRANCH   2   3
ATOM      3  C   UNL     1       4.079  40.894  49.423  1.00  0.00     0.161 C 
BRANCH   3   4
ATOM      4  O   UNL     1       3.161  40.319  48.496  1.00  0.00    -0.385 OA
ATOM      5  C   UNL     1       3.623  40.358  47.152  1.00  0.00     0.194 C 
ENDBRANCH   3   4
ENDBRANCH   2   3
ENDBRANCH   1   2
BRANCH   1   6
ATOM      6  N   UNL     1       6.374  43.363  49.582  1.00  0.00    -0.354 N 
ATOM      7  H   UNL     1       7.173  43.748  49.095  1.00  0.00     0.163 HD
BRANCH   6   8
ATOM      8  C   UNL     1       6.132  44.158  50.690  1.00  0.00     0.226 A 
ATOM      9  N   UNL     1       5.185  43.684  51.522  1.00  0.00    -0.195 NA
ATOM     10  N   UNL     1       6.814  45.301  50.852  1.00  0.00    -0.193 NA
ATOM     11  C   UNL     1       4.852  44.375  52.640  1.00  0.00     0.147 A 
ATOM     12  C   UNL     1       6.488  45.949  51.979  1.00  0.00     0.165 A 
ATOM     13  C   UNL     1       5.541  45.559  52.905  1.00  0.00     0.082 A 
ATOM     14  N   UNL     1       7.021  47.116  52.453  1.00  0.00    -0.250 N 
ATOM     15  C   UNL     1       5.597  46.554  53.903  1.00  0.00     0.149 A 
ATOM     16  N   UNL     1       6.484  47.518  53.628  1.00  0.00    -0.179 NA
ATOM     17  C   UNL     1       8.061  47.905  51.842  1.00  0.00     0.176 C 
BRANCH  11  18
ATOM     18  N   UNL     1       3.871  43.811  53.470  1.00  0.00    -0.339 N 
ATOM     19  H   UNL     1       4.200  42.881  53.723  1.00  0.00     0.168 HD
BRANCH  18  20
ATOM     20  C   UNL     1       2.469  43.818  53.294  1.00  0.00     0.043 A 
ATOM     21  C   UNL     1       1.848  43.074  52.278  1.00  0.00     0.028 A 
ATOM     22  C   UNL     1       1.662  44.526  54.210  1.00  0.00    -0.026 A 
ATOM     23  C   UNL     1       0.457  43.060  52.144  1.00  0.00     0.022 A 
ATOM     24  C   UNL     1       0.264  44.503  54.070  1.00  0.00     0.026 A 
ATOM     25  C   UNL     1      -0.329  43.776  53.039  1.00  0.00     0.041 A 
ATOM     26  C   UNL     1       2.276  45.322  55.330  1.00  0.00     0.046 C 
ATOM     27  Cl  UNL     1      -2.041  43.756  52.880  1.00  0.00    -0.084 Cl
ENDBRANCH  18  20
ENDBRANCH  11  18
ENDBRANCH   6   8
ENDBRANCH   1   6
TORSDOF 7
ENDMDL
MODEL 20
REMARK VINA RESULT:    -7.149      3.082      6.179
REMARK INTER + INTRA:         -11.297
REMARK INTER:                 -10.269
REMARK INTRA:                  -1.029
REMARK UNBOUND:                -1.223
REMARK SMILES COCCCNc1nc(Nc2ccc(Cl)cc2C)c2cnn(C)c2n1
REMARK SMILES IDX 5 1 4 2 3 3 2 4 1 5 6 6 7 8 8 9 25 10 9 11 24 12 19 13 22 14
REMARK SMILES IDX 20 15 21 16 23 17 10 18 11 20 12 21 17 22 13 23 16 24 14 25
REMARK SMILES IDX 18 26 15 27
REMARK H PARENT 6 7 10 19
ROOT
ATOM      1  C   UNL     1       9.004  45.829  51.202  1.00  0.00     0.118 C 
ENDROOT
BRANCH   1   2
ATOM      2  C   UNL     1       9.868  46.809  52.001  1.00  0.00     0.050 C 
BRANCH   2   3
ATOM      3  C   UNL     1       9.099  47.412  53.172  1.00  0.00     0.161 C 
BRANCH   3   4
ATOM      4  O   UNL     1       8.409  46.423  53.935  1.00  0.00    -0.385 OA
ATOM      5  C   UNL     1       7.216  46.909  54.536  1.00  0.00     0.194 C 
ENDBRANCH   3   4
ENDBRANCH   2   3
ENDBRANCH   1   2
BRANCH   1   6
ATOM      6  N   UNL     1       7.708  46.403  50.878  1.00  0.00    -0.354 N 
ATOM      7  H   UNL     1       7.502  47.306  51.288  1.00  0.00     0.163 HD
BRANCH   6   8
ATOM      8  C   UNL     1       6.590  45.602  51.037  1.00  0.00     0.226 A 
ATOM      9  N   UNL     1       5.543  46.215  51.623  1.00  0.00    -0.195 NA
ATOM     10  N   UNL     1       6.621  44.326  50.627  1.00  0.00    -0.193 NA
ATOM     11  C   UNL     1       4.390  45.534  51.841  1.00  0.00     0.147 A 
ATOM     12  C   UNL     1       5.460  43.685  50.827  1.00  0.00     0.165 A 
ATOM     13  C   UNL     1       4.324  44.208  51.411  1.00  0.00     0.082 A 
ATOM     14  N   UNL     1       5.152  42.396  50.491  1.00  0.00    -0.250 N 
ATOM     15  C   UNL     1       3.388  43.154  51.363  1.00  0.00     0.149 A 
ATOM     16  N   UNL     1       3.889  42.038  50.820  1.00  0.00    -0.179 NA
ATOM     17  C   UNL     1       6.013  41.441  49.841  1.00  0.00     0.176 C 
BRANCH  11  18
ATOM     18  N   UNL     1       3.336  46.241  52.438  1.00  0.00    -0.339 N 
ATOM     19  H   UNL     1       3.757  46.996  52.979  1.00  0.00     0.168 HD
BRANCH  18  20
ATOM     20  C   UNL     1       2.200  45.723  53.099  1.00  0.00     0.043 A 
ATOM     21  C   UNL     1       0.983  45.523  52.429  1.00  0.00     0.028 A 
ATOM     22  C   UNL     1       2.310  45.319  54.447  1.00  0.00    -0.026 A 
ATOM     23  C   UNL     1      -0.119  44.971  53.087  1.00  0.00     0.022 A 
ATOM     24  C   UNL     1       1.198  44.761  55.100  1.00  0.00     0.026 A 
ATOM     25  C   UNL     1      -0.008  44.595  54.421  1.00  0.00     0.041 A 
ATOM     26  C   UNL     1       3.598  45.491  55.205  1.00  0.00     0.046 C 
ATOM     27  Cl  UNL     1      -1.360  43.910  55.233  1.00  0.00    -0.084 Cl
ENDBRANCH  18  20
ENDBRANCH  11  18
ENDBRANCH   6   8
ENDBRANCH   1   6
TORSDOF 7
ENDMDL
