MODEL 1
REMARK VINA RESULT:    -8.532      0.000      0.000
REMARK INTER + INTRA:         -12.665
REMARK INTER:                 -12.024
REMARK INTRA:                  -0.641
REMARK UNBOUND:                -0.641
REMARK SMILES CCCCCNc1nc(Nc2ccc(I)cc2)c2cnn(C)c2n1
REMARK SMILES IDX 5 1 4 2 3 3 2 4 1 5 6 6 7 8 8 9 24 10 9 11 23 12 18 13 21 14
REMARK SMILES IDX 19 15 20 16 22 17 10 18 11 20 12 21 17 22 13 23 16 24 14 25
REMARK SMILES IDX 15 26
REMARK H PARENT 6 7 10 19
ROOT
ATOM      1  C   UNL     1       8.105  46.747  51.628  1.00  0.00     0.116 C 
ENDROOT
BRANCH   1   2
ATOM      2  C   UNL     1       9.612  46.794  51.890  1.00  0.00     0.021 C 
BRANCH   2   3
ATOM      3  C   UNL     1       9.987  46.458  53.336  1.00  0.00     0.002 C 
BRANCH   3   4
ATOM      4  C   UNL     1       9.586  47.544  54.336  1.00  0.00    -0.003 C 
ATOM      5  C   UNL     1      10.492  47.533  55.558  1.00  0.00     0.004 C 
ENDBRANCH   3   4
ENDBRANCH   2   3
ENDBRANCH   1   2
BRANCH   1   6
ATOM      6  N   UNL     1       7.812  45.900  50.483  1.00  0.00    -0.354 N 
ATOM      7  H   UNL     1       7.548  46.393  49.637  1.00  0.00     0.163 HD
BRANCH   6   8
ATOM      8  C   UNL     1       6.830  44.934  50.673  1.00  0.00     0.226 A 
ATOM      9  N   UNL     1       6.915  43.885  49.832  1.00  0.00    -0.195 NA
ATOM     10  N   UNL     1       5.904  45.097  51.626  1.00  0.00    -0.193 NA
ATOM     11  C   UNL     1       6.012  42.875  49.906  1.00  0.00     0.147 A 
ATOM     12  C   UNL     1       5.048  44.069  51.705  1.00  0.00     0.165 A 
ATOM     13  C   UNL     1       5.038  42.945  50.904  1.00  0.00     0.082 A 
ATOM     14  N   UNL     1       4.020  43.909  52.593  1.00  0.00    -0.250 N 
ATOM     15  C   UNL     1       3.979  42.163  51.411  1.00  0.00     0.149 A 
ATOM     16  N   UNL     1       3.339  42.750  52.429  1.00  0.00    -0.179 NA
ATOM     17  C   UNL     1       3.632  44.818  53.642  1.00  0.00     0.176 C 
BRANCH  11  18
ATOM     18  N   UNL     1       6.177  41.810  49.010  1.00  0.00    -0.339 N 
ATOM     19  H   UNL     1       7.166  41.756  48.776  1.00  0.00     0.168 HD
BRANCH  18  20
ATOM     20  C   UNL     1       5.367  41.431  47.922  1.00  0.00     0.040 A 
ATOM     21  C   UNL     1       4.256  40.614  48.176  1.00  0.00     0.027 A 
ATOM     22  C   UNL     1       5.626  41.809  46.599  1.00  0.00     0.027 A 
ATOM     23  C   UNL     1       3.412  40.201  47.140  1.00  0.00     0.017 A 
ATOM     24  C   UNL     1       4.786  41.398  45.558  1.00  0.00     0.017 A 
ATOM     25  C   UNL     1       3.681  40.597  45.833  1.00  0.00     0.013 A 
ATOM     26  I   UNL     1       2.434  39.987  44.289  1.00  0.00    -0.044 I 
ENDBRANCH  18  20
ENDBRANCH  11  18
ENDBRANCH   6   8
ENDBRANCH   1   6
TORSDOF 7
ENDMDL
MODEL 2
REMARK VINA RESULT:    -8.242      4.680      7.947
REMARK INTER + INTRA:         -12.255
REMARK INTER:                 -10.632
REMARK INTRA:                  -1.624
REMARK UNBOUND:                -0.641
REMARK SMILES CCCCCNc1nc(Nc2ccc(I)cc2)c2cnn(C)c2n1
REMARK SMILES IDX 5 1 4 2 3 3 2 4 1 5 6 6 7 8 8 9 24 10 9 11 23 12 18 13 21 14
REMARK SMILES IDX 19 15 20 16 22 17 10 18 11 20 12 21 17 22 13 23 16 24 14 25
REMARK SMILES IDX 15 26
REMARK H PARENT 6 7 10 19
ROOT
ATOM      1  C   UNL     1       2.702  42.566  52.331  1.00  0.00     0.116 C 
ENDROOT
BRANCH   1   2
ATOM      2  C   UNL     1       3.496  43.132  51.152  1.00  0.00     0.021 C 
BRANCH   2   3
ATOM      3  C   UNL     1       4.724  43.940  51.580  1.00  0.00     0.002 C 
BRANCH   3   4
ATOM      4  C   UNL     1       4.865  45.271  50.840  1.00  0.00    -0.003 C 
ATOM      5  C   UNL     1       3.565  46.062  50.870  1.00  0.00     0.004 C 
ENDBRANCH   3   4
ENDBRANCH   2   3
ENDBRANCH   1   2
BRANCH   1   6
ATOM      6  N   UNL     1       1.451  43.288  52.498  1.00  0.00    -0.354 N 
ATOM      7  H   UNL     1       1.263  43.995  51.794  1.00  0.00     0.163 HD
BRANCH   6   8
ATOM      8  C   UNL     1       1.271  43.924  53.720  1.00  0.00     0.226 A 
ATOM      9  N   UNL     1       2.352  44.598  54.160  1.00  0.00    -0.195 NA
ATOM     10  N   UNL     1       0.097  43.832  54.359  1.00  0.00    -0.193 NA
ATOM     11  C   UNL     1       2.311  45.259  55.345  1.00  0.00     0.147 A 
ATOM     12  C   UNL     1       0.070  44.522  55.506  1.00  0.00     0.165 A 
ATOM     13  C   UNL     1       1.108  45.249  56.053  1.00  0.00     0.082 A 
ATOM     14  N   UNL     1      -0.985  44.665  56.366  1.00  0.00    -0.250 N 
ATOM     15  C   UNL     1       0.564  45.806  57.229  1.00  0.00     0.149 A 
ATOM     16  N   UNL     1      -0.707  45.441  57.440  1.00  0.00    -0.179 NA
ATOM     17  C   UNL     1      -2.302  44.096  56.223  1.00  0.00     0.176 C 
BRANCH  11  18
ATOM     18  N   UNL     1       3.469  45.951  55.724  1.00  0.00    -0.339 N 
ATOM     19  H   UNL     1       3.178  46.771  56.251  1.00  0.00     0.168 HD
BRANCH  18  20
ATOM     20  C   UNL     1       4.638  46.202  54.980  1.00  0.00     0.040 A 
ATOM     21  C   UNL     1       4.681  47.355  54.183  1.00  0.00     0.027 A 
ATOM     22  C   UNL     1       5.749  45.351  54.979  1.00  0.00     0.027 A 
ATOM     23  C   UNL     1       5.812  47.662  53.418  1.00  0.00     0.017 A 
ATOM     24  C   UNL     1       6.883  45.651  54.216  1.00  0.00     0.017 A 
ATOM     25  C   UNL     1       6.911  46.807  53.440  1.00  0.00     0.013 A 
ATOM     26  I   UNL     1       8.593  47.254  52.308  1.00  0.00    -0.044 I 
ENDBRANCH  18  20
ENDBRANCH  11  18
ENDBRANCH   6   8
ENDBRANCH   1   6
TORSDOF 7
ENDMDL
MODEL 3
REMARK VINA RESULT:    -8.221      2.918      4.869
REMARK INTER + INTRA:         -12.227
REMARK INTER:                 -11.548
REMARK INTRA:                  -0.679
REMARK UNBOUND:                -0.641
REMARK SMILES CCCCCNc1nc(Nc2ccc(I)cc2)c2cnn(C)c2n1
REMARK SMILES IDX 5 1 4 2 3 3 2 4 1 5 6 6 7 8 8 9 24 10 9 11 23 12 18 13 21 14
REMARK SMILES IDX 19 15 20 16 22 17 10 18 11 20 12 21 17 22 13 23 16 24 14 25
REMARK SMILES IDX 15 26
REMARK H PARENT 6 7 10 19
ROOT
ATOM      1  C   UNL     1       6.830  47.024  53.056  1.00  0.00     0.116 C 
ENDROOT
BRANCH   1   2
ATOM      2  C   UNL     1       7.775  47.964  52.305  1.00  0.00     0.021 C 
BRANCH   2   3
ATOM      3  C   UNL     1       9.116  47.317  51.945  1.00  0.00     0.002 C 
BRANCH   3   4
ATOM      4  C   UNL     1       9.668  46.410  53.045  1.00  0.00    -0.003 C 
ATOM      5  C   UNL     1      10.057  47.209  54.279  1.00  0.00     0.004 C 
ENDBRANCH   3   4
ENDBRANCH   2   3
ENDBRANCH   1   2
BRANCH   1   6
ATOM      6  N   UNL     1       5.649  46.742  52.257  1.00  0.00    -0.354 N 
ATOM      7  H   UNL     1       4.765  46.978  52.695  1.00  0.00     0.163 HD
BRANCH   6   8
ATOM      8  C   UNL     1       5.508  45.431  51.816  1.00  0.00     0.226 A 
ATOM      9  N   UNL     1       4.533  44.740  52.437  1.00  0.00    -0.195 NA
ATOM     10  N   UNL     1       6.310  44.956  50.855  1.00  0.00    -0.193 NA
ATOM     11  C   UNL     1       4.295  43.445  52.106  1.00  0.00     0.147 A 
ATOM     12  C   UNL     1       6.030  43.690  50.519  1.00  0.00     0.165 A 
ATOM     13  C   UNL     1       5.058  42.886  51.079  1.00  0.00     0.082 A 
ATOM     14  N   UNL     1       6.633  42.934  49.551  1.00  0.00    -0.250 N 
ATOM     15  C   UNL     1       5.146  41.676  50.359  1.00  0.00     0.149 A 
ATOM     16  N   UNL     1       6.116  41.688  49.437  1.00  0.00    -0.179 NA
ATOM     17  C   UNL     1       7.708  43.339  48.679  1.00  0.00     0.176 C 
BRANCH  11  18
ATOM     18  N   UNL     1       3.252  42.800  52.783  1.00  0.00    -0.339 N 
ATOM     19  H   UNL     1       3.552  41.847  52.973  1.00  0.00     0.168 HD
BRANCH  18  20
ATOM     20  C   UNL     1       1.864  42.868  52.550  1.00  0.00     0.040 A 
ATOM     21  C   UNL     1       1.424  43.226  51.268  1.00  0.00     0.027 A 
ATOM     22  C   UNL     1       0.904  42.616  53.537  1.00  0.00     0.027 A 
ATOM     23  C   UNL     1       0.060  43.314  50.971  1.00  0.00     0.017 A 
ATOM     24  C   UNL     1      -0.463  42.703  53.247  1.00  0.00     0.017 A 
ATOM     25  C   UNL     1      -0.879  43.049  51.964  1.00  0.00     0.013 A 
ATOM     26  I   UNL     1      -2.906  43.177  51.533  1.00  0.00    -0.044 I 
ENDBRANCH  18  20
ENDBRANCH  11  18
ENDBRANCH   6   8
ENDBRANCH   1   6
TORSDOF 7
ENDMDL
MODEL 4
REMARK VINA RESULT:    -8.161      2.966      4.846
REMARK INTER + INTRA:         -12.142
REMARK INTER:                 -11.408
REMARK INTRA:                  -0.734
REMARK UNBOUND:                -0.641
REMARK SMILES CCCCCNc1nc(Nc2ccc(I)cc2)c2cnn(C)c2n1
REMARK SMILES IDX 5 1 4 2 3 3 2 4 1 5 6 6 7 8 8 9 24 10 9 11 23 12 18 13 21 14
REMARK SMILES IDX 19 15 20 16 22 17 10 18 11 20 12 21 17 22 13 23 16 24 14 25
REMARK SMILES IDX 15 26
REMARK H PARENT 6 7 10 19
ROOT
ATOM      1  C   UNL     1       6.687  47.022  53.279  1.00  0.00     0.116 C 
ENDROOT
BRANCH   1   2
ATOM      2  C   UNL     1       7.835  47.848  52.695  1.00  0.00     0.021 C 
BRANCH   2   3
ATOM      3  C   UNL     1       9.121  47.773  53.524  1.00  0.00     0.002 C 
BRANCH   3   4
ATOM      4  C   UNL     1       9.916  46.487  53.298  1.00  0.00    -0.003 C 
ATOM      5  C   UNL     1      10.259  46.298  51.828  1.00  0.00     0.004 C 
ENDBRANCH   3   4
ENDBRANCH   2   3
ENDBRANCH   1   2
BRANCH   1   6
ATOM      6  N   UNL     1       5.656  46.802  52.278  1.00  0.00    -0.354 N 
ATOM      7  H   UNL     1       4.726  47.111  52.541  1.00  0.00     0.163 HD
BRANCH   6   8
ATOM      8  C   UNL     1       5.503  45.494  51.835  1.00  0.00     0.226 A 
ATOM      9  N   UNL     1       4.507  44.817  52.439  1.00  0.00    -0.195 NA
ATOM     10  N   UNL     1       6.314  45.006  50.888  1.00  0.00    -0.193 NA
ATOM     11  C   UNL     1       4.255  43.526  52.103  1.00  0.00     0.147 A 
ATOM     12  C   UNL     1       6.021  43.744  50.547  1.00  0.00     0.165 A 
ATOM     13  C   UNL     1       5.028  42.955  51.090  1.00  0.00     0.082 A 
ATOM     14  N   UNL     1       6.629  42.979  49.589  1.00  0.00    -0.250 N 
ATOM     15  C   UNL     1       5.110  41.744  50.372  1.00  0.00     0.149 A 
ATOM     16  N   UNL     1       6.096  41.741  49.467  1.00  0.00    -0.179 NA
ATOM     17  C   UNL     1       7.725  43.367  48.737  1.00  0.00     0.176 C 
BRANCH  11  18
ATOM     18  N   UNL     1       3.191  42.896  52.763  1.00  0.00    -0.339 N 
ATOM     19  H   UNL     1       3.495  41.958  53.011  1.00  0.00     0.168 HD
BRANCH  18  20
ATOM     20  C   UNL     1       1.815  42.932  52.465  1.00  0.00     0.040 A 
ATOM     21  C   UNL     1       0.908  42.581  53.476  1.00  0.00     0.027 A 
ATOM     22  C   UNL     1       1.307  43.280  51.208  1.00  0.00     0.027 A 
ATOM     23  C   UNL     1      -0.471  42.595  53.245  1.00  0.00     0.017 A 
ATOM     24  C   UNL     1      -0.072  43.295  50.969  1.00  0.00     0.017 A 
ATOM     25  C   UNL     1      -0.956  42.954  51.990  1.00  0.00     0.013 A 
ATOM     26  I   UNL     1      -3.002  42.977  51.639  1.00  0.00    -0.044 I 
ENDBRANCH  18  20
ENDBRANCH  11  18
ENDBRANCH   6   8
ENDBRANCH   1   6
TORSDOF 7
ENDMDL
MODEL 5
REMARK VINA RESULT:    -8.084      3.947      7.031
REMARK INTER + INTRA:         -12.033
REMARK INTER:                 -10.648
REMARK INTRA:                  -1.385
REMARK UNBOUND:                -0.641
REMARK SMILES CCCCCNc1nc(Nc2ccc(I)cc2)c2cnn(C)c2n1
REMARK SMILES IDX 5 1 4 2 3 3 2 4 1 5 6 6 7 8 8 9 24 10 9 11 23 12 18 13 21 14
REMARK SMILES IDX 19 15 20 16 22 17 10 18 11 20 12 21 17 22 13 23 16 24 14 25
REMARK SMILES IDX 15 26
REMARK H PARENT 6 7 10 19
ROOT
ATOM      1  C   UNL     1       4.669  41.519  50.839  1.00  0.00     0.116 C 
ENDROOT
BRANCH   1   2
ATOM      2  C   UNL     1       5.512  41.470  49.563  1.00  0.00     0.021 C 
BRANCH   2   3
ATOM      3  C   UNL     1       6.510  42.626  49.450  1.00  0.00     0.002 C 
BRANCH   3   4
ATOM      4  C   UNL     1       6.150  43.828  50.324  1.00  0.00    -0.003 C 
ATOM      5  C   UNL     1       7.205  44.920  50.226  1.00  0.00     0.004 C 
ENDBRANCH   3   4
ENDBRANCH   2   3
ENDBRANCH   1   2
BRANCH   1   6
ATOM      6  N   UNL     1       3.252  41.531  50.515  1.00  0.00    -0.354 N 
ATOM      7  H   UNL     1       3.037  41.582  49.524  1.00  0.00     0.163 HD
BRANCH   6   8
ATOM      8  C   UNL     1       2.498  42.534  51.112  1.00  0.00     0.226 A 
ATOM      9  N   UNL     1       3.143  43.211  52.081  1.00  0.00    -0.195 NA
ATOM     10  N   UNL     1       1.238  42.753  50.714  1.00  0.00    -0.193 NA
ATOM     11  C   UNL     1       2.516  44.212  52.750  1.00  0.00     0.147 A 
ATOM     12  C   UNL     1       0.654  43.770  51.362  1.00  0.00     0.165 A 
ATOM     13  C   UNL     1       1.214  44.535  52.365  1.00  0.00     0.082 A 
ATOM     14  N   UNL     1      -0.603  44.271  51.162  1.00  0.00    -0.250 N 
ATOM     15  C   UNL     1       0.217  45.481  52.681  1.00  0.00     0.149 A 
ATOM     16  N   UNL     1      -0.903  45.317  51.967  1.00  0.00    -0.179 NA
ATOM     17  C   UNL     1      -1.579  43.808  50.207  1.00  0.00     0.176 C 
BRANCH  11  18
ATOM     18  N   UNL     1       3.260  44.881  53.731  1.00  0.00    -0.339 N 
ATOM     19  H   UNL     1       2.616  45.462  54.262  1.00  0.00     0.168 HD
BRANCH  18  20
ATOM     20  C   UNL     1       4.532  45.478  53.629  1.00  0.00     0.040 A 
ATOM     21  C   UNL     1       5.598  44.888  54.324  1.00  0.00     0.027 A 
ATOM     22  C   UNL     1       4.781  46.638  52.888  1.00  0.00     0.027 A 
ATOM     23  C   UNL     1       6.886  45.432  54.266  1.00  0.00     0.017 A 
ATOM     24  C   UNL     1       6.067  47.189  52.826  1.00  0.00     0.017 A 
ATOM     25  C   UNL     1       7.115  46.581  53.514  1.00  0.00     0.013 A 
ATOM     26  I   UNL     1       9.023  47.396  53.422  1.00  0.00    -0.044 I 
ENDBRANCH  18  20
ENDBRANCH  11  18
ENDBRANCH   6   8
ENDBRANCH   1   6
TORSDOF 7
ENDMDL
MODEL 6
REMARK VINA RESULT:    -8.081      2.993      5.383
REMARK INTER + INTRA:         -12.029
REMARK INTER:                 -11.370
REMARK INTRA:                  -0.659
REMARK UNBOUND:                -0.641
REMARK SMILES CCCCCNc1nc(Nc2ccc(I)cc2)c2cnn(C)c2n1
REMARK SMILES IDX 5 1 4 2 3 3 2 4 1 5 6 6 7 8 8 9 24 10 9 11 23 12 18 13 21 14
REMARK SMILES IDX 19 15 20 16 22 17 10 18 11 20 12 21 17 22 13 23 16 24 14 25
REMARK SMILES IDX 15 26
REMARK H PARENT 6 7 10 19
ROOT
ATOM      1  C   UNL     1       8.656  46.057  51.241  1.00  0.00     0.116 C 
ENDROOT
BRANCH   1   2
ATOM      2  C   UNL     1       9.434  47.092  52.056  1.00  0.00     0.021 C 
BRANCH   2   3
ATOM      3  C   UNL     1       9.864  46.581  53.434  1.00  0.00     0.002 C 
BRANCH   3   4
ATOM      4  C   UNL     1       9.520  47.540  54.574  1.00  0.00    -0.003 C 
ATOM      5  C   UNL     1      10.592  47.526  55.653  1.00  0.00     0.004 C 
ENDBRANCH   3   4
ENDBRANCH   2   3
ENDBRANCH   1   2
BRANCH   1   6
ATOM      6  N   UNL     1       7.248  46.412  51.175  1.00  0.00    -0.354 N 
ATOM      7  H   UNL     1       6.956  47.141  51.818  1.00  0.00     0.163 HD
BRANCH   6   8
ATOM      8  C   UNL     1       6.346  45.371  51.358  1.00  0.00     0.226 A 
ATOM      9  N   UNL     1       5.409  45.608  52.297  1.00  0.00    -0.195 NA
ATOM     10  N   UNL     1       6.456  44.251  50.633  1.00  0.00    -0.193 NA
ATOM     11  C   UNL     1       4.471  44.669  52.580  1.00  0.00     0.147 A 
ATOM     12  C   UNL     1       5.497  43.356  50.903  1.00  0.00     0.165 A 
ATOM     13  C   UNL     1       4.488  43.488  51.835  1.00  0.00     0.082 A 
ATOM     14  N   UNL     1       5.305  42.138  50.310  1.00  0.00    -0.250 N 
ATOM     15  C   UNL     1       3.733  42.304  51.705  1.00  0.00     0.149 A 
ATOM     16  N   UNL     1       4.234  41.465  50.791  1.00  0.00    -0.179 NA
ATOM     17  C   UNL     1       6.101  41.550  49.262  1.00  0.00     0.176 C 
BRANCH  11  18
ATOM     18  N   UNL     1       3.520  44.998  53.555  1.00  0.00    -0.339 N 
ATOM     19  H   UNL     1       3.867  44.660  54.450  1.00  0.00     0.168 HD
BRANCH  18  20
ATOM     20  C   UNL     1       2.115  44.926  53.487  1.00  0.00     0.040 A 
ATOM     21  C   UNL     1       1.429  44.323  54.551  1.00  0.00     0.027 A 
ATOM     22  C   UNL     1       1.371  45.406  52.403  1.00  0.00     0.027 A 
ATOM     23  C   UNL     1       0.034  44.219  54.544  1.00  0.00     0.017 A 
ATOM     24  C   UNL     1      -0.025  45.305  52.389  1.00  0.00     0.017 A 
ATOM     25  C   UNL     1      -0.688  44.713  53.461  1.00  0.00     0.013 A 
ATOM     26  I   UNL     1      -2.759  44.562  53.443  1.00  0.00    -0.044 I 
ENDBRANCH  18  20
ENDBRANCH  11  18
ENDBRANCH   6   8
ENDBRANCH   1   6
TORSDOF 7
ENDMDL
MODEL 7
REMARK VINA RESULT:    -8.021      3.087      5.337
REMARK INTER + INTRA:         -11.944
REMARK INTER:                 -11.184
REMARK INTRA:                  -0.760
REMARK UNBOUND:                -0.641
REMARK SMILES CCCCCNc1nc(Nc2ccc(I)cc2)c2cnn(C)c2n1
REMARK SMILES IDX 5 1 4 2 3 3 2 4 1 5 6 6 7 8 8 9 24 10 9 11 23 12 18 13 21 14
REMARK SMILES IDX 19 15 20 16 22 17 10 18 11 20 12 21 17 22 13 23 16 24 14 25
REMARK SMILES IDX 15 26
REMARK H PARENT 6 7 10 19
ROOT
ATOM      1  C   UNL     1       7.990  46.214  51.111  1.00  0.00     0.116 C 
ENDROOT
BRANCH   1   2
ATOM      2  C   UNL     1       8.986  47.265  51.607  1.00  0.00     0.021 C 
BRANCH   2   3
ATOM      3  C   UNL     1      10.137  46.671  52.425  1.00  0.00     0.002 C 
BRANCH   3   4
ATOM      4  C   UNL     1       9.877  46.673  53.932  1.00  0.00    -0.003 C 
ATOM      5  C   UNL     1       9.085  47.900  54.356  1.00  0.00     0.004 C 
ENDBRANCH   3   4
ENDBRANCH   2   3
ENDBRANCH   1   2
BRANCH   1   6
ATOM      6  N   UNL     1       6.772  46.253  51.904  1.00  0.00    -0.354 N 
ATOM      7  H   UNL     1       6.908  46.408  52.898  1.00  0.00     0.163 HD
BRANCH   6   8
ATOM      8  C   UNL     1       5.946  45.138  51.811  1.00  0.00     0.226 A 
ATOM      9  N   UNL     1       4.931  45.124  52.696  1.00  0.00    -0.195 NA
ATOM     10  N   UNL     1       6.198  44.191  50.898  1.00  0.00    -0.193 NA
ATOM     11  C   UNL     1       4.055  44.088  52.716  1.00  0.00     0.147 A 
ATOM     12  C   UNL     1       5.298  43.199  50.911  1.00  0.00     0.165 A 
ATOM     13  C   UNL     1       4.220  43.079  51.765  1.00  0.00     0.082 A 
ATOM     14  N   UNL     1       5.247  42.111  50.084  1.00  0.00    -0.250 N 
ATOM     15  C   UNL     1       3.575  41.895  51.350  1.00  0.00     0.149 A 
ATOM     16  N   UNL     1       4.204  41.286  50.338  1.00  0.00    -0.179 NA
ATOM     17  C   UNL     1       6.159  41.793  49.014  1.00  0.00     0.176 C 
BRANCH  11  18
ATOM     18  N   UNL     1       3.016  44.155  53.653  1.00  0.00    -0.339 N 
ATOM     19  H   UNL     1       3.310  43.635  54.476  1.00  0.00     0.168 HD
BRANCH  18  20
ATOM     20  C   UNL     1       1.626  44.055  53.448  1.00  0.00     0.040 A 
ATOM     21  C   UNL     1       0.961  45.147  52.871  1.00  0.00     0.027 A 
ATOM     22  C   UNL     1       0.872  42.932  53.808  1.00  0.00     0.027 A 
ATOM     23  C   UNL     1      -0.418  45.113  52.641  1.00  0.00     0.017 A 
ATOM     24  C   UNL     1      -0.508  42.891  53.582  1.00  0.00     0.017 A 
ATOM     25  C   UNL     1      -1.148  43.982  52.997  1.00  0.00     0.013 A 
ATOM     26  I   UNL     1      -3.196  43.922  52.661  1.00  0.00    -0.044 I 
ENDBRANCH  18  20
ENDBRANCH  11  18
ENDBRANCH   6   8
ENDBRANCH   1   6
TORSDOF 7
ENDMDL
MODEL 8
REMARK VINA RESULT:    -7.968      1.101      1.194
REMARK INTER + INTRA:         -11.870
REMARK INTER:                 -11.147
REMARK INTRA:                  -0.722
REMARK UNBOUND:                -0.641
REMARK SMILES CCCCCNc1nc(Nc2ccc(I)cc2)c2cnn(C)c2n1
REMARK SMILES IDX 5 1 4 2 3 3 2 4 1 5 6 6 7 8 8 9 24 10 9 11 23 12 18 13 21 14
REMARK SMILES IDX 19 15 20 16 22 17 10 18 11 20 12 21 17 22 13 23 16 24 14 25
REMARK SMILES IDX 15 26
REMARK H PARENT 6 7 10 19
ROOT
ATOM      1  C   UNL     1       8.026  46.146  51.218  1.00  0.00     0.116 C 
ENDROOT
BRANCH   1   2
ATOM      2  C   UNL     1       9.003  47.237  51.662  1.00  0.00     0.021 C 
BRANCH   2   3
ATOM      3  C   UNL     1      10.189  46.699  52.468  1.00  0.00     0.002 C 
BRANCH   3   4
ATOM      4  C   UNL     1       9.966  46.740  53.980  1.00  0.00    -0.003 C 
ATOM      5  C   UNL     1       9.067  47.901  54.376  1.00  0.00     0.004 C 
ENDBRANCH   3   4
ENDBRANCH   2   3
ENDBRANCH   1   2
BRANCH   1   6
ATOM      6  N   UNL     1       6.687  46.432  51.705  1.00  0.00    -0.354 N 
ATOM      7  H   UNL     1       6.642  46.834  52.636  1.00  0.00     0.163 HD
BRANCH   6   8
ATOM      8  C   UNL     1       5.801  45.361  51.719  1.00  0.00     0.226 A 
ATOM      9  N   UNL     1       6.175  44.321  50.949  1.00  0.00    -0.195 NA
ATOM     10  N   UNL     1       4.684  45.424  52.455  1.00  0.00    -0.193 NA
ATOM     11  C   UNL     1       5.394  43.214  50.868  1.00  0.00     0.147 A 
ATOM     12  C   UNL     1       3.950  44.305  52.389  1.00  0.00     0.165 A 
ATOM     13  C   UNL     1       4.232  43.180  51.641  1.00  0.00     0.082 A 
ATOM     14  N   UNL     1       2.783  44.036  53.051  1.00  0.00    -0.250 N 
ATOM     15  C   UNL     1       3.183  42.286  51.943  1.00  0.00     0.149 A 
ATOM     16  N   UNL     1       2.284  42.805  52.788  1.00  0.00    -0.179 NA
ATOM     17  C   UNL     1       2.085  44.904  53.966  1.00  0.00     0.176 C 
BRANCH  11  18
ATOM     18  N   UNL     1       5.860  42.168  50.061  1.00  0.00    -0.339 N 
ATOM     19  H   UNL     1       6.877  42.211  50.057  1.00  0.00     0.168 HD
BRANCH  18  20
ATOM     20  C   UNL     1       5.359  41.705  48.829  1.00  0.00     0.040 A 
ATOM     21  C   UNL     1       4.262  40.831  48.846  1.00  0.00     0.027 A 
ATOM     22  C   UNL     1       5.911  42.056  47.591  1.00  0.00     0.027 A 
ATOM     23  C   UNL     1       3.717  40.334  47.657  1.00  0.00     0.017 A 
ATOM     24  C   UNL     1       5.371  41.562  46.398  1.00  0.00     0.017 A 
ATOM     25  C   UNL     1       4.274  40.704  46.436  1.00  0.00     0.013 A 
ATOM     26  I   UNL     1       3.471  39.970  44.667  1.00  0.00    -0.044 I 
ENDBRANCH  18  20
ENDBRANCH  11  18
ENDBRANCH   6   8
ENDBRANCH   1   6
TORSDOF 7
ENDMDL
MODEL 9
REMARK VINA RESULT:    -7.962      3.122      6.193
REMARK INTER + INTRA:         -11.862
REMARK INTER:                 -10.390
REMARK INTRA:                  -1.471
REMARK UNBOUND:                -0.641
REMARK SMILES CCCCCNc1nc(Nc2ccc(I)cc2)c2cnn(C)c2n1
REMARK SMILES IDX 5 1 4 2 3 3 2 4 1 5 6 6 7 8 8 9 24 10 9 11 23 12 18 13 21 14
REMARK SMILES IDX 19 15 20 16 22 17 10 18 11 20 12 21 17 22 13 23 16 24 14 25
REMARK SMILES IDX 15 26
REMARK H PARENT 6 7 10 19
ROOT
ATOM      1  C   UNL     1       8.121  43.803  49.474  1.00  0.00     0.116 C 
ENDROOT
BRANCH   1   2
ATOM      2  C   UNL     1       6.911  43.007  48.981  1.00  0.00     0.021 C 
BRANCH   2   3
ATOM      3  C   UNL     1       6.273  42.138  50.068  1.00  0.00     0.002 C 
BRANCH   3   4
ATOM      4  C   UNL     1       5.005  42.748  50.668  1.00  0.00    -0.003 C 
ATOM      5  C   UNL     1       4.037  41.670  51.132  1.00  0.00     0.004 C 
ENDBRANCH   3   4
ENDBRANCH   2   3
ENDBRANCH   1   2
BRANCH   1   6
ATOM      6  N   UNL     1       7.824  45.226  49.489  1.00  0.00    -0.354 N 
ATOM      7  H   UNL     1       8.566  45.826  49.143  1.00  0.00     0.163 HD
BRANCH   6   8
ATOM      8  C   UNL     1       7.455  45.760  50.717  1.00  0.00     0.226 A 
ATOM      9  N   UNL     1       6.130  45.959  50.860  1.00  0.00    -0.195 NA
ATOM     10  N   UNL     1       8.388  46.036  51.637  1.00  0.00    -0.193 NA
ATOM     11  C   UNL     1       5.637  46.483  52.011  1.00  0.00     0.147 A 
ATOM     12  C   UNL     1       7.873  46.516  52.778  1.00  0.00     0.165 A 
ATOM     13  C   UNL     1       6.540  46.757  53.040  1.00  0.00     0.082 A 
ATOM     14  N   UNL     1       8.549  46.853  53.918  1.00  0.00    -0.250 N 
ATOM     15  C   UNL     1       6.522  47.217  54.373  1.00  0.00     0.149 A 
ATOM     16  N   UNL     1       7.745  47.297  54.913  1.00  0.00    -0.179 NA
ATOM     17  C   UNL     1       9.971  46.768  54.140  1.00  0.00     0.176 C 
BRANCH  11  18
ATOM     18  N   UNL     1       4.247  46.643  52.089  1.00  0.00    -0.339 N 
ATOM     19  H   UNL     1       4.064  47.493  52.617  1.00  0.00     0.168 HD
BRANCH  18  20
ATOM     20  C   UNL     1       3.252  45.671  52.314  1.00  0.00     0.040 A 
ATOM     21  C   UNL     1       2.393  45.345  51.255  1.00  0.00     0.027 A 
ATOM     22  C   UNL     1       3.064  45.030  53.544  1.00  0.00     0.027 A 
ATOM     23  C   UNL     1       1.383  44.389  51.412  1.00  0.00     0.017 A 
ATOM     24  C   UNL     1       2.056  44.074  53.709  1.00  0.00     0.017 A 
ATOM     25  C   UNL     1       1.220  43.756  52.641  1.00  0.00     0.013 A 
ATOM     26  I   UNL     1      -0.276  42.337  52.884  1.00  0.00    -0.044 I 
ENDBRANCH  18  20
ENDBRANCH  11  18
ENDBRANCH   6   8
ENDBRANCH   1   6
TORSDOF 7
ENDMDL
MODEL 10
REMARK VINA RESULT:    -7.874      3.704      7.130
REMARK INTER + INTRA:         -11.737
REMARK INTER:                 -10.648
REMARK INTRA:                  -1.088
REMARK UNBOUND:                -0.641
REMARK SMILES CCCCCNc1nc(Nc2ccc(I)cc2)c2cnn(C)c2n1
REMARK SMILES IDX 5 1 4 2 3 3 2 4 1 5 6 6 7 8 8 9 24 10 9 11 23 12 18 13 21 14
REMARK SMILES IDX 19 15 20 16 22 17 10 18 11 20 12 21 17 22 13 23 16 24 14 25
REMARK SMILES IDX 15 26
REMARK H PARENT 6 7 10 19
ROOT
ATOM      1  C   UNL     1       4.495  41.333  50.579  1.00  0.00     0.116 C 
ENDROOT
BRANCH   1   2
ATOM      2  C   UNL     1       4.855  41.079  49.113  1.00  0.00     0.021 C 
BRANCH   2   3
ATOM      3  C   UNL     1       5.944  42.018  48.585  1.00  0.00     0.002 C 
BRANCH   3   4
ATOM      4  C   UNL     1       6.471  42.992  49.639  1.00  0.00    -0.003 C 
ATOM      5  C   UNL     1       7.855  43.509  49.274  1.00  0.00     0.004 C 
ENDBRANCH   3   4
ENDBRANCH   2   3
ENDBRANCH   1   2
BRANCH   1   6
ATOM      6  N   UNL     1       3.073  41.604  50.715  1.00  0.00    -0.354 N 
ATOM      7  H   UNL     1       2.574  41.741  49.842  1.00  0.00     0.163 HD
BRANCH   6   8
ATOM      8  C   UNL     1       2.732  42.689  51.513  1.00  0.00     0.226 A 
ATOM      9  N   UNL     1       3.532  43.763  51.362  1.00  0.00    -0.195 NA
ATOM     10  N   UNL     1       1.686  42.608  52.345  1.00  0.00    -0.193 NA
ATOM     11  C   UNL     1       3.312  44.888  52.088  1.00  0.00     0.147 A 
ATOM     12  C   UNL     1       1.466  43.743  53.022  1.00  0.00     0.165 A 
ATOM     13  C   UNL     1       2.212  44.902  52.948  1.00  0.00     0.082 A 
ATOM     14  N   UNL     1       0.459  43.999  53.912  1.00  0.00    -0.250 N 
ATOM     15  C   UNL     1       1.554  45.798  53.816  1.00  0.00     0.149 A 
ATOM     16  N   UNL     1       0.495  45.252  54.424  1.00  0.00    -0.179 NA
ATOM     17  C   UNL     1      -0.588  43.096  54.319  1.00  0.00     0.176 C 
BRANCH  11  18
ATOM     18  N   UNL     1       4.176  45.967  51.860  1.00  0.00    -0.339 N 
ATOM     19  H   UNL     1       4.186  46.148  50.859  1.00  0.00     0.168 HD
BRANCH  18  20
ATOM     20  C   UNL     1       5.425  46.245  52.448  1.00  0.00     0.040 A 
ATOM     21  C   UNL     1       6.568  46.181  51.638  1.00  0.00     0.027 A 
ATOM     22  C   UNL     1       5.587  46.560  53.802  1.00  0.00     0.027 A 
ATOM     23  C   UNL     1       7.839  46.443  52.160  1.00  0.00     0.017 A 
ATOM     24  C   UNL     1       6.856  46.824  54.332  1.00  0.00     0.017 A 
ATOM     25  C   UNL     1       7.977  46.766  53.507  1.00  0.00     0.013 A 
ATOM     26  I   UNL     1       9.860  47.157  54.291  1.00  0.00    -0.044 I 
ENDBRANCH  18  20
ENDBRANCH  11  18
ENDBRANCH   6   8
ENDBRANCH   1   6
TORSDOF 7
ENDMDL
MODEL 11
REMARK VINA RESULT:    -7.771      3.313      7.043
REMARK INTER + INTRA:         -11.593
REMARK INTER:                 -10.463
REMARK INTRA:                  -1.130
REMARK UNBOUND:                -0.641
REMARK SMILES CCCCCNc1nc(Nc2ccc(I)cc2)c2cnn(C)c2n1
REMARK SMILES IDX 5 1 4 2 3 3 2 4 1 5 6 6 7 8 8 9 24 10 9 11 23 12 18 13 21 14
REMARK SMILES IDX 19 15 20 16 22 17 10 18 11 20 12 21 17 22 13 23 16 24 14 25
REMARK SMILES IDX 15 26
REMARK H PARENT 6 7 10 19
ROOT
ATOM      1  C   UNL     1       7.060  42.888  49.408  1.00  0.00     0.116 C 
ENDROOT
BRANCH   1   2
ATOM      2  C   UNL     1       6.443  41.596  49.949  1.00  0.00     0.021 C 
BRANCH   2   3
ATOM      3  C   UNL     1       4.913  41.586  49.897  1.00  0.00     0.002 C 
BRANCH   3   4
ATOM      4  C   UNL     1       4.257  41.592  51.279  1.00  0.00    -0.003 C 
ATOM      5  C   UNL     1       3.273  42.743  51.420  1.00  0.00     0.004 C 
ENDBRANCH   3   4
ENDBRANCH   2   3
ENDBRANCH   1   2
BRANCH   1   6
ATOM      6  N   UNL     1       6.165  44.012  49.630  1.00  0.00    -0.354 N 
ATOM      7  H   UNL     1       5.925  44.544  48.799  1.00  0.00     0.163 HD
BRANCH   6   8
ATOM      8  C   UNL     1       6.584  44.952  50.564  1.00  0.00     0.226 A 
ATOM      9  N   UNL     1       5.581  45.555  51.232  1.00  0.00    -0.195 NA
ATOM     10  N   UNL     1       7.890  45.194  50.735  1.00  0.00    -0.193 NA
ATOM     11  C   UNL     1       5.853  46.498  52.169  1.00  0.00     0.147 A 
ATOM     12  C   UNL     1       8.134  46.100  51.691  1.00  0.00     0.165 A 
ATOM     13  C   UNL     1       7.194  46.778  52.440  1.00  0.00     0.082 A 
ATOM     14  N   UNL     1       9.353  46.534  52.134  1.00  0.00    -0.250 N 
ATOM     15  C   UNL     1       7.955  47.577  53.318  1.00  0.00     0.149 A 
ATOM     16  N   UNL     1       9.274  47.450  53.127  1.00  0.00    -0.179 NA
ATOM     17  C   UNL     1      10.648  46.109  51.662  1.00  0.00     0.176 C 
BRANCH  11  18
ATOM     18  N   UNL     1       4.757  47.066  52.833  1.00  0.00    -0.339 N 
ATOM     19  H   UNL     1       5.120  47.649  53.583  1.00  0.00     0.168 HD
BRANCH  18  20
ATOM     20  C   UNL     1       3.529  46.475  53.186  1.00  0.00     0.040 A 
ATOM     21  C   UNL     1       3.433  45.841  54.434  1.00  0.00     0.027 A 
ATOM     22  C   UNL     1       2.407  46.470  52.350  1.00  0.00     0.027 A 
ATOM     23  C   UNL     1       2.242  45.233  54.845  1.00  0.00     0.017 A 
ATOM     24  C   UNL     1       1.212  45.863  52.754  1.00  0.00     0.017 A 
ATOM     25  C   UNL     1       1.134  45.248  54.002  1.00  0.00     0.013 A 
ATOM     26  I   UNL     1      -0.638  44.348  54.603  1.00  0.00    -0.044 I 
ENDBRANCH  18  20
ENDBRANCH  11  18
ENDBRANCH   6   8
ENDBRANCH   1   6
TORSDOF 7
ENDMDL
MODEL 12
REMARK VINA RESULT:    -7.764      3.705      5.460
REMARK INTER + INTRA:         -11.583
REMARK INTER:                 -10.760
REMARK INTRA:                  -0.823
REMARK UNBOUND:                -0.641
REMARK SMILES CCCCCNc1nc(Nc2ccc(I)cc2)c2cnn(C)c2n1
REMARK SMILES IDX 5 1 4 2 3 3 2 4 1 5 6 6 7 8 8 9 24 10 9 11 23 12 18 13 21 14
REMARK SMILES IDX 19 15 20 16 22 17 10 18 11 20 12 21 17 22 13 23 16 24 14 25
REMARK SMILES IDX 15 26
REMARK H PARENT 6 7 10 19
ROOT
ATOM      1  C   UNL     1       5.010  45.646  55.305  1.00  0.00     0.116 C 
ENDROOT
BRANCH   1   2
ATOM      2  C   UNL     1       5.555  46.836  54.513  1.00  0.00     0.021 C 
BRANCH   2   3
ATOM      3  C   UNL     1       6.881  46.539  53.807  1.00  0.00     0.002 C 
BRANCH   3   4
ATOM      4  C   UNL     1       7.213  47.534  52.693  1.00  0.00    -0.003 C 
ATOM      5  C   UNL     1       8.383  47.050  51.849  1.00  0.00     0.004 C 
ENDBRANCH   3   4
ENDBRANCH   2   3
ENDBRANCH   1   2
BRANCH   1   6
ATOM      6  N   UNL     1       3.682  45.940  55.819  1.00  0.00    -0.354 N 
ATOM      7  H   UNL     1       3.559  45.780  56.814  1.00  0.00     0.163 HD
BRANCH   6   8
ATOM      8  C   UNL     1       2.628  45.276  55.202  1.00  0.00     0.226 A 
ATOM      9  N   UNL     1       2.923  44.773  53.988  1.00  0.00    -0.195 NA
ATOM     10  N   UNL     1       1.441  45.185  55.816  1.00  0.00    -0.193 NA
ATOM     11  C   UNL     1       1.980  44.108  53.275  1.00  0.00     0.147 A 
ATOM     12  C   UNL     1       0.539  44.491  55.110  1.00  0.00     0.165 A 
ATOM     13  C   UNL     1       0.726  43.929  53.864  1.00  0.00     0.082 A 
ATOM     14  N   UNL     1      -0.744  44.184  55.473  1.00  0.00    -0.250 N 
ATOM     15  C   UNL     1      -0.498  43.288  53.581  1.00  0.00     0.149 A 
ATOM     16  N   UNL     1      -1.409  43.453  54.547  1.00  0.00    -0.179 NA
ATOM     17  C   UNL     1      -1.406  44.545  56.702  1.00  0.00     0.176 C 
BRANCH  11  18
ATOM     18  N   UNL     1       2.369  43.599  52.029  1.00  0.00    -0.339 N 
ATOM     19  H   UNL     1       1.908  42.701  51.905  1.00  0.00     0.168 HD
BRANCH  18  20
ATOM     20  C   UNL     1       3.639  43.616  51.420  1.00  0.00     0.040 A 
ATOM     21  C   UNL     1       4.241  44.859  51.177  1.00  0.00     0.027 A 
ATOM     22  C   UNL     1       4.320  42.458  51.026  1.00  0.00     0.027 A 
ATOM     23  C   UNL     1       5.501  44.945  50.574  1.00  0.00     0.017 A 
ATOM     24  C   UNL     1       5.580  42.537  50.421  1.00  0.00     0.017 A 
ATOM     25  C   UNL     1       6.166  43.781  50.200  1.00  0.00     0.013 A 
ATOM     26  I   UNL     1       8.036  43.900  49.304  1.00  0.00    -0.044 I 
ENDBRANCH  18  20
ENDBRANCH  11  18
ENDBRANCH   6   8
ENDBRANCH   1   6
TORSDOF 7
ENDMDL
MODEL 13
REMARK VINA RESULT:    -7.735      3.699      6.163
REMARK INTER + INTRA:         -11.541
REMARK INTER:                 -10.787
REMARK INTRA:                  -0.754
REMARK UNBOUND:                -0.641
REMARK SMILES CCCCCNc1nc(Nc2ccc(I)cc2)c2cnn(C)c2n1
REMARK SMILES IDX 5 1 4 2 3 3 2 4 1 5 6 6 7 8 8 9 24 10 9 11 23 12 18 13 21 14
REMARK SMILES IDX 19 15 20 16 22 17 10 18 11 20 12 21 17 22 13 23 16 24 14 25
REMARK SMILES IDX 15 26
REMARK H PARENT 6 7 10 19
ROOT
ATOM      1  C   UNL     1       7.662  46.212  51.411  1.00  0.00     0.116 C 
ENDROOT
BRANCH   1   2
ATOM      2  C   UNL     1       8.684  47.323  51.661  1.00  0.00     0.021 C 
BRANCH   2   3
ATOM      3  C   UNL     1       9.973  46.824  52.321  1.00  0.00     0.002 C 
BRANCH   3   4
ATOM      4  C   UNL     1       9.869  46.698  53.841  1.00  0.00    -0.003 C 
ATOM      5  C   UNL     1       9.162  47.899  54.450  1.00  0.00     0.004 C 
ENDBRANCH   3   4
ENDBRANCH   2   3
ENDBRANCH   1   2
BRANCH   1   6
ATOM      6  N   UNL     1       6.405  46.516  52.074  1.00  0.00    -0.354 N 
ATOM      7  H   UNL     1       6.466  46.644  53.079  1.00  0.00     0.163 HD
BRANCH   6   8
ATOM      8  C   UNL     1       5.374  45.605  51.877  1.00  0.00     0.226 A 
ATOM      9  N   UNL     1       4.153  46.069  52.209  1.00  0.00    -0.195 NA
ATOM     10  N   UNL     1       5.640  44.383  51.399  1.00  0.00    -0.193 NA
ATOM     11  C   UNL     1       3.060  45.276  52.071  1.00  0.00     0.147 A 
ATOM     12  C   UNL     1       4.541  43.634  51.236  1.00  0.00     0.165 A 
ATOM     13  C   UNL     1       3.245  44.000  51.536  1.00  0.00     0.082 A 
ATOM     14  N   UNL     1       4.467  42.364  50.731  1.00  0.00    -0.250 N 
ATOM     15  C   UNL     1       2.468  42.887  51.152  1.00  0.00     0.149 A 
ATOM     16  N   UNL     1       3.206  41.876  50.678  1.00  0.00    -0.179 NA
ATOM     17  C   UNL     1       5.563  41.552  50.265  1.00  0.00     0.176 C 
BRANCH  11  18
ATOM     18  N   UNL     1       1.824  45.837  52.420  1.00  0.00    -0.339 N 
ATOM     19  H   UNL     1       1.938  46.847  52.439  1.00  0.00     0.168 HD
BRANCH  18  20
ATOM     20  C   UNL     1       0.893  45.404  53.385  1.00  0.00     0.040 A 
ATOM     21  C   UNL     1      -0.379  45.008  52.947  1.00  0.00     0.027 A 
ATOM     22  C   UNL     1       1.165  45.369  54.757  1.00  0.00     0.027 A 
ATOM     23  C   UNL     1      -1.350  44.569  53.854  1.00  0.00     0.017 A 
ATOM     24  C   UNL     1       0.197  44.933  55.670  1.00  0.00     0.017 A 
ATOM     25  C   UNL     1      -1.056  44.532  55.214  1.00  0.00     0.013 A 
ATOM     26  I   UNL     1      -2.491  43.883  56.567  1.00  0.00    -0.044 I 
ENDBRANCH  18  20
ENDBRANCH  11  18
ENDBRANCH   6   8
ENDBRANCH   1   6
TORSDOF 7
ENDMDL
MODEL 14
REMARK VINA RESULT:    -7.731      3.891      7.017
REMARK INTER + INTRA:         -11.536
REMARK INTER:                 -10.313
REMARK INTRA:                  -1.223
REMARK UNBOUND:                -0.641
REMARK SMILES CCCCCNc1nc(Nc2ccc(I)cc2)c2cnn(C)c2n1
REMARK SMILES IDX 5 1 4 2 3 3 2 4 1 5 6 6 7 8 8 9 24 10 9 11 23 12 18 13 21 14
REMARK SMILES IDX 19 15 20 16 22 17 10 18 11 20 12 21 17 22 13 23 16 24 14 25
REMARK SMILES IDX 15 26
REMARK H PARENT 6 7 10 19
ROOT
ATOM      1  C   UNL     1       2.725  46.557  52.967  1.00  0.00     0.116 C 
ENDROOT
BRANCH   1   2
ATOM      2  C   UNL     1       2.835  45.484  54.052  1.00  0.00     0.021 C 
BRANCH   2   3
ATOM      3  C   UNL     1       3.507  45.984  55.334  1.00  0.00     0.002 C 
BRANCH   3   4
ATOM      4  C   UNL     1       5.009  45.697  55.386  1.00  0.00    -0.003 C 
ATOM      5  C   UNL     1       5.372  44.494  54.529  1.00  0.00     0.004 C 
ENDBRANCH   3   4
ENDBRANCH   2   3
ENDBRANCH   1   2
BRANCH   1   6
ATOM      6  N   UNL     1       2.635  45.945  51.651  1.00  0.00    -0.354 N 
ATOM      7  H   UNL     1       1.844  45.322  51.518  1.00  0.00     0.163 HD
BRANCH   6   8
ATOM      8  C   UNL     1       3.749  45.225  51.234  1.00  0.00     0.226 A 
ATOM      9  N   UNL     1       4.894  45.935  51.222  1.00  0.00    -0.195 NA
ATOM     10  N   UNL     1       3.625  43.939  50.884  1.00  0.00    -0.193 NA
ATOM     11  C   UNL     1       6.055  45.353  50.828  1.00  0.00     0.147 A 
ATOM     12  C   UNL     1       4.790  43.377  50.536  1.00  0.00     0.165 A 
ATOM     13  C   UNL     1       6.021  43.999  50.488  1.00  0.00     0.082 A 
ATOM     14  N   UNL     1       5.010  42.077  50.169  1.00  0.00    -0.250 N 
ATOM     15  C   UNL     1       6.915  42.978  50.104  1.00  0.00     0.149 A 
ATOM     16  N   UNL     1       6.306  41.806  49.888  1.00  0.00    -0.179 NA
ATOM     17  C   UNL     1       4.028  41.026  50.075  1.00  0.00     0.176 C 
BRANCH  11  18
ATOM     18  N   UNL     1       7.207  46.151  50.860  1.00  0.00    -0.339 N 
ATOM     19  H   UNL     1       7.755  45.933  50.032  1.00  0.00     0.168 HD
BRANCH  18  20
ATOM     20  C   UNL     1       8.031  46.478  51.954  1.00  0.00     0.040 A 
ATOM     21  C   UNL     1       7.446  47.120  53.056  1.00  0.00     0.027 A 
ATOM     22  C   UNL     1       9.405  46.215  51.990  1.00  0.00     0.027 A 
ATOM     23  C   UNL     1       8.209  47.473  54.174  1.00  0.00     0.017 A 
ATOM     24  C   UNL     1      10.175  46.567  53.105  1.00  0.00     0.017 A 
ATOM     25  C   UNL     1       9.572  47.193  54.194  1.00  0.00     0.013 A 
ATOM     26  I   UNL     1      10.713  47.714  55.849  1.00  0.00    -0.044 I 
ENDBRANCH  18  20
ENDBRANCH  11  18
ENDBRANCH   6   8
ENDBRANCH   1   6
TORSDOF 7
ENDMDL
MODEL 15
REMARK VINA RESULT:    -7.490      3.446      7.916
REMARK INTER + INTRA:         -11.196
REMARK INTER:                 -10.713
REMARK INTRA:                  -0.483
REMARK UNBOUND:                -0.641
REMARK SMILES CCCCCNc1nc(Nc2ccc(I)cc2)c2cnn(C)c2n1
REMARK SMILES IDX 5 1 4 2 3 3 2 4 1 5 6 6 7 8 8 9 24 10 9 11 23 12 18 13 21 14
REMARK SMILES IDX 19 15 20 16 22 17 10 18 11 20 12 21 17 22 13 23 16 24 14 25
REMARK SMILES IDX 15 26
REMARK H PARENT 6 7 10 19
ROOT
ATOM      1  C   UNL     1       5.311  41.295  47.904  1.00  0.00     0.116 C 
ENDROOT
BRANCH   1   2
ATOM      2  C   UNL     1       5.777  41.946  46.600  1.00  0.00     0.021 C 
BRANCH   2   3
ATOM      3  C   UNL     1       4.845  41.672  45.417  1.00  0.00     0.002 C 
BRANCH   3   4
ATOM      4  C   UNL     1       3.633  40.813  45.783  1.00  0.00    -0.003 C 
ATOM      5  C   UNL     1       2.392  41.252  45.022  1.00  0.00     0.004 C 
ENDBRANCH   3   4
ENDBRANCH   2   3
ENDBRANCH   1   2
BRANCH   1   6
ATOM      6  N   UNL     1       6.206  41.641  48.996  1.00  0.00    -0.354 N 
ATOM      7  H   UNL     1       6.501  40.861  49.576  1.00  0.00     0.163 HD
BRANCH   6   8
ATOM      8  C   UNL     1       5.746  42.609  49.880  1.00  0.00     0.226 A 
ATOM      9  N   UNL     1       6.553  43.682  49.996  1.00  0.00    -0.195 NA
ATOM     10  N   UNL     1       4.591  42.428  50.534  1.00  0.00    -0.193 NA
ATOM     11  C   UNL     1       6.223  44.699  50.833  1.00  0.00     0.147 A 
ATOM     12  C   UNL     1       4.269  43.461  51.324  1.00  0.00     0.165 A 
ATOM     13  C   UNL     1       5.011  44.608  51.519  1.00  0.00     0.082 A 
ATOM     14  N   UNL     1       3.143  43.604  52.087  1.00  0.00    -0.250 N 
ATOM     15  C   UNL     1       4.229  45.384  52.400  1.00  0.00     0.149 A 
ATOM     16  N   UNL     1       3.096  44.773  52.768  1.00  0.00    -0.179 NA
ATOM     17  C   UNL     1       2.054  42.668  52.210  1.00  0.00     0.176 C 
BRANCH  11  18
ATOM     18  N   UNL     1       7.104  45.787  50.884  1.00  0.00    -0.339 N 
ATOM     19  H   UNL     1       7.590  45.832  49.992  1.00  0.00     0.168 HD
BRANCH  18  20
ATOM     20  C   UNL     1       7.927  46.215  51.944  1.00  0.00     0.040 A 
ATOM     21  C   UNL     1       7.314  46.603  53.144  1.00  0.00     0.027 A 
ATOM     22  C   UNL     1       9.322  46.291  51.854  1.00  0.00     0.027 A 
ATOM     23  C   UNL     1       8.075  47.039  54.235  1.00  0.00     0.017 A 
ATOM     24  C   UNL     1      10.089  46.727  52.940  1.00  0.00     0.017 A 
ATOM     25  C   UNL     1       9.462  47.097  54.128  1.00  0.00     0.013 A 
ATOM     26  I   UNL     1      10.598  47.743  55.741  1.00  0.00    -0.044 I 
ENDBRANCH  18  20
ENDBRANCH  11  18
ENDBRANCH   6   8
ENDBRANCH   1   6
TORSDOF 7
ENDMDL
MODEL 16
REMARK VINA RESULT:    -7.407      2.919      6.709
REMARK INTER + INTRA:         -11.079
REMARK INTER:                 -10.348
REMARK INTRA:                  -0.731
REMARK UNBOUND:                -0.641
REMARK SMILES CCCCCNc1nc(Nc2ccc(I)cc2)c2cnn(C)c2n1
REMARK SMILES IDX 5 1 4 2 3 3 2 4 1 5 6 6 7 8 8 9 24 10 9 11 23 12 18 13 21 14
REMARK SMILES IDX 19 15 20 16 22 17 10 18 11 20 12 21 17 22 13 23 16 24 14 25
REMARK SMILES IDX 15 26
REMARK H PARENT 6 7 10 19
ROOT
ATOM      1  C   UNL     1       6.295  41.852  49.693  1.00  0.00     0.116 C 
ENDROOT
BRANCH   1   2
ATOM      2  C   UNL     1       5.454  41.374  48.507  1.00  0.00     0.021 C 
BRANCH   2   3
ATOM      3  C   UNL     1       5.872  42.002  47.174  1.00  0.00     0.002 C 
BRANCH   3   4
ATOM      4  C   UNL     1       5.110  41.441  45.972  1.00  0.00    -0.003 C 
ATOM      5  C   UNL     1       5.148  42.403  44.794  1.00  0.00     0.004 C 
ENDBRANCH   3   4
ENDBRANCH   2   3
ENDBRANCH   1   2
BRANCH   1   6
ATOM      6  N   UNL     1       6.647  43.254  49.536  1.00  0.00    -0.354 N 
ATOM      7  H   UNL     1       7.630  43.435  49.358  1.00  0.00     0.163 HD
BRANCH   6   8
ATOM      8  C   UNL     1       6.299  44.092  50.588  1.00  0.00     0.226 A 
ATOM      9  N   UNL     1       5.273  43.644  51.339  1.00  0.00    -0.195 NA
ATOM     10  N   UNL     1       6.964  45.238  50.782  1.00  0.00    -0.193 NA
ATOM     11  C   UNL     1       4.829  44.372  52.394  1.00  0.00     0.147 A 
ATOM     12  C   UNL     1       6.533  45.919  51.852  1.00  0.00     0.165 A 
ATOM     13  C   UNL     1       5.499  45.560  52.693  1.00  0.00     0.082 A 
ATOM     14  N   UNL     1       7.026  47.097  52.343  1.00  0.00    -0.250 N 
ATOM     15  C   UNL     1       5.470  46.579  53.668  1.00  0.00     0.149 A 
ATOM     16  N   UNL     1       6.385  47.532  53.453  1.00  0.00    -0.179 NA
ATOM     17  C   UNL     1       8.123  47.866  51.809  1.00  0.00     0.176 C 
BRANCH  11  18
ATOM     18  N   UNL     1       3.771  43.831  53.136  1.00  0.00    -0.339 N 
ATOM     19  H   UNL     1       4.044  42.894  53.423  1.00  0.00     0.168 HD
BRANCH  18  20
ATOM     20  C   UNL     1       2.385  43.915  52.900  1.00  0.00     0.040 A 
ATOM     21  C   UNL     1       1.587  42.809  53.229  1.00  0.00     0.027 A 
ATOM     22  C   UNL     1       1.766  45.036  52.335  1.00  0.00     0.027 A 
ATOM     23  C   UNL     1       0.205  42.828  53.018  1.00  0.00     0.017 A 
ATOM     24  C   UNL     1       0.383  45.062  52.120  1.00  0.00     0.017 A 
ATOM     25  C   UNL     1      -0.392  43.957  52.465  1.00  0.00     0.013 A 
ATOM     26  I   UNL     1      -2.444  43.994  52.147  1.00  0.00    -0.044 I 
ENDBRANCH  18  20
ENDBRANCH  11  18
ENDBRANCH   6   8
ENDBRANCH   1   6
TORSDOF 7
ENDMDL
MODEL 17
REMARK VINA RESULT:    -7.361      3.581      5.936
REMARK INTER + INTRA:         -11.015
REMARK INTER:                 -10.843
REMARK INTRA:                  -0.171
REMARK UNBOUND:                -0.641
REMARK SMILES CCCCCNc1nc(Nc2ccc(I)cc2)c2cnn(C)c2n1
REMARK SMILES IDX 5 1 4 2 3 3 2 4 1 5 6 6 7 8 8 9 24 10 9 11 23 12 18 13 21 14
REMARK SMILES IDX 19 15 20 16 22 17 10 18 11 20 12 21 17 22 13 23 16 24 14 25
REMARK SMILES IDX 15 26
REMARK H PARENT 6 7 10 19
ROOT
ATOM      1  C   UNL     1       7.545  47.881  52.029  1.00  0.00     0.116 C 
ENDROOT
BRANCH   1   2
ATOM      2  C   UNL     1       8.479  48.271  53.177  1.00  0.00     0.021 C 
BRANCH   2   3
ATOM      3  C   UNL     1       9.720  47.380  53.279  1.00  0.00     0.002 C 
BRANCH   3   4
ATOM      4  C   UNL     1       9.853  46.674  54.629  1.00  0.00    -0.003 C 
ATOM      5  C   UNL     1      10.715  47.476  55.592  1.00  0.00     0.004 C 
ENDBRANCH   3   4
ENDBRANCH   2   3
ENDBRANCH   1   2
BRANCH   1   6
ATOM      6  N   UNL     1       6.377  47.179  52.537  1.00  0.00    -0.354 N 
ATOM      7  H   UNL     1       6.375  47.012  53.538  1.00  0.00     0.163 HD
BRANCH   6   8
ATOM      8  C   UNL     1       6.102  45.948  51.953  1.00  0.00     0.226 A 
ATOM      9  N   UNL     1       4.970  45.366  52.394  1.00  0.00    -0.195 NA
ATOM     10  N   UNL     1       6.936  45.437  51.038  1.00  0.00    -0.193 NA
ATOM     11  C   UNL     1       4.589  44.157  51.909  1.00  0.00     0.147 A 
ATOM     12  C   UNL     1       6.519  44.263  50.548  1.00  0.00     0.165 A 
ATOM     13  C   UNL     1       5.381  43.575  50.918  1.00  0.00     0.082 A 
ATOM     14  N   UNL     1       7.118  43.507  49.577  1.00  0.00    -0.250 N 
ATOM     15  C   UNL     1       5.379  42.431  50.092  1.00  0.00     0.149 A 
ATOM     16  N   UNL     1       6.444  42.370  49.284  1.00  0.00    -0.179 NA
ATOM     17  C   UNL     1       8.336  43.812  48.870  1.00  0.00     0.176 C 
BRANCH  11  18
ATOM     18  N   UNL     1       3.390  43.626  52.404  1.00  0.00    -0.339 N 
ATOM     19  H   UNL     1       2.853  43.286  51.610  1.00  0.00     0.168 HD
BRANCH  18  20
ATOM     20  C   UNL     1       2.552  44.121  53.421  1.00  0.00     0.040 A 
ATOM     21  C   UNL     1       1.176  43.860  53.332  1.00  0.00     0.027 A 
ATOM     22  C   UNL     1       3.016  44.877  54.503  1.00  0.00     0.027 A 
ATOM     23  C   UNL     1       0.289  44.324  54.308  1.00  0.00     0.017 A 
ATOM     24  C   UNL     1       2.134  45.346  55.483  1.00  0.00     0.017 A 
ATOM     25  C   UNL     1       0.773  45.066  55.382  1.00  0.00     0.013 A 
ATOM     26  I   UNL     1      -0.537  45.760  56.836  1.00  0.00    -0.044 I 
ENDBRANCH  18  20
ENDBRANCH  11  18
ENDBRANCH   6   8
ENDBRANCH   1   6
TORSDOF 7
ENDMDL
MODEL 18
REMARK VINA RESULT:    -7.239      4.707      7.874
REMARK INTER + INTRA:         -10.843
REMARK INTER:                 -10.217
REMARK INTRA:                  -0.626
REMARK UNBOUND:                -0.641
REMARK SMILES CCCCCNc1nc(Nc2ccc(I)cc2)c2cnn(C)c2n1
REMARK SMILES IDX 5 1 4 2 3 3 2 4 1 5 6 6 7 8 8 9 24 10 9 11 23 12 18 13 21 14
REMARK SMILES IDX 19 15 20 16 22 17 10 18 11 20 12 21 17 22 13 23 16 24 14 25
REMARK SMILES IDX 15 26
REMARK H PARENT 6 7 10 19
ROOT
ATOM      1  C   UNL     1       0.669  45.289  57.148  1.00  0.00     0.116 C 
ENDROOT
BRANCH   1   2
ATOM      2  C   UNL     1       0.034  46.519  57.802  1.00  0.00     0.021 C 
BRANCH   2   3
ATOM      3  C   UNL     1       0.925  47.170  58.864  1.00  0.00     0.002 C 
BRANCH   3   4
ATOM      4  C   UNL     1       0.138  47.854  59.982  1.00  0.00    -0.003 C 
ATOM      5  C   UNL     1      -0.965  48.740  59.422  1.00  0.00     0.004 C 
ENDBRANCH   3   4
ENDBRANCH   2   3
ENDBRANCH   1   2
BRANCH   1   6
ATOM      6  N   UNL     1       1.848  45.667  56.387  1.00  0.00    -0.354 N 
ATOM      7  H   UNL     1       2.047  46.662  56.365  1.00  0.00     0.163 HD
BRANCH   6   8
ATOM      8  C   UNL     1       1.878  45.252  55.061  1.00  0.00     0.226 A 
ATOM      9  N   UNL     1       2.688  45.983  54.269  1.00  0.00    -0.195 NA
ATOM     10  N   UNL     1       1.136  44.210  54.666  1.00  0.00    -0.193 NA
ATOM     11  C   UNL     1       2.804  45.687  52.950  1.00  0.00     0.147 A 
ATOM     12  C   UNL     1       1.297  43.914  53.370  1.00  0.00     0.165 A 
ATOM     13  C   UNL     1       2.097  44.584  52.467  1.00  0.00     0.082 A 
ATOM     14  N   UNL     1       0.719  42.888  52.673  1.00  0.00    -0.250 N 
ATOM     15  C   UNL     1       1.944  43.865  51.263  1.00  0.00     0.149 A 
ATOM     16  N   UNL     1       1.091  42.840  51.372  1.00  0.00    -0.179 NA
ATOM     17  C   UNL     1      -0.196  41.899  53.186  1.00  0.00     0.176 C 
BRANCH  11  18
ATOM     18  N   UNL     1       3.680  46.480  52.197  1.00  0.00    -0.339 N 
ATOM     19  H   UNL     1       3.303  46.546  51.255  1.00  0.00     0.168 HD
BRANCH  18  20
ATOM     20  C   UNL     1       5.088  46.490  52.192  1.00  0.00     0.040 A 
ATOM     21  C   UNL     1       5.752  45.738  51.211  1.00  0.00     0.027 A 
ATOM     22  C   UNL     1       5.858  47.193  53.126  1.00  0.00     0.027 A 
ATOM     23  C   UNL     1       7.149  45.704  51.152  1.00  0.00     0.017 A 
ATOM     24  C   UNL     1       7.256  47.162  53.073  1.00  0.00     0.017 A 
ATOM     25  C   UNL     1       7.896  46.419  52.084  1.00  0.00     0.013 A 
ATOM     26  I   UNL     1       9.971  46.374  52.003  1.00  0.00    -0.044 I 
ENDBRANCH  18  20
ENDBRANCH  11  18
ENDBRANCH   6   8
ENDBRANCH   1   6
TORSDOF 7
ENDMDL
MODEL 19
REMARK VINA RESULT:    -7.181      3.879      6.162
REMARK INTER + INTRA:         -10.760
REMARK INTER:                  -9.848
REMARK INTRA:                  -0.912
REMARK UNBOUND:                -0.641
REMARK SMILES CCCCCNc1nc(Nc2ccc(I)cc2)c2cnn(C)c2n1
REMARK SMILES IDX 5 1 4 2 3 3 2 4 1 5 6 6 7 8 8 9 24 10 9 11 23 12 18 13 21 14
REMARK SMILES IDX 19 15 20 16 22 17 10 18 11 20 12 21 17 22 13 23 16 24 14 25
REMARK SMILES IDX 15 26
REMARK H PARENT 6 7 10 19
ROOT
ATOM      1  C   UNL     1       3.519  47.105  53.066  1.00  0.00     0.116 C 
ENDROOT
BRANCH   1   2
ATOM      2  C   UNL     1       4.438  47.173  54.287  1.00  0.00     0.021 C 
BRANCH   2   3
ATOM      3  C   UNL     1       4.199  46.042  55.292  1.00  0.00     0.002 C 
BRANCH   3   4
ATOM      4  C   UNL     1       5.331  45.015  55.332  1.00  0.00    -0.003 C 
ATOM      5  C   UNL     1       6.519  45.466  54.495  1.00  0.00     0.004 C 
ENDBRANCH   3   4
ENDBRANCH   2   3
ENDBRANCH   1   2
BRANCH   1   6
ATOM      6  N   UNL     1       4.270  46.722  51.882  1.00  0.00    -0.354 N 
ATOM      7  H   UNL     1       3.938  47.124  51.011  1.00  0.00     0.163 HD
BRANCH   6   8
ATOM      8  C   UNL     1       4.382  45.358  51.643  1.00  0.00     0.226 A 
ATOM      9  N   UNL     1       3.427  44.612  52.231  1.00  0.00    -0.195 NA
ATOM     10  N   UNL     1       5.383  44.889  50.887  1.00  0.00    -0.193 NA
ATOM     11  C   UNL     1       3.425  43.263  52.083  1.00  0.00     0.147 A 
ATOM     12  C   UNL     1       5.338  43.560  50.725  1.00  0.00     0.165 A 
ATOM     13  C   UNL     1       4.410  42.696  51.271  1.00  0.00     0.082 A 
ATOM     14  N   UNL     1       6.183  42.783  49.981  1.00  0.00    -0.250 N 
ATOM     15  C   UNL     1       4.776  41.428  50.774  1.00  0.00     0.149 A 
ATOM     16  N   UNL     1       5.868  41.467  50.001  1.00  0.00    -0.179 NA
ATOM     17  C   UNL     1       7.315  43.230  49.207  1.00  0.00     0.176 C 
BRANCH  11  18
ATOM     18  N   UNL     1       2.388  42.558  52.709  1.00  0.00    -0.339 N 
ATOM     19  H   UNL     1       2.275  41.675  52.218  1.00  0.00     0.168 HD
BRANCH  18  20
ATOM     20  C   UNL     1       1.158  43.038  53.200  1.00  0.00     0.040 A 
ATOM     21  C   UNL     1      -0.007  42.734  52.479  1.00  0.00     0.027 A 
ATOM     22  C   UNL     1       1.040  43.818  54.356  1.00  0.00     0.027 A 
ATOM     23  C   UNL     1      -1.260  43.181  52.912  1.00  0.00     0.017 A 
ATOM     24  C   UNL     1      -0.210  44.269  54.794  1.00  0.00     0.017 A 
ATOM     25  C   UNL     1      -1.356  43.946  54.070  1.00  0.00     0.013 A 
ATOM     26  I   UNL     1      -3.212  44.614  54.719  1.00  0.00    -0.044 I 
ENDBRANCH  18  20
ENDBRANCH  11  18
ENDBRANCH   6   8
ENDBRANCH   1   6
TORSDOF 7
ENDMDL
