MODEL 1
REMARK VINA RESULT:    -8.472      0.000      0.000
REMARK INTER + INTRA:         -12.176
REMARK INTER:                 -11.444
REMARK INTRA:                  -0.732
REMARK UNBOUND:                -0.732
REMARK SMILES Cc1ccc(Nc2nc(NCC[NH+](C)C)nc3nccnc23)cc1
REMARK SMILES IDX 10 1 11 3 12 4 13 5 14 6 15 7 9 9 8 10 16 11 7 12 17 13
REMARK SMILES IDX 22 14 18 15 21 16 19 17 20 18 6 19 5 21 4 22 23 23 3 24
REMARK SMILES IDX 24 25 2 26 1 27
REMARK H PARENT 10 2 13 8 6 20
ROOT
ATOM      1  N   UNL     1       2.305  43.176  53.365  1.00  0.00    -0.348 N 
ATOM      2  H   UNL     1       1.665  42.551  52.866  1.00  0.00     0.163 HD
ENDROOT
BRANCH   1   3
ATOM      3  C   UNL     1       1.678  44.483  53.633  1.00  0.00     0.177 C 
BRANCH   3   4
ATOM      4  C   UNL     1       0.862  44.501  54.948  1.00  0.00     0.283 C 
BRANCH   4   5
ATOM      5  N   UNL     1       1.707  45.038  56.090  1.00  0.00    -0.338 N 
ATOM      6  C   UNL     1       2.894  45.815  55.615  1.00  0.00     0.332 C 
ATOM      7  C   UNL     1       0.923  45.755  57.140  1.00  0.00     0.332 C 
ATOM      8  H   UNL     1       2.078  44.175  56.527  1.00  0.00     0.347 HD
ENDBRANCH   4   5
ENDBRANCH   3   4
ENDBRANCH   1   3
BRANCH   1   9
ATOM      9  C   UNL     1       3.389  43.253  52.490  1.00  0.00     0.227 A 
ATOM     10  N   UNL     1       4.084  44.380  52.506  1.00  0.00    -0.193 NA
ATOM     11  N   UNL     1       3.607  42.242  51.661  1.00  0.00    -0.191 NA
ATOM     12  C   UNL     1       5.110  44.496  51.636  1.00  0.00     0.164 A 
ATOM     13  C   UNL     1       4.613  42.361  50.803  1.00  0.00     0.185 A 
ATOM     14  C   UNL     1       5.440  43.489  50.729  1.00  0.00     0.150 A 
ATOM     15  N   UNL     1       4.819  41.323  49.986  1.00  0.00    -0.233 NA
ATOM     16  N   UNL     1       6.483  43.576  49.850  1.00  0.00    -0.247 NA
ATOM     17  C   UNL     1       5.846  41.413  49.107  1.00  0.00     0.133 A 
ATOM     18  C   UNL     1       6.666  42.518  49.038  1.00  0.00     0.132 A 
BRANCH  12  19
ATOM     19  N   UNL     1       5.882  45.686  51.583  1.00  0.00    -0.338 N 
ATOM     20  H   UNL     1       5.748  46.162  50.691  1.00  0.00     0.168 HD
BRANCH  19  21
ATOM     21  C   UNL     1       6.995  46.127  52.317  1.00  0.00     0.040 A 
ATOM     22  C   UNL     1       6.824  46.431  53.677  1.00  0.00     0.026 A 
ATOM     23  C   UNL     1       8.282  46.245  51.784  1.00  0.00     0.026 A 
ATOM     24  C   UNL     1       7.894  46.860  54.468  1.00  0.00     0.005 A 
ATOM     25  C   UNL     1       9.357  46.673  52.572  1.00  0.00     0.005 A 
ATOM     26  C   UNL     1       9.175  46.976  53.923  1.00  0.00    -0.051 A 
ATOM     27  C   UNL     1      10.319  47.464  54.760  1.00  0.00     0.044 C 
ENDBRANCH  19  21
ENDBRANCH  12  19
ENDBRANCH   1   9
TORSDOF 6
ENDMDL
MODEL 2
REMARK VINA RESULT:    -8.441      0.837      1.091
REMARK INTER + INTRA:         -12.134
REMARK INTER:                 -11.338
REMARK INTRA:                  -0.796
REMARK UNBOUND:                -0.732
REMARK SMILES Cc1ccc(Nc2nc(NCC[NH+](C)C)nc3nccnc23)cc1
REMARK SMILES IDX 10 1 11 3 12 4 13 5 14 6 15 7 9 9 8 10 16 11 7 12 17 13
REMARK SMILES IDX 22 14 18 15 21 16 19 17 20 18 6 19 5 21 4 22 23 23 3 24
REMARK SMILES IDX 24 25 2 26 1 27
REMARK H PARENT 10 2 13 8 6 20
ROOT
ATOM      1  N   UNL     1       2.405  42.429  53.148  1.00  0.00    -0.348 N 
ATOM      2  H   UNL     1       2.145  41.480  52.862  1.00  0.00     0.163 HD
ENDROOT
BRANCH   1   3
ATOM      3  C   UNL     1       1.272  43.361  53.008  1.00  0.00     0.177 C 
BRANCH   3   4
ATOM      4  C   UNL     1       0.969  44.142  54.309  1.00  0.00     0.283 C 
BRANCH   4   5
ATOM      5  N   UNL     1       1.546  45.545  54.234  1.00  0.00    -0.338 N 
ATOM      6  C   UNL     1       2.812  45.691  55.018  1.00  0.00     0.332 C 
ATOM      7  C   UNL     1       1.654  46.084  52.845  1.00  0.00     0.332 C 
ATOM      8  H   UNL     1       0.832  46.113  54.725  1.00  0.00     0.347 HD
ENDBRANCH   4   5
ENDBRANCH   3   4
ENDBRANCH   1   3
BRANCH   1   9
ATOM      9  C   UNL     1       3.468  42.720  52.293  1.00  0.00     0.227 A 
ATOM     10  N   UNL     1       4.010  43.921  52.408  1.00  0.00    -0.193 NA
ATOM     11  N   UNL     1       3.812  41.819  51.383  1.00  0.00    -0.191 NA
ATOM     12  C   UNL     1       5.010  44.242  51.560  1.00  0.00     0.164 A 
ATOM     13  C   UNL     1       4.792  42.139  50.546  1.00  0.00     0.185 A 
ATOM     14  C   UNL     1       5.465  43.367  50.574  1.00  0.00     0.150 A 
ATOM     15  N   UNL     1       5.128  41.210  49.647  1.00  0.00    -0.233 NA
ATOM     16  N   UNL     1       6.485  43.663  49.714  1.00  0.00    -0.247 NA
ATOM     17  C   UNL     1       6.133  41.506  48.786  1.00  0.00     0.133 A 
ATOM     18  C   UNL     1       6.802  42.709  48.818  1.00  0.00     0.132 A 
BRANCH  12  19
ATOM     19  N   UNL     1       5.622  45.523  51.613  1.00  0.00    -0.338 N 
ATOM     20  H   UNL     1       5.364  46.078  50.798  1.00  0.00     0.168 HD
BRANCH  19  21
ATOM     21  C   UNL     1       6.721  46.018  52.332  1.00  0.00     0.040 A 
ATOM     22  C   UNL     1       6.560  46.297  53.698  1.00  0.00     0.026 A 
ATOM     23  C   UNL     1       7.989  46.215  51.777  1.00  0.00     0.026 A 
ATOM     24  C   UNL     1       7.619  46.778  54.475  1.00  0.00     0.005 A 
ATOM     25  C   UNL     1       9.053  46.695  52.550  1.00  0.00     0.005 A 
ATOM     26  C   UNL     1       8.880  46.972  53.908  1.00  0.00    -0.051 A 
ATOM     27  C   UNL     1      10.011  47.515  54.729  1.00  0.00     0.044 C 
ENDBRANCH  19  21
ENDBRANCH  12  19
ENDBRANCH   1   9
TORSDOF 6
ENDMDL
MODEL 3
REMARK VINA RESULT:    -8.411      1.917      5.621
REMARK INTER + INTRA:         -12.094
REMARK INTER:                 -11.123
REMARK INTRA:                  -0.970
REMARK UNBOUND:                -0.732
REMARK SMILES Cc1ccc(Nc2nc(NCC[NH+](C)C)nc3nccnc23)cc1
REMARK SMILES IDX 10 1 11 3 12 4 13 5 14 6 15 7 9 9 8 10 16 11 7 12 17 13
REMARK SMILES IDX 22 14 18 15 21 16 19 17 20 18 6 19 5 21 4 22 23 23 3 24
REMARK SMILES IDX 24 25 2 26 1 27
REMARK H PARENT 10 2 13 8 6 20
ROOT
ATOM      1  N   UNL     1       4.358  47.157  54.986  1.00  0.00    -0.348 N 
ATOM      2  H   UNL     1       4.641  47.719  55.796  1.00  0.00     0.163 HD
ENDROOT
BRANCH   1   3
ATOM      3  C   UNL     1       3.744  45.884  55.404  1.00  0.00     0.177 C 
BRANCH   3   4
ATOM      4  C   UNL     1       2.337  45.666  54.796  1.00  0.00     0.283 C 
BRANCH   4   5
ATOM      5  N   UNL     1       2.447  45.094  53.394  1.00  0.00    -0.338 N 
ATOM      6  C   UNL     1       1.854  43.725  53.281  1.00  0.00     0.332 C 
ATOM      7  C   UNL     1       1.979  46.022  52.321  1.00  0.00     0.332 C 
ATOM      8  H   UNL     1       3.469  44.981  53.272  1.00  0.00     0.347 HD
ENDBRANCH   4   5
ENDBRANCH   3   4
ENDBRANCH   1   3
BRANCH   1   9
ATOM      9  C   UNL     1       5.563  46.991  54.303  1.00  0.00     0.227 A 
ATOM     10  N   UNL     1       5.490  46.458  53.094  1.00  0.00    -0.193 NA
ATOM     11  N   UNL     1       6.692  47.302  54.925  1.00  0.00    -0.191 NA
ATOM     12  C   UNL     1       6.647  46.245  52.431  1.00  0.00     0.164 A 
ATOM     13  C   UNL     1       7.829  47.086  54.274  1.00  0.00     0.185 A 
ATOM     14  C   UNL     1       7.891  46.548  52.982  1.00  0.00     0.150 A 
ATOM     15  N   UNL     1       8.951  47.418  54.919  1.00  0.00    -0.233 NA
ATOM     16  N   UNL     1       9.075  46.356  52.326  1.00  0.00    -0.247 NA
ATOM     17  C   UNL     1      10.126  47.219  54.273  1.00  0.00     0.133 A 
ATOM     18  C   UNL     1      10.190  46.698  52.999  1.00  0.00     0.132 A 
BRANCH  12  19
ATOM     19  N   UNL     1       6.643  45.655  51.140  1.00  0.00    -0.338 N 
ATOM     20  H   UNL     1       6.822  46.358  50.423  1.00  0.00     0.168 HD
BRANCH  19  21
ATOM     21  C   UNL     1       6.123  44.445  50.653  1.00  0.00     0.040 A 
ATOM     22  C   UNL     1       6.819  43.778  49.633  1.00  0.00     0.026 A 
ATOM     23  C   UNL     1       4.968  43.838  51.153  1.00  0.00     0.026 A 
ATOM     24  C   UNL     1       6.363  42.561  49.114  1.00  0.00     0.005 A 
ATOM     25  C   UNL     1       4.507  42.620  50.638  1.00  0.00     0.005 A 
ATOM     26  C   UNL     1       5.206  41.966  49.620  1.00  0.00    -0.051 A 
ATOM     27  C   UNL     1       4.698  40.677  49.048  1.00  0.00     0.044 C 
ENDBRANCH  19  21
ENDBRANCH  12  19
ENDBRANCH   1   9
TORSDOF 6
ENDMDL
MODEL 4
REMARK VINA RESULT:    -8.407      1.928      5.348
REMARK INTER + INTRA:         -12.088
REMARK INTER:                 -11.530
REMARK INTRA:                  -0.559
REMARK UNBOUND:                -0.732
REMARK SMILES Cc1ccc(Nc2nc(NCC[NH+](C)C)nc3nccnc23)cc1
REMARK SMILES IDX 10 1 11 3 12 4 13 5 14 6 15 7 9 9 8 10 16 11 7 12 17 13
REMARK SMILES IDX 22 14 18 15 21 16 19 17 20 18 6 19 5 21 4 22 23 23 3 24
REMARK SMILES IDX 24 25 2 26 1 27
REMARK H PARENT 10 2 13 8 6 20
ROOT
ATOM      1  N   UNL     1       5.308  41.606  50.453  1.00  0.00    -0.348 N 
ATOM      2  H   UNL     1       6.184  41.462  50.963  1.00  0.00     0.163 HD
ENDROOT
BRANCH   1   3
ATOM      3  C   UNL     1       5.489  41.404  49.004  1.00  0.00     0.177 C 
BRANCH   3   4
ATOM      4  C   UNL     1       4.246  40.783  48.322  1.00  0.00     0.283 C 
BRANCH   4   5
ATOM      5  N   UNL     1       4.488  40.609  46.833  1.00  0.00    -0.338 N 
ATOM      6  C   UNL     1       3.220  40.437  46.058  1.00  0.00     0.332 C 
ATOM      7  C   UNL     1       5.398  41.636  46.242  1.00  0.00     0.332 C 
ATOM      8  H   UNL     1       4.985  39.701  46.786  1.00  0.00     0.347 HD
ENDBRANCH   4   5
ENDBRANCH   3   4
ENDBRANCH   1   3
BRANCH   1   9
ATOM      9  C   UNL     1       4.977  42.919  50.790  1.00  0.00     0.227 A 
ATOM     10  N   UNL     1       5.962  43.803  50.765  1.00  0.00    -0.193 NA
ATOM     11  N   UNL     1       3.737  43.179  51.179  1.00  0.00    -0.191 NA
ATOM     12  C   UNL     1       5.676  45.071  51.132  1.00  0.00     0.164 A 
ATOM     13  C   UNL     1       3.459  44.425  51.544  1.00  0.00     0.185 A 
ATOM     14  C   UNL     1       4.403  45.461  51.543  1.00  0.00     0.150 A 
ATOM     15  N   UNL     1       2.200  44.664  51.921  1.00  0.00    -0.233 NA
ATOM     16  N   UNL     1       4.085  46.741  51.905  1.00  0.00    -0.247 NA
ATOM     17  C   UNL     1       1.886  45.930  52.289  1.00  0.00     0.133 A 
ATOM     18  C   UNL     1       2.809  46.952  52.281  1.00  0.00     0.132 A 
BRANCH  12  19
ATOM     19  N   UNL     1       6.690  46.064  51.151  1.00  0.00    -0.338 N 
ATOM     20  H   UNL     1       6.899  46.383  50.205  1.00  0.00     0.168 HD
BRANCH  19  21
ATOM     21  C   UNL     1       7.652  46.417  52.111  1.00  0.00     0.040 A 
ATOM     22  C   UNL     1       7.218  46.763  53.400  1.00  0.00     0.026 A 
ATOM     23  C   UNL     1       9.029  46.407  51.872  1.00  0.00     0.026 A 
ATOM     24  C   UNL     1       8.125  47.110  54.407  1.00  0.00     0.005 A 
ATOM     25  C   UNL     1       9.942  46.752  52.876  1.00  0.00     0.005 A 
ATOM     26  C   UNL     1       9.499  47.098  54.155  1.00  0.00    -0.051 A 
ATOM     27  C   UNL     1      10.474  47.497  55.222  1.00  0.00     0.044 C 
ENDBRANCH  19  21
ENDBRANCH  12  19
ENDBRANCH   1   9
TORSDOF 6
ENDMDL
MODEL 5
REMARK VINA RESULT:    -8.342      0.954      1.265
REMARK INTER + INTRA:         -12.001
REMARK INTER:                 -11.408
REMARK INTRA:                  -0.593
REMARK UNBOUND:                -0.732
REMARK SMILES Cc1ccc(Nc2nc(NCC[NH+](C)C)nc3nccnc23)cc1
REMARK SMILES IDX 10 1 11 3 12 4 13 5 14 6 15 7 9 9 8 10 16 11 7 12 17 13
REMARK SMILES IDX 22 14 18 15 21 16 19 17 20 18 6 19 5 21 4 22 23 23 3 24
REMARK SMILES IDX 24 25 2 26 1 27
REMARK H PARENT 10 2 13 8 6 20
ROOT
ATOM      1  N   UNL     1       2.733  43.688  53.405  1.00  0.00    -0.348 N 
ATOM      2  H   UNL     1       1.968  43.254  52.880  1.00  0.00     0.163 HD
ENDROOT
BRANCH   1   3
ATOM      3  C   UNL     1       2.382  45.053  53.837  1.00  0.00     0.177 C 
BRANCH   3   4
ATOM      4  C   UNL     1       2.580  45.273  55.356  1.00  0.00     0.283 C 
BRANCH   4   5
ATOM      5  N   UNL     1       3.860  46.048  55.618  1.00  0.00    -0.338 N 
ATOM      6  C   UNL     1       5.057  45.159  55.745  1.00  0.00     0.332 C 
ATOM      7  C   UNL     1       4.079  47.193  54.684  1.00  0.00     0.332 C 
ATOM      8  H   UNL     1       3.695  46.452  56.558  1.00  0.00     0.347 HD
ENDBRANCH   4   5
ENDBRANCH   3   4
ENDBRANCH   1   3
BRANCH   1   9
ATOM      9  C   UNL     1       3.783  43.653  52.487  1.00  0.00     0.227 A 
ATOM     10  N   UNL     1       4.608  44.688  52.490  1.00  0.00    -0.193 NA
ATOM     11  N   UNL     1       3.845  42.639  51.635  1.00  0.00    -0.191 NA
ATOM     12  C   UNL     1       5.605  44.698  51.580  1.00  0.00     0.164 A 
ATOM     13  C   UNL     1       4.823  42.654  50.737  1.00  0.00     0.185 A 
ATOM     14  C   UNL     1       5.775  43.678  50.645  1.00  0.00     0.150 A 
ATOM     15  N   UNL     1       4.870  41.616  49.897  1.00  0.00    -0.233 NA
ATOM     16  N   UNL     1       6.785  43.657  49.724  1.00  0.00    -0.247 NA
ATOM     17  C   UNL     1       5.865  41.600  48.976  1.00  0.00     0.133 A 
ATOM     18  C   UNL     1       6.807  42.601  48.890  1.00  0.00     0.132 A 
BRANCH  12  19
ATOM     19  N   UNL     1       6.512  45.789  51.512  1.00  0.00    -0.338 N 
ATOM     20  H   UNL     1       6.574  46.145  50.559  1.00  0.00     0.168 HD
BRANCH  19  21
ATOM     21  C   UNL     1       7.542  46.219  52.364  1.00  0.00     0.040 A 
ATOM     22  C   UNL     1       7.198  46.761  53.612  1.00  0.00     0.026 A 
ATOM     23  C   UNL     1       8.901  46.102  52.060  1.00  0.00     0.026 A 
ATOM     24  C   UNL     1       8.176  47.194  54.513  1.00  0.00     0.005 A 
ATOM     25  C   UNL     1       9.885  46.532  52.959  1.00  0.00     0.005 A 
ATOM     26  C   UNL     1       9.531  47.074  54.198  1.00  0.00    -0.051 A 
ATOM     27  C   UNL     1      10.583  47.563  55.148  1.00  0.00     0.044 C 
ENDBRANCH  19  21
ENDBRANCH  12  19
ENDBRANCH   1   9
TORSDOF 6
ENDMDL
MODEL 6
REMARK VINA RESULT:    -8.318      1.827      5.659
REMARK INTER + INTRA:         -11.968
REMARK INTER:                 -11.446
REMARK INTRA:                  -0.521
REMARK UNBOUND:                -0.732
REMARK SMILES Cc1ccc(Nc2nc(NCC[NH+](C)C)nc3nccnc23)cc1
REMARK SMILES IDX 10 1 11 3 12 4 13 5 14 6 15 7 9 9 8 10 16 11 7 12 17 13
REMARK SMILES IDX 22 14 18 15 21 16 19 17 20 18 6 19 5 21 4 22 23 23 3 24
REMARK SMILES IDX 24 25 2 26 1 27
REMARK H PARENT 10 2 13 8 6 20
ROOT
ATOM      1  N   UNL     1       6.395  41.828  49.207  1.00  0.00    -0.348 N 
ATOM      2  H   UNL     1       7.089  42.388  48.703  1.00  0.00     0.163 HD
ENDROOT
BRANCH   1   3
ATOM      3  C   UNL     1       5.431  41.206  48.282  1.00  0.00     0.177 C 
BRANCH   3   4
ATOM      4  C   UNL     1       5.540  41.757  46.839  1.00  0.00     0.283 C 
BRANCH   4   5
ATOM      5  N   UNL     1       4.931  40.780  45.850  1.00  0.00    -0.338 N 
ATOM      6  C   UNL     1       3.496  40.477  46.145  1.00  0.00     0.332 C 
ATOM      7  C   UNL     1       5.170  41.135  44.419  1.00  0.00     0.332 C 
ATOM      8  H   UNL     1       5.457  39.907  46.036  1.00  0.00     0.347 HD
ENDBRANCH   4   5
ENDBRANCH   3   4
ENDBRANCH   1   3
BRANCH   1   9
ATOM      9  C   UNL     1       5.814  42.768  50.059  1.00  0.00     0.227 A 
ATOM     10  N   UNL     1       6.474  43.902  50.229  1.00  0.00    -0.193 NA
ATOM     11  N   UNL     1       4.695  42.442  50.691  1.00  0.00    -0.191 NA
ATOM     12  C   UNL     1       5.954  44.809  51.085  1.00  0.00     0.164 A 
ATOM     13  C   UNL     1       4.189  43.333  51.536  1.00  0.00     0.185 A 
ATOM     14  C   UNL     1       4.775  44.579  51.792  1.00  0.00     0.150 A 
ATOM     15  N   UNL     1       3.055  42.985  52.152  1.00  0.00    -0.233 NA
ATOM     16  N   UNL     1       4.221  45.486  52.652  1.00  0.00    -0.247 NA
ATOM     17  C   UNL     1       2.510  43.880  53.012  1.00  0.00     0.133 A 
ATOM     18  C   UNL     1       3.080  45.109  53.259  1.00  0.00     0.132 A 
BRANCH  12  19
ATOM     19  N   UNL     1       6.623  46.037  51.332  1.00  0.00    -0.338 N 
ATOM     20  H   UNL     1       6.537  46.660  50.531  1.00  0.00     0.168 HD
BRANCH  19  21
ATOM     21  C   UNL     1       7.616  46.405  52.254  1.00  0.00     0.040 A 
ATOM     22  C   UNL     1       7.225  46.774  53.551  1.00  0.00     0.026 A 
ATOM     23  C   UNL     1       8.985  46.388  51.971  1.00  0.00     0.026 A 
ATOM     24  C   UNL     1       8.164  47.138  54.521  1.00  0.00     0.005 A 
ATOM     25  C   UNL     1       9.931  46.750  52.939  1.00  0.00     0.005 A 
ATOM     26  C   UNL     1       9.529  47.119  54.225  1.00  0.00    -0.051 A 
ATOM     27  C   UNL     1      10.538  47.536  55.252  1.00  0.00     0.044 C 
ENDBRANCH  19  21
ENDBRANCH  12  19
ENDBRANCH   1   9
TORSDOF 6
ENDMDL
MODEL 7
REMARK VINA RESULT:    -8.210      1.195      1.700
REMARK INTER + INTRA:         -11.822
REMARK INTER:                 -11.209
REMARK INTRA:                  -0.613
REMARK UNBOUND:                -0.732
REMARK SMILES Cc1ccc(Nc2nc(NCC[NH+](C)C)nc3nccnc23)cc1
REMARK SMILES IDX 10 1 11 3 12 4 13 5 14 6 15 7 9 9 8 10 16 11 7 12 17 13
REMARK SMILES IDX 22 14 18 15 21 16 19 17 20 18 6 19 5 21 4 22 23 23 3 24
REMARK SMILES IDX 24 25 2 26 1 27
REMARK H PARENT 10 2 13 8 6 20
ROOT
ATOM      1  N   UNL     1       2.417  43.469  53.482  1.00  0.00    -0.348 N 
ATOM      2  H   UNL     1       1.757  42.827  53.032  1.00  0.00     0.163 HD
ENDROOT
BRANCH   1   3
ATOM      3  C   UNL     1       1.816  44.800  53.687  1.00  0.00     0.177 C 
BRANCH   3   4
ATOM      4  C   UNL     1       0.929  45.249  52.500  1.00  0.00     0.283 C 
BRANCH   4   5
ATOM      5  N   UNL     1      -0.507  45.442  52.953  1.00  0.00    -0.338 N 
ATOM      6  C   UNL     1      -1.496  45.210  51.854  1.00  0.00     0.332 C 
ATOM      7  C   UNL     1      -0.851  44.712  54.211  1.00  0.00     0.332 C 
ATOM      8  H   UNL     1      -0.545  46.454  53.171  1.00  0.00     0.347 HD
ENDBRANCH   4   5
ENDBRANCH   3   4
ENDBRANCH   1   3
BRANCH   1   9
ATOM      9  C   UNL     1       3.485  43.479  52.585  1.00  0.00     0.227 A 
ATOM     10  N   UNL     1       4.255  44.555  52.592  1.00  0.00    -0.193 NA
ATOM     11  N   UNL     1       3.616  42.461  51.747  1.00  0.00    -0.191 NA
ATOM     12  C   UNL     1       5.268  44.607  51.701  1.00  0.00     0.164 A 
ATOM     13  C   UNL     1       4.610  42.516  50.867  1.00  0.00     0.185 A 
ATOM     14  C   UNL     1       5.510  43.587  50.782  1.00  0.00     0.150 A 
ATOM     15  N   UNL     1       4.727  41.473  50.041  1.00  0.00    -0.233 NA
ATOM     16  N   UNL     1       6.537  43.609  49.881  1.00  0.00    -0.247 NA
ATOM     17  C   UNL     1       5.740  41.499  49.140  1.00  0.00     0.133 A 
ATOM     18  C   UNL     1       6.631  42.546  49.060  1.00  0.00     0.132 A 
BRANCH  12  19
ATOM     19  N   UNL     1       6.119  45.743  51.638  1.00  0.00    -0.338 N 
ATOM     20  H   UNL     1       6.087  46.164  50.710  1.00  0.00     0.168 HD
BRANCH  19  21
ATOM     21  C   UNL     1       7.196  46.165  52.433  1.00  0.00     0.040 A 
ATOM     22  C   UNL     1       6.926  46.669  53.715  1.00  0.00     0.026 A 
ATOM     23  C   UNL     1       8.534  46.077  52.040  1.00  0.00     0.026 A 
ATOM     24  C   UNL     1       7.954  47.092  54.564  1.00  0.00     0.005 A 
ATOM     25  C   UNL     1       9.568  46.498  52.886  1.00  0.00     0.005 A 
ATOM     26  C   UNL     1       9.287  47.001  54.159  1.00  0.00    -0.051 A 
ATOM     27  C   UNL     1      10.391  47.481  55.053  1.00  0.00     0.044 C 
ENDBRANCH  19  21
ENDBRANCH  12  19
ENDBRANCH   1   9
TORSDOF 6
ENDMDL
MODEL 8
REMARK VINA RESULT:    -8.109      1.537      5.400
REMARK INTER + INTRA:         -11.685
REMARK INTER:                 -10.861
REMARK INTRA:                  -0.823
REMARK UNBOUND:                -0.732
REMARK SMILES Cc1ccc(Nc2nc(NCC[NH+](C)C)nc3nccnc23)cc1
REMARK SMILES IDX 10 1 11 3 12 4 13 5 14 6 15 7 9 9 8 10 16 11 7 12 17 13
REMARK SMILES IDX 22 14 18 15 21 16 19 17 20 18 6 19 5 21 4 22 23 23 3 24
REMARK SMILES IDX 24 25 2 26 1 27
REMARK H PARENT 10 2 13 8 6 20
ROOT
ATOM      1  N   UNL     1       3.166  41.512  50.647  1.00  0.00    -0.348 N 
ATOM      2  H   UNL     1       2.822  40.773  51.266  1.00  0.00     0.163 HD
ENDROOT
BRANCH   1   3
ATOM      3  C   UNL     1       4.560  41.266  50.237  1.00  0.00     0.177 C 
BRANCH   3   4
ATOM      4  C   UNL     1       4.682  40.790  48.769  1.00  0.00     0.283 C 
BRANCH   4   5
ATOM      5  N   UNL     1       5.869  41.451  48.093  1.00  0.00    -0.338 N 
ATOM      6  C   UNL     1       5.619  41.747  46.647  1.00  0.00     0.332 C 
ATOM      7  C   UNL     1       6.420  42.621  48.840  1.00  0.00     0.332 C 
ATOM      8  H   UNL     1       6.591  40.708  48.118  1.00  0.00     0.347 HD
ENDBRANCH   4   5
ENDBRANCH   3   4
ENDBRANCH   1   3
BRANCH   1   9
ATOM      9  C   UNL     1       3.016  42.655  51.432  1.00  0.00     0.227 A 
ATOM     10  N   UNL     1       3.817  43.672  51.159  1.00  0.00    -0.193 NA
ATOM     11  N   UNL     1       2.148  42.625  52.434  1.00  0.00    -0.191 NA
ATOM     12  C   UNL     1       3.722  44.773  51.936  1.00  0.00     0.164 A 
ATOM     13  C   UNL     1       2.060  43.706  53.200  1.00  0.00     0.185 A 
ATOM     14  C   UNL     1       2.834  44.857  53.007  1.00  0.00     0.150 A 
ATOM     15  N   UNL     1       1.170  43.654  54.195  1.00  0.00    -0.233 NA
ATOM     16  N   UNL     1       2.708  45.965  53.799  1.00  0.00    -0.247 NA
ATOM     17  C   UNL     1       1.051  44.748  54.987  1.00  0.00     0.133 A 
ATOM     18  C   UNL     1       1.805  45.885  54.794  1.00  0.00     0.132 A 
BRANCH  12  19
ATOM     19  N   UNL     1       4.568  45.891  51.713  1.00  0.00    -0.338 N 
ATOM     20  H   UNL     1       4.162  46.516  51.018  1.00  0.00     0.168 HD
BRANCH  19  21
ATOM     21  C   UNL     1       5.929  46.116  51.975  1.00  0.00     0.040 A 
ATOM     22  C   UNL     1       6.869  45.762  50.994  1.00  0.00     0.026 A 
ATOM     23  C   UNL     1       6.408  46.713  53.145  1.00  0.00     0.026 A 
ATOM     24  C   UNL     1       8.238  45.974  51.185  1.00  0.00     0.005 A 
ATOM     25  C   UNL     1       7.777  46.928  53.342  1.00  0.00     0.005 A 
ATOM     26  C   UNL     1       8.704  46.569  52.360  1.00  0.00    -0.051 A 
ATOM     27  C   UNL     1      10.173  46.771  52.582  1.00  0.00     0.044 C 
ENDBRANCH  19  21
ENDBRANCH  12  19
ENDBRANCH   1   9
TORSDOF 6
ENDMDL
MODEL 9
REMARK VINA RESULT:    -7.999      1.524      5.279
REMARK INTER + INTRA:         -11.537
REMARK INTER:                 -10.694
REMARK INTRA:                  -0.843
REMARK UNBOUND:                -0.732
REMARK SMILES Cc1ccc(Nc2nc(NCC[NH+](C)C)nc3nccnc23)cc1
REMARK SMILES IDX 10 1 11 3 12 4 13 5 14 6 15 7 9 9 8 10 16 11 7 12 17 13
REMARK SMILES IDX 22 14 18 15 21 16 19 17 20 18 6 19 5 21 4 22 23 23 3 24
REMARK SMILES IDX 24 25 2 26 1 27
REMARK H PARENT 10 2 13 8 6 20
ROOT
ATOM      1  N   UNL     1       2.791  41.712  50.687  1.00  0.00    -0.348 N 
ATOM      2  H   UNL     1       2.216  41.038  51.202  1.00  0.00     0.163 HD
ENDROOT
BRANCH   1   3
ATOM      3  C   UNL     1       4.146  41.188  50.443  1.00  0.00     0.177 C 
BRANCH   3   4
ATOM      4  C   UNL     1       4.398  40.836  48.957  1.00  0.00     0.283 C 
BRANCH   4   5
ATOM      5  N   UNL     1       5.790  41.272  48.536  1.00  0.00    -0.338 N 
ATOM      6  C   UNL     1       5.801  41.967  47.211  1.00  0.00     0.332 C 
ATOM      7  C   UNL     1       6.539  42.017  49.592  1.00  0.00     0.332 C 
ATOM      8  H   UNL     1       6.280  40.370  48.396  1.00  0.00     0.347 HD
ENDBRANCH   4   5
ENDBRANCH   3   4
ENDBRANCH   1   3
BRANCH   1   9
ATOM      9  C   UNL     1       2.773  42.824  51.529  1.00  0.00     0.227 A 
ATOM     10  N   UNL     1       3.590  43.817  51.218  1.00  0.00    -0.193 NA
ATOM     11  N   UNL     1       2.007  42.787  52.610  1.00  0.00    -0.191 NA
ATOM     12  C   UNL     1       3.624  44.885  52.044  1.00  0.00     0.164 A 
ATOM     13  C   UNL     1       2.046  43.836  53.424  1.00  0.00     0.185 A 
ATOM     14  C   UNL     1       2.850  44.960  53.200  1.00  0.00     0.150 A 
ATOM     15  N   UNL     1       1.256  43.778  54.501  1.00  0.00    -0.233 NA
ATOM     16  N   UNL     1       2.855  46.036  54.044  1.00  0.00    -0.247 NA
ATOM     17  C   UNL     1       1.268  44.840  55.343  1.00  0.00     0.133 A 
ATOM     18  C   UNL     1       2.051  45.951  55.121  1.00  0.00     0.132 A 
BRANCH  12  19
ATOM     19  N   UNL     1       4.496  45.975  51.782  1.00  0.00    -0.338 N 
ATOM     20  H   UNL     1       4.018  46.695  51.241  1.00  0.00     0.168 HD
BRANCH  19  21
ATOM     21  C   UNL     1       5.894  46.096  51.807  1.00  0.00     0.040 A 
ATOM     22  C   UNL     1       6.493  46.738  52.902  1.00  0.00     0.026 A 
ATOM     23  C   UNL     1       6.738  45.577  50.821  1.00  0.00     0.026 A 
ATOM     24  C   UNL     1       7.881  46.879  52.996  1.00  0.00     0.005 A 
ATOM     25  C   UNL     1       8.129  45.714  50.910  1.00  0.00     0.005 A 
ATOM     26  C   UNL     1       8.713  46.358  52.003  1.00  0.00    -0.051 A 
ATOM     27  C   UNL     1      10.200  46.532  52.085  1.00  0.00     0.044 C 
ENDBRANCH  19  21
ENDBRANCH  12  19
ENDBRANCH   1   9
TORSDOF 6
ENDMDL
MODEL 10
REMARK VINA RESULT:    -7.558      2.228      5.618
REMARK INTER + INTRA:         -10.941
REMARK INTER:                 -10.088
REMARK INTRA:                  -0.853
REMARK UNBOUND:                -0.732
REMARK SMILES Cc1ccc(Nc2nc(NCC[NH+](C)C)nc3nccnc23)cc1
REMARK SMILES IDX 10 1 11 3 12 4 13 5 14 6 15 7 9 9 8 10 16 11 7 12 17 13
REMARK SMILES IDX 22 14 18 15 21 16 19 17 20 18 6 19 5 21 4 22 23 23 3 24
REMARK SMILES IDX 24 25 2 26 1 27
REMARK H PARENT 10 2 13 8 6 20
ROOT
ATOM      1  N   UNL     1       2.909  45.580  55.647  1.00  0.00    -0.348 N 
ATOM      2  H   UNL     1       2.486  46.509  55.555  1.00  0.00     0.163 HD
ENDROOT
BRANCH   1   3
ATOM      3  C   UNL     1       4.350  45.613  55.341  1.00  0.00     0.177 C 
BRANCH   3   4
ATOM      4  C   UNL     1       4.794  46.936  54.671  1.00  0.00     0.283 C 
BRANCH   4   5
ATOM      5  N   UNL     1       4.905  46.759  53.167  1.00  0.00    -0.338 N 
ATOM      6  C   UNL     1       3.754  47.366  52.428  1.00  0.00     0.332 C 
ATOM      7  C   UNL     1       6.232  47.152  52.605  1.00  0.00     0.332 C 
ATOM      8  H   UNL     1       4.818  45.733  53.050  1.00  0.00     0.347 HD
ENDBRANCH   4   5
ENDBRANCH   3   4
ENDBRANCH   1   3
BRANCH   1   9
ATOM      9  C   UNL     1       2.169  44.824  54.738  1.00  0.00     0.227 A 
ATOM     10  N   UNL     1       2.854  44.023  53.938  1.00  0.00    -0.193 NA
ATOM     11  N   UNL     1       0.858  45.008  54.682  1.00  0.00    -0.191 NA
ATOM     12  C   UNL     1       2.164  43.315  53.018  1.00  0.00     0.164 A 
ATOM     13  C   UNL     1       0.181  44.315  53.773  1.00  0.00     0.185 A 
ATOM     14  C   UNL     1       0.780  43.417  52.880  1.00  0.00     0.150 A 
ATOM     15  N   UNL     1      -1.140  44.509  53.744  1.00  0.00    -0.233 NA
ATOM     16  N   UNL     1       0.057  42.700  51.967  1.00  0.00    -0.247 NA
ATOM     17  C   UNL     1      -1.857  43.807  52.833  1.00  0.00     0.133 A 
ATOM     18  C   UNL     1      -1.271  42.917  51.960  1.00  0.00     0.132 A 
BRANCH  12  19
ATOM     19  N   UNL     1       2.838  42.454  52.112  1.00  0.00    -0.338 N 
ATOM     20  H   UNL     1       2.550  41.486  52.254  1.00  0.00     0.168 HD
BRANCH  19  21
ATOM     21  C   UNL     1       4.009  42.608  51.353  1.00  0.00     0.040 A 
ATOM     22  C   UNL     1       4.570  43.889  51.237  1.00  0.00     0.026 A 
ATOM     23  C   UNL     1       4.679  41.549  50.733  1.00  0.00     0.026 A 
ATOM     24  C   UNL     1       5.743  44.109  50.507  1.00  0.00     0.005 A 
ATOM     25  C   UNL     1       5.854  41.762  50.003  1.00  0.00     0.005 A 
ATOM     26  C   UNL     1       6.402  43.043  49.891  1.00  0.00    -0.051 A 
ATOM     27  C   UNL     1       7.643  43.277  49.084  1.00  0.00     0.044 C 
ENDBRANCH  19  21
ENDBRANCH  12  19
ENDBRANCH   1   9
TORSDOF 6
ENDMDL
MODEL 11
REMARK VINA RESULT:    -7.556      2.356      3.703
REMARK INTER + INTRA:         -10.939
REMARK INTER:                 -10.210
REMARK INTRA:                  -0.729
REMARK UNBOUND:                -0.732
REMARK SMILES Cc1ccc(Nc2nc(NCC[NH+](C)C)nc3nccnc23)cc1
REMARK SMILES IDX 10 1 11 3 12 4 13 5 14 6 15 7 9 9 8 10 16 11 7 12 17 13
REMARK SMILES IDX 22 14 18 15 21 16 19 17 20 18 6 19 5 21 4 22 23 23 3 24
REMARK SMILES IDX 24 25 2 26 1 27
REMARK H PARENT 10 2 13 8 6 20
ROOT
ATOM      1  N   UNL     1       2.144  45.799  56.486  1.00  0.00    -0.348 N 
ATOM      2  H   UNL     1       2.952  45.360  56.936  1.00  0.00     0.163 HD
ENDROOT
BRANCH   1   3
ATOM      3  C   UNL     1       0.881  45.374  57.117  1.00  0.00     0.177 C 
BRANCH   3   4
ATOM      4  C   UNL     1       0.066  46.559  57.690  1.00  0.00     0.283 C 
BRANCH   4   5
ATOM      5  N   UNL     1      -1.111  46.880  56.786  1.00  0.00    -0.338 N 
ATOM      6  C   UNL     1      -1.853  45.658  56.347  1.00  0.00     0.332 C 
ATOM      7  C   UNL     1      -2.010  47.949  57.316  1.00  0.00     0.332 C 
ATOM      8  H   UNL     1      -0.652  47.263  55.940  1.00  0.00     0.347 HD
ENDBRANCH   4   5
ENDBRANCH   3   4
ENDBRANCH   1   3
BRANCH   1   9
ATOM      9  C   UNL     1       2.270  45.373  55.163  1.00  0.00     0.227 A 
ATOM     10  N   UNL     1       3.113  46.049  54.400  1.00  0.00    -0.193 NA
ATOM     11  N   UNL     1       1.496  44.382  54.742  1.00  0.00    -0.191 NA
ATOM     12  C   UNL     1       3.218  45.684  53.104  1.00  0.00     0.164 A 
ATOM     13  C   UNL     1       1.597  44.029  53.465  1.00  0.00     0.185 A 
ATOM     14  C   UNL     1       2.465  44.647  52.556  1.00  0.00     0.150 A 
ATOM     15  N   UNL     1       0.815  43.021  53.068  1.00  0.00    -0.233 NA
ATOM     16  N   UNL     1       2.564  44.249  51.252  1.00  0.00    -0.247 NA
ATOM     17  C   UNL     1       0.905  42.632  51.772  1.00  0.00     0.133 A 
ATOM     18  C   UNL     1       1.764  43.233  50.879  1.00  0.00     0.132 A 
BRANCH  12  19
ATOM     19  N   UNL     1       4.086  46.383  52.224  1.00  0.00    -0.338 N 
ATOM     20  H   UNL     1       3.597  46.643  51.369  1.00  0.00     0.168 HD
BRANCH  19  21
ATOM     21  C   UNL     1       5.485  46.468  52.145  1.00  0.00     0.040 A 
ATOM     22  C   UNL     1       6.148  45.725  51.156  1.00  0.00     0.026 A 
ATOM     23  C   UNL     1       6.262  47.286  52.970  1.00  0.00     0.026 A 
ATOM     24  C   UNL     1       7.539  45.777  51.013  1.00  0.00     0.005 A 
ATOM     25  C   UNL     1       7.655  47.344  52.831  1.00  0.00     0.005 A 
ATOM     26  C   UNL     1       8.304  46.597  51.845  1.00  0.00    -0.051 A 
ATOM     27  C   UNL     1       9.798  46.634  51.715  1.00  0.00     0.044 C 
ENDBRANCH  19  21
ENDBRANCH  12  19
ENDBRANCH   1   9
TORSDOF 6
ENDMDL
MODEL 12
REMARK VINA RESULT:    -7.544      1.649      2.218
REMARK INTER + INTRA:         -10.922
REMARK INTER:                 -10.210
REMARK INTRA:                  -0.712
REMARK UNBOUND:                -0.732
REMARK SMILES Cc1ccc(Nc2nc(NCC[NH+](C)C)nc3nccnc23)cc1
REMARK SMILES IDX 10 1 11 3 12 4 13 5 14 6 15 7 9 9 8 10 16 11 7 12 17 13
REMARK SMILES IDX 22 14 18 15 21 16 19 17 20 18 6 19 5 21 4 22 23 23 3 24
REMARK SMILES IDX 24 25 2 26 1 27
REMARK H PARENT 10 2 13 8 6 20
ROOT
ATOM      1  N   UNL     1       3.122  46.367  51.893  1.00  0.00    -0.348 N 
ATOM      2  H   UNL     1       3.320  47.095  52.585  1.00  0.00     0.163 HD
ENDROOT
BRANCH   1   3
ATOM      3  C   UNL     1       2.322  45.275  52.477  1.00  0.00     0.177 C 
BRANCH   3   4
ATOM      4  C   UNL     1       1.638  45.674  53.807  1.00  0.00     0.283 C 
BRANCH   4   5
ATOM      5  N   UNL     1       2.377  45.069  54.987  1.00  0.00    -0.338 N 
ATOM      6  C   UNL     1       3.659  45.777  55.291  1.00  0.00     0.332 C 
ATOM      7  C   UNL     1       1.524  44.862  56.196  1.00  0.00     0.332 C 
ATOM      8  H   UNL     1       2.638  44.129  54.637  1.00  0.00     0.347 HD
ENDBRANCH   4   5
ENDBRANCH   3   4
ENDBRANCH   1   3
BRANCH   1   9
ATOM      9  C   UNL     1       4.401  45.967  51.504  1.00  0.00     0.227 A 
ATOM     10  N   UNL     1       5.399  46.769  51.835  1.00  0.00    -0.193 NA
ATOM     11  N   UNL     1       4.525  44.866  50.776  1.00  0.00    -0.191 NA
ATOM     12  C   UNL     1       6.641  46.426  51.430  1.00  0.00     0.164 A 
ATOM     13  C   UNL     1       5.746  44.533  50.374  1.00  0.00     0.185 A 
ATOM     14  C   UNL     1       6.891  45.283  50.673  1.00  0.00     0.150 A 
ATOM     15  N   UNL     1       5.846  43.414  49.652  1.00  0.00    -0.233 NA
ATOM     16  N   UNL     1       8.140  44.906  50.264  1.00  0.00    -0.247 NA
ATOM     17  C   UNL     1       7.083  43.045  49.237  1.00  0.00     0.133 A 
ATOM     18  C   UNL     1       8.211  43.775  49.537  1.00  0.00     0.132 A 
BRANCH  12  19
ATOM     19  N   UNL     1       7.754  47.255  51.730  1.00  0.00    -0.338 N 
ATOM     20  H   UNL     1       8.128  47.677  50.880  1.00  0.00     0.168 HD
BRANCH  19  21
ATOM     21  C   UNL     1       8.611  47.324  52.840  1.00  0.00     0.040 A 
ATOM     22  C   UNL     1       8.264  48.172  53.904  1.00  0.00     0.026 A 
ATOM     23  C   UNL     1       9.778  46.565  52.971  1.00  0.00     0.026 A 
ATOM     24  C   UNL     1       9.066  48.276  55.045  1.00  0.00     0.005 A 
ATOM     25  C   UNL     1      10.584  46.664  54.112  1.00  0.00     0.005 A 
ATOM     26  C   UNL     1      10.230  47.513  55.163  1.00  0.00    -0.051 A 
ATOM     27  C   UNL     1      11.108  47.643  56.372  1.00  0.00     0.044 C 
ENDBRANCH  19  21
ENDBRANCH  12  19
ENDBRANCH   1   9
TORSDOF 6
ENDMDL
MODEL 13
REMARK VINA RESULT:    -7.535      1.281      1.820
REMARK INTER + INTRA:         -10.910
REMARK INTER:                 -10.262
REMARK INTRA:                  -0.648
REMARK UNBOUND:                -0.732
REMARK SMILES Cc1ccc(Nc2nc(NCC[NH+](C)C)nc3nccnc23)cc1
REMARK SMILES IDX 10 1 11 3 12 4 13 5 14 6 15 7 9 9 8 10 16 11 7 12 17 13
REMARK SMILES IDX 22 14 18 15 21 16 19 17 20 18 6 19 5 21 4 22 23 23 3 24
REMARK SMILES IDX 24 25 2 26 1 27
REMARK H PARENT 10 2 13 8 6 20
ROOT
ATOM      1  N   UNL     1       1.227  45.254  52.203  1.00  0.00    -0.348 N 
ATOM      2  H   UNL     1       1.146  46.119  51.660  1.00  0.00     0.163 HD
ENDROOT
BRANCH   1   3
ATOM      3  C   UNL     1       1.163  45.521  53.651  1.00  0.00     0.177 C 
BRANCH   3   4
ATOM      4  C   UNL     1       0.891  44.247  54.487  1.00  0.00     0.283 C 
BRANCH   4   5
ATOM      5  N   UNL     1      -0.374  44.411  55.310  1.00  0.00    -0.338 N 
ATOM      6  C   UNL     1      -0.180  45.304  56.495  1.00  0.00     0.332 C 
ATOM      7  C   UNL     1      -1.581  44.765  54.504  1.00  0.00     0.332 C 
ATOM      8  H   UNL     1      -0.529  43.458  55.685  1.00  0.00     0.347 HD
ENDBRANCH   4   5
ENDBRANCH   3   4
ENDBRANCH   1   3
BRANCH   1   9
ATOM      9  C   UNL     1       2.462  44.755  51.788  1.00  0.00     0.227 A 
ATOM     10  N   UNL     1       3.465  45.617  51.743  1.00  0.00    -0.193 NA
ATOM     11  N   UNL     1       2.535  43.489  51.401  1.00  0.00    -0.191 NA
ATOM     12  C   UNL     1       4.659  45.168  51.301  1.00  0.00     0.164 A 
ATOM     13  C   UNL     1       3.709  43.051  50.961  1.00  0.00     0.185 A 
ATOM     14  C   UNL     1       4.856  43.853  50.882  1.00  0.00     0.150 A 
ATOM     15  N   UNL     1       3.759  41.769  50.587  1.00  0.00    -0.233 NA
ATOM     16  N   UNL     1       6.058  43.370  50.445  1.00  0.00    -0.247 NA
ATOM     17  C   UNL     1       4.948  41.292  50.144  1.00  0.00     0.133 A 
ATOM     18  C   UNL     1       6.079  42.076  50.074  1.00  0.00     0.132 A 
BRANCH  12  19
ATOM     19  N   UNL     1       5.772  46.045  51.204  1.00  0.00    -0.338 N 
ATOM     20  H   UNL     1       5.960  46.281  50.231  1.00  0.00     0.168 HD
BRANCH  19  21
ATOM     21  C   UNL     1       6.818  46.349  52.091  1.00  0.00     0.040 A 
ATOM     22  C   UNL     1       8.139  46.266  51.624  1.00  0.00     0.026 A 
ATOM     23  C   UNL     1       6.622  46.772  53.409  1.00  0.00     0.026 A 
ATOM     24  C   UNL     1       9.226  46.569  52.451  1.00  0.00     0.005 A 
ATOM     25  C   UNL     1       7.706  47.079  54.241  1.00  0.00     0.005 A 
ATOM     26  C   UNL     1       9.017  46.989  53.766  1.00  0.00    -0.051 A 
ATOM     27  C   UNL     1      10.179  47.287  54.665  1.00  0.00     0.044 C 
ENDBRANCH  19  21
ENDBRANCH  12  19
ENDBRANCH   1   9
TORSDOF 6
ENDMDL
MODEL 14
REMARK VINA RESULT:    -7.525      1.968      6.518
REMARK INTER + INTRA:         -10.896
REMARK INTER:                 -10.056
REMARK INTRA:                  -0.840
REMARK UNBOUND:                -0.732
REMARK SMILES Cc1ccc(Nc2nc(NCC[NH+](C)C)nc3nccnc23)cc1
REMARK SMILES IDX 10 1 11 3 12 4 13 5 14 6 15 7 9 9 8 10 16 11 7 12 17 13
REMARK SMILES IDX 22 14 18 15 21 16 19 17 20 18 6 19 5 21 4 22 23 23 3 24
REMARK SMILES IDX 24 25 2 26 1 27
REMARK H PARENT 10 2 13 8 6 20
ROOT
ATOM      1  N   UNL     1       7.715  44.966  49.578  1.00  0.00    -0.348 N 
ATOM      2  H   UNL     1       6.905  45.401  49.126  1.00  0.00     0.163 HD
ENDROOT
BRANCH   1   3
ATOM      3  C   UNL     1       7.547  43.506  49.692  1.00  0.00     0.177 C 
BRANCH   3   4
ATOM      4  C   UNL     1       6.131  43.030  49.286  1.00  0.00     0.283 C 
BRANCH   4   5
ATOM      5  N   UNL     1       5.406  42.438  50.482  1.00  0.00    -0.338 N 
ATOM      6  C   UNL     1       4.642  43.463  51.259  1.00  0.00     0.332 C 
ATOM      7  C   UNL     1       4.596  41.224  50.163  1.00  0.00     0.332 C 
ATOM      8  H   UNL     1       6.185  42.130  51.093  1.00  0.00     0.347 HD
ENDBRANCH   4   5
ENDBRANCH   3   4
ENDBRANCH   1   3
BRANCH   1   9
ATOM      9  C   UNL     1       7.751  45.615  50.813  1.00  0.00     0.227 A 
ATOM     10  N   UNL     1       6.599  46.071  51.278  1.00  0.00    -0.193 NA
ATOM     11  N   UNL     1       8.928  45.796  51.397  1.00  0.00    -0.191 NA
ATOM     12  C   UNL     1       6.617  46.743  52.449  1.00  0.00     0.164 A 
ATOM     13  C   UNL     1       8.943  46.462  52.546  1.00  0.00     0.185 A 
ATOM     14  C   UNL     1       7.794  46.979  53.158  1.00  0.00     0.150 A 
ATOM     15  N   UNL     1      10.139  46.622  53.120  1.00  0.00    -0.233 NA
ATOM     16  N   UNL     1       7.836  47.642  54.353  1.00  0.00    -0.247 NA
ATOM     17  C   UNL     1      10.183  47.288  54.300  1.00  0.00     0.133 A 
ATOM     18  C   UNL     1       9.053  47.790  54.908  1.00  0.00     0.132 A 
BRANCH  12  19
ATOM     19  N   UNL     1       5.420  47.279  52.993  1.00  0.00    -0.338 N 
ATOM     20  H   UNL     1       5.597  48.184  53.428  1.00  0.00     0.168 HD
BRANCH  19  21
ATOM     21  C   UNL     1       4.194  46.693  53.347  1.00  0.00     0.040 A 
ATOM     22  C   UNL     1       4.087  46.063  54.596  1.00  0.00     0.026 A 
ATOM     23  C   UNL     1       3.053  46.733  52.542  1.00  0.00     0.026 A 
ATOM     24  C   UNL     1       2.890  45.473  55.016  1.00  0.00     0.005 A 
ATOM     25  C   UNL     1       1.851  46.145  52.956  1.00  0.00     0.005 A 
ATOM     26  C   UNL     1       1.757  45.518  54.201  1.00  0.00    -0.051 A 
ATOM     27  C   UNL     1       0.480  44.861  54.633  1.00  0.00     0.044 C 
ENDBRANCH  19  21
ENDBRANCH  12  19
ENDBRANCH   1   9
TORSDOF 6
ENDMDL
MODEL 15
REMARK VINA RESULT:    -7.448      2.214      6.088
REMARK INTER + INTRA:         -10.792
REMARK INTER:                  -9.885
REMARK INTRA:                  -0.908
REMARK UNBOUND:                -0.732
REMARK SMILES Cc1ccc(Nc2nc(NCC[NH+](C)C)nc3nccnc23)cc1
REMARK SMILES IDX 10 1 11 3 12 4 13 5 14 6 15 7 9 9 8 10 16 11 7 12 17 13
REMARK SMILES IDX 22 14 18 15 21 16 19 17 20 18 6 19 5 21 4 22 23 23 3 24
REMARK SMILES IDX 24 25 2 26 1 27
REMARK H PARENT 10 2 13 8 6 20
ROOT
ATOM      1  N   UNL     1       2.771  42.327  52.833  1.00  0.00    -0.348 N 
ATOM      2  H   UNL     1       2.883  41.308  52.827  1.00  0.00     0.163 HD
ENDROOT
BRANCH   1   3
ATOM      3  C   UNL     1       1.451  42.725  52.311  1.00  0.00     0.177 C 
BRANCH   3   4
ATOM      4  C   UNL     1       0.761  43.803  53.181  1.00  0.00     0.283 C 
BRANCH   4   5
ATOM      5  N   UNL     1       1.789  44.760  53.758  1.00  0.00    -0.338 N 
ATOM      6  C   UNL     1       1.804  46.082  53.059  1.00  0.00     0.332 C 
ATOM      7  C   UNL     1       1.734  44.886  55.245  1.00  0.00     0.332 C 
ATOM      8  H   UNL     1       2.687  44.297  53.527  1.00  0.00     0.347 HD
ENDBRANCH   4   5
ENDBRANCH   3   4
ENDBRANCH   1   3
BRANCH   1   9
ATOM      9  C   UNL     1       3.832  42.749  52.030  1.00  0.00     0.227 A 
ATOM     10  N   UNL     1       4.169  41.954  51.028  1.00  0.00    -0.193 NA
ATOM     11  N   UNL     1       4.471  43.861  52.362  1.00  0.00    -0.191 NA
ATOM     12  C   UNL     1       5.222  42.319  50.265  1.00  0.00     0.164 A 
ATOM     13  C   UNL     1       5.510  44.215  51.613  1.00  0.00     0.185 A 
ATOM     14  C   UNL     1       5.959  43.476  50.511  1.00  0.00     0.150 A 
ATOM     15  N   UNL     1       6.131  45.346  51.961  1.00  0.00    -0.233 NA
ATOM     16  N   UNL     1       7.019  43.875  49.745  1.00  0.00    -0.247 NA
ATOM     17  C   UNL     1       7.188  45.737  51.208  1.00  0.00     0.133 A 
ATOM     18  C   UNL     1       7.625  45.017  50.119  1.00  0.00     0.132 A 
BRANCH  12  19
ATOM     19  N   UNL     1       5.653  41.500  49.187  1.00  0.00    -0.338 N 
ATOM     20  H   UNL     1       6.651  41.306  49.260  1.00  0.00     0.168 HD
BRANCH  19  21
ATOM     21  C   UNL     1       5.094  41.219  47.930  1.00  0.00     0.040 A 
ATOM     22  C   UNL     1       3.949  40.409  47.871  1.00  0.00     0.026 A 
ATOM     23  C   UNL     1       5.588  41.731  46.727  1.00  0.00     0.026 A 
ATOM     24  C   UNL     1       3.335  40.102  46.652  1.00  0.00     0.005 A 
ATOM     25  C   UNL     1       4.977  41.429  45.504  1.00  0.00     0.005 A 
ATOM     26  C   UNL     1       3.839  40.619  45.457  1.00  0.00    -0.051 A 
ATOM     27  C   UNL     1       3.202  40.270  44.145  1.00  0.00     0.044 C 
ENDBRANCH  19  21
ENDBRANCH  12  19
ENDBRANCH   1   9
TORSDOF 6
ENDMDL
MODEL 16
REMARK VINA RESULT:    -7.409      1.603      6.593
REMARK INTER + INTRA:         -10.740
REMARK INTER:                 -10.144
REMARK INTRA:                  -0.596
REMARK UNBOUND:                -0.732
REMARK SMILES Cc1ccc(Nc2nc(NCC[NH+](C)C)nc3nccnc23)cc1
REMARK SMILES IDX 10 1 11 3 12 4 13 5 14 6 15 7 9 9 8 10 16 11 7 12 17 13
REMARK SMILES IDX 22 14 18 15 21 16 19 17 20 18 6 19 5 21 4 22 23 23 3 24
REMARK SMILES IDX 24 25 2 26 1 27
REMARK H PARENT 10 2 13 8 6 20
ROOT
ATOM      1  N   UNL     1       5.921  46.980  52.334  1.00  0.00    -0.348 N 
ATOM      2  H   UNL     1       5.955  47.490  51.446  1.00  0.00     0.163 HD
ENDROOT
BRANCH   1   3
ATOM      3  C   UNL     1       7.226  47.011  53.020  1.00  0.00     0.177 C 
BRANCH   3   4
ATOM      4  C   UNL     1       8.324  47.725  52.195  1.00  0.00     0.283 C 
BRANCH   4   5
ATOM      5  N   UNL     1       9.703  47.278  52.647  1.00  0.00    -0.338 N 
ATOM      6  C   UNL     1       9.809  47.150  54.134  1.00  0.00     0.332 C 
ATOM      7  C   UNL     1      10.223  46.082  51.920  1.00  0.00     0.332 C 
ATOM      8  H   UNL     1      10.302  48.080  52.379  1.00  0.00     0.347 HD
ENDBRANCH   4   5
ENDBRANCH   3   4
ENDBRANCH   1   3
BRANCH   1   9
ATOM      9  C   UNL     1       5.541  45.700  51.930  1.00  0.00     0.227 A 
ATOM     10  N   UNL     1       4.619  45.097  52.662  1.00  0.00    -0.193 NA
ATOM     11  N   UNL     1       6.171  45.149  50.901  1.00  0.00    -0.191 NA
ATOM     12  C   UNL     1       4.268  43.839  52.317  1.00  0.00     0.164 A 
ATOM     13  C   UNL     1       5.828  43.910  50.568  1.00  0.00     0.185 A 
ATOM     14  C   UNL     1       4.852  43.167  51.245  1.00  0.00     0.150 A 
ATOM     15  N   UNL     1       6.468  43.381  49.521  1.00  0.00    -0.233 NA
ATOM     16  N   UNL     1       4.504  41.900  50.867  1.00  0.00    -0.247 NA
ATOM     17  C   UNL     1       6.131  42.121  49.152  1.00  0.00     0.133 A 
ATOM     18  C   UNL     1       5.165  41.392  49.810  1.00  0.00     0.132 A 
BRANCH  12  19
ATOM     19  N   UNL     1       3.301  43.125  53.074  1.00  0.00    -0.338 N 
ATOM     20  H   UNL     1       3.540  42.135  53.118  1.00  0.00     0.168 HD
BRANCH  19  21
ATOM     21  C   UNL     1       1.981  43.424  53.447  1.00  0.00     0.040 A 
ATOM     22  C   UNL     1       0.939  42.669  52.887  1.00  0.00     0.026 A 
ATOM     23  C   UNL     1       1.640  44.407  54.379  1.00  0.00     0.026 A 
ATOM     24  C   UNL     1      -0.398  42.905  53.227  1.00  0.00     0.005 A 
ATOM     25  C   UNL     1       0.305  44.648  54.725  1.00  0.00     0.005 A 
ATOM     26  C   UNL     1      -0.725  43.892  54.159  1.00  0.00    -0.051 A 
ATOM     27  C   UNL     1      -2.158  44.169  54.506  1.00  0.00     0.044 C 
ENDBRANCH  19  21
ENDBRANCH  12  19
ENDBRANCH   1   9
TORSDOF 6
ENDMDL
MODEL 17
REMARK VINA RESULT:    -7.332      2.078      7.129
REMARK INTER + INTRA:         -10.636
REMARK INTER:                  -9.940
REMARK INTRA:                  -0.696
REMARK UNBOUND:                -0.732
REMARK SMILES Cc1ccc(Nc2nc(NCC[NH+](C)C)nc3nccnc23)cc1
REMARK SMILES IDX 10 1 11 3 12 4 13 5 14 6 15 7 9 9 8 10 16 11 7 12 17 13
REMARK SMILES IDX 22 14 18 15 21 16 19 17 20 18 6 19 5 21 4 22 23 23 3 24
REMARK SMILES IDX 24 25 2 26 1 27
REMARK H PARENT 10 2 13 8 6 20
ROOT
ATOM      1  N   UNL     1       7.627  45.992  50.532  1.00  0.00    -0.348 N 
ATOM      2  H   UNL     1       8.038  45.627  49.668  1.00  0.00     0.163 HD
ENDROOT
BRANCH   1   3
ATOM      3  C   UNL     1       8.638  46.116  51.597  1.00  0.00     0.177 C 
BRANCH   3   4
ATOM      4  C   UNL     1       8.798  47.567  52.110  1.00  0.00     0.283 C 
BRANCH   4   5
ATOM      5  N   UNL     1       8.746  47.603  53.627  1.00  0.00    -0.338 N 
ATOM      6  C   UNL     1       7.568  46.866  54.182  1.00  0.00     0.332 C 
ATOM      7  C   UNL     1      10.032  47.231  54.289  1.00  0.00     0.332 C 
ATOM      8  H   UNL     1       8.582  48.607  53.827  1.00  0.00     0.347 HD
ENDBRANCH   4   5
ENDBRANCH   3   4
ENDBRANCH   1   3
BRANCH   1   9
ATOM      9  C   UNL     1       6.640  45.048  50.816  1.00  0.00     0.227 A 
ATOM     10  N   UNL     1       6.685  43.918  50.129  1.00  0.00    -0.193 NA
ATOM     11  N   UNL     1       5.691  45.368  51.685  1.00  0.00    -0.191 NA
ATOM     12  C   UNL     1       5.713  43.008  50.354  1.00  0.00     0.164 A 
ATOM     13  C   UNL     1       4.733  44.474  51.900  1.00  0.00     0.185 A 
ATOM     14  C   UNL     1       4.674  43.230  51.257  1.00  0.00     0.150 A 
ATOM     15  N   UNL     1       3.795  44.815  52.789  1.00  0.00    -0.233 NA
ATOM     16  N   UNL     1       3.687  42.320  51.512  1.00  0.00    -0.247 NA
ATOM     17  C   UNL     1       2.810  43.916  53.035  1.00  0.00     0.133 A 
ATOM     18  C   UNL     1       2.756  42.690  52.411  1.00  0.00     0.132 A 
BRANCH  12  19
ATOM     19  N   UNL     1       5.688  41.784  49.635  1.00  0.00    -0.338 N 
ATOM     20  H   UNL     1       6.366  41.127  50.019  1.00  0.00     0.168 HD
BRANCH  19  21
ATOM     21  C   UNL     1       5.204  41.443  48.361  1.00  0.00     0.040 A 
ATOM     22  C   UNL     1       4.058  40.637  48.273  1.00  0.00     0.026 A 
ATOM     23  C   UNL     1       5.773  41.893  47.167  1.00  0.00     0.026 A 
ATOM     24  C   UNL     1       3.515  40.273  47.036  1.00  0.00     0.005 A 
ATOM     25  C   UNL     1       5.233  41.533  45.925  1.00  0.00     0.005 A 
ATOM     26  C   UNL     1       4.094  40.728  45.849  1.00  0.00    -0.051 A 
ATOM     27  C   UNL     1       3.534  40.317  44.521  1.00  0.00     0.044 C 
ENDBRANCH  19  21
ENDBRANCH  12  19
ENDBRANCH   1   9
TORSDOF 6
ENDMDL
