MODEL 1
REMARK VINA RESULT:    -9.762      0.000      0.000
REMARK INTER + INTRA:         -14.044
REMARK INTER:                 -13.186
REMARK INTRA:                  -0.858
REMARK UNBOUND:                -0.858
REMARK SMILES Clc1ccc(Nc2nc(NCCC3=CCCCC3)nc3[nH]cnc23)cc1
REMARK SMILES IDX 7 1 8 2 9 3 19 4 20 5 21 6 22 7 23 8 24 9 6 11 5 13 2 14
REMARK SMILES IDX 3 15 26 16 4 17 25 18 1 19 10 20 11 22 12 23 13 24 14 25
REMARK SMILES IDX 18 26 15 27 17 28 16 29
REMARK H PARENT 21 10 6 12 10 21
ROOT
ATOM      1  C   UNL     1       2.905  43.805  53.079  1.00  0.00     0.164 A 
ATOM      2  N   UNL     1       3.657  44.779  53.673  1.00  0.00    -0.193 NA
ATOM      3  C   UNL     1       3.152  45.530  54.673  1.00  0.00     0.226 A 
ATOM      4  N   UNL     1       1.906  45.447  55.161  1.00  0.00    -0.193 NA
ATOM      5  C   UNL     1       1.183  44.510  54.539  1.00  0.00     0.165 A 
ATOM      6  N   UNL     1      -0.121  44.201  54.794  1.00  0.00    -0.329 N 
ATOM      7  C   UNL     1      -0.486  43.212  53.925  1.00  0.00     0.199 A 
ATOM      8  N   UNL     1       0.511  42.867  53.138  1.00  0.00    -0.231 NA
ATOM      9  C   UNL     1       1.576  43.665  53.517  1.00  0.00     0.150 A 
ATOM     10  H   UNL     1      -0.700  44.642  55.492  1.00  0.00     0.169 HD
ENDROOT
BRANCH   1  11
ATOM     11  N   UNL     1       3.544  43.106  52.048  1.00  0.00    -0.338 N 
ATOM     12  H   UNL     1       2.884  42.458  51.634  1.00  0.00     0.168 HD
BRANCH  11  13
ATOM     13  C   UNL     1       4.679  43.352  51.265  1.00  0.00     0.040 A 
ATOM     14  C   UNL     1       7.009  43.677  49.714  1.00  0.00     0.041 A 
ATOM     15  C   UNL     1       6.503  44.746  50.445  1.00  0.00     0.022 A 
ATOM     16  C   UNL     1       6.371  42.443  49.750  1.00  0.00     0.022 A 
ATOM     17  C   UNL     1       5.347  44.579  51.218  1.00  0.00     0.027 A 
ATOM     18  C   UNL     1       5.216  42.286  50.524  1.00  0.00     0.027 A 
ATOM     19  Cl  UNL     1       8.429  43.880  48.765  1.00  0.00    -0.084 Cl
ENDBRANCH  11  13
ENDBRANCH   1  11
BRANCH   3  20
ATOM     20  N   UNL     1       3.950  46.494  55.280  1.00  0.00    -0.354 N 
ATOM     21  H   UNL     1       3.309  47.119  55.757  1.00  0.00     0.163 HD
BRANCH  20  22
ATOM     22  C   UNL     1       4.902  47.141  54.387  1.00  0.00     0.120 C 
BRANCH  22  23
ATOM     23  C   UNL     1       6.334  46.742  54.782  1.00  0.00     0.052 C 
BRANCH  23  24
ATOM     24  C   UNL     1       7.440  47.011  53.778  1.00  0.00    -0.072 C 
ATOM     25  C   UNL     1       7.271  47.605  52.581  1.00  0.00    -0.028 C 
ATOM     26  C   UNL     1       8.810  46.540  54.228  1.00  0.00     0.031 C 
ATOM     27  C   UNL     1       8.377  47.823  51.586  1.00  0.00     0.027 C 
ATOM     28  C   UNL     1       9.965  47.091  53.389  1.00  0.00     0.005 C 
ATOM     29  C   UNL     1       9.642  47.028  51.902  1.00  0.00     0.004 C 
ENDBRANCH  23  24
ENDBRANCH  22  23
ENDBRANCH  20  22
ENDBRANCH   3  20
TORSDOF 6
ENDMDL
MODEL 2
REMARK VINA RESULT:    -9.657      0.606      1.150
REMARK INTER + INTRA:         -13.901
REMARK INTER:                 -13.051
REMARK INTRA:                  -0.851
REMARK UNBOUND:                -0.858
REMARK SMILES Clc1ccc(Nc2nc(NCCC3=CCCCC3)nc3[nH]cnc23)cc1
REMARK SMILES IDX 7 1 8 2 9 3 19 4 20 5 21 6 22 7 23 8 24 9 6 11 5 13 2 14
REMARK SMILES IDX 3 15 26 16 4 17 25 18 1 19 10 20 11 22 12 23 13 24 14 25
REMARK SMILES IDX 18 26 15 27 17 28 16 29
REMARK H PARENT 21 10 6 12 10 21
ROOT
ATOM      1  C   UNL     1       2.859  44.024  53.002  1.00  0.00     0.164 A 
ATOM      2  N   UNL     1       3.789  44.583  53.832  1.00  0.00    -0.193 NA
ATOM      3  C   UNL     1       3.412  45.327  54.892  1.00  0.00     0.226 A 
ATOM      4  N   UNL     1       2.149  45.626  55.228  1.00  0.00    -0.193 NA
ATOM      5  C   UNL     1       1.262  45.094  54.380  1.00  0.00     0.165 A 
ATOM      6  N   UNL     1      -0.093  45.235  54.442  1.00  0.00    -0.329 N 
ATOM      7  C   UNL     1      -0.625  44.561  53.380  1.00  0.00     0.199 A 
ATOM      8  N   UNL     1       0.310  43.992  52.650  1.00  0.00    -0.231 NA
ATOM      9  C   UNL     1       1.507  44.306  53.271  1.00  0.00     0.150 A 
ATOM     10  H   UNL     1      -0.595  45.757  55.145  1.00  0.00     0.169 HD
ENDROOT
BRANCH   1  11
ATOM     11  N   UNL     1       3.382  43.285  51.935  1.00  0.00    -0.338 N 
ATOM     12  H   UNL     1       2.619  42.826  51.450  1.00  0.00     0.168 HD
BRANCH  11  13
ATOM     13  C   UNL     1       4.577  43.342  51.207  1.00  0.00     0.040 A 
ATOM     14  C   UNL     1       6.948  43.629  49.711  1.00  0.00     0.041 A 
ATOM     15  C   UNL     1       6.273  42.414  49.722  1.00  0.00     0.022 A 
ATOM     16  C   UNL     1       6.453  44.708  50.433  1.00  0.00     0.022 A 
ATOM     17  C   UNL     1       5.093  42.277  50.463  1.00  0.00     0.027 A 
ATOM     18  C   UNL     1       5.274  44.562  51.171  1.00  0.00     0.027 A 
ATOM     19  Cl  UNL     1       8.398  43.799  48.801  1.00  0.00    -0.084 Cl
ENDBRANCH  11  13
ENDBRANCH   1  11
BRANCH   3  20
ATOM     20  N   UNL     1       4.379  45.859  55.738  1.00  0.00    -0.354 N 
ATOM     21  H   UNL     1       4.041  46.781  55.994  1.00  0.00     0.163 HD
BRANCH  20  22
ATOM     22  C   UNL     1       5.735  45.819  55.206  1.00  0.00     0.120 C 
BRANCH  22  23
ATOM     23  C   UNL     1       6.026  47.120  54.439  1.00  0.00     0.052 C 
BRANCH  23  24
ATOM     24  C   UNL     1       7.307  47.183  53.625  1.00  0.00    -0.072 C 
ATOM     25  C   UNL     1       7.385  47.551  52.332  1.00  0.00    -0.028 C 
ATOM     26  C   UNL     1       8.549  46.781  54.398  1.00  0.00     0.031 C 
ATOM     27  C   UNL     1       8.661  47.565  51.537  1.00  0.00     0.027 C 
ATOM     28  C   UNL     1       9.861  47.151  53.704  1.00  0.00     0.005 C 
ATOM     29  C   UNL     1       9.808  46.822  52.218  1.00  0.00     0.004 C 
ENDBRANCH  23  24
ENDBRANCH  22  23
ENDBRANCH  20  22
ENDBRANCH   3  20
TORSDOF 6
ENDMDL
MODEL 3
REMARK VINA RESULT:    -9.471      2.185      4.712
REMARK INTER + INTRA:         -13.650
REMARK INTER:                 -12.060
REMARK INTRA:                  -1.590
REMARK UNBOUND:                -0.858
REMARK SMILES Clc1ccc(Nc2nc(NCCC3=CCCCC3)nc3[nH]cnc23)cc1
REMARK SMILES IDX 7 1 8 2 9 3 19 4 20 5 21 6 22 7 23 8 24 9 6 11 5 13 2 14
REMARK SMILES IDX 3 15 26 16 4 17 25 18 1 19 10 20 11 22 12 23 13 24 14 25
REMARK SMILES IDX 18 26 15 27 17 28 16 29
REMARK H PARENT 21 10 6 12 10 21
ROOT
ATOM      1  C   UNL     1       2.351  44.169  52.644  1.00  0.00     0.164 A 
ATOM      2  N   UNL     1       3.013  43.122  52.068  1.00  0.00    -0.193 NA
ATOM      3  C   UNL     1       2.468  42.440  51.040  1.00  0.00     0.226 A 
ATOM      4  N   UNL     1       1.259  42.667  50.505  1.00  0.00    -0.193 NA
ATOM      5  C   UNL     1       0.620  43.674  51.110  1.00  0.00     0.165 A 
ATOM      6  N   UNL     1      -0.629  44.129  50.809  1.00  0.00    -0.329 N 
ATOM      7  C   UNL     1      -0.916  45.145  51.676  1.00  0.00     0.199 A 
ATOM      8  N   UNL     1       0.080  45.370  52.505  1.00  0.00    -0.231 NA
ATOM      9  C   UNL     1       1.064  44.460  52.157  1.00  0.00     0.150 A 
ATOM     10  H   UNL     1      -1.226  43.761  50.083  1.00  0.00     0.169 HD
ENDROOT
BRANCH   1  11
ATOM     11  N   UNL     1       3.022  44.783  53.708  1.00  0.00    -0.338 N 
ATOM     12  H   UNL     1       2.607  44.474  54.579  1.00  0.00     0.168 HD
BRANCH  11  13
ATOM     13  C   UNL     1       4.284  45.376  53.850  1.00  0.00     0.040 A 
ATOM     14  C   UNL     1       6.785  46.665  53.988  1.00  0.00     0.041 A 
ATOM     15  C   UNL     1       6.646  45.360  54.448  1.00  0.00     0.022 A 
ATOM     16  C   UNL     1       5.692  47.336  53.454  1.00  0.00     0.022 A 
ATOM     17  C   UNL     1       5.402  44.722  54.373  1.00  0.00     0.027 A 
ATOM     18  C   UNL     1       4.453  46.691  53.384  1.00  0.00     0.027 A 
ATOM     19  Cl  UNL     1       8.313  47.450  54.078  1.00  0.00    -0.084 Cl
ENDBRANCH  11  13
ENDBRANCH   1  11
BRANCH   3  20
ATOM     20  N   UNL     1       3.177  41.399  50.452  1.00  0.00    -0.354 N 
ATOM     21  H   UNL     1       2.639  40.560  50.641  1.00  0.00     0.163 HD
BRANCH  20  22
ATOM     22  C   UNL     1       4.582  41.335  50.831  1.00  0.00     0.120 C 
BRANCH  22  23
ATOM     23  C   UNL     1       5.460  41.712  49.626  1.00  0.00     0.052 C 
BRANCH  23  24
ATOM     24  C   UNL     1       6.328  42.952  49.750  1.00  0.00    -0.072 C 
ATOM     25  C   UNL     1       7.530  43.117  49.166  1.00  0.00    -0.028 C 
ATOM     26  C   UNL     1       5.727  44.041  50.619  1.00  0.00     0.031 C 
ATOM     27  C   UNL     1       8.389  44.338  49.338  1.00  0.00     0.027 C 
ATOM     28  C   UNL     1       6.422  45.398  50.487  1.00  0.00     0.005 C 
ATOM     29  C   UNL     1       7.937  45.240  50.485  1.00  0.00     0.004 C 
ENDBRANCH  23  24
ENDBRANCH  22  23
ENDBRANCH  20  22
ENDBRANCH   3  20
TORSDOF 6
ENDMDL
MODEL 4
REMARK VINA RESULT:    -9.459      3.327      7.104
REMARK INTER + INTRA:         -13.634
REMARK INTER:                 -12.349
REMARK INTRA:                  -1.285
REMARK UNBOUND:                -0.858
REMARK SMILES Clc1ccc(Nc2nc(NCCC3=CCCCC3)nc3[nH]cnc23)cc1
REMARK SMILES IDX 7 1 8 2 9 3 19 4 20 5 21 6 22 7 23 8 24 9 6 11 5 13 2 14
REMARK SMILES IDX 3 15 26 16 4 17 25 18 1 19 10 20 11 22 12 23 13 24 14 25
REMARK SMILES IDX 18 26 15 27 17 28 16 29
REMARK H PARENT 21 10 6 12 10 21
ROOT
ATOM      1  C   UNL     1       6.867  47.119  53.012  1.00  0.00     0.164 A 
ATOM      2  N   UNL     1       6.895  46.584  51.756  1.00  0.00    -0.193 NA
ATOM      3  C   UNL     1       8.050  46.146  51.216  1.00  0.00     0.226 A 
ATOM      4  N   UNL     1       9.257  46.207  51.796  1.00  0.00    -0.193 NA
ATOM      5  C   UNL     1       9.206  46.765  53.010  1.00  0.00     0.165 A 
ATOM      6  N   UNL     1      10.266  46.985  53.839  1.00  0.00    -0.329 N 
ATOM      7  C   UNL     1       9.787  47.596  54.964  1.00  0.00     0.199 A 
ATOM      8  N   UNL     1       8.485  47.769  54.904  1.00  0.00    -0.231 NA
ATOM      9  C   UNL     1       8.096  47.241  53.685  1.00  0.00     0.150 A 
ATOM     10  H   UNL     1      11.225  46.747  53.637  1.00  0.00     0.169 HD
ENDROOT
BRANCH   1  11
ATOM     11  N   UNL     1       5.607  47.545  53.449  1.00  0.00    -0.338 N 
ATOM     12  H   UNL     1       5.582  48.559  53.435  1.00  0.00     0.168 HD
BRANCH  11  13
ATOM     13  C   UNL     1       4.347  46.938  53.524  1.00  0.00     0.040 A 
ATOM     14  C   UNL     1       1.890  45.577  53.753  1.00  0.00     0.041 A 
ATOM     15  C   UNL     1       2.111  46.445  52.689  1.00  0.00     0.022 A 
ATOM     16  C   UNL     1       2.882  45.374  54.704  1.00  0.00     0.022 A 
ATOM     17  C   UNL     1       3.335  47.116  52.577  1.00  0.00     0.027 A 
ATOM     18  C   UNL     1       4.102  46.049  54.584  1.00  0.00     0.027 A 
ATOM     19  Cl  UNL     1       0.388  44.752  53.892  1.00  0.00    -0.084 Cl
ENDBRANCH  11  13
ENDBRANCH   1  11
BRANCH   3  20
ATOM     20  N   UNL     1       8.045  45.577  49.947  1.00  0.00    -0.354 N 
ATOM     21  H   UNL     1       7.157  45.842  49.532  1.00  0.00     0.163 HD
BRANCH  20  22
ATOM     22  C   UNL     1       8.341  44.151  49.922  1.00  0.00     0.120 C 
BRANCH  22  23
ATOM     23  C   UNL     1       7.211  43.402  49.196  1.00  0.00     0.052 C 
BRANCH  23  24
ATOM     24  C   UNL     1       5.974  43.045  50.002  1.00  0.00    -0.072 C 
ATOM     25  C   UNL     1       5.228  43.920  50.703  1.00  0.00    -0.028 C 
ATOM     26  C   UNL     1       5.621  41.570  49.970  1.00  0.00     0.031 C 
ATOM     27  C   UNL     1       4.032  43.535  51.528  1.00  0.00     0.027 C 
ATOM     28  C   UNL     1       4.218  41.254  50.493  1.00  0.00     0.005 C 
ATOM     29  C   UNL     1       3.920  42.031  51.768  1.00  0.00     0.004 C 
ENDBRANCH  23  24
ENDBRANCH  22  23
ENDBRANCH  20  22
ENDBRANCH   3  20
TORSDOF 6
ENDMDL
MODEL 5
REMARK VINA RESULT:    -9.278      1.936      4.566
REMARK INTER + INTRA:         -13.389
REMARK INTER:                 -11.713
REMARK INTRA:                  -1.676
REMARK UNBOUND:                -0.858
REMARK SMILES Clc1ccc(Nc2nc(NCCC3=CCCCC3)nc3[nH]cnc23)cc1
REMARK SMILES IDX 7 1 8 2 9 3 19 4 20 5 21 6 22 7 23 8 24 9 6 11 5 13 2 14
REMARK SMILES IDX 3 15 26 16 4 17 25 18 1 19 10 20 11 22 12 23 13 24 14 25
REMARK SMILES IDX 18 26 15 27 17 28 16 29
REMARK H PARENT 21 10 6 12 10 21
ROOT
ATOM      1  C   UNL     1       2.068  44.661  54.955  1.00  0.00     0.164 A 
ATOM      2  N   UNL     1       2.201  43.773  53.925  1.00  0.00    -0.193 NA
ATOM      3  C   UNL     1       1.121  43.174  53.384  1.00  0.00     0.226 A 
ATOM      4  N   UNL     1      -0.148  43.337  53.787  1.00  0.00    -0.193 NA
ATOM      5  C   UNL     1      -0.245  44.184  54.817  1.00  0.00     0.165 A 
ATOM      6  N   UNL     1      -1.394  44.539  55.461  1.00  0.00    -0.329 N 
ATOM      7  C   UNL     1      -1.053  45.399  56.465  1.00  0.00     0.199 A 
ATOM      8  N   UNL     1       0.244  45.621  56.494  1.00  0.00    -0.231 NA
ATOM      9  C   UNL     1       0.771  44.873  55.455  1.00  0.00     0.150 A 
ATOM     10  H   UNL     1      -2.318  44.205  55.232  1.00  0.00     0.169 HD
ENDROOT
BRANCH   1  11
ATOM     11  N   UNL     1       3.268  45.202  55.433  1.00  0.00    -0.338 N 
ATOM     12  H   UNL     1       3.434  44.853  56.370  1.00  0.00     0.168 HD
BRANCH  11  13
ATOM     13  C   UNL     1       4.395  45.760  54.817  1.00  0.00     0.040 A 
ATOM     14  C   UNL     1       6.554  46.959  53.460  1.00  0.00     0.041 A 
ATOM     15  C   UNL     1       6.728  45.742  54.109  1.00  0.00     0.022 A 
ATOM     16  C   UNL     1       5.314  47.586  53.473  1.00  0.00     0.022 A 
ATOM     17  C   UNL     1       5.651  45.148  54.779  1.00  0.00     0.027 A 
ATOM     18  C   UNL     1       4.244  46.985  54.145  1.00  0.00     0.027 A 
ATOM     19  Cl  UNL     1       7.875  47.690  52.636  1.00  0.00    -0.084 Cl
ENDBRANCH  11  13
ENDBRANCH   1  11
BRANCH   3  20
ATOM     20  N   UNL     1       1.282  42.298  52.316  1.00  0.00    -0.354 N 
ATOM     21  H   UNL     1       1.606  41.427  52.723  1.00  0.00     0.163 HD
BRANCH  20  22
ATOM     22  C   UNL     1       2.100  42.817  51.228  1.00  0.00     0.120 C 
BRANCH  22  23
ATOM     23  C   UNL     1       3.510  42.207  51.307  1.00  0.00     0.052 C 
BRANCH  23  24
ATOM     24  C   UNL     1       4.672  43.063  50.833  1.00  0.00    -0.072 C 
ATOM     25  C   UNL     1       5.735  42.609  50.141  1.00  0.00    -0.028 C 
ATOM     26  C   UNL     1       4.556  44.526  51.214  1.00  0.00     0.031 C 
ATOM     27  C   UNL     1       6.894  43.469  49.720  1.00  0.00     0.027 C 
ATOM     28  C   UNL     1       5.533  45.442  50.473  1.00  0.00     0.005 C 
ATOM     29  C   UNL     1       6.926  44.828  50.417  1.00  0.00     0.004 C 
ENDBRANCH  23  24
ENDBRANCH  22  23
ENDBRANCH  20  22
ENDBRANCH   3  20
TORSDOF 6
ENDMDL
MODEL 6
REMARK VINA RESULT:    -9.049      3.076      5.431
REMARK INTER + INTRA:         -13.080
REMARK INTER:                 -11.446
REMARK INTRA:                  -1.634
REMARK UNBOUND:                -0.858
REMARK SMILES Clc1ccc(Nc2nc(NCCC3=CCCCC3)nc3[nH]cnc23)cc1
REMARK SMILES IDX 7 1 8 2 9 3 19 4 20 5 21 6 22 7 23 8 24 9 6 11 5 13 2 14
REMARK SMILES IDX 3 15 26 16 4 17 25 18 1 19 10 20 11 22 12 23 13 24 14 25
REMARK SMILES IDX 18 26 15 27 17 28 16 29
REMARK H PARENT 21 10 6 12 10 21
ROOT
ATOM      1  C   UNL     1       5.000  42.632  50.725  1.00  0.00     0.164 A 
ATOM      2  N   UNL     1       6.215  43.170  50.409  1.00  0.00    -0.193 NA
ATOM      3  C   UNL     1       6.852  42.820  49.273  1.00  0.00     0.226 A 
ATOM      4  N   UNL     1       6.417  41.924  48.376  1.00  0.00    -0.193 NA
ATOM      5  C   UNL     1       5.243  41.388  48.727  1.00  0.00     0.165 A 
ATOM      6  N   UNL     1       4.554  40.436  48.035  1.00  0.00    -0.329 N 
ATOM      7  C   UNL     1       3.424  40.148  48.746  1.00  0.00     0.199 A 
ATOM      8  N   UNL     1       3.348  40.866  49.846  1.00  0.00    -0.231 NA
ATOM      9  C   UNL     1       4.479  41.664  49.847  1.00  0.00     0.150 A 
ATOM     10  H   UNL     1       4.848  40.021  47.163  1.00  0.00     0.169 HD
ENDROOT
BRANCH   1  11
ATOM     11  N   UNL     1       4.452  43.071  51.936  1.00  0.00    -0.338 N 
ATOM     12  H   UNL     1       4.284  42.266  52.529  1.00  0.00     0.168 HD
BRANCH  11  13
ATOM     13  C   UNL     1       4.444  44.298  52.612  1.00  0.00     0.040 A 
ATOM     14  C   UNL     1       4.431  46.847  53.813  1.00  0.00     0.041 A 
ATOM     15  C   UNL     1       5.046  45.777  54.453  1.00  0.00     0.022 A 
ATOM     16  C   UNL     1       3.826  46.664  52.576  1.00  0.00     0.022 A 
ATOM     17  C   UNL     1       5.054  44.513  53.851  1.00  0.00     0.027 A 
ATOM     18  C   UNL     1       3.838  45.397  51.982  1.00  0.00     0.027 A 
ATOM     19  Cl  UNL     1       4.421  48.400  54.551  1.00  0.00    -0.084 Cl
ENDBRANCH  11  13
ENDBRANCH   1  11
BRANCH   3  20
ATOM     20  N   UNL     1       8.074  43.407  48.961  1.00  0.00    -0.354 N 
ATOM     21  H   UNL     1       8.781  42.787  49.342  1.00  0.00     0.163 HD
BRANCH  20  22
ATOM     22  C   UNL     1       8.192  44.804  49.358  1.00  0.00     0.120 C 
BRANCH  22  23
ATOM     23  C   UNL     1       9.352  44.959  50.357  1.00  0.00     0.052 C 
BRANCH  23  24
ATOM     24  C   UNL     1       9.167  45.941  51.500  1.00  0.00    -0.072 C 
ATOM     25  C   UNL     1      10.123  46.293  52.380  1.00  0.00    -0.028 C 
ATOM     26  C   UNL     1       7.769  46.523  51.593  1.00  0.00     0.031 C 
ATOM     27  C   UNL     1       9.904  47.237  53.530  1.00  0.00     0.027 C 
ATOM     28  C   UNL     1       7.661  47.740  52.515  1.00  0.00     0.005 C 
ATOM     29  C   UNL     1       8.429  47.516  53.811  1.00  0.00     0.004 C 
ENDBRANCH  23  24
ENDBRANCH  22  23
ENDBRANCH  20  22
ENDBRANCH   3  20
TORSDOF 6
ENDMDL
MODEL 7
REMARK VINA RESULT:    -9.018      2.260      5.061
REMARK INTER + INTRA:         -13.039
REMARK INTER:                 -11.203
REMARK INTRA:                  -1.836
REMARK UNBOUND:                -0.858
REMARK SMILES Clc1ccc(Nc2nc(NCCC3=CCCCC3)nc3[nH]cnc23)cc1
REMARK SMILES IDX 7 1 8 2 9 3 19 4 20 5 21 6 22 7 23 8 24 9 6 11 5 13 2 14
REMARK SMILES IDX 3 15 26 16 4 17 25 18 1 19 10 20 11 22 12 23 13 24 14 25
REMARK SMILES IDX 18 26 15 27 17 28 16 29
REMARK H PARENT 21 10 6 12 10 21
ROOT
ATOM      1  C   UNL     1       1.924  44.978  55.631  1.00  0.00     0.164 A 
ATOM      2  N   UNL     1       1.433  44.220  54.606  1.00  0.00    -0.193 NA
ATOM      3  C   UNL     1       0.107  44.151  54.370  1.00  0.00     0.226 A 
ATOM      4  N   UNL     1      -0.848  44.754  55.092  1.00  0.00    -0.193 NA
ATOM      5  C   UNL     1      -0.342  45.461  56.108  1.00  0.00     0.165 A 
ATOM      6  N   UNL     1      -1.056  46.168  57.029  1.00  0.00    -0.329 N 
ATOM      7  C   UNL     1      -0.164  46.718  57.906  1.00  0.00     0.199 A 
ATOM      8  N   UNL     1       1.076  46.411  57.592  1.00  0.00    -0.231 NA
ATOM      9  C   UNL     1       0.987  45.628  56.454  1.00  0.00     0.150 A 
ATOM     10  H   UNL     1      -2.061  46.248  57.053  1.00  0.00     0.169 HD
ENDROOT
BRANCH   1  11
ATOM     11  N   UNL     1       3.316  44.954  55.774  1.00  0.00    -0.338 N 
ATOM     12  H   UNL     1       3.578  44.125  56.295  1.00  0.00     0.168 HD
BRANCH  11  13
ATOM     13  C   UNL     1       4.375  45.559  55.084  1.00  0.00     0.040 A 
ATOM     14  C   UNL     1       6.384  46.861  53.598  1.00  0.00     0.041 A 
ATOM     15  C   UNL     1       6.608  45.587  54.106  1.00  0.00     0.022 A 
ATOM     16  C   UNL     1       5.167  47.495  53.817  1.00  0.00     0.022 A 
ATOM     17  C   UNL     1       5.605  44.941  54.840  1.00  0.00     0.027 A 
ATOM     18  C   UNL     1       4.171  46.843  54.552  1.00  0.00     0.027 A 
ATOM     19  Cl  UNL     1       7.614  47.655  52.695  1.00  0.00    -0.084 Cl
ENDBRANCH  11  13
ENDBRANCH   1  11
BRANCH   3  20
ATOM     20  N   UNL     1      -0.363  43.396  53.300  1.00  0.00    -0.354 N 
ATOM     21  H   UNL     1      -1.171  42.895  53.653  1.00  0.00     0.163 HD
BRANCH  20  22
ATOM     22  C   UNL     1       0.648  42.570  52.653  1.00  0.00     0.120 C 
BRANCH  22  23
ATOM     23  C   UNL     1       1.029  43.189  51.298  1.00  0.00     0.052 C 
BRANCH  23  24
ATOM     24  C   UNL     1       2.348  43.938  51.215  1.00  0.00    -0.072 C 
ATOM     25  C   UNL     1       2.473  45.275  51.116  1.00  0.00    -0.028 C 
ATOM     26  C   UNL     1       3.570  43.041  51.247  1.00  0.00     0.031 C 
ATOM     27  C   UNL     1       3.790  45.991  50.993  1.00  0.00     0.027 C 
ATOM     28  C   UNL     1       4.884  43.786  51.494  1.00  0.00     0.005 C 
ATOM     29  C   UNL     1       4.956  45.061  50.665  1.00  0.00     0.004 C 
ENDBRANCH  23  24
ENDBRANCH  22  23
ENDBRANCH  20  22
ENDBRANCH   3  20
TORSDOF 6
ENDMDL
MODEL 8
REMARK VINA RESULT:    -8.989      2.358      5.650
REMARK INTER + INTRA:         -13.000
REMARK INTER:                 -11.794
REMARK INTRA:                  -1.206
REMARK UNBOUND:                -0.858
REMARK SMILES Clc1ccc(Nc2nc(NCCC3=CCCCC3)nc3[nH]cnc23)cc1
REMARK SMILES IDX 7 1 8 2 9 3 19 4 20 5 21 6 22 7 23 8 24 9 6 11 5 13 2 14
REMARK SMILES IDX 3 15 26 16 4 17 25 18 1 19 10 20 11 22 12 23 13 24 14 25
REMARK SMILES IDX 18 26 15 27 17 28 16 29
REMARK H PARENT 21 10 6 12 10 21
ROOT
ATOM      1  C   UNL     1       5.523  43.909  50.789  1.00  0.00     0.164 A 
ATOM      2  N   UNL     1       4.584  43.700  51.760  1.00  0.00    -0.193 NA
ATOM      3  C   UNL     1       3.870  42.557  51.797  1.00  0.00     0.226 A 
ATOM      4  N   UNL     1       3.959  41.550  50.917  1.00  0.00    -0.193 NA
ATOM      5  C   UNL     1       4.861  41.795  49.960  1.00  0.00     0.165 A 
ATOM      6  N   UNL     1       5.165  40.975  48.913  1.00  0.00    -0.329 N 
ATOM      7  C   UNL     1       6.112  41.607  48.158  1.00  0.00     0.199 A 
ATOM      8  N   UNL     1       6.435  42.777  48.667  1.00  0.00    -0.231 NA
ATOM      9  C   UNL     1       5.666  42.909  49.810  1.00  0.00     0.150 A 
ATOM     10  H   UNL     1       4.747  40.074  48.736  1.00  0.00     0.169 HD
ENDROOT
BRANCH   1  11
ATOM     11  N   UNL     1       6.185  45.140  50.857  1.00  0.00    -0.338 N 
ATOM     12  H   UNL     1       5.611  45.845  50.409  1.00  0.00     0.168 HD
BRANCH  11  13
ATOM     13  C   UNL     1       7.197  45.656  51.677  1.00  0.00     0.040 A 
ATOM     14  C   UNL     1       9.106  46.760  53.431  1.00  0.00     0.041 A 
ATOM     15  C   UNL     1       9.388  46.647  52.075  1.00  0.00     0.022 A 
ATOM     16  C   UNL     1       7.879  46.334  53.926  1.00  0.00     0.022 A 
ATOM     17  C   UNL     1       8.435  46.102  51.206  1.00  0.00     0.027 A 
ATOM     18  C   UNL     1       6.933  45.790  53.050  1.00  0.00     0.027 A 
ATOM     19  Cl  UNL     1      10.275  47.430  54.500  1.00  0.00    -0.084 Cl
ENDBRANCH  11  13
ENDBRANCH   1  11
BRANCH   3  20
ATOM     20  N   UNL     1       2.943  42.358  52.815  1.00  0.00    -0.354 N 
ATOM     21  H   UNL     1       2.864  41.352  52.920  1.00  0.00     0.163 HD
BRANCH  20  22
ATOM     22  C   UNL     1       1.682  43.064  52.629  1.00  0.00     0.120 C 
BRANCH  22  23
ATOM     23  C   UNL     1       1.471  44.054  53.787  1.00  0.00     0.052 C 
BRANCH  23  24
ATOM     24  C   UNL     1       2.470  45.189  53.930  1.00  0.00    -0.072 C 
ATOM     25  C   UNL     1       3.362  45.313  54.931  1.00  0.00    -0.028 C 
ATOM     26  C   UNL     1       2.390  46.225  52.825  1.00  0.00     0.031 C 
ATOM     27  C   UNL     1       4.313  46.468  55.074  1.00  0.00     0.027 C 
ATOM     28  C   UNL     1       3.587  47.177  52.776  1.00  0.00     0.005 C 
ATOM     29  C   UNL     1       3.968  47.652  54.172  1.00  0.00     0.004 C 
ENDBRANCH  23  24
ENDBRANCH  22  23
ENDBRANCH  20  22
ENDBRANCH   3  20
TORSDOF 6
ENDMDL
MODEL 9
REMARK VINA RESULT:    -8.875      1.346      1.730
REMARK INTER + INTRA:         -12.846
REMARK INTER:                 -11.785
REMARK INTRA:                  -1.061
REMARK UNBOUND:                -0.858
REMARK SMILES Clc1ccc(Nc2nc(NCCC3=CCCCC3)nc3[nH]cnc23)cc1
REMARK SMILES IDX 7 1 8 2 9 3 19 4 20 5 21 6 22 7 23 8 24 9 6 11 5 13 2 14
REMARK SMILES IDX 3 15 26 16 4 17 25 18 1 19 10 20 11 22 12 23 13 24 14 25
REMARK SMILES IDX 18 26 15 27 17 28 16 29
REMARK H PARENT 21 10 6 12 10 21
ROOT
ATOM      1  C   UNL     1       3.042  43.719  53.070  1.00  0.00     0.164 A 
ATOM      2  N   UNL     1       3.793  44.541  53.862  1.00  0.00    -0.193 NA
ATOM      3  C   UNL     1       3.256  45.646  54.418  1.00  0.00     0.226 A 
ATOM      4  N   UNL     1       1.997  46.075  54.246  1.00  0.00    -0.193 NA
ATOM      5  C   UNL     1       1.296  45.271  53.441  1.00  0.00     0.165 A 
ATOM      6  N   UNL     1      -0.001  45.448  53.059  1.00  0.00    -0.329 N 
ATOM      7  C   UNL     1      -0.326  44.423  52.217  1.00  0.00     0.199 A 
ATOM      8  N   UNL     1       0.685  43.597  52.047  1.00  0.00    -0.231 NA
ATOM      9  C   UNL     1       1.714  44.108  52.820  1.00  0.00     0.150 A 
ATOM     10  H   UNL     1      -0.595  46.212  53.345  1.00  0.00     0.169 HD
ENDROOT
BRANCH   1  11
ATOM     11  N   UNL     1       3.723  42.613  52.547  1.00  0.00    -0.338 N 
ATOM     12  H   UNL     1       3.506  41.799  53.111  1.00  0.00     0.168 HD
BRANCH  11  13
ATOM     13  C   UNL     1       4.280  42.317  51.296  1.00  0.00     0.040 A 
ATOM     14  C   UNL     1       5.440  41.893  48.764  1.00  0.00     0.041 A 
ATOM     15  C   UNL     1       4.382  41.097  49.189  1.00  0.00     0.022 A 
ATOM     16  C   UNL     1       5.925  42.904  49.584  1.00  0.00     0.022 A 
ATOM     17  C   UNL     1       3.806  41.314  50.446  1.00  0.00     0.027 A 
ATOM     18  C   UNL     1       5.343  43.113  50.839  1.00  0.00     0.027 A 
ATOM     19  Cl  UNL     1       6.148  41.629  47.219  1.00  0.00    -0.084 Cl
ENDBRANCH  11  13
ENDBRANCH   1  11
BRANCH   3  20
ATOM     20  N   UNL     1       4.035  46.449  55.245  1.00  0.00    -0.354 N 
ATOM     21  H   UNL     1       3.379  47.025  55.763  1.00  0.00     0.163 HD
BRANCH  20  22
ATOM     22  C   UNL     1       5.094  47.176  54.558  1.00  0.00     0.120 C 
BRANCH  22  23
ATOM     23  C   UNL     1       6.430  46.437  54.744  1.00  0.00     0.052 C 
BRANCH  23  24
ATOM     24  C   UNL     1       7.398  46.429  53.573  1.00  0.00    -0.072 C 
ATOM     25  C   UNL     1       7.076  46.105  52.307  1.00  0.00    -0.028 C 
ATOM     26  C   UNL     1       8.815  46.823  53.942  1.00  0.00     0.031 C 
ATOM     27  C   UNL     1       8.062  46.064  51.172  1.00  0.00     0.027 C 
ATOM     28  C   UNL     1       9.707  47.136  52.738  1.00  0.00     0.005 C 
ATOM     29  C   UNL     1       9.517  46.106  51.632  1.00  0.00     0.004 C 
ENDBRANCH  23  24
ENDBRANCH  22  23
ENDBRANCH  20  22
ENDBRANCH   3  20
TORSDOF 6
ENDMDL
MODEL 10
REMARK VINA RESULT:    -8.821      1.607      4.635
REMARK INTER + INTRA:         -12.772
REMARK INTER:                 -11.740
REMARK INTRA:                  -1.032
REMARK UNBOUND:                -0.858
REMARK SMILES Clc1ccc(Nc2nc(NCCC3=CCCCC3)nc3[nH]cnc23)cc1
REMARK SMILES IDX 7 1 8 2 9 3 19 4 20 5 21 6 22 7 23 8 24 9 6 11 5 13 2 14
REMARK SMILES IDX 3 15 26 16 4 17 25 18 1 19 10 20 11 22 12 23 13 24 14 25
REMARK SMILES IDX 18 26 15 27 17 28 16 29
REMARK H PARENT 21 10 6 12 10 21
ROOT
ATOM      1  C   UNL     1       2.960  46.108  53.773  1.00  0.00     0.164 A 
ATOM      2  N   UNL     1       2.833  45.567  52.525  1.00  0.00    -0.193 NA
ATOM      3  C   UNL     1       1.840  44.699  52.244  1.00  0.00     0.226 A 
ATOM      4  N   UNL     1       0.923  44.253  53.114  1.00  0.00    -0.193 NA
ATOM      5  C   UNL     1       1.090  44.772  54.335  1.00  0.00     0.165 A 
ATOM      6  N   UNL     1       0.333  44.498  55.436  1.00  0.00    -0.329 N 
ATOM      7  C   UNL     1       0.852  45.211  56.479  1.00  0.00     0.199 A 
ATOM      8  N   UNL     1       1.889  45.930  56.106  1.00  0.00    -0.231 NA
ATOM      9  C   UNL     1       2.049  45.676  54.754  1.00  0.00     0.150 A 
ATOM     10  H   UNL     1      -0.456  43.870  55.460  1.00  0.00     0.169 HD
ENDROOT
BRANCH   1  11
ATOM     11  N   UNL     1       4.038  46.985  53.934  1.00  0.00    -0.338 N 
ATOM     12  H   UNL     1       3.781  47.700  54.606  1.00  0.00     0.168 HD
BRANCH  11  13
ATOM     13  C   UNL     1       5.415  46.888  53.694  1.00  0.00     0.040 A 
ATOM     14  C   UNL     1       8.146  46.656  53.042  1.00  0.00     0.041 A 
ATOM     15  C   UNL     1       7.702  46.318  54.315  1.00  0.00     0.022 A 
ATOM     16  C   UNL     1       7.244  47.104  52.085  1.00  0.00     0.022 A 
ATOM     17  C   UNL     1       6.343  46.431  54.634  1.00  0.00     0.027 A 
ATOM     18  C   UNL     1       5.888  47.214  52.413  1.00  0.00     0.027 A 
ATOM     19  Cl  UNL     1       9.815  46.517  52.649  1.00  0.00    -0.084 Cl
ENDBRANCH  11  13
ENDBRANCH   1  11
BRANCH   3  20
ATOM     20  N   UNL     1       1.717  44.188  50.957  1.00  0.00    -0.354 N 
ATOM     21  H   UNL     1       0.780  44.433  50.654  1.00  0.00     0.163 HD
BRANCH  20  22
ATOM     22  C   UNL     1       2.061  42.778  50.831  1.00  0.00     0.120 C 
BRANCH  22  23
ATOM     23  C   UNL     1       3.336  42.484  51.640  1.00  0.00     0.052 C 
BRANCH  23  24
ATOM     24  C   UNL     1       4.670  42.675  50.941  1.00  0.00    -0.072 C 
ATOM     25  C   UNL     1       5.365  43.828  50.901  1.00  0.00    -0.028 C 
ATOM     26  C   UNL     1       5.191  41.427  50.254  1.00  0.00     0.031 C 
ATOM     27  C   UNL     1       6.665  44.003  50.166  1.00  0.00     0.027 C 
ATOM     28  C   UNL     1       6.661  41.512  49.838  1.00  0.00     0.005 C 
ATOM     29  C   UNL     1       6.974  42.860  49.201  1.00  0.00     0.004 C 
ENDBRANCH  23  24
ENDBRANCH  22  23
ENDBRANCH  20  22
ENDBRANCH   3  20
TORSDOF 6
ENDMDL
MODEL 11
REMARK VINA RESULT:    -8.774      2.527      6.118
REMARK INTER + INTRA:         -12.709
REMARK INTER:                 -11.669
REMARK INTRA:                  -1.040
REMARK UNBOUND:                -0.858
REMARK SMILES Clc1ccc(Nc2nc(NCCC3=CCCCC3)nc3[nH]cnc23)cc1
REMARK SMILES IDX 7 1 8 2 9 3 19 4 20 5 21 6 22 7 23 8 24 9 6 11 5 13 2 14
REMARK SMILES IDX 3 15 26 16 4 17 25 18 1 19 10 20 11 22 12 23 13 24 14 25
REMARK SMILES IDX 18 26 15 27 17 28 16 29
REMARK H PARENT 21 10 6 12 10 21
ROOT
ATOM      1  C   UNL     1       6.921  45.978  52.314  1.00  0.00     0.164 A 
ATOM      2  N   UNL     1       5.779  46.130  53.048  1.00  0.00    -0.193 NA
ATOM      3  C   UNL     1       5.802  46.762  54.240  1.00  0.00     0.226 A 
ATOM      4  N   UNL     1       6.892  47.262  54.839  1.00  0.00    -0.193 NA
ATOM      5  C   UNL     1       7.999  47.070  54.115  1.00  0.00     0.165 A 
ATOM      6  N   UNL     1       9.263  47.445  54.463  1.00  0.00    -0.329 N 
ATOM      7  C   UNL     1      10.102  47.041  53.464  1.00  0.00     0.199 A 
ATOM      8  N   UNL     1       9.446  46.438  52.496  1.00  0.00    -0.231 NA
ATOM      9  C   UNL     1       8.117  46.456  52.881  1.00  0.00     0.150 A 
ATOM     10  H   UNL     1       9.517  47.923  55.315  1.00  0.00     0.169 HD
ENDROOT
BRANCH   1  11
ATOM     11  N   UNL     1       6.763  45.295  51.102  1.00  0.00    -0.338 N 
ATOM     12  H   UNL     1       7.537  45.530  50.491  1.00  0.00     0.168 HD
BRANCH  11  13
ATOM     13  C   UNL     1       6.048  44.154  50.716  1.00  0.00     0.040 A 
ATOM     14  C   UNL     1       4.550  41.848  50.105  1.00  0.00     0.041 A 
ATOM     15  C   UNL     1       5.738  42.106  49.432  1.00  0.00     0.022 A 
ATOM     16  C   UNL     1       4.099  42.723  51.086  1.00  0.00     0.022 A 
ATOM     17  C   UNL     1       6.482  43.251  49.741  1.00  0.00     0.027 A 
ATOM     18  C   UNL     1       4.849  43.865  51.388  1.00  0.00     0.027 A 
ATOM     19  Cl  UNL     1       3.635  40.441  49.727  1.00  0.00    -0.084 Cl
ENDBRANCH  11  13
ENDBRANCH   1  11
BRANCH   3  20
ATOM     20  N   UNL     1       4.619  46.929  54.952  1.00  0.00    -0.354 N 
ATOM     21  H   UNL     1       4.816  47.644  55.645  1.00  0.00     0.163 HD
BRANCH  20  22
ATOM     22  C   UNL     1       4.049  45.695  55.476  1.00  0.00     0.120 C 
BRANCH  22  23
ATOM     23  C   UNL     1       2.520  45.725  55.315  1.00  0.00     0.052 C 
BRANCH  23  24
ATOM     24  C   UNL     1       1.938  45.175  54.025  1.00  0.00    -0.072 C 
ATOM     25  C   UNL     1       2.005  45.783  52.825  1.00  0.00    -0.028 C 
ATOM     26  C   UNL     1       1.241  43.838  54.183  1.00  0.00     0.031 C 
ATOM     27  C   UNL     1       1.385  45.238  51.569  1.00  0.00     0.027 C 
ATOM     28  C   UNL     1       0.948  43.127  52.859  1.00  0.00     0.005 C 
ATOM     29  C   UNL     1       0.398  44.100  51.825  1.00  0.00     0.004 C 
ENDBRANCH  23  24
ENDBRANCH  22  23
ENDBRANCH  20  22
ENDBRANCH   3  20
TORSDOF 6
ENDMDL
MODEL 12
REMARK VINA RESULT:    -8.762      2.515      6.325
REMARK INTER + INTRA:         -12.694
REMARK INTER:                 -11.762
REMARK INTRA:                  -0.932
REMARK UNBOUND:                -0.858
REMARK SMILES Clc1ccc(Nc2nc(NCCC3=CCCCC3)nc3[nH]cnc23)cc1
REMARK SMILES IDX 7 1 8 2 9 3 19 4 20 5 21 6 22 7 23 8 24 9 6 11 5 13 2 14
REMARK SMILES IDX 3 15 26 16 4 17 25 18 1 19 10 20 11 22 12 23 13 24 14 25
REMARK SMILES IDX 18 26 15 27 17 28 16 29
REMARK H PARENT 21 10 6 12 10 21
ROOT
ATOM      1  C   UNL     1       6.929  45.998  52.371  1.00  0.00     0.164 A 
ATOM      2  N   UNL     1       5.774  46.156  53.084  1.00  0.00    -0.193 NA
ATOM      3  C   UNL     1       5.777  46.788  54.276  1.00  0.00     0.226 A 
ATOM      4  N   UNL     1       6.858  47.284  54.895  1.00  0.00    -0.193 NA
ATOM      5  C   UNL     1       7.978  47.086  54.192  1.00  0.00     0.165 A 
ATOM      6  N   UNL     1       9.237  47.455  54.564  1.00  0.00    -0.329 N 
ATOM      7  C   UNL     1      10.093  47.046  53.581  1.00  0.00     0.199 A 
ATOM      8  N   UNL     1       9.452  46.446  52.601  1.00  0.00    -0.231 NA
ATOM      9  C   UNL     1       8.116  46.471  52.961  1.00  0.00     0.150 A 
ATOM     10  H   UNL     1       9.477  47.932  55.420  1.00  0.00     0.169 HD
ENDROOT
BRANCH   1  11
ATOM     11  N   UNL     1       6.790  45.315  51.158  1.00  0.00    -0.338 N 
ATOM     12  H   UNL     1       7.580  45.540  50.564  1.00  0.00     0.168 HD
BRANCH  11  13
ATOM     13  C   UNL     1       6.070  44.183  50.756  1.00  0.00     0.040 A 
ATOM     14  C   UNL     1       4.562  41.890  50.116  1.00  0.00     0.041 A 
ATOM     15  C   UNL     1       5.752  42.152  49.446  1.00  0.00     0.022 A 
ATOM     16  C   UNL     1       4.115  42.756  51.107  1.00  0.00     0.022 A 
ATOM     17  C   UNL     1       6.500  43.290  49.771  1.00  0.00     0.027 A 
ATOM     18  C   UNL     1       4.869  43.890  51.424  1.00  0.00     0.027 A 
ATOM     19  Cl  UNL     1       3.641  40.493  49.720  1.00  0.00    -0.084 Cl
ENDBRANCH  11  13
ENDBRANCH   1  11
BRANCH   3  20
ATOM     20  N   UNL     1       4.582  46.963  54.965  1.00  0.00    -0.354 N 
ATOM     21  H   UNL     1       4.846  47.255  55.901  1.00  0.00     0.163 HD
BRANCH  20  22
ATOM     22  C   UNL     1       3.677  45.823  54.902  1.00  0.00     0.120 C 
BRANCH  22  23
ATOM     23  C   UNL     1       2.530  46.130  53.923  1.00  0.00     0.052 C 
BRANCH  23  24
ATOM     24  C   UNL     1       1.752  44.952  53.363  1.00  0.00    -0.072 C 
ATOM     25  C   UNL     1       1.453  43.829  54.042  1.00  0.00    -0.028 C 
ATOM     26  C   UNL     1       1.318  45.130  51.920  1.00  0.00     0.031 C 
ATOM     27  C   UNL     1       0.717  42.658  53.451  1.00  0.00     0.027 C 
ATOM     28  C   UNL     1       0.269  44.117  51.456  1.00  0.00     0.005 C 
ATOM     29  C   UNL     1       0.617  42.712  51.928  1.00  0.00     0.004 C 
ENDBRANCH  23  24
ENDBRANCH  22  23
ENDBRANCH  20  22
ENDBRANCH   3  20
TORSDOF 6
ENDMDL
MODEL 13
REMARK VINA RESULT:    -8.743      3.222      5.767
REMARK INTER + INTRA:         -12.668
REMARK INTER:                 -11.791
REMARK INTRA:                  -0.877
REMARK UNBOUND:                -0.858
REMARK SMILES Clc1ccc(Nc2nc(NCCC3=CCCCC3)nc3[nH]cnc23)cc1
REMARK SMILES IDX 7 1 8 2 9 3 19 4 20 5 21 6 22 7 23 8 24 9 6 11 5 13 2 14
REMARK SMILES IDX 3 15 26 16 4 17 25 18 1 19 10 20 11 22 12 23 13 24 14 25
REMARK SMILES IDX 18 26 15 27 17 28 16 29
REMARK H PARENT 21 10 6 12 10 21
ROOT
ATOM      1  C   UNL     1       4.801  41.776  50.147  1.00  0.00     0.164 A 
ATOM      2  N   UNL     1       5.927  42.526  49.959  1.00  0.00    -0.193 NA
ATOM      3  C   UNL     1       6.512  42.602  48.746  1.00  0.00     0.226 A 
ATOM      4  N   UNL     1       6.108  41.961  47.641  1.00  0.00    -0.193 NA
ATOM      5  C   UNL     1       5.025  41.208  47.861  1.00  0.00     0.165 A 
ATOM      6  N   UNL     1       4.391  40.424  46.944  1.00  0.00    -0.329 N 
ATOM      7  C   UNL     1       3.352  39.806  47.580  1.00  0.00     0.199 A 
ATOM      8  N   UNL     1       3.282  40.157  48.846  1.00  0.00    -0.231 NA
ATOM      9  C   UNL     1       4.321  41.050  49.041  1.00  0.00     0.150 A 
ATOM     10  H   UNL     1       4.661  40.319  45.978  1.00  0.00     0.169 HD
ENDROOT
BRANCH   1  11
ATOM     11  N   UNL     1       4.300  41.772  51.454  1.00  0.00    -0.338 N 
ATOM     12  H   UNL     1       4.806  41.081  51.996  1.00  0.00     0.168 HD
BRANCH  11  13
ATOM     13  C   UNL     1       3.586  42.699  52.225  1.00  0.00     0.040 A 
ATOM     14  C   UNL     1       2.299  44.594  53.866  1.00  0.00     0.041 A 
ATOM     15  C   UNL     1       1.584  43.522  53.345  1.00  0.00     0.022 A 
ATOM     16  C   UNL     1       3.653  44.732  53.583  1.00  0.00     0.022 A 
ATOM     17  C   UNL     1       2.228  42.580  52.534  1.00  0.00     0.027 A 
ATOM     18  C   UNL     1       4.288  43.787  52.771  1.00  0.00     0.027 A 
ATOM     19  Cl  UNL     1       1.510  45.751  54.864  1.00  0.00    -0.084 Cl
ENDBRANCH  11  13
ENDBRANCH   1  11
BRANCH   3  20
ATOM     20  N   UNL     1       7.640  43.398  48.576  1.00  0.00    -0.354 N 
ATOM     21  H   UNL     1       8.285  42.844  48.021  1.00  0.00     0.163 HD
BRANCH  20  22
ATOM     22  C   UNL     1       8.190  43.939  49.812  1.00  0.00     0.120 C 
BRANCH  22  23
ATOM     23  C   UNL     1       7.692  45.381  50.009  1.00  0.00     0.052 C 
BRANCH  23  24
ATOM     24  C   UNL     1       8.015  46.061  51.328  1.00  0.00    -0.072 C 
ATOM     25  C   UNL     1       7.118  46.355  52.288  1.00  0.00    -0.028 C 
ATOM     26  C   UNL     1       9.481  46.410  51.499  1.00  0.00     0.031 C 
ATOM     27  C   UNL     1       7.456  47.066  53.568  1.00  0.00     0.027 C 
ATOM     28  C   UNL     1       9.869  46.786  52.931  1.00  0.00     0.005 C 
ATOM     29  C   UNL     1       8.838  47.717  53.552  1.00  0.00     0.004 C 
ENDBRANCH  23  24
ENDBRANCH  22  23
ENDBRANCH  20  22
ENDBRANCH   3  20
TORSDOF 6
ENDMDL
MODEL 14
REMARK VINA RESULT:    -8.699      3.350      7.023
REMARK INTER + INTRA:         -12.608
REMARK INTER:                 -11.906
REMARK INTRA:                  -0.702
REMARK UNBOUND:                -0.858
REMARK SMILES Clc1ccc(Nc2nc(NCCC3=CCCCC3)nc3[nH]cnc23)cc1
REMARK SMILES IDX 7 1 8 2 9 3 19 4 20 5 21 6 22 7 23 8 24 9 6 11 5 13 2 14
REMARK SMILES IDX 3 15 26 16 4 17 25 18 1 19 10 20 11 22 12 23 13 24 14 25
REMARK SMILES IDX 18 26 15 27 17 28 16 29
REMARK H PARENT 21 10 6 12 10 21
ROOT
ATOM      1  C   UNL     1       5.582  45.103  51.163  1.00  0.00     0.164 A 
ATOM      2  N   UNL     1       5.786  43.776  50.911  1.00  0.00    -0.193 NA
ATOM      3  C   UNL     1       4.757  42.904  50.915  1.00  0.00     0.226 A 
ATOM      4  N   UNL     1       3.479  43.204  51.187  1.00  0.00    -0.193 NA
ATOM      5  C   UNL     1       3.313  44.502  51.462  1.00  0.00     0.165 A 
ATOM      6  N   UNL     1       2.138  45.110  51.796  1.00  0.00    -0.329 N 
ATOM      7  C   UNL     1       2.408  46.429  52.023  1.00  0.00     0.199 A 
ATOM      8  N   UNL     1       3.684  46.700  51.846  1.00  0.00    -0.231 NA
ATOM      9  C   UNL     1       4.270  45.501  51.480  1.00  0.00     0.150 A 
ATOM     10  H   UNL     1       1.244  44.650  51.870  1.00  0.00     0.169 HD
ENDROOT
BRANCH   1  11
ATOM     11  N   UNL     1       6.734  45.897  51.140  1.00  0.00    -0.338 N 
ATOM     12  H   UNL     1       6.677  46.533  50.352  1.00  0.00     0.168 HD
BRANCH  11  13
ATOM     13  C   UNL     1       7.689  46.253  52.100  1.00  0.00     0.040 A 
ATOM     14  C   UNL     1       9.486  47.067  54.112  1.00  0.00     0.041 A 
ATOM     15  C   UNL     1       9.951  46.796  52.830  1.00  0.00     0.022 A 
ATOM     16  C   UNL     1       8.133  46.942  54.405  1.00  0.00     0.022 A 
ATOM     17  C   UNL     1       9.054  46.396  51.832  1.00  0.00     0.027 A 
ATOM     18  C   UNL     1       7.245  46.542  53.401  1.00  0.00     0.027 A 
ATOM     19  Cl  UNL     1      10.586  47.559  55.340  1.00  0.00    -0.084 Cl
ENDBRANCH  11  13
ENDBRANCH   1  11
BRANCH   3  20
ATOM     20  N   UNL     1       4.989  41.564  50.625  1.00  0.00    -0.354 N 
ATOM     21  H   UNL     1       5.645  41.241  51.328  1.00  0.00     0.163 HD
BRANCH  20  22
ATOM     22  C   UNL     1       5.379  41.304  49.245  1.00  0.00     0.120 C 
BRANCH  22  23
ATOM     23  C   UNL     1       4.172  40.761  48.462  1.00  0.00     0.052 C 
BRANCH  23  24
ATOM     24  C   UNL     1       4.245  40.798  46.946  1.00  0.00    -0.072 C 
ATOM     25  C   UNL     1       3.422  40.130  46.115  1.00  0.00    -0.028 C 
ATOM     26  C   UNL     1       5.360  41.672  46.403  1.00  0.00     0.031 C 
ATOM     27  C   UNL     1       3.541  40.150  44.616  1.00  0.00     0.027 C 
ATOM     28  C   UNL     1       5.240  41.977  44.908  1.00  0.00     0.005 C 
ATOM     29  C   UNL     1       4.865  40.728  44.121  1.00  0.00     0.004 C 
ENDBRANCH  23  24
ENDBRANCH  22  23
ENDBRANCH  20  22
ENDBRANCH   3  20
TORSDOF 6
ENDMDL
MODEL 15
REMARK VINA RESULT:    -8.612      1.426      2.487
REMARK INTER + INTRA:         -12.491
REMARK INTER:                 -11.127
REMARK INTRA:                  -1.364
REMARK UNBOUND:                -0.858
REMARK SMILES Clc1ccc(Nc2nc(NCCC3=CCCCC3)nc3[nH]cnc23)cc1
REMARK SMILES IDX 7 1 8 2 9 3 19 4 20 5 21 6 22 7 23 8 24 9 6 11 5 13 2 14
REMARK SMILES IDX 3 15 26 16 4 17 25 18 1 19 10 20 11 22 12 23 13 24 14 25
REMARK SMILES IDX 18 26 15 27 17 28 16 29
REMARK H PARENT 21 10 6 12 10 21
ROOT
ATOM      1  C   UNL     1       2.066  42.868  52.247  1.00  0.00     0.164 A 
ATOM      2  N   UNL     1       2.481  43.347  53.457  1.00  0.00    -0.193 NA
ATOM      3  C   UNL     1       1.658  44.087  54.228  1.00  0.00     0.226 A 
ATOM      4  N   UNL     1       0.409  44.456  53.909  1.00  0.00    -0.193 NA
ATOM      5  C   UNL     1       0.041  44.001  52.707  1.00  0.00     0.165 A 
ATOM      6  N   UNL     1      -1.158  44.224  52.097  1.00  0.00    -0.329 N 
ATOM      7  C   UNL     1      -1.118  43.611  50.877  1.00  0.00     0.199 A 
ATOM      8  N   UNL     1       0.032  43.003  50.678  1.00  0.00    -0.231 NA
ATOM      9  C   UNL     1       0.773  43.227  51.825  1.00  0.00     0.150 A 
ATOM     10  H   UNL     1      -1.921  44.759  52.484  1.00  0.00     0.169 HD
ENDROOT
BRANCH   1  11
ATOM     11  N   UNL     1       3.020  42.125  51.542  1.00  0.00    -0.338 N 
ATOM     12  H   UNL     1       2.577  41.292  51.172  1.00  0.00     0.168 HD
BRANCH  11  13
ATOM     13  C   UNL     1       4.251  42.436  50.950  1.00  0.00     0.040 A 
ATOM     14  C   UNL     1       6.661  43.222  49.722  1.00  0.00     0.041 A 
ATOM     15  C   UNL     1       6.263  41.890  49.688  1.00  0.00     0.022 A 
ATOM     16  C   UNL     1       5.869  44.171  50.357  1.00  0.00     0.022 A 
ATOM     17  C   UNL     1       5.062  41.505  50.296  1.00  0.00     0.027 A 
ATOM     18  C   UNL     1       4.671  43.776  50.962  1.00  0.00     0.027 A 
ATOM     19  Cl  UNL     1       8.136  43.697  48.974  1.00  0.00    -0.084 Cl
ENDBRANCH  11  13
ENDBRANCH   1  11
BRANCH   3  20
ATOM     20  N   UNL     1       2.097  44.536  55.469  1.00  0.00    -0.354 N 
ATOM     21  H   UNL     1       1.264  44.611  56.044  1.00  0.00     0.163 HD
BRANCH  20  22
ATOM     22  C   UNL     1       2.927  45.733  55.420  1.00  0.00     0.120 C 
BRANCH  22  23
ATOM     23  C   UNL     1       4.409  45.337  55.545  1.00  0.00     0.052 C 
BRANCH  23  24
ATOM     24  C   UNL     1       5.370  45.880  54.501  1.00  0.00    -0.072 C 
ATOM     25  C   UNL     1       6.560  45.333  54.187  1.00  0.00    -0.028 C 
ATOM     26  C   UNL     1       4.883  47.138  53.809  1.00  0.00     0.031 C 
ATOM     27  C   UNL     1       7.514  45.913  53.180  1.00  0.00     0.027 C 
ATOM     28  C   UNL     1       5.672  47.500  52.548  1.00  0.00     0.005 C 
ATOM     29  C   UNL     1       7.170  47.345  52.775  1.00  0.00     0.004 C 
ENDBRANCH  23  24
ENDBRANCH  22  23
ENDBRANCH  20  22
ENDBRANCH   3  20
TORSDOF 6
ENDMDL
MODEL 16
REMARK VINA RESULT:    -8.596      3.078      5.343
REMARK INTER + INTRA:         -12.469
REMARK INTER:                 -11.660
REMARK INTRA:                  -0.809
REMARK UNBOUND:                -0.858
REMARK SMILES Clc1ccc(Nc2nc(NCCC3=CCCCC3)nc3[nH]cnc23)cc1
REMARK SMILES IDX 7 1 8 2 9 3 19 4 20 5 21 6 22 7 23 8 24 9 6 11 5 13 2 14
REMARK SMILES IDX 3 15 26 16 4 17 25 18 1 19 10 20 11 22 12 23 13 24 14 25
REMARK SMILES IDX 18 26 15 27 17 28 16 29
REMARK H PARENT 21 10 6 12 10 21
ROOT
ATOM      1  C   UNL     1       3.649  42.991  51.297  1.00  0.00     0.164 A 
ATOM      2  N   UNL     1       3.680  44.307  51.665  1.00  0.00    -0.193 NA
ATOM      3  C   UNL     1       4.726  45.092  51.338  1.00  0.00     0.226 A 
ATOM      4  N   UNL     1       5.823  44.698  50.676  1.00  0.00    -0.193 NA
ATOM      5  C   UNL     1       5.781  43.400  50.357  1.00  0.00     0.165 A 
ATOM      6  N   UNL     1       6.753  42.701  49.703  1.00  0.00    -0.329 N 
ATOM      7  C   UNL     1       6.329  41.406  49.603  1.00  0.00     0.199 A 
ATOM      8  N   UNL     1       5.142  41.241  50.146  1.00  0.00    -0.231 NA
ATOM      9  C   UNL     1       4.774  42.489  50.617  1.00  0.00     0.150 A 
ATOM     10  H   UNL     1       7.626  43.084  49.373  1.00  0.00     0.169 HD
ENDROOT
BRANCH   1  11
ATOM     11  N   UNL     1       2.513  42.285  51.710  1.00  0.00    -0.338 N 
ATOM     12  H   UNL     1       2.787  41.341  51.957  1.00  0.00     0.168 HD
BRANCH  11  13
ATOM     13  C   UNL     1       1.254  42.665  52.191  1.00  0.00     0.040 A 
ATOM     14  C   UNL     1      -1.292  43.541  53.023  1.00  0.00     0.041 A 
ATOM     15  C   UNL     1      -0.356  43.124  53.963  1.00  0.00     0.022 A 
ATOM     16  C   UNL     1      -0.973  43.532  51.670  1.00  0.00     0.022 A 
ATOM     17  C   UNL     1       0.909  42.694  53.545  1.00  0.00     0.027 A 
ATOM     18  C   UNL     1       0.294  43.099  51.262  1.00  0.00     0.027 A 
ATOM     19  Cl  UNL     1      -2.846  44.072  53.533  1.00  0.00    -0.084 Cl
ENDBRANCH  11  13
ENDBRANCH   1  11
BRANCH   3  20
ATOM     20  N   UNL     1       4.717  46.436  51.698  1.00  0.00    -0.354 N 
ATOM     21  H   UNL     1       5.284  46.910  51.003  1.00  0.00     0.163 HD
BRANCH  20  22
ATOM     22  C   UNL     1       5.090  46.691  53.084  1.00  0.00     0.120 C 
BRANCH  22  23
ATOM     23  C   UNL     1       6.132  47.821  53.136  1.00  0.00     0.052 C 
BRANCH  23  24
ATOM     24  C   UNL     1       7.590  47.440  52.951  1.00  0.00    -0.072 C 
ATOM     25  C   UNL     1       8.209  47.301  51.763  1.00  0.00    -0.028 C 
ATOM     26  C   UNL     1       8.338  47.211  54.251  1.00  0.00     0.031 C 
ATOM     27  C   UNL     1       9.644  46.881  51.605  1.00  0.00     0.027 C 
ATOM     28  C   UNL     1       9.859  47.153  54.093  1.00  0.00     0.005 C 
ATOM     29  C   UNL     1      10.254  46.314  52.885  1.00  0.00     0.004 C 
ENDBRANCH  23  24
ENDBRANCH  22  23
ENDBRANCH  20  22
ENDBRANCH   3  20
TORSDOF 6
ENDMDL
MODEL 17
REMARK VINA RESULT:    -8.584      3.846      7.791
REMARK INTER + INTRA:         -12.453
REMARK INTER:                 -11.817
REMARK INTRA:                  -0.636
REMARK UNBOUND:                -0.858
REMARK SMILES Clc1ccc(Nc2nc(NCCC3=CCCCC3)nc3[nH]cnc23)cc1
REMARK SMILES IDX 7 1 8 2 9 3 19 4 20 5 21 6 22 7 23 8 24 9 6 11 5 13 2 14
REMARK SMILES IDX 3 15 26 16 4 17 25 18 1 19 10 20 11 22 12 23 13 24 14 25
REMARK SMILES IDX 18 26 15 27 17 28 16 29
REMARK H PARENT 21 10 6 12 10 21
ROOT
ATOM      1  C   UNL     1       6.259  44.894  51.043  1.00  0.00     0.164 A 
ATOM      2  N   UNL     1       6.734  44.062  50.069  1.00  0.00    -0.193 NA
ATOM      3  C   UNL     1       6.088  42.919  49.761  1.00  0.00     0.226 A 
ATOM      4  N   UNL     1       4.979  42.461  50.360  1.00  0.00    -0.193 NA
ATOM      5  C   UNL     1       4.556  43.277  51.331  1.00  0.00     0.165 A 
ATOM      6  N   UNL     1       3.472  43.077  52.134  1.00  0.00    -0.329 N 
ATOM      7  C   UNL     1       3.407  44.127  53.005  1.00  0.00     0.199 A 
ATOM      8  N   UNL     1       4.381  44.989  52.799  1.00  0.00    -0.231 NA
ATOM      9  C   UNL     1       5.110  44.477  51.740  1.00  0.00     0.150 A 
ATOM     10  H   UNL     1       2.850  42.285  52.088  1.00  0.00     0.169 HD
ENDROOT
BRANCH   1  11
ATOM     11  N   UNL     1       7.029  46.040  51.273  1.00  0.00    -0.338 N 
ATOM     12  H   UNL     1       6.682  46.790  50.685  1.00  0.00     0.168 HD
BRANCH  11  13
ATOM     13  C   UNL     1       7.850  46.465  52.325  1.00  0.00     0.040 A 
ATOM     14  C   UNL     1       9.627  47.208  54.382  1.00  0.00     0.041 A 
ATOM     15  C   UNL     1       8.254  47.233  54.603  1.00  0.00     0.022 A 
ATOM     16  C   UNL     1      10.127  46.812  53.148  1.00  0.00     0.022 A 
ATOM     17  C   UNL     1       7.375  46.858  53.580  1.00  0.00     0.027 A 
ATOM     18  C   UNL     1       9.241  46.441  52.131  1.00  0.00     0.027 A 
ATOM     19  Cl  UNL     1      10.709  47.666  55.638  1.00  0.00    -0.084 Cl
ENDBRANCH  11  13
ENDBRANCH   1  11
BRANCH   3  20
ATOM     20  N   UNL     1       6.576  42.106  48.743  1.00  0.00    -0.354 N 
ATOM     21  H   UNL     1       7.200  42.693  48.200  1.00  0.00     0.163 HD
BRANCH  20  22
ATOM     22  C   UNL     1       5.548  41.414  47.977  1.00  0.00     0.120 C 
BRANCH  22  23
ATOM     23  C   UNL     1       5.543  41.939  46.531  1.00  0.00     0.052 C 
BRANCH  23  24
ATOM     24  C   UNL     1       4.922  41.053  45.465  1.00  0.00    -0.072 C 
ATOM     25  C   UNL     1       5.496  40.741  44.288  1.00  0.00    -0.028 C 
ATOM     26  C   UNL     1       3.548  40.523  45.827  1.00  0.00     0.031 C 
ATOM     27  C   UNL     1       4.843  39.895  43.230  1.00  0.00     0.027 C 
ATOM     28  C   UNL     1       3.062  39.384  44.927  1.00  0.00     0.005 C 
ATOM     29  C   UNL     1       3.348  39.684  43.462  1.00  0.00     0.004 C 
ENDBRANCH  23  24
ENDBRANCH  22  23
ENDBRANCH  20  22
ENDBRANCH   3  20
TORSDOF 6
ENDMDL
MODEL 18
REMARK VINA RESULT:    -8.541      2.318      6.691
REMARK INTER + INTRA:         -12.394
REMARK INTER:                 -11.642
REMARK INTRA:                  -0.752
REMARK UNBOUND:                -0.858
REMARK SMILES Clc1ccc(Nc2nc(NCCC3=CCCCC3)nc3[nH]cnc23)cc1
REMARK SMILES IDX 7 1 8 2 9 3 19 4 20 5 21 6 22 7 23 8 24 9 6 11 5 13 2 14
REMARK SMILES IDX 3 15 26 16 4 17 25 18 1 19 10 20 11 22 12 23 13 24 14 25
REMARK SMILES IDX 18 26 15 27 17 28 16 29
REMARK H PARENT 21 10 6 12 10 21
ROOT
ATOM      1  C   UNL     1       5.186  44.154  51.308  1.00  0.00     0.164 A 
ATOM      2  N   UNL     1       4.160  43.910  52.176  1.00  0.00    -0.193 NA
ATOM      3  C   UNL     1       3.505  42.732  52.160  1.00  0.00     0.226 A 
ATOM      4  N   UNL     1       3.740  41.717  51.315  1.00  0.00    -0.193 NA
ATOM      5  C   UNL     1       4.726  41.995  50.455  1.00  0.00     0.165 A 
ATOM      6  N   UNL     1       5.183  41.177  49.465  1.00  0.00    -0.329 N 
ATOM      7  C   UNL     1       6.172  41.847  48.802  1.00  0.00     0.199 A 
ATOM      8  N   UNL     1       6.378  43.040  49.318  1.00  0.00    -0.231 NA
ATOM      9  C   UNL     1       5.484  43.149  50.369  1.00  0.00     0.150 A 
ATOM     10  H   UNL     1       4.833  40.253  49.262  1.00  0.00     0.169 HD
ENDROOT
BRANCH   1  11
ATOM     11  N   UNL     1       5.773  45.419  51.420  1.00  0.00    -0.338 N 
ATOM     12  H   UNL     1       5.147  46.108  51.018  1.00  0.00     0.168 HD
BRANCH  11  13
ATOM     13  C   UNL     1       6.771  45.959  52.243  1.00  0.00     0.040 A 
ATOM     14  C   UNL     1       8.897  46.944  53.808  1.00  0.00     0.041 A 
ATOM     15  C   UNL     1       7.625  46.822  54.356  1.00  0.00     0.022 A 
ATOM     16  C   UNL     1       9.125  46.576  52.488  1.00  0.00     0.022 A 
ATOM     17  C   UNL     1       6.572  46.327  53.576  1.00  0.00     0.027 A 
ATOM     18  C   UNL     1       8.067  46.083  51.716  1.00  0.00     0.027 A 
ATOM     19  Cl  UNL     1      10.191  47.550  54.765  1.00  0.00    -0.084 Cl
ENDBRANCH  11  13
ENDBRANCH   1  11
BRANCH   3  20
ATOM     20  N   UNL     1       2.485  42.499  53.077  1.00  0.00    -0.354 N 
ATOM     21  H   UNL     1       2.676  41.584  53.472  1.00  0.00     0.163 HD
BRANCH  20  22
ATOM     22  C   UNL     1       1.141  42.677  52.543  1.00  0.00     0.120 C 
BRANCH  22  23
ATOM     23  C   UNL     1       0.655  44.106  52.838  1.00  0.00     0.052 C 
BRANCH  23  24
ATOM     24  C   UNL     1       0.203  44.415  54.254  1.00  0.00    -0.072 C 
ATOM     25  C   UNL     1      -0.958  44.007  54.802  1.00  0.00    -0.028 C 
ATOM     26  C   UNL     1       1.185  45.257  55.046  1.00  0.00     0.031 C 
ATOM     27  C   UNL     1      -1.402  44.361  56.194  1.00  0.00     0.027 C 
ATOM     28  C   UNL     1       0.903  45.295  56.549  1.00  0.00     0.005 C 
ATOM     29  C   UNL     1      -0.583  45.487  56.823  1.00  0.00     0.004 C 
ENDBRANCH  23  24
ENDBRANCH  22  23
ENDBRANCH  20  22
ENDBRANCH   3  20
TORSDOF 6
ENDMDL
MODEL 19
REMARK VINA RESULT:    -8.408      3.028      5.590
REMARK INTER + INTRA:         -12.215
REMARK INTER:                 -11.330
REMARK INTRA:                  -0.885
REMARK UNBOUND:                -0.858
REMARK SMILES Clc1ccc(Nc2nc(NCCC3=CCCCC3)nc3[nH]cnc23)cc1
REMARK SMILES IDX 7 1 8 2 9 3 19 4 20 5 21 6 22 7 23 8 24 9 6 11 5 13 2 14
REMARK SMILES IDX 3 15 26 16 4 17 25 18 1 19 10 20 11 22 12 23 13 24 14 25
REMARK SMILES IDX 18 26 15 27 17 28 16 29
REMARK H PARENT 21 10 6 12 10 21
ROOT
ATOM      1  C   UNL     1       5.426  44.503  50.938  1.00  0.00     0.164 A 
ATOM      2  N   UNL     1       6.682  44.857  50.531  1.00  0.00    -0.193 NA
ATOM      3  C   UNL     1       7.464  43.985  49.862  1.00  0.00     0.226 A 
ATOM      4  N   UNL     1       7.142  42.720  49.559  1.00  0.00    -0.193 NA
ATOM      5  C   UNL     1       5.923  42.390  49.998  1.00  0.00     0.165 A 
ATOM      6  N   UNL     1       5.322  41.173  49.862  1.00  0.00    -0.329 N 
ATOM      7  C   UNL     1       4.101  41.249  50.470  1.00  0.00     0.199 A 
ATOM      8  N   UNL     1       3.884  42.444  50.976  1.00  0.00    -0.231 NA
ATOM      9  C   UNL     1       5.017  43.182  50.679  1.00  0.00     0.150 A 
ATOM     10  H   UNL     1       5.726  40.370  49.406  1.00  0.00     0.169 HD
ENDROOT
BRANCH   1  11
ATOM     11  N   UNL     1       4.724  45.496  51.631  1.00  0.00    -0.338 N 
ATOM     12  H   UNL     1       4.630  46.308  51.032  1.00  0.00     0.168 HD
BRANCH  11  13
ATOM     13  C   UNL     1       3.855  45.484  52.730  1.00  0.00     0.040 A 
ATOM     14  C   UNL     1       2.236  45.384  55.033  1.00  0.00     0.041 A 
ATOM     15  C   UNL     1       1.659  45.295  53.771  1.00  0.00     0.022 A 
ATOM     16  C   UNL     1       3.613  45.518  55.163  1.00  0.00     0.022 A 
ATOM     17  C   UNL     1       2.468  45.341  52.629  1.00  0.00     0.027 A 
ATOM     18  C   UNL     1       4.413  45.563  54.016  1.00  0.00     0.027 A 
ATOM     19  Cl  UNL     1       1.244  45.327  56.438  1.00  0.00    -0.084 Cl
ENDBRANCH  11  13
ENDBRANCH   1  11
BRANCH   3  20
ATOM     20  N   UNL     1       8.726  44.383  49.433  1.00  0.00    -0.354 N 
ATOM     21  H   UNL     1       8.921  43.827  48.606  1.00  0.00     0.163 HD
BRANCH  20  22
ATOM     22  C   UNL     1       9.754  44.345  50.464  1.00  0.00     0.120 C 
BRANCH  22  23
ATOM     23  C   UNL     1      10.295  45.765  50.704  1.00  0.00     0.052 C 
BRANCH  23  24
ATOM     24  C   UNL     1       9.754  46.530  51.899  1.00  0.00    -0.072 C 
ATOM     25  C   UNL     1      10.290  46.515  53.134  1.00  0.00    -0.028 C 
ATOM     26  C   UNL     1       8.510  47.344  51.599  1.00  0.00     0.031 C 
ATOM     27  C   UNL     1       9.711  47.247  54.312  1.00  0.00     0.027 C 
ATOM     28  C   UNL     1       8.154  48.361  52.686  1.00  0.00     0.005 C 
ATOM     29  C   UNL     1       8.288  47.749  54.074  1.00  0.00     0.004 C 
ENDBRANCH  23  24
ENDBRANCH  22  23
ENDBRANCH  20  22
ENDBRANCH   3  20
TORSDOF 6
ENDMDL
MODEL 20
REMARK VINA RESULT:    -8.323      2.489      6.935
REMARK INTER + INTRA:         -12.100
REMARK INTER:                 -11.487
REMARK INTRA:                  -0.613
REMARK UNBOUND:                -0.858
REMARK SMILES Clc1ccc(Nc2nc(NCCC3=CCCCC3)nc3[nH]cnc23)cc1
REMARK SMILES IDX 7 1 8 2 9 3 19 4 20 5 21 6 22 7 23 8 24 9 6 11 5 13 2 14
REMARK SMILES IDX 3 15 26 16 4 17 25 18 1 19 10 20 11 22 12 23 13 24 14 25
REMARK SMILES IDX 18 26 15 27 17 28 16 29
REMARK H PARENT 21 10 6 12 10 21
ROOT
ATOM      1  C   UNL     1       5.790  44.539  51.357  1.00  0.00     0.164 A 
ATOM      2  N   UNL     1       4.741  44.499  52.231  1.00  0.00    -0.193 NA
ATOM      3  C   UNL     1       3.895  43.448  52.249  1.00  0.00     0.226 A 
ATOM      4  N   UNL     1       3.952  42.384  51.435  1.00  0.00    -0.193 NA
ATOM      5  C   UNL     1       4.967  42.466  50.568  1.00  0.00     0.165 A 
ATOM      6  N   UNL     1       5.274  41.554  49.602  1.00  0.00    -0.329 N 
ATOM      7  C   UNL     1       6.360  42.027  48.921  1.00  0.00     0.199 A 
ATOM      8  N   UNL     1       6.768  43.182  49.402  1.00  0.00    -0.231 NA
ATOM      9  C   UNL     1       5.909  43.471  50.449  1.00  0.00     0.150 A 
ATOM     10  H   UNL     1       4.772  40.697  49.427  1.00  0.00     0.169 HD
ENDROOT
BRANCH   1  11
ATOM     11  N   UNL     1       6.583  45.690  51.433  1.00  0.00    -0.338 N 
ATOM     12  H   UNL     1       6.193  46.397  50.820  1.00  0.00     0.168 HD
BRANCH  11  13
ATOM     13  C   UNL     1       7.493  46.183  52.377  1.00  0.00     0.040 A 
ATOM     14  C   UNL     1       9.437  47.050  54.223  1.00  0.00     0.041 A 
ATOM     15  C   UNL     1       8.085  47.178  54.522  1.00  0.00     0.022 A 
ATOM     16  C   UNL     1       9.834  46.489  53.015  1.00  0.00     0.022 A 
ATOM     17  C   UNL     1       7.122  46.742  53.603  1.00  0.00     0.027 A 
ATOM     18  C   UNL     1       8.865  46.056  52.104  1.00  0.00     0.027 A 
ATOM     19  Cl  UNL     1      10.621  47.584  55.350  1.00  0.00    -0.084 Cl
ENDBRANCH  11  13
ENDBRANCH   1  11
BRANCH   3  20
ATOM     20  N   UNL     1       2.854  43.419  53.171  1.00  0.00    -0.354 N 
ATOM     21  H   UNL     1       2.229  42.685  52.854  1.00  0.00     0.163 HD
BRANCH  20  22
ATOM     22  C   UNL     1       2.225  44.710  53.414  1.00  0.00     0.120 C 
BRANCH  22  23
ATOM     23  C   UNL     1       2.049  44.922  54.927  1.00  0.00     0.052 C 
BRANCH  23  24
ATOM     24  C   UNL     1       0.634  44.910  55.477  1.00  0.00    -0.072 C 
ATOM     25  C   UNL     1       0.232  45.551  56.591  1.00  0.00    -0.028 C 
ATOM     26  C   UNL     1      -0.341  44.089  54.655  1.00  0.00     0.031 C 
ATOM     27  C   UNL     1      -1.167  45.490  57.139  1.00  0.00     0.027 C 
ATOM     28  C   UNL     1      -1.811  44.334  55.004  1.00  0.00     0.005 C 
ATOM     29  C   UNL     1      -2.016  44.386  56.512  1.00  0.00     0.004 C 
ENDBRANCH  23  24
ENDBRANCH  22  23
ENDBRANCH  20  22
ENDBRANCH   3  20
TORSDOF 6
ENDMDL
