MODEL 1
REMARK VINA RESULT:    -8.255      0.000      0.000
REMARK INTER + INTRA:         -13.097
REMARK INTER:                 -11.874
REMARK INTRA:                  -1.223
REMARK UNBOUND:                -1.223
REMARK SMILES COCCCNc1nc(Nc2ccccc2O)c2cnn(C)c2n1
REMARK SMILES IDX 6 1 5 3 4 4 3 5 2 6 1 7 7 8 8 9 24 10 9 11 23 12 18 13 21 14
REMARK SMILES IDX 19 15 20 16 22 17 10 18 11 20 12 21 16 22 13 23 15 24 14 25
REMARK SMILES IDX 17 26
REMARK H PARENT 6 2 10 19 17 27
ROOT
ATOM      1  N   UNL     1       3.188  43.255  53.089  1.00  0.00    -0.354 N 
ATOM      2  H   UNL     1       3.206  42.240  53.087  1.00  0.00     0.163 HD
ENDROOT
BRANCH   1   3
ATOM      3  C   UNL     1       1.908  43.861  52.772  1.00  0.00     0.118 C 
BRANCH   3   4
ATOM      4  C   UNL     1       0.980  43.740  53.979  1.00  0.00     0.050 C 
BRANCH   4   5
ATOM      5  C   UNL     1       1.447  44.636  55.121  1.00  0.00     0.161 C 
BRANCH   5   6
ATOM      6  O   UNL     1       2.300  45.680  54.653  1.00  0.00    -0.385 OA
ATOM      7  C   UNL     1       3.388  45.952  55.524  1.00  0.00     0.194 C 
ENDBRANCH   5   6
ENDBRANCH   4   5
ENDBRANCH   3   4
ENDBRANCH   1   3
BRANCH   1   8
ATOM      8  C   UNL     1       4.236  43.651  52.263  1.00  0.00     0.226 A 
ATOM      9  N   UNL     1       4.876  44.809  52.511  1.00  0.00    -0.195 NA
ATOM     10  N   UNL     1       4.509  42.807  51.261  1.00  0.00    -0.193 NA
ATOM     11  C   UNL     1       5.886  45.224  51.703  1.00  0.00     0.147 A 
ATOM     12  C   UNL     1       5.546  43.207  50.511  1.00  0.00     0.165 A 
ATOM     13  C   UNL     1       6.274  44.371  50.667  1.00  0.00     0.082 A 
ATOM     14  N   UNL     1       6.107  42.550  49.451  1.00  0.00    -0.250 N 
ATOM     15  C   UNL     1       7.276  44.289  49.677  1.00  0.00     0.149 A 
ATOM     16  N   UNL     1       7.169  43.195  48.914  1.00  0.00    -0.179 NA
ATOM     17  C   UNL     1       5.697  41.282  48.901  1.00  0.00     0.176 C 
BRANCH  11  18
ATOM     18  N   UNL     1       6.502  46.431  52.035  1.00  0.00    -0.336 N 
ATOM     19  H   UNL     1       6.239  47.165  51.381  1.00  0.00     0.168 HD
BRANCH  18  20
ATOM     20  C   UNL     1       7.731  46.726  52.657  1.00  0.00     0.082 A 
ATOM     21  C   UNL     1       8.978  46.508  52.064  1.00  0.00     0.030 A 
ATOM     22  C   UNL     1       7.709  47.216  53.977  1.00  0.00     0.139 A 
ATOM     23  C   UNL     1      10.161  46.768  52.766  1.00  0.00     0.002 A 
ATOM     24  C   UNL     1       8.883  47.478  54.684  1.00  0.00     0.048 A 
ATOM     25  C   UNL     1      10.113  47.248  54.073  1.00  0.00     0.004 A 
BRANCH  22  26
ATOM     26  O   UNL     1       6.488  47.451  54.558  1.00  0.00    -0.506 OA
ATOM     27  H   UNL     1       6.580  48.192  55.179  1.00  0.00     0.293 HD
ENDBRANCH  22  26
ENDBRANCH  18  20
ENDBRANCH  11  18
ENDBRANCH   1   8
TORSDOF 8
ENDMDL
MODEL 2
REMARK VINA RESULT:    -8.198      1.081      1.617
REMARK INTER + INTRA:         -13.015
REMARK INTER:                 -11.664
REMARK INTRA:                  -1.352
REMARK UNBOUND:                -1.223
REMARK SMILES COCCCNc1nc(Nc2ccccc2O)c2cnn(C)c2n1
REMARK SMILES IDX 6 1 5 3 4 4 3 5 2 6 1 7 7 8 8 9 24 10 9 11 23 12 18 13 21 14
REMARK SMILES IDX 19 15 20 16 22 17 10 18 11 20 12 21 16 22 13 23 15 24 14 25
REMARK SMILES IDX 17 26
REMARK H PARENT 6 2 10 19 17 27
ROOT
ATOM      1  N   UNL     1       2.959  44.162  54.178  1.00  0.00    -0.354 N 
ATOM      2  H   UNL     1       2.252  43.512  53.850  1.00  0.00     0.163 HD
ENDROOT
BRANCH   1   3
ATOM      3  C   UNL     1       2.463  45.441  54.653  1.00  0.00     0.118 C 
BRANCH   3   4
ATOM      4  C   UNL     1       0.987  45.305  55.019  1.00  0.00     0.050 C 
BRANCH   4   5
ATOM      5  C   UNL     1       0.187  44.713  53.864  1.00  0.00     0.161 C 
BRANCH   5   6
ATOM      6  O   UNL     1       0.514  45.342  52.625  1.00  0.00    -0.385 OA
ATOM      7  C   UNL     1       0.460  44.458  51.514  1.00  0.00     0.194 C 
ENDBRANCH   5   6
ENDBRANCH   4   5
ENDBRANCH   3   4
ENDBRANCH   1   3
BRANCH   1   8
ATOM      8  C   UNL     1       3.895  44.250  53.152  1.00  0.00     0.226 A 
ATOM      9  N   UNL     1       4.722  45.311  53.096  1.00  0.00    -0.195 NA
ATOM     10  N   UNL     1       3.873  43.230  52.284  1.00  0.00    -0.193 NA
ATOM     11  C   UNL     1       5.627  45.426  52.091  1.00  0.00     0.147 A 
ATOM     12  C   UNL     1       4.812  43.336  51.333  1.00  0.00     0.165 A 
ATOM     13  C   UNL     1       5.710  44.374  51.175  1.00  0.00     0.082 A 
ATOM     14  N   UNL     1       5.087  42.443  50.335  1.00  0.00    -0.250 N 
ATOM     15  C   UNL     1       6.507  43.979  50.080  1.00  0.00     0.149 A 
ATOM     16  N   UNL     1       6.121  42.815  49.545  1.00  0.00    -0.179 NA
ATOM     17  C   UNL     1       4.417  41.191  50.083  1.00  0.00     0.176 C 
BRANCH  11  18
ATOM     18  N   UNL     1       6.452  46.551  52.111  1.00  0.00    -0.336 N 
ATOM     19  H   UNL     1       6.286  47.138  51.298  1.00  0.00     0.168 HD
BRANCH  18  20
ATOM     20  C   UNL     1       7.741  46.769  52.637  1.00  0.00     0.082 A 
ATOM     21  C   UNL     1       8.922  46.559  51.919  1.00  0.00     0.030 A 
ATOM     22  C   UNL     1       7.854  47.166  53.983  1.00  0.00     0.139 A 
ATOM     23  C   UNL     1      10.171  46.738  52.524  1.00  0.00     0.002 A 
ATOM     24  C   UNL     1       9.095  47.346  54.595  1.00  0.00     0.048 A 
ATOM     25  C   UNL     1      10.256  47.126  53.860  1.00  0.00     0.004 A 
BRANCH  22  26
ATOM     26  O   UNL     1       6.698  47.392  54.688  1.00  0.00    -0.506 OA
ATOM     27  H   UNL     1       6.242  46.543  54.809  1.00  0.00     0.293 HD
ENDBRANCH  22  26
ENDBRANCH  18  20
ENDBRANCH  11  18
ENDBRANCH   1   8
TORSDOF 8
ENDMDL
MODEL 3
REMARK VINA RESULT:    -8.073      1.184      1.340
REMARK INTER + INTRA:         -12.835
REMARK INTER:                 -11.699
REMARK INTRA:                  -1.136
REMARK UNBOUND:                -1.223
REMARK SMILES COCCCNc1nc(Nc2ccccc2O)c2cnn(C)c2n1
REMARK SMILES IDX 6 1 5 3 4 4 3 5 2 6 1 7 7 8 8 9 24 10 9 11 23 12 18 13 21 14
REMARK SMILES IDX 19 15 20 16 22 17 10 18 11 20 12 21 16 22 13 23 15 24 14 25
REMARK SMILES IDX 17 26
REMARK H PARENT 6 2 10 19 17 27
ROOT
ATOM      1  N   UNL     1       2.923  44.492  54.168  1.00  0.00    -0.354 N 
ATOM      2  H   UNL     1       2.654  43.526  54.328  1.00  0.00     0.163 HD
ENDROOT
BRANCH   1   3
ATOM      3  C   UNL     1       1.828  45.421  53.955  1.00  0.00     0.118 C 
BRANCH   3   4
ATOM      4  C   UNL     1       0.505  44.713  54.235  1.00  0.00     0.050 C 
BRANCH   4   5
ATOM      5  C   UNL     1       0.046  44.952  55.669  1.00  0.00     0.161 C 
BRANCH   5   6
ATOM      6  O   UNL     1       1.136  45.329  56.511  1.00  0.00    -0.385 OA
ATOM      7  C   UNL     1       0.762  46.223  57.550  1.00  0.00     0.194 C 
ENDBRANCH   5   6
ENDBRANCH   4   5
ENDBRANCH   3   4
ENDBRANCH   1   3
BRANCH   1   8
ATOM      8  C   UNL     1       3.859  44.456  53.138  1.00  0.00     0.226 A 
ATOM      9  N   UNL     1       4.744  45.462  53.010  1.00  0.00    -0.195 NA
ATOM     10  N   UNL     1       3.777  43.382  52.344  1.00  0.00    -0.193 NA
ATOM     11  C   UNL     1       5.651  45.457  51.999  1.00  0.00     0.147 A 
ATOM     12  C   UNL     1       4.717  43.369  51.388  1.00  0.00     0.165 A 
ATOM     13  C   UNL     1       5.672  44.341  51.159  1.00  0.00     0.082 A 
ATOM     14  N   UNL     1       4.938  42.394  50.454  1.00  0.00    -0.250 N 
ATOM     15  C   UNL     1       6.441  43.827  50.094  1.00  0.00     0.149 A 
ATOM     16  N   UNL     1       5.988  42.652  49.640  1.00  0.00    -0.179 NA
ATOM     17  C   UNL     1       4.198  41.168  50.288  1.00  0.00     0.176 C 
BRANCH  11  18
ATOM     18  N   UNL     1       6.537  46.532  51.942  1.00  0.00    -0.336 N 
ATOM     19  H   UNL     1       6.454  47.025  51.057  1.00  0.00     0.168 HD
BRANCH  18  20
ATOM     20  C   UNL     1       7.804  46.745  52.521  1.00  0.00     0.082 A 
ATOM     21  C   UNL     1       9.014  46.501  51.863  1.00  0.00     0.030 A 
ATOM     22  C   UNL     1       7.862  47.173  53.861  1.00  0.00     0.139 A 
ATOM     23  C   UNL     1      10.236  46.677  52.521  1.00  0.00     0.002 A 
ATOM     24  C   UNL     1       9.076  47.351  54.525  1.00  0.00     0.048 A 
ATOM     25  C   UNL     1      10.266  47.097  53.850  1.00  0.00     0.004 A 
BRANCH  22  26
ATOM     26  O   UNL     1       6.678  47.433  54.507  1.00  0.00    -0.506 OA
ATOM     27  H   UNL     1       6.219  46.590  54.656  1.00  0.00     0.293 HD
ENDBRANCH  22  26
ENDBRANCH  18  20
ENDBRANCH  11  18
ENDBRANCH   1   8
TORSDOF 8
ENDMDL
MODEL 4
REMARK VINA RESULT:    -7.744      2.004      4.645
REMARK INTER + INTRA:         -12.362
REMARK INTER:                 -11.136
REMARK INTRA:                  -1.226
REMARK UNBOUND:                -1.223
REMARK SMILES COCCCNc1nc(Nc2ccccc2O)c2cnn(C)c2n1
REMARK SMILES IDX 6 1 5 3 4 4 3 5 2 6 1 7 7 8 8 9 24 10 9 11 23 12 18 13 21 14
REMARK SMILES IDX 19 15 20 16 22 17 10 18 11 20 12 21 16 22 13 23 15 24 14 25
REMARK SMILES IDX 17 26
REMARK H PARENT 6 2 10 19 17 27
ROOT
ATOM      1  N   UNL     1       3.998  43.272  50.687  1.00  0.00    -0.354 N 
ATOM      2  H   UNL     1       3.090  43.443  50.265  1.00  0.00     0.163 HD
ENDROOT
BRANCH   1   3
ATOM      3  C   UNL     1       4.265  41.897  51.067  1.00  0.00     0.118 C 
BRANCH   3   4
ATOM      4  C   UNL     1       4.972  41.184  49.917  1.00  0.00     0.050 C 
BRANCH   4   5
ATOM      5  C   UNL     1       6.417  41.654  49.785  1.00  0.00     0.161 C 
BRANCH   5   6
ATOM      6  O   UNL     1       6.493  42.952  49.195  1.00  0.00    -0.385 OA
ATOM      7  C   UNL     1       7.786  43.534  49.283  1.00  0.00     0.194 C 
ENDBRANCH   5   6
ENDBRANCH   4   5
ENDBRANCH   3   4
ENDBRANCH   1   3
BRANCH   1   8
ATOM      8  C   UNL     1       4.109  44.192  51.725  1.00  0.00     0.226 A 
ATOM      9  N   UNL     1       5.063  45.141  51.673  1.00  0.00    -0.195 NA
ATOM     10  N   UNL     1       3.223  44.029  52.715  1.00  0.00    -0.193 NA
ATOM     11  C   UNL     1       5.202  46.033  52.687  1.00  0.00     0.147 A 
ATOM     12  C   UNL     1       3.341  44.955  53.677  1.00  0.00     0.165 A 
ATOM     13  C   UNL     1       4.277  45.970  53.732  1.00  0.00     0.082 A 
ATOM     14  N   UNL     1       2.561  45.099  54.791  1.00  0.00    -0.250 N 
ATOM     15  C   UNL     1       3.938  46.691  54.897  1.00  0.00     0.149 A 
ATOM     16  N   UNL     1       2.909  46.155  55.563  1.00  0.00    -0.179 NA
ATOM     17  C   UNL     1       1.441  44.278  55.178  1.00  0.00     0.176 C 
BRANCH  11  18
ATOM     18  N   UNL     1       6.208  46.989  52.551  1.00  0.00    -0.336 N 
ATOM     19  H   UNL     1       5.920  47.734  51.921  1.00  0.00     0.168 HD
BRANCH  18  20
ATOM     20  C   UNL     1       7.613  46.900  52.616  1.00  0.00     0.082 A 
ATOM     21  C   UNL     1       8.424  46.553  51.532  1.00  0.00     0.030 A 
ATOM     22  C   UNL     1       8.238  47.115  53.860  1.00  0.00     0.139 A 
ATOM     23  C   UNL     1       9.809  46.424  51.685  1.00  0.00     0.002 A 
ATOM     24  C   UNL     1       9.618  46.988  54.021  1.00  0.00     0.048 A 
ATOM     25  C   UNL     1      10.403  46.637  52.927  1.00  0.00     0.004 A 
BRANCH  22  26
ATOM     26  O   UNL     1       7.449  47.475  54.924  1.00  0.00    -0.506 OA
ATOM     27  H   UNL     1       6.680  46.882  54.951  1.00  0.00     0.293 HD
ENDBRANCH  22  26
ENDBRANCH  18  20
ENDBRANCH  11  18
ENDBRANCH   1   8
TORSDOF 8
ENDMDL
MODEL 5
REMARK VINA RESULT:    -7.640      1.969      5.183
REMARK INTER + INTRA:         -12.212
REMARK INTER:                 -11.115
REMARK INTRA:                  -1.098
REMARK UNBOUND:                -1.223
REMARK SMILES COCCCNc1nc(Nc2ccccc2O)c2cnn(C)c2n1
REMARK SMILES IDX 6 1 5 3 4 4 3 5 2 6 1 7 7 8 8 9 24 10 9 11 23 12 18 13 21 14
REMARK SMILES IDX 19 15 20 16 22 17 10 18 11 20 12 21 16 22 13 23 15 24 14 25
REMARK SMILES IDX 17 26
REMARK H PARENT 6 2 10 19 17 27
ROOT
ATOM      1  N   UNL     1       4.675  47.171  54.965  1.00  0.00    -0.354 N 
ATOM      2  H   UNL     1       4.951  46.919  55.909  1.00  0.00     0.163 HD
ENDROOT
BRANCH   1   3
ATOM      3  C   UNL     1       3.432  46.583  54.496  1.00  0.00     0.118 C 
BRANCH   3   4
ATOM      4  C   UNL     1       3.127  45.331  55.315  1.00  0.00     0.050 C 
BRANCH   4   5
ATOM      5  C   UNL     1       1.776  44.739  54.928  1.00  0.00     0.161 C 
BRANCH   5   6
ATOM      6  O   UNL     1       1.775  44.277  53.577  1.00  0.00    -0.385 OA
ATOM      7  C   UNL     1       1.296  42.946  53.438  1.00  0.00     0.194 C 
ENDBRANCH   5   6
ENDBRANCH   4   5
ENDBRANCH   3   4
ENDBRANCH   1   3
BRANCH   1   8
ATOM      8  C   UNL     1       5.781  46.901  54.164  1.00  0.00     0.226 A 
ATOM      9  N   UNL     1       5.602  46.340  52.953  1.00  0.00    -0.195 NA
ATOM     10  N   UNL     1       6.959  47.235  54.705  1.00  0.00    -0.193 NA
ATOM     11  C   UNL     1       6.670  46.049  52.166  1.00  0.00     0.147 A 
ATOM     12  C   UNL     1       7.994  46.991  53.887  1.00  0.00     0.165 A 
ATOM     13  C   UNL     1       7.934  46.421  52.631  1.00  0.00     0.082 A 
ATOM     14  N   UNL     1       9.314  47.264  54.116  1.00  0.00    -0.250 N 
ATOM     15  C   UNL     1       9.269  46.441  52.177  1.00  0.00     0.149 A 
ATOM     16  N   UNL     1      10.123  46.931  53.083  1.00  0.00    -0.179 NA
ATOM     17  C   UNL     1       9.883  47.869  55.295  1.00  0.00     0.176 C 
BRANCH  11  18
ATOM     18  N   UNL     1       6.398  45.478  50.923  1.00  0.00    -0.336 N 
ATOM     19  H   UNL     1       5.871  46.120  50.335  1.00  0.00     0.168 HD
BRANCH  18  20
ATOM     20  C   UNL     1       6.197  44.144  50.518  1.00  0.00     0.082 A 
ATOM     21  C   UNL     1       7.055  43.450  49.659  1.00  0.00     0.030 A 
ATOM     22  C   UNL     1       5.033  43.482  50.955  1.00  0.00     0.139 A 
ATOM     23  C   UNL     1       6.761  42.145  49.250  1.00  0.00     0.002 A 
ATOM     24  C   UNL     1       4.731  42.181  50.552  1.00  0.00     0.048 A 
ATOM     25  C   UNL     1       5.599  41.514  49.692  1.00  0.00     0.004 A 
BRANCH  22  26
ATOM     26  O   UNL     1       4.195  44.150  51.813  1.00  0.00    -0.506 OA
ATOM     27  H   UNL     1       3.442  44.491  51.303  1.00  0.00     0.293 HD
ENDBRANCH  22  26
ENDBRANCH  18  20
ENDBRANCH  11  18
ENDBRANCH   1   8
TORSDOF 8
ENDMDL
MODEL 6
REMARK VINA RESULT:    -7.611      1.624      2.329
REMARK INTER + INTRA:         -12.170
REMARK INTER:                 -11.034
REMARK INTRA:                  -1.137
REMARK UNBOUND:                -1.223
REMARK SMILES COCCCNc1nc(Nc2ccccc2O)c2cnn(C)c2n1
REMARK SMILES IDX 6 1 5 3 4 4 3 5 2 6 1 7 7 8 8 9 24 10 9 11 23 12 18 13 21 14
REMARK SMILES IDX 19 15 20 16 22 17 10 18 11 20 12 21 16 22 13 23 15 24 14 25
REMARK SMILES IDX 17 26
REMARK H PARENT 6 2 10 19 17 27
ROOT
ATOM      1  N   UNL     1       2.682  44.258  54.141  1.00  0.00    -0.354 N 
ATOM      2  H   UNL     1       2.182  43.376  54.084  1.00  0.00     0.163 HD
ENDROOT
BRANCH   1   3
ATOM      3  C   UNL     1       1.852  45.450  54.164  1.00  0.00     0.118 C 
BRANCH   3   4
ATOM      4  C   UNL     1       0.743  45.312  53.124  1.00  0.00     0.050 C 
BRANCH   4   5
ATOM      5  C   UNL     1      -0.377  44.410  53.632  1.00  0.00     0.161 C 
BRANCH   5   6
ATOM      6  O   UNL     1       0.041  43.047  53.705  1.00  0.00    -0.385 OA
ATOM      7  C   UNL     1      -0.257  42.304  52.531  1.00  0.00     0.194 C 
ENDBRANCH   5   6
ENDBRANCH   4   5
ENDBRANCH   3   4
ENDBRANCH   1   3
BRANCH   1   8
ATOM      8  C   UNL     1       3.620  44.226  53.114  1.00  0.00     0.226 A 
ATOM      9  N   UNL     1       4.513  45.228  52.999  1.00  0.00    -0.195 NA
ATOM     10  N   UNL     1       3.532  43.161  52.308  1.00  0.00    -0.193 NA
ATOM     11  C   UNL     1       5.422  45.226  51.990  1.00  0.00     0.147 A 
ATOM     12  C   UNL     1       4.476  43.152  51.354  1.00  0.00     0.165 A 
ATOM     13  C   UNL     1       5.438  44.119  51.138  1.00  0.00     0.082 A 
ATOM     14  N   UNL     1       4.692  42.186  50.411  1.00  0.00    -0.250 N 
ATOM     15  C   UNL     1       6.207  43.611  50.070  1.00  0.00     0.149 A 
ATOM     16  N   UNL     1       5.747  42.444  49.602  1.00  0.00    -0.179 NA
ATOM     17  C   UNL     1       3.944  40.966  50.230  1.00  0.00     0.176 C 
BRANCH  11  18
ATOM     18  N   UNL     1       6.317  46.295  51.948  1.00  0.00    -0.336 N 
ATOM     19  H   UNL     1       6.341  46.713  51.020  1.00  0.00     0.168 HD
BRANCH  18  20
ATOM     20  C   UNL     1       7.509  46.561  52.650  1.00  0.00     0.082 A 
ATOM     21  C   UNL     1       7.551  47.108  53.936  1.00  0.00     0.030 A 
ATOM     22  C   UNL     1       8.734  46.316  52.001  1.00  0.00     0.139 A 
ATOM     23  C   UNL     1       8.774  47.402  54.551  1.00  0.00     0.002 A 
ATOM     24  C   UNL     1       9.958  46.606  52.606  1.00  0.00     0.048 A 
ATOM     25  C   UNL     1       9.973  47.156  53.885  1.00  0.00     0.004 A 
BRANCH  22  26
ATOM     26  O   UNL     1       8.700  45.761  50.746  1.00  0.00    -0.506 OA
ATOM     27  H   UNL     1       9.534  45.285  50.598  1.00  0.00     0.293 HD
ENDBRANCH  22  26
ENDBRANCH  18  20
ENDBRANCH  11  18
ENDBRANCH   1   8
TORSDOF 8
ENDMDL
MODEL 7
REMARK VINA RESULT:    -7.588      2.230      5.396
REMARK INTER + INTRA:         -12.138
REMARK INTER:                 -11.145
REMARK INTRA:                  -0.993
REMARK UNBOUND:                -1.223
REMARK SMILES COCCCNc1nc(Nc2ccccc2O)c2cnn(C)c2n1
REMARK SMILES IDX 6 1 5 3 4 4 3 5 2 6 1 7 7 8 8 9 24 10 9 11 23 12 18 13 21 14
REMARK SMILES IDX 19 15 20 16 22 17 10 18 11 20 12 21 16 22 13 23 15 24 14 25
REMARK SMILES IDX 17 26
REMARK H PARENT 6 2 10 19 17 27
ROOT
ATOM      1  N   UNL     1       4.468  46.864  54.738  1.00  0.00    -0.354 N 
ATOM      2  H   UNL     1       4.677  47.652  55.342  1.00  0.00     0.163 HD
ENDROOT
BRANCH   1   3
ATOM      3  C   UNL     1       3.967  45.676  55.407  1.00  0.00     0.118 C 
BRANCH   3   4
ATOM      4  C   UNL     1       2.441  45.680  55.365  1.00  0.00     0.050 C 
BRANCH   4   5
ATOM      5  C   UNL     1       1.928  45.197  54.013  1.00  0.00     0.161 C 
BRANCH   5   6
ATOM      6  O   UNL     1       1.931  46.248  53.047  1.00  0.00    -0.385 OA
ATOM      7  C   UNL     1       2.043  45.783  51.709  1.00  0.00     0.194 C 
ENDBRANCH   5   6
ENDBRANCH   4   5
ENDBRANCH   3   4
ENDBRANCH   1   3
BRANCH   1   8
ATOM      8  C   UNL     1       5.614  46.658  53.976  1.00  0.00     0.226 A 
ATOM      9  N   UNL     1       5.525  45.997  52.807  1.00  0.00    -0.195 NA
ATOM     10  N   UNL     1       6.737  47.156  54.509  1.00  0.00    -0.193 NA
ATOM     11  C   UNL     1       6.636  45.767  52.060  1.00  0.00     0.147 A 
ATOM     12  C   UNL     1       7.811  46.968  53.728  1.00  0.00     0.165 A 
ATOM     13  C   UNL     1       7.842  46.307  52.516  1.00  0.00     0.082 A 
ATOM     14  N   UNL     1       9.089  47.399  53.957  1.00  0.00    -0.250 N 
ATOM     15  C   UNL     1       9.177  46.439  52.082  1.00  0.00     0.149 A 
ATOM     16  N   UNL     1       9.953  47.082  52.964  1.00  0.00    -0.179 NA
ATOM     17  C   UNL     1       9.563  48.144  55.096  1.00  0.00     0.176 C 
BRANCH  11  18
ATOM     18  N   UNL     1       6.456  45.083  50.858  1.00  0.00    -0.336 N 
ATOM     19  H   UNL     1       6.297  45.732  50.091  1.00  0.00     0.168 HD
BRANCH  18  20
ATOM     20  C   UNL     1       5.923  43.813  50.564  1.00  0.00     0.082 A 
ATOM     21  C   UNL     1       4.731  43.322  51.105  1.00  0.00     0.030 A 
ATOM     22  C   UNL     1       6.659  42.960  49.719  1.00  0.00     0.139 A 
ATOM     23  C   UNL     1       4.292  42.025  50.815  1.00  0.00     0.002 A 
ATOM     24  C   UNL     1       6.230  41.665  49.426  1.00  0.00     0.048 A 
ATOM     25  C   UNL     1       5.042  41.198  49.981  1.00  0.00     0.004 A 
BRANCH  22  26
ATOM     26  O   UNL     1       7.821  43.442  49.169  1.00  0.00    -0.506 OA
ATOM     27  H   UNL     1       8.534  42.810  49.356  1.00  0.00     0.293 HD
ENDBRANCH  22  26
ENDBRANCH  18  20
ENDBRANCH  11  18
ENDBRANCH   1   8
TORSDOF 8
ENDMDL
MODEL 8
REMARK VINA RESULT:    -7.553      2.096      2.882
REMARK INTER + INTRA:         -12.087
REMARK INTER:                 -11.353
REMARK INTRA:                  -0.734
REMARK UNBOUND:                -1.223
REMARK SMILES COCCCNc1nc(Nc2ccccc2O)c2cnn(C)c2n1
REMARK SMILES IDX 6 1 5 3 4 4 3 5 2 6 1 7 7 8 8 9 24 10 9 11 23 12 18 13 21 14
REMARK SMILES IDX 19 15 20 16 22 17 10 18 11 20 12 21 16 22 13 23 15 24 14 25
REMARK SMILES IDX 17 26
REMARK H PARENT 6 2 10 19 17 27
ROOT
ATOM      1  N   UNL     1       2.769  45.743  55.836  1.00  0.00    -0.354 N 
ATOM      2  H   UNL     1       3.385  45.402  56.567  1.00  0.00     0.163 HD
ENDROOT
BRANCH   1   3
ATOM      3  C   UNL     1       1.432  45.177  55.826  1.00  0.00     0.118 C 
BRANCH   3   4
ATOM      4  C   UNL     1       0.814  45.318  57.215  1.00  0.00     0.050 C 
BRANCH   4   5
ATOM      5  C   UNL     1      -0.309  46.349  57.213  1.00  0.00     0.161 C 
BRANCH   5   6
ATOM      6  O   UNL     1      -0.506  46.912  58.510  1.00  0.00    -0.385 OA
ATOM      7  C   UNL     1       0.693  47.393  59.102  1.00  0.00     0.194 C 
ENDBRANCH   5   6
ENDBRANCH   4   5
ENDBRANCH   3   4
ENDBRANCH   1   3
BRANCH   1   8
ATOM      8  C   UNL     1       3.473  45.586  54.646  1.00  0.00     0.226 A 
ATOM      9  N   UNL     1       4.457  46.451  54.337  1.00  0.00    -0.195 NA
ATOM     10  N   UNL     1       3.080  44.549  53.896  1.00  0.00    -0.193 NA
ATOM     11  C   UNL     1       5.141  46.328  53.170  1.00  0.00     0.147 A 
ATOM     12  C   UNL     1       3.807  44.411  52.777  1.00  0.00     0.165 A 
ATOM     13  C   UNL     1       4.833  45.234  52.356  1.00  0.00     0.082 A 
ATOM     14  N   UNL     1       3.695  43.430  51.831  1.00  0.00    -0.250 N 
ATOM     15  C   UNL     1       5.298  44.629  51.169  1.00  0.00     0.149 A 
ATOM     16  N   UNL     1       4.596  43.542  50.827  1.00  0.00    -0.179 NA
ATOM     17  C   UNL     1       2.764  42.330  51.827  1.00  0.00     0.176 C 
BRANCH  11  18
ATOM     18  N   UNL     1       6.150  47.260  52.930  1.00  0.00    -0.336 N 
ATOM     19  H   UNL     1       5.808  48.024  52.352  1.00  0.00     0.168 HD
BRANCH  18  20
ATOM     20  C   UNL     1       7.549  47.133  52.823  1.00  0.00     0.082 A 
ATOM     21  C   UNL     1       8.215  46.809  51.637  1.00  0.00     0.030 A 
ATOM     22  C   UNL     1       8.323  47.283  53.989  1.00  0.00     0.139 A 
ATOM     23  C   UNL     1       9.604  46.640  51.617  1.00  0.00     0.002 A 
ATOM     24  C   UNL     1       9.708  47.115  53.979  1.00  0.00     0.048 A 
ATOM     25  C   UNL     1      10.347  46.788  52.786  1.00  0.00     0.004 A 
BRANCH  22  26
ATOM     26  O   UNL     1       7.678  47.620  55.153  1.00  0.00    -0.506 OA
ATOM     27  H   UNL     1       6.744  47.363  55.072  1.00  0.00     0.293 HD
ENDBRANCH  22  26
ENDBRANCH  18  20
ENDBRANCH  11  18
ENDBRANCH   1   8
TORSDOF 8
ENDMDL
MODEL 9
REMARK VINA RESULT:    -7.545      2.532      5.036
REMARK INTER + INTRA:         -12.075
REMARK INTER:                 -11.280
REMARK INTRA:                  -0.796
REMARK UNBOUND:                -1.223
REMARK SMILES COCCCNc1nc(Nc2ccccc2O)c2cnn(C)c2n1
REMARK SMILES IDX 6 1 5 3 4 4 3 5 2 6 1 7 7 8 8 9 24 10 9 11 23 12 18 13 21 14
REMARK SMILES IDX 19 15 20 16 22 17 10 18 11 20 12 21 16 22 13 23 15 24 14 25
REMARK SMILES IDX 17 26
REMARK H PARENT 6 2 10 19 17 27
ROOT
ATOM      1  N   UNL     1       6.288  41.698  49.450  1.00  0.00    -0.354 N 
ATOM      2  H   UNL     1       7.228  41.981  49.189  1.00  0.00     0.163 HD
ENDROOT
BRANCH   1   3
ATOM      3  C   UNL     1       5.437  41.265  48.356  1.00  0.00     0.118 C 
BRANCH   3   4
ATOM      4  C   UNL     1       5.836  42.008  47.083  1.00  0.00     0.050 C 
BRANCH   4   5
ATOM      5  C   UNL     1       5.078  41.469  45.874  1.00  0.00     0.161 C 
BRANCH   5   6
ATOM      6  O   UNL     1       3.863  40.828  46.260  1.00  0.00    -0.385 OA
ATOM      7  C   UNL     1       2.882  40.814  45.233  1.00  0.00     0.194 C 
ENDBRANCH   5   6
ENDBRANCH   4   5
ENDBRANCH   3   4
ENDBRANCH   1   3
BRANCH   1   8
ATOM      8  C   UNL     1       5.773  42.749  50.203  1.00  0.00     0.226 A 
ATOM      9  N   UNL     1       6.464  43.901  50.295  1.00  0.00    -0.195 NA
ATOM     10  N   UNL     1       4.596  42.495  50.787  1.00  0.00    -0.193 NA
ATOM     11  C   UNL     1       5.990  44.930  51.043  1.00  0.00     0.147 A 
ATOM     12  C   UNL     1       4.119  43.544  51.472  1.00  0.00     0.165 A 
ATOM     13  C   UNL     1       4.736  44.769  51.639  1.00  0.00     0.082 A 
ATOM     14  N   UNL     1       2.926  43.629  52.136  1.00  0.00    -0.250 N 
ATOM     15  C   UNL     1       3.806  45.528  52.379  1.00  0.00     0.149 A 
ATOM     16  N   UNL     1       2.709  44.836  52.708  1.00  0.00    -0.179 NA
ATOM     17  C   UNL     1       1.921  42.601  52.249  1.00  0.00     0.176 C 
BRANCH  11  18
ATOM     18  N   UNL     1       6.762  46.091  51.079  1.00  0.00    -0.336 N 
ATOM     19  H   UNL     1       6.801  46.530  50.163  1.00  0.00     0.168 HD
BRANCH  18  20
ATOM     20  C   UNL     1       7.868  46.467  51.866  1.00  0.00     0.082 A 
ATOM     21  C   UNL     1       9.181  46.057  51.614  1.00  0.00     0.030 A 
ATOM     22  C   UNL     1       7.636  47.254  53.010  1.00  0.00     0.139 A 
ATOM     23  C   UNL     1      10.224  46.419  52.474  1.00  0.00     0.002 A 
ATOM     24  C   UNL     1       8.669  47.620  53.874  1.00  0.00     0.048 A 
ATOM     25  C   UNL     1       9.967  47.195  53.603  1.00  0.00     0.004 A 
BRANCH  22  26
ATOM     26  O   UNL     1       6.353  47.676  53.254  1.00  0.00    -0.506 OA
ATOM     27  H   UNL     1       6.266  47.863  54.203  1.00  0.00     0.293 HD
ENDBRANCH  22  26
ENDBRANCH  18  20
ENDBRANCH  11  18
ENDBRANCH   1   8
TORSDOF 8
ENDMDL
MODEL 10
REMARK VINA RESULT:    -7.501      2.494      4.785
REMARK INTER + INTRA:         -12.012
REMARK INTER:                 -11.330
REMARK INTRA:                  -0.682
REMARK UNBOUND:                -1.223
REMARK SMILES COCCCNc1nc(Nc2ccccc2O)c2cnn(C)c2n1
REMARK SMILES IDX 6 1 5 3 4 4 3 5 2 6 1 7 7 8 8 9 24 10 9 11 23 12 18 13 21 14
REMARK SMILES IDX 19 15 20 16 22 17 10 18 11 20 12 21 16 22 13 23 15 24 14 25
REMARK SMILES IDX 17 26
REMARK H PARENT 6 2 10 19 17 27
ROOT
ATOM      1  N   UNL     1       4.637  41.930  50.979  1.00  0.00    -0.354 N 
ATOM      2  H   UNL     1       4.691  41.445  51.869  1.00  0.00     0.163 HD
ENDROOT
BRANCH   1   3
ATOM      3  C   UNL     1       5.737  41.687  50.064  1.00  0.00     0.118 C 
BRANCH   3   4
ATOM      4  C   UNL     1       5.183  41.183  48.733  1.00  0.00     0.050 C 
BRANCH   4   5
ATOM      5  C   UNL     1       3.844  40.480  48.927  1.00  0.00     0.161 C 
BRANCH   5   6
ATOM      6  O   UNL     1       3.106  40.414  47.707  1.00  0.00    -0.385 OA
ATOM      7  C   UNL     1       3.069  39.111  47.141  1.00  0.00     0.194 C 
ENDBRANCH   5   6
ENDBRANCH   4   5
ENDBRANCH   3   4
ENDBRANCH   1   3
BRANCH   1   8
ATOM      8  C   UNL     1       4.431  43.271  51.293  1.00  0.00     0.226 A 
ATOM      9  N   UNL     1       5.415  44.163  51.072  1.00  0.00    -0.195 NA
ATOM     10  N   UNL     1       3.227  43.547  51.809  1.00  0.00    -0.193 NA
ATOM     11  C   UNL     1       5.242  45.471  51.392  1.00  0.00     0.147 A 
ATOM     12  C   UNL     1       3.058  44.853  52.064  1.00  0.00     0.165 A 
ATOM     13  C   UNL     1       3.991  45.855  51.881  1.00  0.00     0.082 A 
ATOM     14  N   UNL     1       1.933  45.466  52.543  1.00  0.00    -0.250 N 
ATOM     15  C   UNL     1       3.306  47.036  52.237  1.00  0.00     0.149 A 
ATOM     16  N   UNL     1       2.058  46.808  52.665  1.00  0.00    -0.179 NA
ATOM     17  C   UNL     1       0.682  44.837  52.885  1.00  0.00     0.176 C 
BRANCH  11  18
ATOM     18  N   UNL     1       6.307  46.331  51.124  1.00  0.00    -0.336 N 
ATOM     19  H   UNL     1       6.372  46.529  50.128  1.00  0.00     0.168 HD
BRANCH  18  20
ATOM     20  C   UNL     1       7.550  46.526  51.759  1.00  0.00     0.082 A 
ATOM     21  C   UNL     1       8.753  45.977  51.305  1.00  0.00     0.030 A 
ATOM     22  C   UNL     1       7.578  47.268  52.955  1.00  0.00     0.139 A 
ATOM     23  C   UNL     1       9.941  46.162  52.021  1.00  0.00     0.002 A 
ATOM     24  C   UNL     1       8.757  47.457  53.676  1.00  0.00     0.048 A 
ATOM     25  C   UNL     1       9.942  46.896  53.205  1.00  0.00     0.004 A 
BRANCH  22  26
ATOM     26  O   UNL     1       6.404  47.826  53.396  1.00  0.00    -0.506 OA
ATOM     27  H   UNL     1       6.333  48.723  53.030  1.00  0.00     0.293 HD
ENDBRANCH  22  26
ENDBRANCH  18  20
ENDBRANCH  11  18
ENDBRANCH   1   8
TORSDOF 8
ENDMDL
MODEL 11
REMARK VINA RESULT:    -7.439      2.170      6.587
REMARK INTER + INTRA:         -11.923
REMARK INTER:                 -10.541
REMARK INTRA:                  -1.382
REMARK UNBOUND:                -1.223
REMARK SMILES COCCCNc1nc(Nc2ccccc2O)c2cnn(C)c2n1
REMARK SMILES IDX 6 1 5 3 4 4 3 5 2 6 1 7 7 8 8 9 24 10 9 11 23 12 18 13 21 14
REMARK SMILES IDX 19 15 20 16 22 17 10 18 11 20 12 21 16 22 13 23 15 24 14 25
REMARK SMILES IDX 17 26
REMARK H PARENT 6 2 10 19 17 27
ROOT
ATOM      1  N   UNL     1       6.111  44.193  49.853  1.00  0.00    -0.354 N 
ATOM      2  H   UNL     1       5.237  43.701  49.696  1.00  0.00     0.163 HD
ENDROOT
BRANCH   1   3
ATOM      3  C   UNL     1       7.317  43.430  49.587  1.00  0.00     0.118 C 
BRANCH   3   4
ATOM      4  C   UNL     1       7.066  41.960  49.913  1.00  0.00     0.050 C 
BRANCH   4   5
ATOM      5  C   UNL     1       5.785  41.462  49.253  1.00  0.00     0.161 C 
BRANCH   5   6
ATOM      6  O   UNL     1       4.713  41.376  50.190  1.00  0.00    -0.385 OA
ATOM      7  C   UNL     1       3.550  40.753  49.660  1.00  0.00     0.194 C 
ENDBRANCH   5   6
ENDBRANCH   4   5
ENDBRANCH   3   4
ENDBRANCH   1   3
BRANCH   1   8
ATOM      8  C   UNL     1       6.026  44.709  51.143  1.00  0.00     0.226 A 
ATOM      9  N   UNL     1       5.033  44.302  51.957  1.00  0.00    -0.195 NA
ATOM     10  N   UNL     1       6.977  45.598  51.454  1.00  0.00    -0.193 NA
ATOM     11  C   UNL     1       4.920  44.811  53.211  1.00  0.00     0.147 A 
ATOM     12  C   UNL     1       6.879  46.043  52.715  1.00  0.00     0.165 A 
ATOM     13  C   UNL     1       5.908  45.701  53.637  1.00  0.00     0.082 A 
ATOM     14  N   UNL     1       7.719  46.912  53.356  1.00  0.00    -0.250 N 
ATOM     15  C   UNL     1       6.288  46.386  54.810  1.00  0.00     0.149 A 
ATOM     16  N   UNL     1       7.377  47.146  54.644  1.00  0.00    -0.179 NA
ATOM     17  C   UNL     1       8.893  47.546  52.809  1.00  0.00     0.176 C 
BRANCH  11  18
ATOM     18  N   UNL     1       3.869  44.331  53.992  1.00  0.00    -0.336 N 
ATOM     19  H   UNL     1       4.199  43.633  54.656  1.00  0.00     0.168 HD
BRANCH  18  20
ATOM     20  C   UNL     1       2.494  44.169  53.733  1.00  0.00     0.082 A 
ATOM     21  C   UNL     1       1.515  45.094  54.107  1.00  0.00     0.030 A 
ATOM     22  C   UNL     1       2.068  42.980  53.111  1.00  0.00     0.139 A 
ATOM     23  C   UNL     1       0.159  44.839  53.871  1.00  0.00     0.002 A 
ATOM     24  C   UNL     1       0.719  42.717  52.872  1.00  0.00     0.048 A 
ATOM     25  C   UNL     1      -0.237  43.652  53.259  1.00  0.00     0.004 A 
BRANCH  22  26
ATOM     26  O   UNL     1       3.025  42.076  52.723  1.00  0.00    -0.506 OA
ATOM     27  H   UNL     1       2.644  41.183  52.776  1.00  0.00     0.293 HD
ENDBRANCH  22  26
ENDBRANCH  18  20
ENDBRANCH  11  18
ENDBRANCH   1   8
TORSDOF 8
ENDMDL
MODEL 12
REMARK VINA RESULT:    -7.293      1.786      6.180
REMARK INTER + INTRA:         -11.713
REMARK INTER:                 -11.036
REMARK INTRA:                  -0.677
REMARK UNBOUND:                -1.223
REMARK SMILES COCCCNc1nc(Nc2ccccc2O)c2cnn(C)c2n1
REMARK SMILES IDX 6 1 5 3 4 4 3 5 2 6 1 7 7 8 8 9 24 10 9 11 23 12 18 13 21 14
REMARK SMILES IDX 19 15 20 16 22 17 10 18 11 20 12 21 16 22 13 23 15 24 14 25
REMARK SMILES IDX 17 26
REMARK H PARENT 6 2 10 19 17 27
ROOT
ATOM      1  N   UNL     1       8.498  47.875  52.663  1.00  0.00    -0.354 N 
ATOM      2  H   UNL     1       8.488  48.553  51.907  1.00  0.00     0.163 HD
ENDROOT
BRANCH   1   3
ATOM      3  C   UNL     1       9.768  47.211  52.894  1.00  0.00     0.118 C 
BRANCH   3   4
ATOM      4  C   UNL     1       9.930  46.939  54.388  1.00  0.00     0.050 C 
BRANCH   4   5
ATOM      5  C   UNL     1       9.479  48.137  55.216  1.00  0.00     0.161 C 
BRANCH   5   6
ATOM      6  O   UNL     1      10.294  48.310  56.374  1.00  0.00    -0.385 OA
ATOM      7  C   UNL     1      11.360  47.373  56.457  1.00  0.00     0.194 C 
ENDBRANCH   5   6
ENDBRANCH   4   5
ENDBRANCH   3   4
ENDBRANCH   1   3
BRANCH   1   8
ATOM      8  C   UNL     1       7.433  47.015  52.412  1.00  0.00     0.226 A 
ATOM      9  N   UNL     1       6.273  47.183  53.075  1.00  0.00    -0.195 NA
ATOM     10  N   UNL     1       7.683  46.065  51.502  1.00  0.00    -0.193 NA
ATOM     11  C   UNL     1       5.230  46.341  52.860  1.00  0.00     0.147 A 
ATOM     12  C   UNL     1       6.621  45.282  51.264  1.00  0.00     0.165 A 
ATOM     13  C   UNL     1       5.387  45.357  51.881  1.00  0.00     0.082 A 
ATOM     14  N   UNL     1       6.530  44.259  50.361  1.00  0.00    -0.250 N 
ATOM     15  C   UNL     1       4.617  44.364  51.239  1.00  0.00     0.149 A 
ATOM     16  N   UNL     1       5.311  43.672  50.327  1.00  0.00    -0.179 NA
ATOM     17  C   UNL     1       7.564  43.795  49.469  1.00  0.00     0.176 C 
BRANCH  11  18
ATOM     18  N   UNL     1       4.062  46.589  53.581  1.00  0.00    -0.336 N 
ATOM     19  H   UNL     1       4.268  47.068  54.454  1.00  0.00     0.168 HD
BRANCH  18  20
ATOM     20  C   UNL     1       2.835  45.901  53.661  1.00  0.00     0.082 A 
ATOM     21  C   UNL     1       1.800  46.040  52.732  1.00  0.00     0.030 A 
ATOM     22  C   UNL     1       2.611  45.066  54.772  1.00  0.00     0.139 A 
ATOM     23  C   UNL     1       0.583  45.371  52.908  1.00  0.00     0.002 A 
ATOM     24  C   UNL     1       1.401  44.395  54.956  1.00  0.00     0.048 A 
ATOM     25  C   UNL     1       0.384  44.554  54.020  1.00  0.00     0.004 A 
BRANCH  22  26
ATOM     26  O   UNL     1       3.630  44.909  55.678  1.00  0.00    -0.506 OA
ATOM     27  H   UNL     1       4.440  45.288  55.297  1.00  0.00     0.293 HD
ENDBRANCH  22  26
ENDBRANCH  18  20
ENDBRANCH  11  18
ENDBRANCH   1   8
TORSDOF 8
ENDMDL
MODEL 13
REMARK VINA RESULT:    -7.278      2.595      6.069
REMARK INTER + INTRA:         -11.692
REMARK INTER:                 -10.592
REMARK INTRA:                  -1.099
REMARK UNBOUND:                -1.223
REMARK SMILES COCCCNc1nc(Nc2ccccc2O)c2cnn(C)c2n1
REMARK SMILES IDX 6 1 5 3 4 4 3 5 2 6 1 7 7 8 8 9 24 10 9 11 23 12 18 13 21 14
REMARK SMILES IDX 19 15 20 16 22 17 10 18 11 20 12 21 16 22 13 23 15 24 14 25
REMARK SMILES IDX 17 26
REMARK H PARENT 6 2 10 19 17 27
ROOT
ATOM      1  N   UNL     1       2.843  42.539  52.747  1.00  0.00    -0.354 N 
ATOM      2  H   UNL     1       2.566  41.585  52.538  1.00  0.00     0.163 HD
ENDROOT
BRANCH   1   3
ATOM      3  C   UNL     1       1.781  43.528  52.686  1.00  0.00     0.118 C 
BRANCH   3   4
ATOM      4  C   UNL     1       1.562  44.118  54.077  1.00  0.00     0.050 C 
BRANCH   4   5
ATOM      5  C   UNL     1       1.832  45.618  54.086  1.00  0.00     0.161 C 
BRANCH   5   6
ATOM      6  O   UNL     1       1.674  46.186  52.786  1.00  0.00    -0.385 OA
ATOM      7  C   UNL     1       2.758  47.021  52.401  1.00  0.00     0.194 C 
ENDBRANCH   5   6
ENDBRANCH   4   5
ENDBRANCH   3   4
ENDBRANCH   1   3
BRANCH   1   8
ATOM      8  C   UNL     1       3.930  42.806  51.920  1.00  0.00     0.226 A 
ATOM      9  N   UNL     1       4.226  41.956  50.918  1.00  0.00    -0.195 NA
ATOM     10  N   UNL     1       4.601  43.924  52.221  1.00  0.00    -0.193 NA
ATOM     11  C   UNL     1       5.296  42.187  50.114  1.00  0.00     0.147 A 
ATOM     12  C   UNL     1       5.618  44.162  51.379  1.00  0.00     0.165 A 
ATOM     13  C   UNL     1       6.016  43.366  50.323  1.00  0.00     0.082 A 
ATOM     14  N   UNL     1       6.460  45.240  51.379  1.00  0.00    -0.250 N 
ATOM     15  C   UNL     1       7.076  44.083  49.729  1.00  0.00     0.149 A 
ATOM     16  N   UNL     1       7.372  45.215  50.379  1.00  0.00    -0.179 NA
ATOM     17  C   UNL     1       6.443  46.354  52.294  1.00  0.00     0.176 C 
BRANCH  11  18
ATOM     18  N   UNL     1       5.529  41.264  49.095  1.00  0.00    -0.336 N 
ATOM     19  H   UNL     1       6.466  40.873  49.166  1.00  0.00     0.168 HD
BRANCH  18  20
ATOM     20  C   UNL     1       5.039  41.165  47.778  1.00  0.00     0.082 A 
ATOM     21  C   UNL     1       5.652  41.759  46.671  1.00  0.00     0.030 A 
ATOM     22  C   UNL     1       3.829  40.477  47.566  1.00  0.00     0.139 A 
ATOM     23  C   UNL     1       5.076  41.671  45.398  1.00  0.00     0.002 A 
ATOM     24  C   UNL     1       3.247  40.384  46.302  1.00  0.00     0.048 A 
ATOM     25  C   UNL     1       3.874  40.989  45.216  1.00  0.00     0.004 A 
BRANCH  22  26
ATOM     26  O   UNL     1       3.232  39.875  48.646  1.00  0.00    -0.506 OA
ATOM     27  H   UNL     1       3.734  39.073  48.867  1.00  0.00     0.293 HD
ENDBRANCH  22  26
ENDBRANCH  18  20
ENDBRANCH  11  18
ENDBRANCH   1   8
TORSDOF 8
ENDMDL
MODEL 14
REMARK VINA RESULT:    -7.260      2.242      7.016
REMARK INTER + INTRA:         -11.665
REMARK INTER:                 -10.692
REMARK INTRA:                  -0.974
REMARK UNBOUND:                -1.223
REMARK SMILES COCCCNc1nc(Nc2ccccc2O)c2cnn(C)c2n1
REMARK SMILES IDX 6 1 5 3 4 4 3 5 2 6 1 7 7 8 8 9 24 10 9 11 23 12 18 13 21 14
REMARK SMILES IDX 19 15 20 16 22 17 10 18 11 20 12 21 16 22 13 23 15 24 14 25
REMARK SMILES IDX 17 26
REMARK H PARENT 6 2 10 19 17 27
ROOT
ATOM      1  N   UNL     1       6.987  46.091  51.401  1.00  0.00    -0.354 N 
ATOM      2  H   UNL     1       7.856  45.574  51.306  1.00  0.00     0.163 HD
ENDROOT
BRANCH   1   3
ATOM      3  C   UNL     1       6.972  47.110  52.435  1.00  0.00     0.118 C 
BRANCH   3   4
ATOM      4  C   UNL     1       8.254  47.935  52.348  1.00  0.00     0.050 C 
BRANCH   4   5
ATOM      5  C   UNL     1       9.288  47.451  53.359  1.00  0.00     0.161 C 
BRANCH   5   6
ATOM      6  O   UNL     1       9.772  46.149  53.031  1.00  0.00    -0.385 OA
ATOM      7  C   UNL     1      10.480  46.106  51.800  1.00  0.00     0.194 C 
ENDBRANCH   5   6
ENDBRANCH   4   5
ENDBRANCH   3   4
ENDBRANCH   1   3
BRANCH   1   8
ATOM      8  C   UNL     1       5.988  45.129  51.522  1.00  0.00     0.226 A 
ATOM      9  N   UNL     1       6.112  43.958  50.870  1.00  0.00    -0.195 NA
ATOM     10  N   UNL     1       4.961  45.485  52.303  1.00  0.00    -0.193 NA
ATOM     11  C   UNL     1       5.138  43.015  50.958  1.00  0.00     0.147 A 
ATOM     12  C   UNL     1       4.039  44.518  52.421  1.00  0.00     0.165 A 
ATOM     13  C   UNL     1       4.057  43.283  51.802  1.00  0.00     0.082 A 
ATOM     14  N   UNL     1       2.903  44.543  53.182  1.00  0.00    -0.250 N 
ATOM     15  C   UNL     1       2.909  42.630  52.298  1.00  0.00     0.149 A 
ATOM     16  N   UNL     1       2.184  43.398  53.121  1.00  0.00    -0.179 NA
ATOM     17  C   UNL     1       2.444  45.623  54.020  1.00  0.00     0.176 C 
BRANCH  11  18
ATOM     18  N   UNL     1       5.347  41.827  50.260  1.00  0.00    -0.336 N 
ATOM     19  H   UNL     1       6.171  41.341  50.607  1.00  0.00     0.168 HD
BRANCH  18  20
ATOM     20  C   UNL     1       5.057  41.444  48.935  1.00  0.00     0.082 A 
ATOM     21  C   UNL     1       5.773  41.888  47.820  1.00  0.00     0.030 A 
ATOM     22  C   UNL     1       3.944  40.610  48.710  1.00  0.00     0.139 A 
ATOM     23  C   UNL     1       5.390  41.515  46.526  1.00  0.00     0.002 A 
ATOM     24  C   UNL     1       3.556  40.234  47.424  1.00  0.00     0.048 A 
ATOM     25  C   UNL     1       4.282  40.693  46.330  1.00  0.00     0.004 A 
BRANCH  22  26
ATOM     26  O   UNL     1       3.248  40.155  49.802  1.00  0.00    -0.506 OA
ATOM     27  H   UNL     1       3.833  39.575  50.319  1.00  0.00     0.293 HD
ENDBRANCH  22  26
ENDBRANCH  18  20
ENDBRANCH  11  18
ENDBRANCH   1   8
TORSDOF 8
ENDMDL
MODEL 15
REMARK VINA RESULT:    -7.174      2.435      6.418
REMARK INTER + INTRA:         -11.543
REMARK INTER:                 -11.048
REMARK INTRA:                  -0.494
REMARK UNBOUND:                -1.223
REMARK SMILES COCCCNc1nc(Nc2ccccc2O)c2cnn(C)c2n1
REMARK SMILES IDX 6 1 5 3 4 4 3 5 2 6 1 7 7 8 8 9 24 10 9 11 23 12 18 13 21 14
REMARK SMILES IDX 19 15 20 16 22 17 10 18 11 20 12 21 16 22 13 23 15 24 14 25
REMARK SMILES IDX 17 26
REMARK H PARENT 6 2 10 19 17 27
ROOT
ATOM      1  N   UNL     1       3.871  46.142  55.362  1.00  0.00    -0.354 N 
ATOM      2  H   UNL     1       3.339  46.625  56.080  1.00  0.00     0.163 HD
ENDROOT
BRANCH   1   3
ATOM      3  C   UNL     1       4.631  46.993  54.464  1.00  0.00     0.118 C 
BRANCH   3   4
ATOM      4  C   UNL     1       6.118  46.684  54.616  1.00  0.00     0.050 C 
BRANCH   4   5
ATOM      5  C   UNL     1       6.830  46.739  53.268  1.00  0.00     0.161 C 
BRANCH   5   6
ATOM      6  O   UNL     1       7.615  47.924  53.138  1.00  0.00    -0.385 OA
ATOM      7  C   UNL     1       8.318  48.002  51.906  1.00  0.00     0.194 C 
ENDBRANCH   5   6
ENDBRANCH   4   5
ENDBRANCH   3   4
ENDBRANCH   1   3
BRANCH   1   8
ATOM      8  C   UNL     1       2.967  45.294  54.729  1.00  0.00     0.226 A 
ATOM      9  N   UNL     1       3.346  44.623  53.625  1.00  0.00    -0.195 NA
ATOM     10  N   UNL     1       1.760  45.233  55.304  1.00  0.00    -0.193 NA
ATOM     11  C   UNL     1       2.472  43.808  52.980  1.00  0.00     0.147 A 
ATOM     12  C   UNL     1       0.931  44.379  54.685  1.00  0.00     0.165 A 
ATOM     13  C   UNL     1       1.207  43.642  53.550  1.00  0.00     0.082 A 
ATOM     14  N   UNL     1      -0.346  44.051  55.048  1.00  0.00    -0.250 N 
ATOM     15  C   UNL     1       0.043  42.871  53.346  1.00  0.00     0.149 A 
ATOM     16  N   UNL     1      -0.919  43.129  54.239  1.00  0.00    -0.179 NA
ATOM     17  C   UNL     1      -1.084  44.559  56.177  1.00  0.00     0.176 C 
BRANCH  11  18
ATOM     18  N   UNL     1       2.947  43.144  51.850  1.00  0.00    -0.336 N 
ATOM     19  H   UNL     1       2.474  42.252  51.727  1.00  0.00     0.168 HD
BRANCH  18  20
ATOM     20  C   UNL     1       4.204  43.140  51.213  1.00  0.00     0.082 A 
ATOM     21  C   UNL     1       5.000  44.277  51.051  1.00  0.00     0.030 A 
ATOM     22  C   UNL     1       4.664  41.932  50.654  1.00  0.00     0.139 A 
ATOM     23  C   UNL     1       6.212  44.211  50.353  1.00  0.00     0.002 A 
ATOM     24  C   UNL     1       5.870  41.857  49.956  1.00  0.00     0.048 A 
ATOM     25  C   UNL     1       6.642  43.005  49.804  1.00  0.00     0.004 A 
BRANCH  22  26
ATOM     26  O   UNL     1       3.896  40.807  50.826  1.00  0.00    -0.506 OA
ATOM     27  H   UNL     1       3.666  40.455  49.950  1.00  0.00     0.293 HD
ENDBRANCH  22  26
ENDBRANCH  18  20
ENDBRANCH  11  18
ENDBRANCH   1   8
TORSDOF 8
ENDMDL
MODEL 16
REMARK VINA RESULT:    -7.147      2.129      6.572
REMARK INTER + INTRA:         -11.504
REMARK INTER:                 -10.724
REMARK INTRA:                  -0.779
REMARK UNBOUND:                -1.223
REMARK SMILES COCCCNc1nc(Nc2ccccc2O)c2cnn(C)c2n1
REMARK SMILES IDX 6 1 5 3 4 4 3 5 2 6 1 7 7 8 8 9 24 10 9 11 23 12 18 13 21 14
REMARK SMILES IDX 19 15 20 16 22 17 10 18 11 20 12 21 16 22 13 23 15 24 14 25
REMARK SMILES IDX 17 26
REMARK H PARENT 6 2 10 19 17 27
ROOT
ATOM      1  N   UNL     1       6.219  46.752  54.955  1.00  0.00    -0.354 N 
ATOM      2  H   UNL     1       5.947  47.703  55.185  1.00  0.00     0.163 HD
ENDROOT
BRANCH   1   3
ATOM      3  C   UNL     1       7.376  46.623  54.088  1.00  0.00     0.118 C 
BRANCH   3   4
ATOM      4  C   UNL     1       8.475  47.567  54.569  1.00  0.00     0.050 C 
BRANCH   4   5
ATOM      5  C   UNL     1       9.807  47.247  53.899  1.00  0.00     0.161 C 
BRANCH   5   6
ATOM      6  O   UNL     1       9.730  46.048  53.130  1.00  0.00    -0.385 OA
ATOM      7  C   UNL     1      10.276  46.181  51.824  1.00  0.00     0.194 C 
ENDBRANCH   5   6
ENDBRANCH   4   5
ENDBRANCH   3   4
ENDBRANCH   1   3
BRANCH   1   8
ATOM      8  C   UNL     1       5.066  46.137  54.475  1.00  0.00     0.226 A 
ATOM      9  N   UNL     1       5.054  45.627  53.229  1.00  0.00    -0.195 NA
ATOM     10  N   UNL     1       4.041  46.119  55.337  1.00  0.00    -0.193 NA
ATOM     11  C   UNL     1       3.932  45.043  52.736  1.00  0.00     0.147 A 
ATOM     12  C   UNL     1       2.964  45.487  54.850  1.00  0.00     0.165 A 
ATOM     13  C   UNL     1       2.835  44.929  53.593  1.00  0.00     0.082 A 
ATOM     14  N   UNL     1       1.779  45.251  55.492  1.00  0.00    -0.250 N 
ATOM     15  C   UNL     1       1.550  44.345  53.603  1.00  0.00     0.149 A 
ATOM     16  N   UNL     1       0.888  44.556  54.747  1.00  0.00    -0.179 NA
ATOM     17  C   UNL     1       1.428  45.640  56.835  1.00  0.00     0.176 C 
BRANCH  11  18
ATOM     18  N   UNL     1       4.006  44.532  51.440  1.00  0.00    -0.336 N 
ATOM     19  H   UNL     1       3.089  44.527  50.998  1.00  0.00     0.168 HD
BRANCH  18  20
ATOM     20  C   UNL     1       4.857  43.581  50.845  1.00  0.00     0.082 A 
ATOM     21  C   UNL     1       6.066  43.898  50.219  1.00  0.00     0.030 A 
ATOM     22  C   UNL     1       4.443  42.235  50.826  1.00  0.00     0.139 A 
ATOM     23  C   UNL     1       6.833  42.907  49.595  1.00  0.00     0.002 A 
ATOM     24  C   UNL     1       5.200  41.241  50.205  1.00  0.00     0.048 A 
ATOM     25  C   UNL     1       6.398  41.584  49.585  1.00  0.00     0.004 A 
BRANCH  22  26
ATOM     26  O   UNL     1       3.266  41.913  51.455  1.00  0.00    -0.506 OA
ATOM     27  H   UNL     1       2.914  41.103  51.051  1.00  0.00     0.293 HD
ENDBRANCH  22  26
ENDBRANCH  18  20
ENDBRANCH  11  18
ENDBRANCH   1   8
TORSDOF 8
ENDMDL
MODEL 17
REMARK VINA RESULT:    -7.123      1.514      6.160
REMARK INTER + INTRA:         -11.469
REMARK INTER:                 -10.818
REMARK INTRA:                  -0.651
REMARK UNBOUND:                -1.223
REMARK SMILES COCCCNc1nc(Nc2ccccc2O)c2cnn(C)c2n1
REMARK SMILES IDX 6 1 5 3 4 4 3 5 2 6 1 7 7 8 8 9 24 10 9 11 23 12 18 13 21 14
REMARK SMILES IDX 19 15 20 16 22 17 10 18 11 20 12 21 16 22 13 23 15 24 14 25
REMARK SMILES IDX 17 26
REMARK H PARENT 6 2 10 19 17 27
ROOT
ATOM      1  N   UNL     1       6.901  46.240  51.277  1.00  0.00    -0.354 N 
ATOM      2  H   UNL     1       7.816  45.841  51.089  1.00  0.00     0.163 HD
ENDROOT
BRANCH   1   3
ATOM      3  C   UNL     1       6.857  47.243  52.327  1.00  0.00     0.118 C 
BRANCH   3   4
ATOM      4  C   UNL     1       8.196  47.974  52.382  1.00  0.00     0.050 C 
BRANCH   4   5
ATOM      5  C   UNL     1       8.979  47.592  53.633  1.00  0.00     0.161 C 
BRANCH   5   6
ATOM      6  O   UNL     1      10.269  47.076  53.306  1.00  0.00    -0.385 OA
ATOM      7  C   UNL     1      10.296  46.368  52.075  1.00  0.00     0.194 C 
ENDBRANCH   5   6
ENDBRANCH   4   5
ENDBRANCH   3   4
ENDBRANCH   1   3
BRANCH   1   8
ATOM      8  C   UNL     1       6.051  45.156  51.477  1.00  0.00     0.226 A 
ATOM      9  N   UNL     1       5.158  45.190  52.483  1.00  0.00    -0.195 NA
ATOM     10  N   UNL     1       6.220  44.146  50.614  1.00  0.00    -0.193 NA
ATOM     11  C   UNL     1       4.335  44.133  52.708  1.00  0.00     0.147 A 
ATOM     12  C   UNL     1       5.358  43.139  50.819  1.00  0.00     0.165 A 
ATOM     13  C   UNL     1       4.405  43.061  51.816  1.00  0.00     0.082 A 
ATOM     14  N   UNL     1       5.234  41.992  50.085  1.00  0.00    -0.250 N 
ATOM     15  C   UNL     1       3.733  41.847  51.558  1.00  0.00     0.149 A 
ATOM     16  N   UNL     1       4.246  41.175  50.521  1.00  0.00    -0.179 NA
ATOM     17  C   UNL     1       6.010  41.611  48.932  1.00  0.00     0.176 C 
BRANCH  11  18
ATOM     18  N   UNL     1       3.433  44.251  53.765  1.00  0.00    -0.336 N 
ATOM     19  H   UNL     1       3.772  43.761  54.590  1.00  0.00     0.168 HD
BRANCH  18  20
ATOM     20  C   UNL     1       2.031  44.388  53.802  1.00  0.00     0.082 A 
ATOM     21  C   UNL     1       1.218  44.399  52.665  1.00  0.00     0.030 A 
ATOM     22  C   UNL     1       1.412  44.585  55.052  1.00  0.00     0.139 A 
ATOM     23  C   UNL     1      -0.163  44.600  52.772  1.00  0.00     0.002 A 
ATOM     24  C   UNL     1       0.037  44.787  55.168  1.00  0.00     0.048 A 
ATOM     25  C   UNL     1      -0.750  44.798  54.020  1.00  0.00     0.004 A 
BRANCH  22  26
ATOM     26  O   UNL     1       2.202  44.557  56.174  1.00  0.00    -0.506 OA
ATOM     27  H   UNL     1       1.658  44.805  56.939  1.00  0.00     0.293 HD
ENDBRANCH  22  26
ENDBRANCH  18  20
ENDBRANCH  11  18
ENDBRANCH   1   8
TORSDOF 8
ENDMDL
MODEL 18
REMARK VINA RESULT:    -7.119      1.511      6.101
REMARK INTER + INTRA:         -11.462
REMARK INTER:                 -10.355
REMARK INTRA:                  -1.108
REMARK UNBOUND:                -1.223
REMARK SMILES COCCCNc1nc(Nc2ccccc2O)c2cnn(C)c2n1
REMARK SMILES IDX 6 1 5 3 4 4 3 5 2 6 1 7 7 8 8 9 24 10 9 11 23 12 18 13 21 14
REMARK SMILES IDX 19 15 20 16 22 17 10 18 11 20 12 21 16 22 13 23 15 24 14 25
REMARK SMILES IDX 17 26
REMARK H PARENT 6 2 10 19 17 27
ROOT
ATOM      1  N   UNL     1       5.084  46.554  52.490  1.00  0.00    -0.354 N 
ATOM      2  H   UNL     1       5.851  46.872  51.906  1.00  0.00     0.163 HD
ENDROOT
BRANCH   1   3
ATOM      3  C   UNL     1       5.237  46.796  53.914  1.00  0.00     0.118 C 
BRANCH   3   4
ATOM      4  C   UNL     1       6.510  46.114  54.407  1.00  0.00     0.050 C 
BRANCH   4   5
ATOM      5  C   UNL     1       7.744  46.943  54.069  1.00  0.00     0.161 C 
BRANCH   5   6
ATOM      6  O   UNL     1       7.441  47.971  53.126  1.00  0.00    -0.385 OA
ATOM      7  C   UNL     1       8.306  47.972  51.999  1.00  0.00     0.194 C 
ENDBRANCH   5   6
ENDBRANCH   4   5
ENDBRANCH   3   4
ENDBRANCH   1   3
BRANCH   1   8
ATOM      8  C   UNL     1       4.879  45.220  52.150  1.00  0.00     0.226 A 
ATOM      9  N   UNL     1       3.895  44.525  52.750  1.00  0.00    -0.195 NA
ATOM     10  N   UNL     1       5.720  44.743  51.224  1.00  0.00    -0.193 NA
ATOM     11  C   UNL     1       3.693  43.216  52.448  1.00  0.00     0.147 A 
ATOM     12  C   UNL     1       5.466  43.466  50.899  1.00  0.00     0.165 A 
ATOM     13  C   UNL     1       4.490  42.656  51.447  1.00  0.00     0.082 A 
ATOM     14  N   UNL     1       6.104  42.707  49.958  1.00  0.00    -0.250 N 
ATOM     15  C   UNL     1       4.601  41.447  50.729  1.00  0.00     0.149 A 
ATOM     16  N   UNL     1       5.597  41.458  49.835  1.00  0.00    -0.179 NA
ATOM     17  C   UNL     1       7.199  43.113  49.112  1.00  0.00     0.176 C 
BRANCH  11  18
ATOM     18  N   UNL     1       2.647  42.572  53.108  1.00  0.00    -0.336 N 
ATOM     19  H   UNL     1       2.758  41.561  53.064  1.00  0.00     0.168 HD
BRANCH  18  20
ATOM     20  C   UNL     1       1.298  42.923  53.313  1.00  0.00     0.082 A 
ATOM     21  C   UNL     1       0.246  42.482  52.505  1.00  0.00     0.030 A 
ATOM     22  C   UNL     1       0.993  43.817  54.357  1.00  0.00     0.139 A 
ATOM     23  C   UNL     1      -1.064  42.921  52.731  1.00  0.00     0.002 A 
ATOM     24  C   UNL     1      -0.309  44.260  54.589  1.00  0.00     0.048 A 
ATOM     25  C   UNL     1      -1.339  43.810  53.768  1.00  0.00     0.004 A 
BRANCH  22  26
ATOM     26  O   UNL     1       2.019  44.238  55.166  1.00  0.00    -0.506 OA
ATOM     27  H   UNL     1       2.840  43.813  54.867  1.00  0.00     0.293 HD
ENDBRANCH  22  26
ENDBRANCH  18  20
ENDBRANCH  11  18
ENDBRANCH   1   8
TORSDOF 8
ENDMDL
MODEL 19
REMARK VINA RESULT:    -7.099      2.063      5.456
REMARK INTER + INTRA:         -11.434
REMARK INTER:                 -10.001
REMARK INTRA:                  -1.434
REMARK UNBOUND:                -1.223
REMARK SMILES COCCCNc1nc(Nc2ccccc2O)c2cnn(C)c2n1
REMARK SMILES IDX 6 1 5 3 4 4 3 5 2 6 1 7 7 8 8 9 24 10 9 11 23 12 18 13 21 14
REMARK SMILES IDX 19 15 20 16 22 17 10 18 11 20 12 21 16 22 13 23 15 24 14 25
REMARK SMILES IDX 17 26
REMARK H PARENT 6 2 10 19 17 27
ROOT
ATOM      1  N   UNL     1       6.164  44.061  49.622  1.00  0.00    -0.354 N 
ATOM      2  H   UNL     1       5.153  44.118  49.558  1.00  0.00     0.163 HD
ENDROOT
BRANCH   1   3
ATOM      3  C   UNL     1       6.706  42.731  49.836  1.00  0.00     0.118 C 
BRANCH   3   4
ATOM      4  C   UNL     1       5.633  41.692  49.517  1.00  0.00     0.050 C 
BRANCH   4   5
ATOM      5  C   UNL     1       4.714  41.467  50.712  1.00  0.00     0.161 C 
BRANCH   5   6
ATOM      6  O   UNL     1       3.848  42.582  50.924  1.00  0.00    -0.385 OA
ATOM      7  C   UNL     1       3.528  42.795  52.292  1.00  0.00     0.194 C 
ENDBRANCH   5   6
ENDBRANCH   4   5
ENDBRANCH   3   4
ENDBRANCH   1   3
BRANCH   1   8
ATOM      8  C   UNL     1       6.535  44.997  50.582  1.00  0.00     0.226 A 
ATOM      9  N   UNL     1       5.585  45.601  51.322  1.00  0.00    -0.195 NA
ATOM     10  N   UNL     1       7.852  45.216  50.673  1.00  0.00    -0.193 NA
ATOM     11  C   UNL     1       5.925  46.534  52.249  1.00  0.00     0.147 A 
ATOM     12  C   UNL     1       8.168  46.097  51.633  1.00  0.00     0.165 A 
ATOM     13  C   UNL     1       7.286  46.778  52.449  1.00  0.00     0.082 A 
ATOM     14  N   UNL     1       9.420  46.497  52.013  1.00  0.00    -0.250 N 
ATOM     15  C   UNL     1       8.116  47.523  53.312  1.00  0.00     0.149 A 
ATOM     16  N   UNL     1       9.418  47.379  53.040  1.00  0.00    -0.179 NA
ATOM     17  C   UNL     1      10.676  46.061  51.456  1.00  0.00     0.176 C 
BRANCH  11  18
ATOM     18  N   UNL     1       4.882  47.105  52.978  1.00  0.00    -0.336 N 
ATOM     19  H   UNL     1       5.205  47.917  53.499  1.00  0.00     0.168 HD
BRANCH  18  20
ATOM     20  C   UNL     1       3.728  46.553  53.569  1.00  0.00     0.082 A 
ATOM     21  C   UNL     1       3.670  46.091  54.887  1.00  0.00     0.030 A 
ATOM     22  C   UNL     1       2.577  46.403  52.771  1.00  0.00     0.139 A 
ATOM     23  C   UNL     1       2.506  45.498  55.389  1.00  0.00     0.002 A 
ATOM     24  C   UNL     1       1.413  45.813  53.263  1.00  0.00     0.048 A 
ATOM     25  C   UNL     1       1.383  45.356  54.578  1.00  0.00     0.004 A 
BRANCH  22  26
ATOM     26  O   UNL     1       2.621  46.872  51.482  1.00  0.00    -0.506 OA
ATOM     27  H   UNL     1       2.328  46.162  50.887  1.00  0.00     0.293 HD
ENDBRANCH  22  26
ENDBRANCH  18  20
ENDBRANCH  11  18
ENDBRANCH   1   8
TORSDOF 8
ENDMDL
