MODEL 1
REMARK VINA RESULT:    -7.840      0.000      0.000
REMARK INTER + INTRA:         -12.782
REMARK INTER:                 -11.507
REMARK INTRA:                  -1.275
REMARK UNBOUND:                -1.275
REMARK SMILES COCCCNc1nc(Nc2ccccc2OC)c2cnn(C)c2n1
REMARK SMILES IDX 6 1 5 3 4 4 3 5 2 6 1 7 7 8 8 9 25 10 9 11 24 12 19 13 22 14
REMARK SMILES IDX 20 15 21 16 23 17 10 18 11 20 12 21 16 22 13 23 15 24 14 25
REMARK SMILES IDX 17 26 18 27
REMARK H PARENT 6 2 10 19
ROOT
ATOM      1  N   UNL     1       2.166  45.397  52.504  1.00  0.00    -0.354 N 
ATOM      2  H   UNL     1       1.561  44.584  52.439  1.00  0.00     0.163 HD
ENDROOT
BRANCH   1   3
ATOM      3  C   UNL     1       2.286  45.981  53.828  1.00  0.00     0.118 C 
BRANCH   3   4
ATOM      4  C   UNL     1       1.821  44.988  54.891  1.00  0.00     0.050 C 
BRANCH   4   5
ATOM      5  C   UNL     1       0.620  44.163  54.434  1.00  0.00     0.161 C 
BRANCH   5   6
ATOM      6  O   UNL     1       1.049  42.929  53.853  1.00  0.00    -0.385 OA
ATOM      7  C   UNL     1       0.074  42.343  53.004  1.00  0.00     0.194 C 
ENDBRANCH   5   6
ENDBRANCH   4   5
ENDBRANCH   3   4
ENDBRANCH   1   3
BRANCH   1   8
ATOM      8  C   UNL     1       3.373  45.015  51.928  1.00  0.00     0.226 A 
ATOM      9  N   UNL     1       4.393  45.892  51.879  1.00  0.00    -0.195 NA
ATOM     10  N   UNL     1       3.397  43.761  51.459  1.00  0.00    -0.193 NA
ATOM     11  C   UNL     1       5.585  45.532  51.337  1.00  0.00     0.147 A 
ATOM     12  C   UNL     1       4.563  43.447  50.878  1.00  0.00     0.165 A 
ATOM     13  C   UNL     1       5.677  44.257  50.773  1.00  0.00     0.082 A 
ATOM     14  N   UNL     1       4.892  42.271  50.259  1.00  0.00    -0.250 N 
ATOM     15  C   UNL     1       6.600  43.485  50.036  1.00  0.00     0.149 A 
ATOM     16  N   UNL     1       6.141  42.264  49.738  1.00  0.00    -0.179 NA
ATOM     17  C   UNL     1       4.055  41.109  50.105  1.00  0.00     0.176 C 
BRANCH  11  18
ATOM     18  N   UNL     1       6.587  46.503  51.318  1.00  0.00    -0.336 N 
ATOM     19  H   UNL     1       6.204  47.411  51.069  1.00  0.00     0.168 HD
BRANCH  18  20
ATOM     20  C   UNL     1       7.790  46.639  52.045  1.00  0.00     0.082 A 
ATOM     21  C   UNL     1       9.034  46.238  51.543  1.00  0.00     0.030 A 
ATOM     22  C   UNL     1       7.742  47.262  53.315  1.00  0.00     0.142 A 
ATOM     23  C   UNL     1      10.204  46.446  52.276  1.00  0.00     0.002 A 
ATOM     24  C   UNL     1       8.917  47.465  54.045  1.00  0.00     0.048 A 
ATOM     25  C   UNL     1      10.146  47.061  53.522  1.00  0.00     0.004 A 
BRANCH  22  26
ATOM     26  O   UNL     1       6.482  47.608  53.750  1.00  0.00    -0.495 OA
ATOM     27  C   UNL     1       5.946  46.867  54.838  1.00  0.00     0.278 C 
ENDBRANCH  22  26
ENDBRANCH  18  20
ENDBRANCH  11  18
ENDBRANCH   1   8
TORSDOF 8
ENDMDL
MODEL 2
REMARK VINA RESULT:    -7.750      1.877      4.330
REMARK INTER + INTRA:         -12.649
REMARK INTER:                 -11.557
REMARK INTRA:                  -1.092
REMARK UNBOUND:                -1.275
REMARK SMILES COCCCNc1nc(Nc2ccccc2OC)c2cnn(C)c2n1
REMARK SMILES IDX 6 1 5 3 4 4 3 5 2 6 1 7 7 8 8 9 25 10 9 11 24 12 19 13 22 14
REMARK SMILES IDX 20 15 21 16 23 17 10 18 11 20 12 21 16 22 13 23 15 24 14 25
REMARK SMILES IDX 17 26 18 27
REMARK H PARENT 6 2 10 19
ROOT
ATOM      1  N   UNL     1       4.720  41.994  51.300  1.00  0.00    -0.354 N 
ATOM      2  H   UNL     1       4.717  41.580  52.226  1.00  0.00     0.163 HD
ENDROOT
BRANCH   1   3
ATOM      3  C   UNL     1       3.879  41.336  50.317  1.00  0.00     0.118 C 
BRANCH   3   4
ATOM      4  C   UNL     1       4.675  41.039  49.049  1.00  0.00     0.050 C 
BRANCH   4   5
ATOM      5  C   UNL     1       6.155  41.385  49.195  1.00  0.00     0.161 C 
BRANCH   5   6
ATOM      6  O   UNL     1       6.436  42.654  48.599  1.00  0.00    -0.385 OA
ATOM      7  C   UNL     1       7.638  43.241  49.076  1.00  0.00     0.194 C 
ENDBRANCH   5   6
ENDBRANCH   4   5
ENDBRANCH   3   4
ENDBRANCH   1   3
BRANCH   1   8
ATOM      8  C   UNL     1       4.440  43.344  51.491  1.00  0.00     0.226 A 
ATOM      9  N   UNL     1       5.414  44.256  51.320  1.00  0.00    -0.195 NA
ATOM     10  N   UNL     1       3.175  43.607  51.842  1.00  0.00    -0.193 NA
ATOM     11  C   UNL     1       5.155  45.579  51.484  1.00  0.00     0.147 A 
ATOM     12  C   UNL     1       2.956  44.913  52.055  1.00  0.00     0.165 A 
ATOM     13  C   UNL     1       3.873  45.937  51.907  1.00  0.00     0.082 A 
ATOM     14  N   UNL     1       1.795  45.503  52.471  1.00  0.00    -0.250 N 
ATOM     15  C   UNL     1       3.167  47.093  52.303  1.00  0.00     0.149 A 
ATOM     16  N   UNL     1       1.893  46.844  52.625  1.00  0.00    -0.179 NA
ATOM     17  C   UNL     1       0.546  44.847  52.765  1.00  0.00     0.176 C 
BRANCH  11  18
ATOM     18  N   UNL     1       6.222  46.458  51.296  1.00  0.00    -0.336 N 
ATOM     19  H   UNL     1       5.889  47.377  51.018  1.00  0.00     0.168 HD
BRANCH  18  20
ATOM     20  C   UNL     1       7.501  46.538  51.891  1.00  0.00     0.082 A 
ATOM     21  C   UNL     1       8.662  46.059  51.272  1.00  0.00     0.030 A 
ATOM     22  C   UNL     1       7.620  47.185  53.145  1.00  0.00     0.142 A 
ATOM     23  C   UNL     1       9.912  46.213  51.875  1.00  0.00     0.002 A 
ATOM     24  C   UNL     1       8.875  47.333  53.744  1.00  0.00     0.048 A 
ATOM     25  C   UNL     1      10.018  46.852  53.106  1.00  0.00     0.004 A 
BRANCH  22  26
ATOM     26  O   UNL     1       6.434  47.609  53.699  1.00  0.00    -0.495 OA
ATOM     27  C   UNL     1       5.945  46.880  54.819  1.00  0.00     0.278 C 
ENDBRANCH  22  26
ENDBRANCH  18  20
ENDBRANCH  11  18
ENDBRANCH   1   8
TORSDOF 8
ENDMDL
MODEL 3
REMARK VINA RESULT:    -7.725      1.875      4.164
REMARK INTER + INTRA:         -12.613
REMARK INTER:                 -11.734
REMARK INTRA:                  -0.879
REMARK UNBOUND:                -1.275
REMARK SMILES COCCCNc1nc(Nc2ccccc2OC)c2cnn(C)c2n1
REMARK SMILES IDX 6 1 5 3 4 4 3 5 2 6 1 7 7 8 8 9 25 10 9 11 24 12 19 13 22 14
REMARK SMILES IDX 20 15 21 16 23 17 10 18 11 20 12 21 16 22 13 23 15 24 14 25
REMARK SMILES IDX 17 26 18 27
REMARK H PARENT 6 2 10 19
ROOT
ATOM      1  N   UNL     1       4.996  42.088  50.846  1.00  0.00    -0.354 N 
ATOM      2  H   UNL     1       4.108  41.599  50.812  1.00  0.00     0.163 HD
ENDROOT
BRANCH   1   3
ATOM      3  C   UNL     1       5.856  41.905  49.690  1.00  0.00     0.118 C 
BRANCH   3   4
ATOM      4  C   UNL     1       5.105  41.173  48.581  1.00  0.00     0.050 C 
BRANCH   4   5
ATOM      5  C   UNL     1       3.792  40.566  49.067  1.00  0.00     0.161 C 
BRANCH   5   6
ATOM      6  O   UNL     1       3.130  39.878  48.003  1.00  0.00    -0.385 OA
ATOM      7  C   UNL     1       3.482  40.369  46.717  1.00  0.00     0.194 C 
ENDBRANCH   5   6
ENDBRANCH   4   5
ENDBRANCH   3   4
ENDBRANCH   1   3
BRANCH   1   8
ATOM      8  C   UNL     1       4.684  43.414  51.131  1.00  0.00     0.226 A 
ATOM      9  N   UNL     1       5.655  44.345  51.108  1.00  0.00    -0.195 NA
ATOM     10  N   UNL     1       3.394  43.636  51.413  1.00  0.00    -0.193 NA
ATOM     11  C   UNL     1       5.366  45.647  51.366  1.00  0.00     0.147 A 
ATOM     12  C   UNL     1       3.143  44.917  51.719  1.00  0.00     0.165 A 
ATOM     13  C   UNL     1       4.053  45.957  51.725  1.00  0.00     0.082 A 
ATOM     14  N   UNL     1       1.947  45.460  52.101  1.00  0.00    -0.250 N 
ATOM     15  C   UNL     1       3.305  47.069  52.167  1.00  0.00     0.149 A 
ATOM     16  N   UNL     1       2.015  46.783  52.376  1.00  0.00    -0.179 NA
ATOM     17  C   UNL     1       0.690  44.771  52.249  1.00  0.00     0.176 C 
BRANCH  11  18
ATOM     18  N   UNL     1       6.432  46.547  51.330  1.00  0.00    -0.336 N 
ATOM     19  H   UNL     1       6.109  47.479  51.085  1.00  0.00     0.168 HD
BRANCH  18  20
ATOM     20  C   UNL     1       7.653  46.600  52.037  1.00  0.00     0.082 A 
ATOM     21  C   UNL     1       8.870  46.174  51.492  1.00  0.00     0.030 A 
ATOM     22  C   UNL     1       7.654  47.164  53.336  1.00  0.00     0.142 A 
ATOM     23  C   UNL     1      10.061  46.300  52.210  1.00  0.00     0.002 A 
ATOM     24  C   UNL     1       8.850  47.285  54.050  1.00  0.00     0.048 A 
ATOM     25  C   UNL     1      10.052  46.857  53.484  1.00  0.00     0.004 A 
BRANCH  22  26
ATOM     26  O   UNL     1       6.418  47.539  53.812  1.00  0.00    -0.495 OA
ATOM     27  C   UNL     1       5.876  46.775  54.882  1.00  0.00     0.278 C 
ENDBRANCH  22  26
ENDBRANCH  18  20
ENDBRANCH  11  18
ENDBRANCH   1   8
TORSDOF 8
ENDMDL
MODEL 4
REMARK VINA RESULT:    -7.676      2.120      5.012
REMARK INTER + INTRA:         -12.541
REMARK INTER:                 -11.264
REMARK INTRA:                  -1.277
REMARK UNBOUND:                -1.275
REMARK SMILES COCCCNc1nc(Nc2ccccc2OC)c2cnn(C)c2n1
REMARK SMILES IDX 6 1 5 3 4 4 3 5 2 6 1 7 7 8 8 9 25 10 9 11 24 12 19 13 22 14
REMARK SMILES IDX 20 15 21 16 23 17 10 18 11 20 12 21 16 22 13 23 15 24 14 25
REMARK SMILES IDX 17 26 18 27
REMARK H PARENT 6 2 10 19
ROOT
ATOM      1  N   UNL     1       4.381  46.746  55.267  1.00  0.00    -0.354 N 
ATOM      2  H   UNL     1       3.760  47.481  54.943  1.00  0.00     0.163 HD
ENDROOT
BRANCH   1   3
ATOM      3  C   UNL     1       3.739  45.486  55.596  1.00  0.00     0.118 C 
BRANCH   3   4
ATOM      4  C   UNL     1       2.242  45.693  55.813  1.00  0.00     0.050 C 
BRANCH   4   5
ATOM      5  C   UNL     1       1.414  45.282  54.597  1.00  0.00     0.161 C 
BRANCH   5   6
ATOM      6  O   UNL     1       1.731  46.104  53.472  1.00  0.00    -0.385 OA
ATOM      7  C   UNL     1       1.102  45.675  52.272  1.00  0.00     0.194 C 
ENDBRANCH   5   6
ENDBRANCH   4   5
ENDBRANCH   3   4
ENDBRANCH   1   3
BRANCH   1   8
ATOM      8  C   UNL     1       5.385  46.652  54.309  1.00  0.00     0.226 A 
ATOM      9  N   UNL     1       5.115  46.086  53.117  1.00  0.00    -0.195 NA
ATOM     10  N   UNL     1       6.567  47.154  54.686  1.00  0.00    -0.193 NA
ATOM     11  C   UNL     1       6.077  46.001  52.162  1.00  0.00     0.147 A 
ATOM     12  C   UNL     1       7.516  47.008  53.750  1.00  0.00     0.165 A 
ATOM     13  C   UNL     1       7.357  46.450  52.495  1.00  0.00     0.082 A 
ATOM     14  N   UNL     1       8.833  47.364  53.840  1.00  0.00    -0.250 N 
ATOM     15  C   UNL     1       8.651  46.484  51.935  1.00  0.00     0.149 A 
ATOM     16  N   UNL     1       9.554  47.061  52.736  1.00  0.00    -0.179 NA
ATOM     17  C   UNL     1       9.488  47.985  54.964  1.00  0.00     0.176 C 
BRANCH  11  18
ATOM     18  N   UNL     1       5.717  45.393  50.959  1.00  0.00    -0.336 N 
ATOM     19  H   UNL     1       5.705  46.071  50.202  1.00  0.00     0.168 HD
BRANCH  18  20
ATOM     20  C   UNL     1       5.900  44.082  50.467  1.00  0.00     0.082 A 
ATOM     21  C   UNL     1       7.018  43.697  49.717  1.00  0.00     0.030 A 
ATOM     22  C   UNL     1       4.934  43.100  50.796  1.00  0.00     0.142 A 
ATOM     23  C   UNL     1       7.181  42.374  49.300  1.00  0.00     0.002 A 
ATOM     24  C   UNL     1       5.104  41.777  50.373  1.00  0.00     0.048 A 
ATOM     25  C   UNL     1       6.228  41.416  49.631  1.00  0.00     0.004 A 
BRANCH  22  26
ATOM     26  O   UNL     1       3.854  43.559  51.516  1.00  0.00    -0.495 OA
ATOM     27  C   UNL     1       3.135  42.603  52.284  1.00  0.00     0.278 C 
ENDBRANCH  22  26
ENDBRANCH  18  20
ENDBRANCH  11  18
ENDBRANCH   1   8
TORSDOF 8
ENDMDL
MODEL 5
REMARK VINA RESULT:    -7.604      2.259      5.267
REMARK INTER + INTRA:         -12.435
REMARK INTER:                 -11.156
REMARK INTRA:                  -1.279
REMARK UNBOUND:                -1.275
REMARK SMILES COCCCNc1nc(Nc2ccccc2OC)c2cnn(C)c2n1
REMARK SMILES IDX 6 1 5 3 4 4 3 5 2 6 1 7 7 8 8 9 25 10 9 11 24 12 19 13 22 14
REMARK SMILES IDX 20 15 21 16 23 17 10 18 11 20 12 21 16 22 13 23 15 24 14 25
REMARK SMILES IDX 17 26 18 27
REMARK H PARENT 6 2 10 19
ROOT
ATOM      1  N   UNL     1       4.412  46.813  55.063  1.00  0.00    -0.354 N 
ATOM      2  H   UNL     1       3.790  47.511  54.668  1.00  0.00     0.163 HD
ENDROOT
BRANCH   1   3
ATOM      3  C   UNL     1       3.796  45.538  55.384  1.00  0.00     0.118 C 
BRANCH   3   4
ATOM      4  C   UNL     1       2.287  45.703  55.545  1.00  0.00     0.050 C 
BRANCH   4   5
ATOM      5  C   UNL     1       1.527  45.402  54.256  1.00  0.00     0.161 C 
BRANCH   5   6
ATOM      6  O   UNL     1       1.908  46.313  53.223  1.00  0.00    -0.385 OA
ATOM      7  C   UNL     1       1.974  45.707  51.939  1.00  0.00     0.194 C 
ENDBRANCH   5   6
ENDBRANCH   4   5
ENDBRANCH   3   4
ENDBRANCH   1   3
BRANCH   1   8
ATOM      8  C   UNL     1       5.490  46.731  54.187  1.00  0.00     0.226 A 
ATOM      9  N   UNL     1       5.323  46.160  52.980  1.00  0.00    -0.195 NA
ATOM     10  N   UNL     1       6.632  47.251  54.655  1.00  0.00    -0.193 NA
ATOM     11  C   UNL     1       6.359  46.088  52.104  1.00  0.00     0.147 A 
ATOM     12  C   UNL     1       7.653  47.117  53.797  1.00  0.00     0.165 A 
ATOM     13  C   UNL     1       7.602  46.555  52.536  1.00  0.00     0.082 A 
ATOM     14  N   UNL     1       8.954  47.493  53.991  1.00  0.00    -0.250 N 
ATOM     15  C   UNL     1       8.936  46.606  52.079  1.00  0.00     0.149 A 
ATOM     16  N   UNL     1       9.765  47.198  52.948  1.00  0.00    -0.179 NA
ATOM     17  C   UNL     1       9.509  48.124  55.161  1.00  0.00     0.176 C 
BRANCH  11  18
ATOM     18  N   UNL     1       6.104  45.472  50.878  1.00  0.00    -0.336 N 
ATOM     19  H   UNL     1       6.481  46.024  50.112  1.00  0.00     0.168 HD
BRANCH  18  20
ATOM     20  C   UNL     1       5.962  44.117  50.508  1.00  0.00     0.082 A 
ATOM     21  C   UNL     1       4.920  43.304  50.970  1.00  0.00     0.030 A 
ATOM     22  C   UNL     1       6.885  43.573  49.582  1.00  0.00     0.142 A 
ATOM     23  C   UNL     1       4.790  41.985  50.530  1.00  0.00     0.002 A 
ATOM     24  C   UNL     1       6.750  42.250  49.148  1.00  0.00     0.048 A 
ATOM     25  C   UNL     1       5.701  41.461  49.619  1.00  0.00     0.004 A 
BRANCH  22  26
ATOM     26  O   UNL     1       7.893  44.425  49.191  1.00  0.00    -0.495 OA
ATOM     27  C   UNL     1       9.213  44.104  49.612  1.00  0.00     0.278 C 
ENDBRANCH  22  26
ENDBRANCH  18  20
ENDBRANCH  11  18
ENDBRANCH   1   8
TORSDOF 8
ENDMDL
MODEL 6
REMARK VINA RESULT:    -7.570      2.165      4.592
REMARK INTER + INTRA:         -12.385
REMARK INTER:                 -11.234
REMARK INTRA:                  -1.150
REMARK UNBOUND:                -1.275
REMARK SMILES COCCCNc1nc(Nc2ccccc2OC)c2cnn(C)c2n1
REMARK SMILES IDX 6 1 5 3 4 4 3 5 2 6 1 7 7 8 8 9 25 10 9 11 24 12 19 13 22 14
REMARK SMILES IDX 20 15 21 16 23 17 10 18 11 20 12 21 16 22 13 23 15 24 14 25
REMARK SMILES IDX 17 26 18 27
REMARK H PARENT 6 2 10 19
ROOT
ATOM      1  N   UNL     1       3.619  42.687  50.895  1.00  0.00    -0.354 N 
ATOM      2  H   UNL     1       3.604  43.039  49.944  1.00  0.00     0.163 HD
ENDROOT
BRANCH   1   3
ATOM      3  C   UNL     1       4.465  41.528  51.119  1.00  0.00     0.118 C 
BRANCH   3   4
ATOM      4  C   UNL     1       5.649  41.541  50.156  1.00  0.00     0.050 C 
BRANCH   4   5
ATOM      5  C   UNL     1       5.237  41.220  48.721  1.00  0.00     0.161 C 
BRANCH   5   6
ATOM      6  O   UNL     1       3.894  40.732  48.681  1.00  0.00    -0.385 OA
ATOM      7  C   UNL     1       3.546  40.158  47.429  1.00  0.00     0.194 C 
ENDBRANCH   5   6
ENDBRANCH   4   5
ENDBRANCH   3   4
ENDBRANCH   1   3
BRANCH   1   8
ATOM      8  C   UNL     1       3.916  43.785  51.697  1.00  0.00     0.226 A 
ATOM      9  N   UNL     1       4.902  44.626  51.334  1.00  0.00    -0.195 NA
ATOM     10  N   UNL     1       3.158  43.896  52.796  1.00  0.00    -0.193 NA
ATOM     11  C   UNL     1       5.194  45.713  52.095  1.00  0.00     0.147 A 
ATOM     12  C   UNL     1       3.502  44.942  53.560  1.00  0.00     0.165 A 
ATOM     13  C   UNL     1       4.488  45.872  53.290  1.00  0.00     0.082 A 
ATOM     14  N   UNL     1       2.964  45.303  54.765  1.00  0.00    -0.250 N 
ATOM     15  C   UNL     1       4.485  46.718  54.418  1.00  0.00     0.149 A 
ATOM     16  N   UNL     1       3.543  46.396  55.313  1.00  0.00    -0.179 NA
ATOM     17  C   UNL     1       1.900  44.637  55.473  1.00  0.00     0.176 C 
BRANCH  11  18
ATOM     18  N   UNL     1       6.236  46.528  51.653  1.00  0.00    -0.336 N 
ATOM     19  H   UNL     1       5.883  47.435  51.357  1.00  0.00     0.168 HD
BRANCH  18  20
ATOM     20  C   UNL     1       7.600  46.604  52.011  1.00  0.00     0.082 A 
ATOM     21  C   UNL     1       8.048  47.234  53.179  1.00  0.00     0.030 A 
ATOM     22  C   UNL     1       8.550  45.965  51.179  1.00  0.00     0.142 A 
ATOM     23  C   UNL     1       9.403  47.233  53.519  1.00  0.00     0.002 A 
ATOM     24  C   UNL     1       9.905  45.971  51.525  1.00  0.00     0.048 A 
ATOM     25  C   UNL     1      10.328  46.600  52.696  1.00  0.00     0.004 A 
BRANCH  22  26
ATOM     26  O   UNL     1       8.037  45.388  50.040  1.00  0.00    -0.495 OA
ATOM     27  C   UNL     1       8.655  44.191  49.585  1.00  0.00     0.278 C 
ENDBRANCH  22  26
ENDBRANCH  18  20
ENDBRANCH  11  18
ENDBRANCH   1   8
TORSDOF 8
ENDMDL
MODEL 7
REMARK VINA RESULT:    -7.519      1.290      2.025
REMARK INTER + INTRA:         -12.310
REMARK INTER:                 -11.106
REMARK INTRA:                  -1.204
REMARK UNBOUND:                -1.275
REMARK SMILES COCCCNc1nc(Nc2ccccc2OC)c2cnn(C)c2n1
REMARK SMILES IDX 6 1 5 3 4 4 3 5 2 6 1 7 7 8 8 9 25 10 9 11 24 12 19 13 22 14
REMARK SMILES IDX 20 15 21 16 23 17 10 18 11 20 12 21 16 22 13 23 15 24 14 25
REMARK SMILES IDX 17 26 18 27
REMARK H PARENT 6 2 10 19
ROOT
ATOM      1  N   UNL     1       2.881  44.529  54.218  1.00  0.00    -0.354 N 
ATOM      2  H   UNL     1       3.394  44.449  55.090  1.00  0.00     0.163 HD
ENDROOT
BRANCH   1   3
ATOM      3  C   UNL     1       2.003  45.680  54.113  1.00  0.00     0.118 C 
BRANCH   3   4
ATOM      4  C   UNL     1       1.158  45.590  52.844  1.00  0.00     0.050 C 
BRANCH   4   5
ATOM      5  C   UNL     1      -0.068  44.698  53.022  1.00  0.00     0.161 C 
BRANCH   5   6
ATOM      6  O   UNL     1       0.287  43.481  53.683  1.00  0.00    -0.385 OA
ATOM      7  C   UNL     1      -0.083  42.320  52.953  1.00  0.00     0.194 C 
ENDBRANCH   5   6
ENDBRANCH   4   5
ENDBRANCH   3   4
ENDBRANCH   1   3
BRANCH   1   8
ATOM      8  C   UNL     1       3.836  44.435  53.211  1.00  0.00     0.226 A 
ATOM      9  N   UNL     1       4.737  45.423  53.055  1.00  0.00    -0.195 NA
ATOM     10  N   UNL     1       3.758  43.324  52.467  1.00  0.00    -0.193 NA
ATOM     11  C   UNL     1       5.688  45.341  52.088  1.00  0.00     0.147 A 
ATOM     12  C   UNL     1       4.670  43.291  51.485  1.00  0.00     0.165 A 
ATOM     13  C   UNL     1       5.642  44.240  51.231  1.00  0.00     0.082 A 
ATOM     14  N   UNL     1       4.823  42.328  50.526  1.00  0.00    -0.250 N 
ATOM     15  C   UNL     1       6.293  43.767  50.072  1.00  0.00     0.149 A 
ATOM     16  N   UNL     1       5.818  42.590  49.648  1.00  0.00    -0.179 NA
ATOM     17  C   UNL     1       4.038  41.130  50.368  1.00  0.00     0.176 C 
BRANCH  11  18
ATOM     18  N   UNL     1       6.577  46.412  51.989  1.00  0.00    -0.336 N 
ATOM     19  H   UNL     1       6.092  47.258  51.701  1.00  0.00     0.168 HD
BRANCH  18  20
ATOM     20  C   UNL     1       7.774  46.718  52.673  1.00  0.00     0.082 A 
ATOM     21  C   UNL     1       7.798  47.337  53.928  1.00  0.00     0.030 A 
ATOM     22  C   UNL     1       9.003  46.330  52.085  1.00  0.00     0.142 A 
ATOM     23  C   UNL     1       9.006  47.569  54.590  1.00  0.00     0.002 A 
ATOM     24  C   UNL     1      10.208  46.567  52.753  1.00  0.00     0.048 A 
ATOM     25  C   UNL     1      10.207  47.181  54.006  1.00  0.00     0.004 A 
BRANCH  22  26
ATOM     26  O   UNL     1       8.899  45.748  50.842  1.00  0.00    -0.495 OA
ATOM     27  C   UNL     1       9.902  44.806  50.482  1.00  0.00     0.278 C 
ENDBRANCH  22  26
ENDBRANCH  18  20
ENDBRANCH  11  18
ENDBRANCH   1   8
TORSDOF 8
ENDMDL
MODEL 8
REMARK VINA RESULT:    -7.430      1.543      2.423
REMARK INTER + INTRA:         -12.180
REMARK INTER:                 -11.125
REMARK INTRA:                  -1.055
REMARK UNBOUND:                -1.275
REMARK SMILES COCCCNc1nc(Nc2ccccc2OC)c2cnn(C)c2n1
REMARK SMILES IDX 6 1 5 3 4 4 3 5 2 6 1 7 7 8 8 9 25 10 9 11 24 12 19 13 22 14
REMARK SMILES IDX 20 15 21 16 23 17 10 18 11 20 12 21 16 22 13 23 15 24 14 25
REMARK SMILES IDX 17 26 18 27
REMARK H PARENT 6 2 10 19
ROOT
ATOM      1  N   UNL     1       2.747  44.610  54.127  1.00  0.00    -0.354 N 
ATOM      2  H   UNL     1       3.185  45.115  54.890  1.00  0.00     0.163 HD
ENDROOT
BRANCH   1   3
ATOM      3  C   UNL     1       1.486  45.157  53.659  1.00  0.00     0.118 C 
BRANCH   3   4
ATOM      4  C   UNL     1       0.315  44.428  54.314  1.00  0.00     0.050 C 
BRANCH   4   5
ATOM      5  C   UNL     1      -0.077  45.043  55.656  1.00  0.00     0.161 C 
BRANCH   5   6
ATOM      6  O   UNL     1       1.075  45.220  56.483  1.00  0.00    -0.385 OA
ATOM      7  C   UNL     1       0.854  46.116  57.563  1.00  0.00     0.194 C 
ENDBRANCH   5   6
ENDBRANCH   4   5
ENDBRANCH   3   4
ENDBRANCH   1   3
BRANCH   1   8
ATOM      8  C   UNL     1       3.725  44.489  53.145  1.00  0.00     0.226 A 
ATOM      9  N   UNL     1       4.647  45.460  53.002  1.00  0.00    -0.195 NA
ATOM     10  N   UNL     1       3.646  43.372  52.411  1.00  0.00    -0.193 NA
ATOM     11  C   UNL     1       5.621  45.351  52.061  1.00  0.00     0.147 A 
ATOM     12  C   UNL     1       4.582  43.313  51.453  1.00  0.00     0.165 A 
ATOM     13  C   UNL     1       5.577  44.242  51.214  1.00  0.00     0.082 A 
ATOM     14  N   UNL     1       4.742  42.337  50.507  1.00  0.00    -0.250 N 
ATOM     15  C   UNL     1       6.249  43.745  50.077  1.00  0.00     0.149 A 
ATOM     16  N   UNL     1       5.764  42.572  49.652  1.00  0.00    -0.179 NA
ATOM     17  C   UNL     1       3.940  41.151  50.342  1.00  0.00     0.176 C 
BRANCH  11  18
ATOM     18  N   UNL     1       6.531  46.405  51.973  1.00  0.00    -0.336 N 
ATOM     19  H   UNL     1       6.064  47.261  51.684  1.00  0.00     0.168 HD
BRANCH  18  20
ATOM     20  C   UNL     1       7.727  46.687  52.669  1.00  0.00     0.082 A 
ATOM     21  C   UNL     1       7.750  47.288  53.934  1.00  0.00     0.030 A 
ATOM     22  C   UNL     1       8.954  46.291  52.085  1.00  0.00     0.142 A 
ATOM     23  C   UNL     1       8.957  47.494  54.607  1.00  0.00     0.002 A 
ATOM     24  C   UNL     1      10.158  46.503  52.764  1.00  0.00     0.048 A 
ATOM     25  C   UNL     1      10.156  47.099  54.025  1.00  0.00     0.004 A 
BRANCH  22  26
ATOM     26  O   UNL     1       8.851  45.727  50.833  1.00  0.00    -0.495 OA
ATOM     27  C   UNL     1       9.865  44.805  50.452  1.00  0.00     0.278 C 
ENDBRANCH  22  26
ENDBRANCH  18  20
ENDBRANCH  11  18
ENDBRANCH   1   8
TORSDOF 8
ENDMDL
MODEL 9
REMARK VINA RESULT:    -7.363      1.628      2.659
REMARK INTER + INTRA:         -12.082
REMARK INTER:                 -10.677
REMARK INTRA:                  -1.405
REMARK UNBOUND:                -1.275
REMARK SMILES COCCCNc1nc(Nc2ccccc2OC)c2cnn(C)c2n1
REMARK SMILES IDX 6 1 5 3 4 4 3 5 2 6 1 7 7 8 8 9 25 10 9 11 24 12 19 13 22 14
REMARK SMILES IDX 20 15 21 16 23 17 10 18 11 20 12 21 16 22 13 23 15 24 14 25
REMARK SMILES IDX 17 26 18 27
REMARK H PARENT 6 2 10 19
ROOT
ATOM      1  N   UNL     1       2.380  45.529  52.068  1.00  0.00    -0.354 N 
ATOM      2  H   UNL     1       1.762  44.734  52.196  1.00  0.00     0.163 HD
ENDROOT
BRANCH   1   3
ATOM      3  C   UNL     1       2.558  46.377  53.234  1.00  0.00     0.118 C 
BRANCH   3   4
ATOM      4  C   UNL     1       2.655  45.527  54.499  1.00  0.00     0.050 C 
BRANCH   4   5
ATOM      5  C   UNL     1       3.769  45.995  55.432  1.00  0.00     0.161 C 
BRANCH   5   6
ATOM      6  O   UNL     1       5.024  46.013  54.747  1.00  0.00    -0.385 OA
ATOM      7  C   UNL     1       5.676  44.751  54.743  1.00  0.00     0.194 C 
ENDBRANCH   5   6
ENDBRANCH   4   5
ENDBRANCH   3   4
ENDBRANCH   1   3
BRANCH   1   8
ATOM      8  C   UNL     1       3.560  45.007  51.547  1.00  0.00     0.226 A 
ATOM      9  N   UNL     1       4.640  45.800  51.424  1.00  0.00    -0.195 NA
ATOM     10  N   UNL     1       3.497  43.714  51.206  1.00  0.00    -0.193 NA
ATOM     11  C   UNL     1       5.806  45.304  50.934  1.00  0.00     0.147 A 
ATOM     12  C   UNL     1       4.640  43.261  50.673  1.00  0.00     0.165 A 
ATOM     13  C   UNL     1       5.810  43.977  50.500  1.00  0.00     0.082 A 
ATOM     14  N   UNL     1       4.887  42.010  50.178  1.00  0.00    -0.250 N 
ATOM     15  C   UNL     1       6.678  43.071  49.855  1.00  0.00     0.149 A 
ATOM     16  N   UNL     1       6.135  41.862  49.675  1.00  0.00    -0.179 NA
ATOM     17  C   UNL     1       3.969  40.900  50.130  1.00  0.00     0.176 C 
BRANCH  11  18
ATOM     18  N   UNL     1       6.875  46.195  50.831  1.00  0.00    -0.336 N 
ATOM     19  H   UNL     1       6.661  46.940  50.173  1.00  0.00     0.168 HD
BRANCH  18  20
ATOM     20  C   UNL     1       7.867  46.598  51.752  1.00  0.00     0.082 A 
ATOM     21  C   UNL     1       7.609  47.466  52.820  1.00  0.00     0.030 A 
ATOM     22  C   UNL     1       9.167  46.054  51.620  1.00  0.00     0.142 A 
ATOM     23  C   UNL     1       8.610  47.790  53.738  1.00  0.00     0.002 A 
ATOM     24  C   UNL     1      10.165  46.386  52.542  1.00  0.00     0.048 A 
ATOM     25  C   UNL     1       9.884  47.249  53.601  1.00  0.00     0.004 A 
BRANCH  22  26
ATOM     26  O   UNL     1       9.349  45.228  50.534  1.00  0.00    -0.495 OA
ATOM     27  C   UNL     1      10.449  44.328  50.582  1.00  0.00     0.278 C 
ENDBRANCH  22  26
ENDBRANCH  18  20
ENDBRANCH  11  18
ENDBRANCH   1   8
TORSDOF 8
ENDMDL
MODEL 10
REMARK VINA RESULT:    -7.252      2.019      6.330
REMARK INTER + INTRA:         -11.919
REMARK INTER:                 -11.414
REMARK INTRA:                  -0.505
REMARK UNBOUND:                -1.275
REMARK SMILES COCCCNc1nc(Nc2ccccc2OC)c2cnn(C)c2n1
REMARK SMILES IDX 6 1 5 3 4 4 3 5 2 6 1 7 7 8 8 9 25 10 9 11 24 12 19 13 22 14
REMARK SMILES IDX 20 15 21 16 23 17 10 18 11 20 12 21 16 22 13 23 15 24 14 25
REMARK SMILES IDX 17 26 18 27
REMARK H PARENT 6 2 10 19
ROOT
ATOM      1  N   UNL     1       5.604  46.893  54.723  1.00  0.00    -0.354 N 
ATOM      2  H   UNL     1       5.359  47.224  55.651  1.00  0.00     0.163 HD
ENDROOT
BRANCH   1   3
ATOM      3  C   UNL     1       6.949  46.365  54.583  1.00  0.00     0.118 C 
BRANCH   3   4
ATOM      4  C   UNL     1       7.748  47.202  53.587  1.00  0.00     0.050 C 
BRANCH   4   5
ATOM      5  C   UNL     1       9.081  47.676  54.161  1.00  0.00     0.161 C 
BRANCH   5   6
ATOM      6  O   UNL     1      10.164  47.258  53.328  1.00  0.00    -0.385 OA
ATOM      7  C   UNL     1       9.736  46.707  52.090  1.00  0.00     0.194 C 
ENDBRANCH   5   6
ENDBRANCH   4   5
ENDBRANCH   3   4
ENDBRANCH   1   3
BRANCH   1   8
ATOM      8  C   UNL     1       4.593  46.008  54.360  1.00  0.00     0.226 A 
ATOM      9  N   UNL     1       4.716  45.286  53.231  1.00  0.00    -0.195 NA
ATOM     10  N   UNL     1       3.557  45.965  55.207  1.00  0.00    -0.193 NA
ATOM     11  C   UNL     1       3.748  44.403  52.870  1.00  0.00     0.147 A 
ATOM     12  C   UNL     1       2.590  45.130  54.801  1.00  0.00     0.165 A 
ATOM     13  C   UNL     1       2.605  44.338  53.669  1.00  0.00     0.082 A 
ATOM     14  N   UNL     1       1.386  44.897  55.408  1.00  0.00    -0.250 N 
ATOM     15  C   UNL     1       1.345  43.704  53.672  1.00  0.00     0.149 A 
ATOM     16  N   UNL     1       0.603  44.019  54.740  1.00  0.00    -0.179 NA
ATOM     17  C   UNL     1       0.899  45.495  56.626  1.00  0.00     0.176 C 
BRANCH  11  18
ATOM     18  N   UNL     1       3.950  43.702  51.681  1.00  0.00    -0.336 N 
ATOM     19  H   UNL     1       3.109  43.711  51.110  1.00  0.00     0.168 HD
BRANCH  18  20
ATOM     20  C   UNL     1       5.100  43.483  50.891  1.00  0.00     0.082 A 
ATOM     21  C   UNL     1       6.001  44.501  50.557  1.00  0.00     0.030 A 
ATOM     22  C   UNL     1       5.382  42.162  50.466  1.00  0.00     0.142 A 
ATOM     23  C   UNL     1       7.155  44.223  49.821  1.00  0.00     0.002 A 
ATOM     24  C   UNL     1       6.539  41.892  49.727  1.00  0.00     0.048 A 
ATOM     25  C   UNL     1       7.425  42.922  49.411  1.00  0.00     0.004 A 
BRANCH  22  26
ATOM     26  O   UNL     1       4.439  41.221  50.814  1.00  0.00    -0.495 OA
ATOM     27  C   UNL     1       3.579  40.755  49.782  1.00  0.00     0.278 C 
ENDBRANCH  22  26
ENDBRANCH  18  20
ENDBRANCH  11  18
ENDBRANCH   1   8
TORSDOF 8
ENDMDL
MODEL 11
REMARK VINA RESULT:    -7.192      1.667      5.985
REMARK INTER + INTRA:         -11.830
REMARK INTER:                 -10.582
REMARK INTRA:                  -1.247
REMARK UNBOUND:                -1.275
REMARK SMILES COCCCNc1nc(Nc2ccccc2OC)c2cnn(C)c2n1
REMARK SMILES IDX 6 1 5 3 4 4 3 5 2 6 1 7 7 8 8 9 25 10 9 11 24 12 19 13 22 14
REMARK SMILES IDX 20 15 21 16 23 17 10 18 11 20 12 21 16 22 13 23 15 24 14 25
REMARK SMILES IDX 17 26 18 27
REMARK H PARENT 6 2 10 19
ROOT
ATOM      1  N   UNL     1       8.000  46.470  51.018  1.00  0.00    -0.354 N 
ATOM      2  H   UNL     1       7.922  47.241  51.672  1.00  0.00     0.163 HD
ENDROOT
BRANCH   1   3
ATOM      3  C   UNL     1       9.211  45.676  51.129  1.00  0.00     0.118 C 
BRANCH   3   4
ATOM      4  C   UNL     1      10.266  46.427  51.939  1.00  0.00     0.050 C 
BRANCH   4   5
ATOM      5  C   UNL     1       9.898  46.536  53.417  1.00  0.00     0.161 C 
BRANCH   5   6
ATOM      6  O   UNL     1       8.973  47.605  53.627  1.00  0.00    -0.385 OA
ATOM      7  C   UNL     1       7.924  47.268  54.524  1.00  0.00     0.194 C 
ENDBRANCH   5   6
ENDBRANCH   4   5
ENDBRANCH   3   4
ENDBRANCH   1   3
BRANCH   1   8
ATOM      8  C   UNL     1       6.820  45.745  51.148  1.00  0.00     0.226 A 
ATOM      9  N   UNL     1       5.758  46.309  51.754  1.00  0.00    -0.195 NA
ATOM     10  N   UNL     1       6.863  44.509  50.636  1.00  0.00    -0.193 NA
ATOM     11  C   UNL     1       4.591  45.624  51.875  1.00  0.00     0.147 A 
ATOM     12  C   UNL     1       5.720  43.832  50.817  1.00  0.00     0.165 A 
ATOM     13  C   UNL     1       4.568  44.304  51.417  1.00  0.00     0.082 A 
ATOM     14  N   UNL     1       5.456  42.538  50.461  1.00  0.00    -0.250 N 
ATOM     15  C   UNL     1       3.693  43.198  51.407  1.00  0.00     0.149 A 
ATOM     16  N   UNL     1       4.215  42.123  50.804  1.00  0.00    -0.179 NA
ATOM     17  C   UNL     1       6.352  41.620  49.804  1.00  0.00     0.176 C 
BRANCH  11  18
ATOM     18  N   UNL     1       3.543  46.277  52.523  1.00  0.00    -0.336 N 
ATOM     19  H   UNL     1       3.194  47.048  51.959  1.00  0.00     0.168 HD
BRANCH  18  20
ATOM     20  C   UNL     1       2.560  45.825  53.432  1.00  0.00     0.082 A 
ATOM     21  C   UNL     1       1.262  45.477  53.041  1.00  0.00     0.030 A 
ATOM     22  C   UNL     1       2.925  45.665  54.791  1.00  0.00     0.142 A 
ATOM     23  C   UNL     1       0.343  44.981  53.969  1.00  0.00     0.002 A 
ATOM     24  C   UNL     1       1.998  45.170  55.714  1.00  0.00     0.048 A 
ATOM     25  C   UNL     1       0.711  44.824  55.301  1.00  0.00     0.004 A 
BRANCH  22  26
ATOM     26  O   UNL     1       4.210  46.049  55.102  1.00  0.00    -0.495 OA
ATOM     27  C   UNL     1       5.149  45.014  55.364  1.00  0.00     0.278 C 
ENDBRANCH  22  26
ENDBRANCH  18  20
ENDBRANCH  11  18
ENDBRANCH   1   8
TORSDOF 8
ENDMDL
MODEL 12
REMARK VINA RESULT:    -7.189      1.867      5.546
REMARK INTER + INTRA:         -11.827
REMARK INTER:                 -10.434
REMARK INTRA:                  -1.392
REMARK UNBOUND:                -1.275
REMARK SMILES COCCCNc1nc(Nc2ccccc2OC)c2cnn(C)c2n1
REMARK SMILES IDX 6 1 5 3 4 4 3 5 2 6 1 7 7 8 8 9 25 10 9 11 24 12 19 13 22 14
REMARK SMILES IDX 20 15 21 16 23 17 10 18 11 20 12 21 16 22 13 23 15 24 14 25
REMARK SMILES IDX 17 26 18 27
REMARK H PARENT 6 2 10 19
ROOT
ATOM      1  N   UNL     1       6.185  43.649  49.515  1.00  0.00    -0.354 N 
ATOM      2  H   UNL     1       6.692  43.917  48.678  1.00  0.00     0.163 HD
ENDROOT
BRANCH   1   3
ATOM      3  C   UNL     1       6.492  42.329  50.037  1.00  0.00     0.118 C 
BRANCH   3   4
ATOM      4  C   UNL     1       5.476  41.308  49.529  1.00  0.00     0.050 C 
BRANCH   4   5
ATOM      5  C   UNL     1       4.140  41.400  50.261  1.00  0.00     0.161 C 
BRANCH   5   6
ATOM      6  O   UNL     1       4.325  41.917  51.581  1.00  0.00    -0.385 OA
ATOM      7  C   UNL     1       3.199  42.638  52.061  1.00  0.00     0.194 C 
ENDBRANCH   5   6
ENDBRANCH   4   5
ENDBRANCH   3   4
ENDBRANCH   1   3
BRANCH   1   8
ATOM      8  C   UNL     1       6.378  44.688  50.420  1.00  0.00     0.226 A 
ATOM      9  N   UNL     1       5.311  45.290  50.979  1.00  0.00    -0.195 NA
ATOM     10  N   UNL     1       7.660  44.997  50.652  1.00  0.00    -0.193 NA
ATOM     11  C   UNL     1       5.480  46.294  51.878  1.00  0.00     0.147 A 
ATOM     12  C   UNL     1       7.800  46.027  51.498  1.00  0.00     0.165 A 
ATOM     13  C   UNL     1       6.786  46.717  52.134  1.00  0.00     0.082 A 
ATOM     14  N   UNL     1       8.967  46.619  51.899  1.00  0.00    -0.250 N 
ATOM     15  C   UNL     1       7.453  47.728  52.857  1.00  0.00     0.149 A 
ATOM     16  N   UNL     1       8.785  47.663  52.741  1.00  0.00    -0.179 NA
ATOM     17  C   UNL     1      10.304  46.255  51.503  1.00  0.00     0.176 C 
BRANCH  11  18
ATOM     18  N   UNL     1       4.322  46.869  52.403  1.00  0.00    -0.336 N 
ATOM     19  H   UNL     1       4.050  47.688  51.865  1.00  0.00     0.168 HD
BRANCH  18  20
ATOM     20  C   UNL     1       3.216  46.319  53.088  1.00  0.00     0.082 A 
ATOM     21  C   UNL     1       1.968  46.119  52.485  1.00  0.00     0.030 A 
ATOM     22  C   UNL     1       3.395  45.900  54.428  1.00  0.00     0.142 A 
ATOM     23  C   UNL     1       0.920  45.520  53.188  1.00  0.00     0.002 A 
ATOM     24  C   UNL     1       2.341  45.302  55.126  1.00  0.00     0.048 A 
ATOM     25  C   UNL     1       1.108  45.109  54.503  1.00  0.00     0.004 A 
BRANCH  22  26
ATOM     26  O   UNL     1       4.641  46.149  54.957  1.00  0.00    -0.495 OA
ATOM     27  C   UNL     1       5.413  45.024  55.357  1.00  0.00     0.278 C 
ENDBRANCH  22  26
ENDBRANCH  18  20
ENDBRANCH  11  18
ENDBRANCH   1   8
TORSDOF 8
ENDMDL
MODEL 13
REMARK VINA RESULT:    -7.175      2.413      3.361
REMARK INTER + INTRA:         -11.806
REMARK INTER:                 -10.884
REMARK INTRA:                  -0.922
REMARK UNBOUND:                -1.275
REMARK SMILES COCCCNc1nc(Nc2ccccc2OC)c2cnn(C)c2n1
REMARK SMILES IDX 6 1 5 3 4 4 3 5 2 6 1 7 7 8 8 9 25 10 9 11 24 12 19 13 22 14
REMARK SMILES IDX 20 15 21 16 23 17 10 18 11 20 12 21 16 22 13 23 15 24 14 25
REMARK SMILES IDX 17 26 18 27
REMARK H PARENT 6 2 10 19
ROOT
ATOM      1  N   UNL     1       2.636  46.053  55.992  1.00  0.00    -0.354 N 
ATOM      2  H   UNL     1       2.341  47.019  55.896  1.00  0.00     0.163 HD
ENDROOT
BRANCH   1   3
ATOM      3  C   UNL     1       1.588  45.111  56.339  1.00  0.00     0.118 C 
BRANCH   3   4
ATOM      4  C   UNL     1       0.218  45.776  56.230  1.00  0.00     0.050 C 
BRANCH   4   5
ATOM      5  C   UNL     1      -0.243  46.382  57.554  1.00  0.00     0.161 C 
BRANCH   5   6
ATOM      6  O   UNL     1       0.881  46.715  58.372  1.00  0.00    -0.385 OA
ATOM      7  C   UNL     1       0.554  47.595  59.439  1.00  0.00     0.194 C 
ENDBRANCH   5   6
ENDBRANCH   4   5
ENDBRANCH   3   4
ENDBRANCH   1   3
BRANCH   1   8
ATOM      8  C   UNL     1       3.320  45.751  54.818  1.00  0.00     0.226 A 
ATOM      9  N   UNL     1       4.318  46.554  54.405  1.00  0.00    -0.195 NA
ATOM     10  N   UNL     1       2.897  44.645  54.193  1.00  0.00    -0.193 NA
ATOM     11  C   UNL     1       5.009  46.266  53.272  1.00  0.00     0.147 A 
ATOM     12  C   UNL     1       3.555  44.412  53.049  1.00  0.00     0.165 A 
ATOM     13  C   UNL     1       4.594  45.159  52.527  1.00  0.00     0.082 A 
ATOM     14  N   UNL     1       3.332  43.401  52.154  1.00  0.00    -0.250 N 
ATOM     15  C   UNL     1       4.889  44.534  51.298  1.00  0.00     0.149 A 
ATOM     16  N   UNL     1       4.143  43.446  51.071  1.00  0.00    -0.179 NA
ATOM     17  C   UNL     1       2.342  42.358  52.253  1.00  0.00     0.176 C 
BRANCH  11  18
ATOM     18  N   UNL     1       6.022  47.155  52.909  1.00  0.00    -0.336 N 
ATOM     19  H   UNL     1       5.669  48.107  52.870  1.00  0.00     0.168 HD
BRANCH  18  20
ATOM     20  C   UNL     1       7.419  47.137  53.116  1.00  0.00     0.082 A 
ATOM     21  C   UNL     1       8.012  47.454  54.344  1.00  0.00     0.030 A 
ATOM     22  C   UNL     1       8.252  46.726  52.048  1.00  0.00     0.142 A 
ATOM     23  C   UNL     1       9.396  47.367  54.515  1.00  0.00     0.002 A 
ATOM     24  C   UNL     1       9.636  46.643  52.226  1.00  0.00     0.048 A 
ATOM     25  C   UNL     1      10.205  46.960  53.461  1.00  0.00     0.004 A 
BRANCH  22  26
ATOM     26  O   UNL     1       7.598  46.453  50.868  1.00  0.00    -0.495 OA
ATOM     27  C   UNL     1       7.998  45.285  50.161  1.00  0.00     0.278 C 
ENDBRANCH  22  26
ENDBRANCH  18  20
ENDBRANCH  11  18
ENDBRANCH   1   8
TORSDOF 8
ENDMDL
MODEL 14
REMARK VINA RESULT:    -7.148      1.540      6.483
REMARK INTER + INTRA:         -11.766
REMARK INTER:                 -10.526
REMARK INTRA:                  -1.240
REMARK UNBOUND:                -1.275
REMARK SMILES COCCCNc1nc(Nc2ccccc2OC)c2cnn(C)c2n1
REMARK SMILES IDX 6 1 5 3 4 4 3 5 2 6 1 7 7 8 8 9 25 10 9 11 24 12 19 13 22 14
REMARK SMILES IDX 20 15 21 16 23 17 10 18 11 20 12 21 16 22 13 23 15 24 14 25
REMARK SMILES IDX 17 26 18 27
REMARK H PARENT 6 2 10 19
ROOT
ATOM      1  N   UNL     1       6.645  46.954  52.873  1.00  0.00    -0.354 N 
ATOM      2  H   UNL     1       5.866  47.604  52.844  1.00  0.00     0.163 HD
ENDROOT
BRANCH   1   3
ATOM      3  C   UNL     1       7.268  46.783  54.173  1.00  0.00     0.118 C 
BRANCH   3   4
ATOM      4  C   UNL     1       8.530  47.635  54.273  1.00  0.00     0.050 C 
BRANCH   4   5
ATOM      5  C   UNL     1       9.754  46.937  53.685  1.00  0.00     0.161 C 
BRANCH   5   6
ATOM      6  O   UNL     1       9.767  47.059  52.261  1.00  0.00    -0.385 OA
ATOM      7  C   UNL     1      10.399  45.965  51.612  1.00  0.00     0.194 C 
ENDBRANCH   5   6
ENDBRANCH   4   5
ENDBRANCH   3   4
ENDBRANCH   1   3
BRANCH   1   8
ATOM      8  C   UNL     1       6.175  45.777  52.297  1.00  0.00     0.226 A 
ATOM      9  N   UNL     1       5.108  45.155  52.833  1.00  0.00    -0.195 NA
ATOM     10  N   UNL     1       6.861  45.367  51.223  1.00  0.00    -0.193 NA
ATOM     11  C   UNL     1       4.623  44.016  52.274  1.00  0.00     0.147 A 
ATOM     12  C   UNL     1       6.400  44.212  50.723  1.00  0.00     0.165 A 
ATOM     13  C   UNL     1       5.317  43.488  51.183  1.00  0.00     0.082 A 
ATOM     14  N   UNL     1       6.908  43.503  49.668  1.00  0.00    -0.250 N 
ATOM     15  C   UNL     1       5.291  42.342  50.360  1.00  0.00     0.149 A 
ATOM     16  N   UNL     1       6.241  42.352  49.418  1.00  0.00    -0.179 NA
ATOM     17  C   UNL     1       8.047  43.851  48.858  1.00  0.00     0.176 C 
BRANCH  11  18
ATOM     18  N   UNL     1       3.521  43.430  52.897  1.00  0.00    -0.336 N 
ATOM     19  H   UNL     1       3.693  43.302  53.890  1.00  0.00     0.168 HD
BRANCH  18  20
ATOM     20  C   UNL     1       2.136  43.483  52.623  1.00  0.00     0.082 A 
ATOM     21  C   UNL     1       1.591  43.144  51.378  1.00  0.00     0.030 A 
ATOM     22  C   UNL     1       1.257  43.842  53.673  1.00  0.00     0.142 A 
ATOM     23  C   UNL     1       0.210  43.159  51.173  1.00  0.00     0.002 A 
ATOM     24  C   UNL     1      -0.125  43.856  53.459  1.00  0.00     0.048 A 
ATOM     25  C   UNL     1      -0.646  43.510  52.212  1.00  0.00     0.004 A 
BRANCH  22  26
ATOM     26  O   UNL     1       1.868  44.182  54.858  1.00  0.00    -0.495 OA
ATOM     27  C   UNL     1       1.893  45.562  55.201  1.00  0.00     0.278 C 
ENDBRANCH  22  26
ENDBRANCH  18  20
ENDBRANCH  11  18
ENDBRANCH   1   8
TORSDOF 8
ENDMDL
MODEL 15
REMARK VINA RESULT:    -7.130      2.262      6.491
REMARK INTER + INTRA:         -11.739
REMARK INTER:                 -10.956
REMARK INTRA:                  -0.783
REMARK UNBOUND:                -1.275
REMARK SMILES COCCCNc1nc(Nc2ccccc2OC)c2cnn(C)c2n1
REMARK SMILES IDX 6 1 5 3 4 4 3 5 2 6 1 7 7 8 8 9 25 10 9 11 24 12 19 13 22 14
REMARK SMILES IDX 20 15 21 16 23 17 10 18 11 20 12 21 16 22 13 23 15 24 14 25
REMARK SMILES IDX 17 26 18 27
REMARK H PARENT 6 2 10 19
ROOT
ATOM      1  N   UNL     1       5.938  46.963  54.905  1.00  0.00    -0.354 N 
ATOM      2  H   UNL     1       5.827  47.071  55.908  1.00  0.00     0.163 HD
ENDROOT
BRANCH   1   3
ATOM      3  C   UNL     1       7.216  46.427  54.472  1.00  0.00     0.118 C 
BRANCH   3   4
ATOM      4  C   UNL     1       8.146  47.556  54.036  1.00  0.00     0.050 C 
BRANCH   4   5
ATOM      5  C   UNL     1       9.596  47.309  54.445  1.00  0.00     0.161 C 
BRANCH   5   6
ATOM      6  O   UNL     1       9.913  48.034  55.635  1.00  0.00    -0.385 OA
ATOM      7  C   UNL     1      11.068  47.540  56.299  1.00  0.00     0.194 C 
ENDBRANCH   5   6
ENDBRANCH   4   5
ENDBRANCH   3   4
ENDBRANCH   1   3
BRANCH   1   8
ATOM      8  C   UNL     1       4.831  46.236  54.479  1.00  0.00     0.226 A 
ATOM      9  N   UNL     1       4.825  45.694  53.247  1.00  0.00    -0.195 NA
ATOM     10  N   UNL     1       3.842  46.146  55.378  1.00  0.00    -0.193 NA
ATOM     11  C   UNL     1       3.761  44.965  52.821  1.00  0.00     0.147 A 
ATOM     12  C   UNL     1       2.780  45.471  54.915  1.00  0.00     0.165 A 
ATOM     13  C   UNL     1       2.661  44.870  53.676  1.00  0.00     0.082 A 
ATOM     14  N   UNL     1       1.594  45.247  55.559  1.00  0.00    -0.250 N 
ATOM     15  C   UNL     1       1.349  44.353  53.667  1.00  0.00     0.149 A 
ATOM     16  N   UNL     1       0.698  44.555  54.818  1.00  0.00    -0.179 NA
ATOM     17  C   UNL     1       1.231  45.682  56.884  1.00  0.00     0.176 C 
BRANCH  11  18
ATOM     18  N   UNL     1       3.832  44.447  51.528  1.00  0.00    -0.336 N 
ATOM     19  H   UNL     1       3.548  45.143  50.844  1.00  0.00     0.168 HD
BRANCH  18  20
ATOM     20  C   UNL     1       4.664  43.467  50.942  1.00  0.00     0.082 A 
ATOM     21  C   UNL     1       4.346  42.103  50.931  1.00  0.00     0.030 A 
ATOM     22  C   UNL     1       5.845  43.892  50.287  1.00  0.00     0.142 A 
ATOM     23  C   UNL     1       5.174  41.180  50.289  1.00  0.00     0.002 A 
ATOM     24  C   UNL     1       6.669  42.961  49.648  1.00  0.00     0.048 A 
ATOM     25  C   UNL     1       6.330  41.608  49.646  1.00  0.00     0.004 A 
BRANCH  22  26
ATOM     26  O   UNL     1       6.100  45.243  50.359  1.00  0.00    -0.495 OA
ATOM     27  C   UNL     1       7.435  45.635  50.654  1.00  0.00     0.278 C 
ENDBRANCH  22  26
ENDBRANCH  18  20
ENDBRANCH  11  18
ENDBRANCH   1   8
TORSDOF 8
ENDMDL
MODEL 16
REMARK VINA RESULT:    -7.106      2.058      6.212
REMARK INTER + INTRA:         -11.705
REMARK INTER:                 -10.454
REMARK INTRA:                  -1.251
REMARK UNBOUND:                -1.275
REMARK SMILES COCCCNc1nc(Nc2ccccc2OC)c2cnn(C)c2n1
REMARK SMILES IDX 6 1 5 3 4 4 3 5 2 6 1 7 7 8 8 9 25 10 9 11 24 12 19 13 22 14
REMARK SMILES IDX 20 15 21 16 23 17 10 18 11 20 12 21 16 22 13 23 15 24 14 25
REMARK SMILES IDX 17 26 18 27
REMARK H PARENT 6 2 10 19
ROOT
ATOM      1  N   UNL     1       7.669  45.241  49.540  1.00  0.00    -0.354 N 
ATOM      2  H   UNL     1       8.382  45.904  49.252  1.00  0.00     0.163 HD
ENDROOT
BRANCH   1   3
ATOM      3  C   UNL     1       8.064  43.844  49.504  1.00  0.00     0.118 C 
BRANCH   3   4
ATOM      4  C   UNL     1       6.943  42.990  48.916  1.00  0.00     0.050 C 
BRANCH   4   5
ATOM      5  C   UNL     1       6.323  42.051  49.948  1.00  0.00     0.161 C 
BRANCH   5   6
ATOM      6  O   UNL     1       5.001  42.479  50.286  1.00  0.00    -0.385 OA
ATOM      7  C   UNL     1       4.277  41.513  51.035  1.00  0.00     0.194 C 
ENDBRANCH   5   6
ENDBRANCH   4   5
ENDBRANCH   3   4
ENDBRANCH   1   3
BRANCH   1   8
ATOM      8  C   UNL     1       7.221  45.685  50.780  1.00  0.00     0.226 A 
ATOM      9  N   UNL     1       5.899  45.764  51.020  1.00  0.00    -0.195 NA
ATOM     10  N   UNL     1       8.193  46.003  51.645  1.00  0.00    -0.193 NA
ATOM     11  C   UNL     1       5.443  46.177  52.231  1.00  0.00     0.147 A 
ATOM     12  C   UNL     1       7.719  46.462  52.812  1.00  0.00     0.165 A 
ATOM     13  C   UNL     1       6.391  46.583  53.172  1.00  0.00     0.082 A 
ATOM     14  N   UNL     1       8.443  46.917  53.880  1.00  0.00    -0.250 N 
ATOM     15  C   UNL     1       6.432  47.161  54.459  1.00  0.00     0.149 A 
ATOM     16  N   UNL     1       7.678  47.346  54.910  1.00  0.00    -0.179 NA
ATOM     17  C   UNL     1       9.878  46.993  53.985  1.00  0.00     0.176 C 
BRANCH  11  18
ATOM     18  N   UNL     1       4.059  46.238  52.394  1.00  0.00    -0.336 N 
ATOM     19  H   UNL     1       3.708  47.162  52.154  1.00  0.00     0.168 HD
BRANCH  18  20
ATOM     20  C   UNL     1       3.045  45.262  52.276  1.00  0.00     0.082 A 
ATOM     21  C   UNL     1       2.405  44.969  51.065  1.00  0.00     0.030 A 
ATOM     22  C   UNL     1       2.701  44.507  53.423  1.00  0.00     0.142 A 
ATOM     23  C   UNL     1       1.448  43.954  50.988  1.00  0.00     0.002 A 
ATOM     24  C   UNL     1       1.741  43.494  53.338  1.00  0.00     0.048 A 
ATOM     25  C   UNL     1       1.120  43.217  52.120  1.00  0.00     0.004 A 
BRANCH  22  26
ATOM     26  O   UNL     1       3.357  44.868  54.579  1.00  0.00    -0.495 OA
ATOM     27  C   UNL     1       2.590  45.524  55.580  1.00  0.00     0.278 C 
ENDBRANCH  22  26
ENDBRANCH  18  20
ENDBRANCH  11  18
ENDBRANCH   1   8
TORSDOF 8
ENDMDL
MODEL 17
REMARK VINA RESULT:    -7.079      1.640      6.189
REMARK INTER + INTRA:         -11.665
REMARK INTER:                 -10.673
REMARK INTRA:                  -0.992
REMARK UNBOUND:                -1.275
REMARK SMILES COCCCNc1nc(Nc2ccccc2OC)c2cnn(C)c2n1
REMARK SMILES IDX 6 1 5 3 4 4 3 5 2 6 1 7 7 8 8 9 25 10 9 11 24 12 19 13 22 14
REMARK SMILES IDX 20 15 21 16 23 17 10 18 11 20 12 21 16 22 13 23 15 24 14 25
REMARK SMILES IDX 17 26 18 27
REMARK H PARENT 6 2 10 19
ROOT
ATOM      1  N   UNL     1       8.072  46.379  50.885  1.00  0.00    -0.354 N 
ATOM      2  H   UNL     1       8.109  46.631  49.903  1.00  0.00     0.163 HD
ENDROOT
BRANCH   1   3
ATOM      3  C   UNL     1       8.253  47.476  51.819  1.00  0.00     0.118 C 
BRANCH   3   4
ATOM      4  C   UNL     1       9.393  47.167  52.787  1.00  0.00     0.050 C 
BRANCH   4   5
ATOM      5  C   UNL     1       8.898  46.917  54.209  1.00  0.00     0.161 C 
BRANCH   5   6
ATOM      6  O   UNL     1       9.411  47.909  55.101  1.00  0.00    -0.385 OA
ATOM      7  C   UNL     1      10.617  47.516  55.740  1.00  0.00     0.194 C 
ENDBRANCH   5   6
ENDBRANCH   4   5
ENDBRANCH   3   4
ENDBRANCH   1   3
BRANCH   1   8
ATOM      8  C   UNL     1       6.885  45.671  51.047  1.00  0.00     0.226 A 
ATOM      9  N   UNL     1       5.849  46.248  51.684  1.00  0.00    -0.195 NA
ATOM     10  N   UNL     1       6.896  44.435  50.532  1.00  0.00    -0.193 NA
ATOM     11  C   UNL     1       4.676  45.579  51.836  1.00  0.00     0.147 A 
ATOM     12  C   UNL     1       5.749  43.775  50.743  1.00  0.00     0.165 A 
ATOM     13  C   UNL     1       4.621  44.262  51.377  1.00  0.00     0.082 A 
ATOM     14  N   UNL     1       5.457  42.485  50.392  1.00  0.00    -0.250 N 
ATOM     15  C   UNL     1       3.730  43.168  51.389  1.00  0.00     0.149 A 
ATOM     16  N   UNL     1       4.220  42.087  50.770  1.00  0.00    -0.179 NA
ATOM     17  C   UNL     1       6.320  41.556  49.708  1.00  0.00     0.176 C 
BRANCH  11  18
ATOM     18  N   UNL     1       3.656  46.246  52.516  1.00  0.00    -0.336 N 
ATOM     19  H   UNL     1       3.121  46.832  51.880  1.00  0.00     0.168 HD
BRANCH  18  20
ATOM     20  C   UNL     1       2.895  45.905  53.656  1.00  0.00     0.082 A 
ATOM     21  C   UNL     1       3.419  45.915  54.954  1.00  0.00     0.030 A 
ATOM     22  C   UNL     1       1.524  45.595  53.481  1.00  0.00     0.142 A 
ATOM     23  C   UNL     1       2.610  45.626  56.056  1.00  0.00     0.002 A 
ATOM     24  C   UNL     1       0.722  45.305  54.589  1.00  0.00     0.048 A 
ATOM     25  C   UNL     1       1.265  45.325  55.874  1.00  0.00     0.004 A 
BRANCH  22  26
ATOM     26  O   UNL     1       1.088  45.585  52.175  1.00  0.00    -0.495 OA
ATOM     27  C   UNL     1      -0.010  44.736  51.866  1.00  0.00     0.278 C 
ENDBRANCH  22  26
ENDBRANCH  18  20
ENDBRANCH  11  18
ENDBRANCH   1   8
TORSDOF 8
ENDMDL
MODEL 18
REMARK VINA RESULT:    -7.043      2.529      3.280
REMARK INTER + INTRA:         -11.612
REMARK INTER:                 -11.021
REMARK INTRA:                  -0.591
REMARK UNBOUND:                -1.275
REMARK SMILES COCCCNc1nc(Nc2ccccc2OC)c2cnn(C)c2n1
REMARK SMILES IDX 6 1 5 3 4 4 3 5 2 6 1 7 7 8 8 9 25 10 9 11 24 12 19 13 22 14
REMARK SMILES IDX 20 15 21 16 23 17 10 18 11 20 12 21 16 22 13 23 15 24 14 25
REMARK SMILES IDX 17 26 18 27
REMARK H PARENT 6 2 10 19
ROOT
ATOM      1  N   UNL     1       2.893  46.143  56.229  1.00  0.00    -0.354 N 
ATOM      2  H   UNL     1       2.894  47.156  56.289  1.00  0.00     0.163 HD
ENDROOT
BRANCH   1   3
ATOM      3  C   UNL     1       1.603  45.506  56.429  1.00  0.00     0.118 C 
BRANCH   3   4
ATOM      4  C   UNL     1       0.859  46.166  57.587  1.00  0.00     0.050 C 
BRANCH   4   5
ATOM      5  C   UNL     1      -0.590  46.494  57.238  1.00  0.00     0.161 C 
BRANCH   5   6
ATOM      6  O   UNL     1      -1.343  46.768  58.422  1.00  0.00    -0.385 OA
ATOM      7  C   UNL     1      -1.569  48.154  58.633  1.00  0.00     0.194 C 
ENDBRANCH   5   6
ENDBRANCH   4   5
ENDBRANCH   3   4
ENDBRANCH   1   3
BRANCH   1   8
ATOM      8  C   UNL     1       3.508  45.837  55.019  1.00  0.00     0.226 A 
ATOM      9  N   UNL     1       4.566  46.562  54.609  1.00  0.00    -0.195 NA
ATOM     10  N   UNL     1       2.961  44.810  54.357  1.00  0.00    -0.193 NA
ATOM     11  C   UNL     1       5.190  46.267  53.439  1.00  0.00     0.147 A 
ATOM     12  C   UNL     1       3.558  44.574  53.180  1.00  0.00     0.165 A 
ATOM     13  C   UNL     1       4.647  45.245  52.658  1.00  0.00     0.082 A 
ATOM     14  N   UNL     1       3.210  43.636  52.246  1.00  0.00    -0.250 N 
ATOM     15  C   UNL     1       4.842  44.658  51.391  1.00  0.00     0.149 A 
ATOM     16  N   UNL     1       3.988  43.659  51.139  1.00  0.00    -0.179 NA
ATOM     17  C   UNL     1       2.128  42.688  52.331  1.00  0.00     0.176 C 
BRANCH  11  18
ATOM     18  N   UNL     1       6.272  47.073  53.084  1.00  0.00    -0.336 N 
ATOM     19  H   UNL     1       6.231  47.966  53.568  1.00  0.00     0.168 HD
BRANCH  18  20
ATOM     20  C   UNL     1       7.594  46.768  52.689  1.00  0.00     0.082 A 
ATOM     21  C   UNL     1       7.907  46.200  51.448  1.00  0.00     0.030 A 
ATOM     22  C   UNL     1       8.653  47.106  53.566  1.00  0.00     0.142 A 
ATOM     23  C   UNL     1       9.234  45.970  51.080  1.00  0.00     0.002 A 
ATOM     24  C   UNL     1       9.979  46.870  53.191  1.00  0.00     0.048 A 
ATOM     25  C   UNL     1      10.267  46.307  51.947  1.00  0.00     0.004 A 
BRANCH  22  26
ATOM     26  O   UNL     1       8.264  47.639  54.774  1.00  0.00    -0.495 OA
ATOM     27  C   UNL     1       9.231  48.401  55.487  1.00  0.00     0.278 C 
ENDBRANCH  22  26
ENDBRANCH  18  20
ENDBRANCH  11  18
ENDBRANCH   1   8
TORSDOF 8
ENDMDL
MODEL 19
REMARK VINA RESULT:    -7.034      2.079      6.134
REMARK INTER + INTRA:         -11.598
REMARK INTER:                 -11.205
REMARK INTRA:                  -0.393
REMARK UNBOUND:                -1.275
REMARK SMILES COCCCNc1nc(Nc2ccccc2OC)c2cnn(C)c2n1
REMARK SMILES IDX 6 1 5 3 4 4 3 5 2 6 1 7 7 8 8 9 25 10 9 11 24 12 19 13 22 14
REMARK SMILES IDX 20 15 21 16 23 17 10 18 11 20 12 21 16 22 13 23 15 24 14 25
REMARK SMILES IDX 17 26 18 27
REMARK H PARENT 6 2 10 19
ROOT
ATOM      1  N   UNL     1       4.233  46.330  55.026  1.00  0.00    -0.354 N 
ATOM      2  H   UNL     1       5.042  45.815  55.357  1.00  0.00     0.163 HD
ENDROOT
BRANCH   1   3
ATOM      3  C   UNL     1       4.523  47.464  54.167  1.00  0.00     0.118 C 
BRANCH   3   4
ATOM      4  C   UNL     1       5.929  47.342  53.583  1.00  0.00     0.050 C 
BRANCH   4   5
ATOM      5  C   UNL     1       6.900  46.652  54.539  1.00  0.00     0.161 C 
BRANCH   5   6
ATOM      6  O   UNL     1       7.958  47.539  54.907  1.00  0.00    -0.385 OA
ATOM      7  C   UNL     1       9.042  47.526  53.989  1.00  0.00     0.194 C 
ENDBRANCH   5   6
ENDBRANCH   4   5
ENDBRANCH   3   4
ENDBRANCH   1   3
BRANCH   1   8
ATOM      8  C   UNL     1       3.386  45.380  54.464  1.00  0.00     0.226 A 
ATOM      9  N   UNL     1       3.836  44.595  53.467  1.00  0.00    -0.195 NA
ATOM     10  N   UNL     1       2.157  45.343  54.994  1.00  0.00    -0.193 NA
ATOM     11  C   UNL     1       3.030  43.649  52.919  1.00  0.00     0.147 A 
ATOM     12  C   UNL     1       1.362  44.443  54.399  1.00  0.00     0.165 A 
ATOM     13  C   UNL     1       1.712  43.583  53.375  1.00  0.00     0.082 A 
ATOM     14  N   UNL     1       0.043  44.194  54.666  1.00  0.00    -0.250 N 
ATOM     15  C   UNL     1       0.517  42.895  53.077  1.00  0.00     0.149 A 
ATOM     16  N   UNL     1      -0.501  43.242  53.874  1.00  0.00    -0.179 NA
ATOM     17  C   UNL     1      -0.778  44.844  55.656  1.00  0.00     0.176 C 
BRANCH  11  18
ATOM     18  N   UNL     1       3.571  42.885  51.885  1.00  0.00    -0.336 N 
ATOM     19  H   UNL     1       2.842  42.376  51.392  1.00  0.00     0.168 HD
BRANCH  18  20
ATOM     20  C   UNL     1       4.709  43.063  51.067  1.00  0.00     0.082 A 
ATOM     21  C   UNL     1       5.437  44.259  51.024  1.00  0.00     0.030 A 
ATOM     22  C   UNL     1       5.165  41.964  50.301  1.00  0.00     0.142 A 
ATOM     23  C   UNL     1       6.589  44.368  50.242  1.00  0.00     0.002 A 
ATOM     24  C   UNL     1       6.318  42.082  49.518  1.00  0.00     0.048 A 
ATOM     25  C   UNL     1       7.030  43.282  49.494  1.00  0.00     0.004 A 
BRANCH  22  26
ATOM     26  O   UNL     1       4.385  40.832  50.378  1.00  0.00    -0.495 OA
ATOM     27  C   UNL     1       3.569  40.529  49.254  1.00  0.00     0.278 C 
ENDBRANCH  22  26
ENDBRANCH  18  20
ENDBRANCH  11  18
ENDBRANCH   1   8
TORSDOF 8
ENDMDL
MODEL 20
REMARK VINA RESULT:    -6.996      1.349      6.169
REMARK INTER + INTRA:         -11.543
REMARK INTER:                 -10.207
REMARK INTRA:                  -1.335
REMARK UNBOUND:                -1.275
REMARK SMILES COCCCNc1nc(Nc2ccccc2OC)c2cnn(C)c2n1
REMARK SMILES IDX 6 1 5 3 4 4 3 5 2 6 1 7 7 8 8 9 25 10 9 11 24 12 19 13 22 14
REMARK SMILES IDX 20 15 21 16 23 17 10 18 11 20 12 21 16 22 13 23 15 24 14 25
REMARK SMILES IDX 17 26 18 27
REMARK H PARENT 6 2 10 19
ROOT
ATOM      1  N   UNL     1       7.408  46.575  51.049  1.00  0.00    -0.354 N 
ATOM      2  H   UNL     1       7.158  47.370  51.628  1.00  0.00     0.163 HD
ENDROOT
BRANCH   1   3
ATOM      3  C   UNL     1       8.695  45.969  51.340  1.00  0.00     0.118 C 
BRANCH   3   4
ATOM      4  C   UNL     1       9.529  46.893  52.226  1.00  0.00     0.050 C 
BRANCH   4   5
ATOM      5  C   UNL     1       9.064  46.882  53.680  1.00  0.00     0.161 C 
BRANCH   5   6
ATOM      6  O   UNL     1       7.824  47.581  53.817  1.00  0.00    -0.385 OA
ATOM      7  C   UNL     1       6.878  46.886  54.617  1.00  0.00     0.194 C 
ENDBRANCH   5   6
ENDBRANCH   4   5
ENDBRANCH   3   4
ENDBRANCH   1   3
BRANCH   1   8
ATOM      8  C   UNL     1       6.328  45.702  51.122  1.00  0.00     0.226 A 
ATOM      9  N   UNL     1       5.153  46.138  51.615  1.00  0.00    -0.195 NA
ATOM     10  N   UNL     1       6.577  44.464  50.676  1.00  0.00    -0.193 NA
ATOM     11  C   UNL     1       4.082  45.305  51.677  1.00  0.00     0.147 A 
ATOM     12  C   UNL     1       5.523  43.645  50.800  1.00  0.00     0.165 A 
ATOM     13  C   UNL     1       4.273  43.978  51.285  1.00  0.00     0.082 A 
ATOM     14  N   UNL     1       5.465  42.314  50.489  1.00  0.00    -0.250 N 
ATOM     15  C   UNL     1       3.556  42.763  51.261  1.00  0.00     0.149 A 
ATOM     16  N   UNL     1       4.265  41.747  50.754  1.00  0.00    -0.179 NA
ATOM     17  C   UNL     1       6.527  41.503  49.949  1.00  0.00     0.176 C 
BRANCH  11  18
ATOM     18  N   UNL     1       2.905  45.833  52.209  1.00  0.00    -0.336 N 
ATOM     19  H   UNL     1       2.317  46.217  51.474  1.00  0.00     0.168 HD
BRANCH  18  20
ATOM     20  C   UNL     1       2.141  45.492  53.347  1.00  0.00     0.082 A 
ATOM     21  C   UNL     1       2.619  45.627  54.656  1.00  0.00     0.030 A 
ATOM     22  C   UNL     1       0.811  45.047  53.155  1.00  0.00     0.142 A 
ATOM     23  C   UNL     1       1.805  45.330  55.751  1.00  0.00     0.002 A 
ATOM     24  C   UNL     1       0.002  44.749  54.256  1.00  0.00     0.048 A 
ATOM     25  C   UNL     1       0.499  44.896  55.552  1.00  0.00     0.004 A 
BRANCH  22  26
ATOM     26  O   UNL     1       0.421  44.919  51.841  1.00  0.00    -0.495 OA
ATOM     27  C   UNL     1      -0.976  44.924  51.576  1.00  0.00     0.278 C 
ENDBRANCH  22  26
ENDBRANCH  18  20
ENDBRANCH  11  18
ENDBRANCH   1   8
TORSDOF 8
ENDMDL
