MODEL 1
REMARK VINA RESULT:    -8.485      0.000      0.000
REMARK INTER + INTRA:         -13.289
REMARK INTER:                 -12.453
REMARK INTRA:                  -0.836
REMARK UNBOUND:                -0.836
REMARK SMILES CCCCCNc1nc(Nc2ccccc2OC)c2cnn(C)c2n1
REMARK SMILES IDX 6 1 5 3 4 4 3 5 2 6 1 7 7 8 8 9 25 10 9 11 24 12 19 13 22 14
REMARK SMILES IDX 20 15 21 16 23 17 10 18 11 20 12 21 16 22 13 23 15 24 14 25
REMARK SMILES IDX 17 26 18 27
REMARK H PARENT 6 2 10 19
ROOT
ATOM      1  N   UNL     1       6.173  46.765  54.920  1.00  0.00    -0.354 N 
ATOM      2  H   UNL     1       5.806  47.680  55.161  1.00  0.00     0.163 HD
ENDROOT
BRANCH   1   3
ATOM      3  C   UNL     1       7.276  46.777  53.974  1.00  0.00     0.116 C 
BRANCH   3   4
ATOM      4  C   UNL     1       8.525  47.391  54.611  1.00  0.00     0.021 C 
BRANCH   4   5
ATOM      5  C   UNL     1       9.786  47.221  53.760  1.00  0.00     0.002 C 
BRANCH   5   6
ATOM      6  C   UNL     1       9.497  47.063  52.267  1.00  0.00    -0.003 C 
ATOM      7  C   UNL     1      10.329  45.944  51.658  1.00  0.00     0.004 C 
ENDBRANCH   5   6
ENDBRANCH   4   5
ENDBRANCH   3   4
ENDBRANCH   1   3
BRANCH   1   8
ATOM      8  C   UNL     1       5.058  46.026  54.539  1.00  0.00     0.226 A 
ATOM      9  N   UNL     1       5.209  45.348  53.386  1.00  0.00    -0.195 NA
ATOM     10  N   UNL     1       3.960  46.023  55.306  1.00  0.00    -0.193 NA
ATOM     11  C   UNL     1       4.202  44.584  52.885  1.00  0.00     0.147 A 
ATOM     12  C   UNL     1       2.976  45.269  54.801  1.00  0.00     0.165 A 
ATOM     13  C   UNL     1       3.017  44.537  53.631  1.00  0.00     0.082 A 
ATOM     14  N   UNL     1       1.731  45.064  55.331  1.00  0.00    -0.250 N 
ATOM     15  C   UNL     1       1.748  43.927  53.555  1.00  0.00     0.149 A 
ATOM     16  N   UNL     1       0.957  44.238  54.589  1.00  0.00    -0.179 NA
ATOM     17  C   UNL     1       1.205  45.628  56.548  1.00  0.00     0.176 C 
BRANCH  11  18
ATOM     18  N   UNL     1       4.335  43.865  51.694  1.00  0.00    -0.336 N 
ATOM     19  H   UNL     1       3.483  43.442  51.345  1.00  0.00     0.168 HD
BRANCH  18  20
ATOM     20  C   UNL     1       5.426  43.574  50.848  1.00  0.00     0.082 A 
ATOM     21  C   UNL     1       6.399  44.511  50.488  1.00  0.00     0.030 A 
ATOM     22  C   UNL     1       5.539  42.254  50.342  1.00  0.00     0.142 A 
ATOM     23  C   UNL     1       7.459  44.159  49.649  1.00  0.00     0.002 A 
ATOM     24  C   UNL     1       6.603  41.907  49.504  1.00  0.00     0.048 A 
ATOM     25  C   UNL     1       7.562  42.861  49.160  1.00  0.00     0.004 A 
BRANCH  22  26
ATOM     26  O   UNL     1       4.538  41.395  50.742  1.00  0.00    -0.495 OA
ATOM     27  C   UNL     1       3.703  40.860  49.721  1.00  0.00     0.278 C 
ENDBRANCH  22  26
ENDBRANCH  18  20
ENDBRANCH  11  18
ENDBRANCH   1   8
TORSDOF 8
ENDMDL
MODEL 2
REMARK VINA RESULT:    -8.425      2.703      5.964
REMARK INTER + INTRA:         -13.201
REMARK INTER:                 -12.283
REMARK INTRA:                  -0.918
REMARK UNBOUND:                -0.836
REMARK SMILES CCCCCNc1nc(Nc2ccccc2OC)c2cnn(C)c2n1
REMARK SMILES IDX 6 1 5 3 4 4 3 5 2 6 1 7 7 8 8 9 25 10 9 11 24 12 19 13 22 14
REMARK SMILES IDX 20 15 21 16 23 17 10 18 11 20 12 21 16 22 13 23 15 24 14 25
REMARK SMILES IDX 17 26 18 27
REMARK H PARENT 6 2 10 19
ROOT
ATOM      1  N   UNL     1       5.296  41.708  50.704  1.00  0.00    -0.354 N 
ATOM      2  H   UNL     1       5.714  41.407  51.580  1.00  0.00     0.163 HD
ENDROOT
BRANCH   1   3
ATOM      3  C   UNL     1       6.147  41.558  49.536  1.00  0.00     0.116 C 
BRANCH   3   4
ATOM      4  C   UNL     1       5.307  41.249  48.294  1.00  0.00     0.021 C 
BRANCH   4   5
ATOM      5  C   UNL     1       5.837  41.917  47.022  1.00  0.00     0.002 C 
BRANCH   5   6
ATOM      6  C   UNL     1       5.128  41.451  45.750  1.00  0.00    -0.003 C 
ATOM      7  C   UNL     1       5.142  42.533  44.681  1.00  0.00     0.004 C 
ENDBRANCH   5   6
ENDBRANCH   4   5
ENDBRANCH   3   4
ENDBRANCH   1   3
BRANCH   1   8
ATOM      8  C   UNL     1       4.837  42.996  50.957  1.00  0.00     0.226 A 
ATOM      9  N   UNL     1       5.796  43.940  50.938  1.00  0.00    -0.195 NA
ATOM     10  N   UNL     1       3.535  43.213  51.181  1.00  0.00    -0.193 NA
ATOM     11  C   UNL     1       5.499  45.246  51.171  1.00  0.00     0.147 A 
ATOM     12  C   UNL     1       3.255  44.503  51.411  1.00  0.00     0.165 A 
ATOM     13  C   UNL     1       4.154  45.551  51.420  1.00  0.00     0.082 A 
ATOM     14  N   UNL     1       2.032  45.052  51.682  1.00  0.00    -0.250 N 
ATOM     15  C   UNL     1       3.365  46.685  51.703  1.00  0.00     0.149 A 
ATOM     16  N   UNL     1       2.069  46.393  51.860  1.00  0.00    -0.179 NA
ATOM     17  C   UNL     1       0.775  44.355  51.790  1.00  0.00     0.176 C 
BRANCH  11  18
ATOM     18  N   UNL     1       6.474  46.247  51.150  1.00  0.00    -0.336 N 
ATOM     19  H   UNL     1       6.320  46.990  50.478  1.00  0.00     0.168 HD
BRANCH  18  20
ATOM     20  C   UNL     1       7.669  46.457  51.869  1.00  0.00     0.082 A 
ATOM     21  C   UNL     1       8.924  46.026  51.430  1.00  0.00     0.030 A 
ATOM     22  C   UNL     1       7.587  47.150  53.104  1.00  0.00     0.142 A 
ATOM     23  C   UNL     1      10.073  46.271  52.186  1.00  0.00     0.002 A 
ATOM     24  C   UNL     1       8.741  47.394  53.856  1.00  0.00     0.048 A 
ATOM     25  C   UNL     1       9.982  46.954  53.395  1.00  0.00     0.004 A 
BRANCH  22  26
ATOM     26  O   UNL     1       6.314  47.537  53.465  1.00  0.00    -0.495 OA
ATOM     27  C   UNL     1       5.746  46.897  54.602  1.00  0.00     0.278 C 
ENDBRANCH  22  26
ENDBRANCH  18  20
ENDBRANCH  11  18
ENDBRANCH   1   8
TORSDOF 8
ENDMDL
MODEL 3
REMARK VINA RESULT:    -8.343      2.368      5.309
REMARK INTER + INTRA:         -13.080
REMARK INTER:                 -12.108
REMARK INTRA:                  -0.972
REMARK UNBOUND:                -0.836
REMARK SMILES CCCCCNc1nc(Nc2ccccc2OC)c2cnn(C)c2n1
REMARK SMILES IDX 6 1 5 3 4 4 3 5 2 6 1 7 7 8 8 9 25 10 9 11 24 12 19 13 22 14
REMARK SMILES IDX 20 15 21 16 23 17 10 18 11 20 12 21 16 22 13 23 15 24 14 25
REMARK SMILES IDX 17 26 18 27
REMARK H PARENT 6 2 10 19
ROOT
ATOM      1  N   UNL     1       4.673  41.887  51.467  1.00  0.00    -0.354 N 
ATOM      2  H   UNL     1       5.679  41.894  51.326  1.00  0.00     0.163 HD
ENDROOT
BRANCH   1   3
ATOM      3  C   UNL     1       3.916  41.190  50.441  1.00  0.00     0.116 C 
BRANCH   3   4
ATOM      4  C   UNL     1       4.719  41.108  49.141  1.00  0.00     0.021 C 
BRANCH   4   5
ATOM      5  C   UNL     1       6.201  41.446  49.321  1.00  0.00     0.002 C 
BRANCH   5   6
ATOM      6  C   UNL     1       6.656  42.648  48.492  1.00  0.00    -0.003 C 
ATOM      7  C   UNL     1       7.796  43.389  49.173  1.00  0.00     0.004 C 
ENDBRANCH   5   6
ENDBRANCH   4   5
ENDBRANCH   3   4
ENDBRANCH   1   3
BRANCH   1   8
ATOM      8  C   UNL     1       4.336  43.222  51.667  1.00  0.00     0.226 A 
ATOM      9  N   UNL     1       5.353  44.084  51.484  1.00  0.00    -0.195 NA
ATOM     10  N   UNL     1       3.083  43.555  52.001  1.00  0.00    -0.193 NA
ATOM     11  C   UNL     1       5.176  45.422  51.648  1.00  0.00     0.147 A 
ATOM     12  C   UNL     1       2.922  44.875  52.161  1.00  0.00     0.165 A 
ATOM     13  C   UNL     1       3.889  45.847  52.004  1.00  0.00     0.082 A 
ATOM     14  N   UNL     1       1.776  45.535  52.510  1.00  0.00    -0.250 N 
ATOM     15  C   UNL     1       3.217  47.056  52.278  1.00  0.00     0.149 A 
ATOM     16  N   UNL     1       1.926  46.878  52.583  1.00  0.00    -0.179 NA
ATOM     17  C   UNL     1       0.490  44.948  52.792  1.00  0.00     0.176 C 
BRANCH  11  18
ATOM     18  N   UNL     1       6.213  46.339  51.457  1.00  0.00    -0.336 N 
ATOM     19  H   UNL     1       6.048  47.038  50.741  1.00  0.00     0.168 HD
BRANCH  18  20
ATOM     20  C   UNL     1       7.482  46.511  52.046  1.00  0.00     0.082 A 
ATOM     21  C   UNL     1       8.676  46.092  51.452  1.00  0.00     0.030 A 
ATOM     22  C   UNL     1       7.546  47.149  53.311  1.00  0.00     0.142 A 
ATOM     23  C   UNL     1       9.905  46.296  52.085  1.00  0.00     0.002 A 
ATOM     24  C   UNL     1       8.778  47.352  53.940  1.00  0.00     0.048 A 
ATOM     25  C   UNL     1       9.955  46.926  53.325  1.00  0.00     0.004 A 
BRANCH  22  26
ATOM     26  O   UNL     1       6.325  47.527  53.829  1.00  0.00    -0.495 OA
ATOM     27  C   UNL     1       5.846  46.793  54.949  1.00  0.00     0.278 C 
ENDBRANCH  22  26
ENDBRANCH  18  20
ENDBRANCH  11  18
ENDBRANCH   1   8
TORSDOF 8
ENDMDL
MODEL 4
REMARK VINA RESULT:    -8.134      2.194      5.470
REMARK INTER + INTRA:         -12.774
REMARK INTER:                 -11.807
REMARK INTRA:                  -0.967
REMARK UNBOUND:                -0.836
REMARK SMILES CCCCCNc1nc(Nc2ccccc2OC)c2cnn(C)c2n1
REMARK SMILES IDX 6 1 5 3 4 4 3 5 2 6 1 7 7 8 8 9 25 10 9 11 24 12 19 13 22 14
REMARK SMILES IDX 20 15 21 16 23 17 10 18 11 20 12 21 16 22 13 23 15 24 14 25
REMARK SMILES IDX 17 26 18 27
REMARK H PARENT 6 2 10 19
ROOT
ATOM      1  N   UNL     1       4.718  41.491  50.773  1.00  0.00    -0.354 N 
ATOM      2  H   UNL     1       4.969  40.852  51.521  1.00  0.00     0.163 HD
ENDROOT
BRANCH   1   3
ATOM      3  C   UNL     1       5.710  41.619  49.718  1.00  0.00     0.116 C 
BRANCH   3   4
ATOM      4  C   UNL     1       5.135  41.150  48.379  1.00  0.00     0.021 C 
BRANCH   4   5
ATOM      5  C   UNL     1       5.713  41.898  47.175  1.00  0.00     0.002 C 
BRANCH   5   6
ATOM      6  C   UNL     1       5.134  41.438  45.837  1.00  0.00    -0.003 C 
ATOM      7  C   UNL     1       5.220  42.537  44.789  1.00  0.00     0.004 C 
ENDBRANCH   5   6
ENDBRANCH   4   5
ENDBRANCH   3   4
ENDBRANCH   1   3
BRANCH   1   8
ATOM      8  C   UNL     1       4.368  42.672  51.420  1.00  0.00     0.226 A 
ATOM      9  N   UNL     1       5.233  43.685  51.230  1.00  0.00    -0.195 NA
ATOM     10  N   UNL     1       3.245  42.732  52.146  1.00  0.00    -0.193 NA
ATOM     11  C   UNL     1       5.025  44.901  51.802  1.00  0.00     0.147 A 
ATOM     12  C   UNL     1       3.052  43.933  52.706  1.00  0.00     0.165 A 
ATOM     13  C   UNL     1       3.870  45.039  52.584  1.00  0.00     0.082 A 
ATOM     14  N   UNL     1       2.015  44.318  53.510  1.00  0.00    -0.250 N 
ATOM     15  C   UNL     1       3.229  46.034  53.350  1.00  0.00     0.149 A 
ATOM     16  N   UNL     1       2.094  45.607  53.916  1.00  0.00    -0.179 NA
ATOM     17  C   UNL     1       0.904  43.505  53.938  1.00  0.00     0.176 C 
BRANCH  11  18
ATOM     18  N   UNL     1       5.903  45.972  51.616  1.00  0.00    -0.336 N 
ATOM     19  H   UNL     1       5.561  46.714  51.015  1.00  0.00     0.168 HD
BRANCH  18  20
ATOM     20  C   UNL     1       7.204  46.257  52.079  1.00  0.00     0.082 A 
ATOM     21  C   UNL     1       7.482  46.737  53.363  1.00  0.00     0.030 A 
ATOM     22  C   UNL     1       8.287  46.038  51.191  1.00  0.00     0.142 A 
ATOM     23  C   UNL     1       8.795  46.995  53.764  1.00  0.00     0.002 A 
ATOM     24  C   UNL     1       9.600  46.297  51.598  1.00  0.00     0.048 A 
ATOM     25  C   UNL     1       9.851  46.774  52.885  1.00  0.00     0.004 A 
BRANCH  22  26
ATOM     26  O   UNL     1       7.926  45.569  49.945  1.00  0.00    -0.495 OA
ATOM     27  C   UNL     1       8.422  44.289  49.572  1.00  0.00     0.278 C 
ENDBRANCH  22  26
ENDBRANCH  18  20
ENDBRANCH  11  18
ENDBRANCH   1   8
TORSDOF 8
ENDMDL
MODEL 5
REMARK VINA RESULT:    -8.120      2.075      6.670
REMARK INTER + INTRA:         -12.754
REMARK INTER:                 -11.956
REMARK INTRA:                  -0.798
REMARK UNBOUND:                -0.836
REMARK SMILES CCCCCNc1nc(Nc2ccccc2OC)c2cnn(C)c2n1
REMARK SMILES IDX 6 1 5 3 4 4 3 5 2 6 1 7 7 8 8 9 25 10 9 11 24 12 19 13 22 14
REMARK SMILES IDX 20 15 21 16 23 17 10 18 11 20 12 21 16 22 13 23 15 24 14 25
REMARK SMILES IDX 17 26 18 27
REMARK H PARENT 6 2 10 19
ROOT
ATOM      1  N   UNL     1       2.836  43.274  53.061  1.00  0.00    -0.354 N 
ATOM      2  H   UNL     1       2.423  42.414  52.713  1.00  0.00     0.163 HD
ENDROOT
BRANCH   1   3
ATOM      3  C   UNL     1       1.903  44.374  53.239  1.00  0.00     0.116 C 
BRANCH   3   4
ATOM      4  C   UNL     1       1.205  44.273  54.597  1.00  0.00     0.021 C 
BRANCH   4   5
ATOM      5  C   UNL     1       1.839  45.159  55.673  1.00  0.00     0.002 C 
BRANCH   5   6
ATOM      6  C   UNL     1       0.894  45.482  56.831  1.00  0.00    -0.003 C 
ATOM      7  C   UNL     1      -0.560  45.269  56.435  1.00  0.00     0.004 C 
ENDBRANCH   5   6
ENDBRANCH   4   5
ENDBRANCH   3   4
ENDBRANCH   1   3
BRANCH   1   8
ATOM      8  C   UNL     1       3.907  43.521  52.209  1.00  0.00     0.226 A 
ATOM      9  N   UNL     1       4.549  44.680  52.447  1.00  0.00    -0.195 NA
ATOM     10  N   UNL     1       4.227  42.634  51.258  1.00  0.00    -0.193 NA
ATOM     11  C   UNL     1       5.615  45.059  51.693  1.00  0.00     0.147 A 
ATOM     12  C   UNL     1       5.276  43.020  50.520  1.00  0.00     0.165 A 
ATOM     13  C   UNL     1       6.006  44.183  50.672  1.00  0.00     0.082 A 
ATOM     14  N   UNL     1       5.845  42.352  49.471  1.00  0.00    -0.250 N 
ATOM     15  C   UNL     1       6.991  44.110  49.665  1.00  0.00     0.149 A 
ATOM     16  N   UNL     1       6.905  42.996  48.930  1.00  0.00    -0.179 NA
ATOM     17  C   UNL     1       5.427  41.086  48.923  1.00  0.00     0.176 C 
BRANCH  11  18
ATOM     18  N   UNL     1       6.304  46.253  51.923  1.00  0.00    -0.336 N 
ATOM     19  H   UNL     1       5.847  47.091  51.583  1.00  0.00     0.168 HD
BRANCH  18  20
ATOM     20  C   UNL     1       7.538  46.563  52.532  1.00  0.00     0.082 A 
ATOM     21  C   UNL     1       8.774  46.418  51.896  1.00  0.00     0.030 A 
ATOM     22  C   UNL     1       7.516  47.054  53.862  1.00  0.00     0.142 A 
ATOM     23  C   UNL     1       9.963  46.749  52.552  1.00  0.00     0.002 A 
ATOM     24  C   UNL     1       8.709  47.385  54.514  1.00  0.00     0.048 A 
ATOM     25  C   UNL     1       9.930  47.232  53.857  1.00  0.00     0.004 A 
BRANCH  22  26
ATOM     26  O   UNL     1       6.258  47.163  54.417  1.00  0.00    -0.495 OA
ATOM     27  C   UNL     1       5.841  46.109  55.276  1.00  0.00     0.278 C 
ENDBRANCH  22  26
ENDBRANCH  18  20
ENDBRANCH  11  18
ENDBRANCH   1   8
TORSDOF 8
ENDMDL
MODEL 6
REMARK VINA RESULT:    -8.057      1.138      1.482
REMARK INTER + INTRA:         -12.660
REMARK INTER:                 -11.795
REMARK INTRA:                  -0.865
REMARK UNBOUND:                -0.836
REMARK SMILES CCCCCNc1nc(Nc2ccccc2OC)c2cnn(C)c2n1
REMARK SMILES IDX 6 1 5 3 4 4 3 5 2 6 1 7 7 8 8 9 25 10 9 11 24 12 19 13 22 14
REMARK SMILES IDX 20 15 21 16 23 17 10 18 11 20 12 21 16 22 13 23 15 24 14 25
REMARK SMILES IDX 17 26 18 27
REMARK H PARENT 6 2 10 19
ROOT
ATOM      1  N   UNL     1       4.809  46.109  55.260  1.00  0.00    -0.354 N 
ATOM      2  H   UNL     1       4.186  46.468  55.977  1.00  0.00     0.163 HD
ENDROOT
BRANCH   1   3
ATOM      3  C   UNL     1       5.595  47.117  54.570  1.00  0.00     0.116 C 
BRANCH   3   4
ATOM      4  C   UNL     1       7.074  46.721  54.542  1.00  0.00     0.021 C 
BRANCH   4   5
ATOM      5  C   UNL     1       7.830  47.284  53.336  1.00  0.00     0.002 C 
BRANCH   5   6
ATOM      6  C   UNL     1       9.343  47.357  53.546  1.00  0.00    -0.003 C 
ATOM      7  C   UNL     1      10.083  46.480  52.548  1.00  0.00     0.004 C 
ENDBRANCH   5   6
ENDBRANCH   4   5
ENDBRANCH   3   4
ENDBRANCH   1   3
BRANCH   1   8
ATOM      8  C   UNL     1       3.998  45.317  54.453  1.00  0.00     0.226 A 
ATOM      9  N   UNL     1       4.613  44.828  53.360  1.00  0.00    -0.195 NA
ATOM     10  N   UNL     1       2.725  45.089  54.799  1.00  0.00    -0.193 NA
ATOM     11  C   UNL     1       3.947  44.040  52.476  1.00  0.00     0.147 A 
ATOM     12  C   UNL     1       2.079  44.313  53.918  1.00  0.00     0.165 A 
ATOM     13  C   UNL     1       2.605  43.762  52.767  1.00  0.00     0.082 A 
ATOM     14  N   UNL     1       0.775  43.904  53.972  1.00  0.00    -0.250 N 
ATOM     15  C   UNL     1       1.532  43.037  52.206  1.00  0.00     0.149 A 
ATOM     16  N   UNL     1       0.413  43.113  52.935  1.00  0.00    -0.179 NA
ATOM     17  C   UNL     1      -0.194  44.231  54.988  1.00  0.00     0.176 C 
BRANCH  11  18
ATOM     18  N   UNL     1       4.562  43.514  51.336  1.00  0.00    -0.336 N 
ATOM     19  H   UNL     1       4.057  42.765  50.876  1.00  0.00     0.168 HD
BRANCH  18  20
ATOM     20  C   UNL     1       5.773  43.789  50.668  1.00  0.00     0.082 A 
ATOM     21  C   UNL     1       6.426  45.024  50.725  1.00  0.00     0.030 A 
ATOM     22  C   UNL     1       6.359  42.750  49.901  1.00  0.00     0.142 A 
ATOM     23  C   UNL     1       7.629  45.233  50.044  1.00  0.00     0.002 A 
ATOM     24  C   UNL     1       7.563  42.964  49.222  1.00  0.00     0.048 A 
ATOM     25  C   UNL     1       8.195  44.206  49.296  1.00  0.00     0.004 A 
BRANCH  22  26
ATOM     26  O   UNL     1       5.650  41.568  49.894  1.00  0.00    -0.495 OA
ATOM     27  C   UNL     1       5.136  41.133  48.641  1.00  0.00     0.278 C 
ENDBRANCH  22  26
ENDBRANCH  18  20
ENDBRANCH  11  18
ENDBRANCH   1   8
TORSDOF 8
ENDMDL
MODEL 7
REMARK VINA RESULT:    -8.052      0.905      1.163
REMARK INTER + INTRA:         -12.654
REMARK INTER:                 -11.816
REMARK INTRA:                  -0.838
REMARK UNBOUND:                -0.836
REMARK SMILES CCCCCNc1nc(Nc2ccccc2OC)c2cnn(C)c2n1
REMARK SMILES IDX 6 1 5 3 4 4 3 5 2 6 1 7 7 8 8 9 25 10 9 11 24 12 19 13 22 14
REMARK SMILES IDX 20 15 21 16 23 17 10 18 11 20 12 21 16 22 13 23 15 24 14 25
REMARK SMILES IDX 17 26 18 27
REMARK H PARENT 6 2 10 19
ROOT
ATOM      1  N   UNL     1       4.994  46.549  55.205  1.00  0.00    -0.354 N 
ATOM      2  H   UNL     1       4.516  47.175  55.847  1.00  0.00     0.163 HD
ENDROOT
BRANCH   1   3
ATOM      3  C   UNL     1       5.850  47.206  54.232  1.00  0.00     0.116 C 
BRANCH   3   4
ATOM      4  C   UNL     1       7.306  46.773  54.417  1.00  0.00     0.021 C 
BRANCH   4   5
ATOM      5  C   UNL     1       8.003  46.409  53.103  1.00  0.00     0.002 C 
BRANCH   5   6
ATOM      6  C   UNL     1       9.459  46.870  53.037  1.00  0.00    -0.003 C 
ATOM      7  C   UNL     1      10.012  47.155  54.425  1.00  0.00     0.004 C 
ENDBRANCH   5   6
ENDBRANCH   4   5
ENDBRANCH   3   4
ENDBRANCH   1   3
BRANCH   1   8
ATOM      8  C   UNL     1       3.987  45.746  54.681  1.00  0.00     0.226 A 
ATOM      9  N   UNL     1       4.325  45.104  53.547  1.00  0.00    -0.195 NA
ATOM     10  N   UNL     1       2.807  45.654  55.307  1.00  0.00    -0.193 NA
ATOM     11  C   UNL     1       3.442  44.285  52.917  1.00  0.00     0.147 A 
ATOM     12  C   UNL     1       1.946  44.846  54.675  1.00  0.00     0.165 A 
ATOM     13  C   UNL     1       2.181  44.142  53.510  1.00  0.00     0.082 A 
ATOM     14  N   UNL     1       0.663  44.547  55.044  1.00  0.00    -0.250 N 
ATOM     15  C   UNL     1       0.975  43.451  53.271  1.00  0.00     0.149 A 
ATOM     16  N   UNL     1       0.044  43.687  54.203  1.00  0.00    -0.179 NA
ATOM     17  C   UNL     1      -0.045  45.049  56.195  1.00  0.00     0.176 C 
BRANCH  11  18
ATOM     18  N   UNL     1       3.768  43.600  51.742  1.00  0.00    -0.336 N 
ATOM     19  H   UNL     1       3.010  43.077  51.319  1.00  0.00     0.168 HD
BRANCH  18  20
ATOM     20  C   UNL     1       4.956  43.459  50.996  1.00  0.00     0.082 A 
ATOM     21  C   UNL     1       5.831  44.515  50.722  1.00  0.00     0.030 A 
ATOM     22  C   UNL     1       5.280  42.169  50.503  1.00  0.00     0.142 A 
ATOM     23  C   UNL     1       6.997  44.308  49.980  1.00  0.00     0.002 A 
ATOM     24  C   UNL     1       6.449  41.967  49.762  1.00  0.00     0.048 A 
ATOM     25  C   UNL     1       7.305  43.038  49.503  1.00  0.00     0.004 A 
BRANCH  22  26
ATOM     26  O   UNL     1       4.365  41.185  50.814  1.00  0.00    -0.495 OA
ATOM     27  C   UNL     1       3.594  40.661  49.740  1.00  0.00     0.278 C 
ENDBRANCH  22  26
ENDBRANCH  18  20
ENDBRANCH  11  18
ENDBRANCH   1   8
TORSDOF 8
ENDMDL
MODEL 8
REMARK VINA RESULT:    -8.032      1.047      1.896
REMARK INTER + INTRA:         -12.624
REMARK INTER:                 -11.823
REMARK INTRA:                  -0.801
REMARK UNBOUND:                -0.836
REMARK SMILES CCCCCNc1nc(Nc2ccccc2OC)c2cnn(C)c2n1
REMARK SMILES IDX 6 1 5 3 4 4 3 5 2 6 1 7 7 8 8 9 25 10 9 11 24 12 19 13 22 14
REMARK SMILES IDX 20 15 21 16 23 17 10 18 11 20 12 21 16 22 13 23 15 24 14 25
REMARK SMILES IDX 17 26 18 27
REMARK H PARENT 6 2 10 19
ROOT
ATOM      1  N   UNL     1       6.134  46.892  54.954  1.00  0.00    -0.354 N 
ATOM      2  H   UNL     1       5.858  47.859  55.094  1.00  0.00     0.163 HD
ENDROOT
BRANCH   1   3
ATOM      3  C   UNL     1       7.300  46.704  54.107  1.00  0.00     0.116 C 
BRANCH   3   4
ATOM      4  C   UNL     1       8.478  47.536  54.620  1.00  0.00     0.021 C 
BRANCH   4   5
ATOM      5  C   UNL     1       9.803  47.203  53.929  1.00  0.00     0.002 C 
BRANCH   5   6
ATOM      6  C   UNL     1       9.683  47.086  52.409  1.00  0.00    -0.003 C 
ATOM      7  C   UNL     1      10.672  46.073  51.853  1.00  0.00     0.004 C 
ENDBRANCH   5   6
ENDBRANCH   4   5
ENDBRANCH   3   4
ENDBRANCH   1   3
BRANCH   1   8
ATOM      8  C   UNL     1       4.973  46.250  54.537  1.00  0.00     0.226 A 
ATOM      9  N   UNL     1       5.030  45.761  53.285  1.00  0.00    -0.195 NA
ATOM     10  N   UNL     1       3.926  46.150  55.366  1.00  0.00    -0.193 NA
ATOM     11  C   UNL     1       3.969  45.110  52.737  1.00  0.00     0.147 A 
ATOM     12  C   UNL     1       2.887  45.509  54.814  1.00  0.00     0.165 A 
ATOM     13  C   UNL     1       2.832  44.972  53.544  1.00  0.00     0.082 A 
ATOM     14  N   UNL     1       1.672  45.252  55.387  1.00  0.00    -0.250 N 
ATOM     15  C   UNL     1       1.540  44.412  53.458  1.00  0.00     0.149 A 
ATOM     16  N   UNL     1       0.825  44.573  54.577  1.00  0.00    -0.179 NA
ATOM     17  C   UNL     1       1.241  45.627  56.710  1.00  0.00     0.176 C 
BRANCH  11  18
ATOM     18  N   UNL     1       4.004  44.587  51.442  1.00  0.00    -0.336 N 
ATOM     19  H   UNL     1       3.427  45.070  50.762  1.00  0.00     0.168 HD
BRANCH  18  20
ATOM     20  C   UNL     1       4.671  43.495  50.850  1.00  0.00     0.082 A 
ATOM     21  C   UNL     1       4.185  42.184  50.872  1.00  0.00     0.030 A 
ATOM     22  C   UNL     1       5.903  43.747  50.193  1.00  0.00     0.142 A 
ATOM     23  C   UNL     1       4.893  41.145  50.262  1.00  0.00     0.002 A 
ATOM     24  C   UNL     1       6.606  42.704  49.583  1.00  0.00     0.048 A 
ATOM     25  C   UNL     1       6.099  41.405  49.618  1.00  0.00     0.004 A 
BRANCH  22  26
ATOM     26  O   UNL     1       6.312  45.064  50.221  1.00  0.00    -0.495 OA
ATOM     27  C   UNL     1       7.711  45.304  50.122  1.00  0.00     0.278 C 
ENDBRANCH  22  26
ENDBRANCH  18  20
ENDBRANCH  11  18
ENDBRANCH   1   8
TORSDOF 8
ENDMDL
MODEL 9
REMARK VINA RESULT:    -8.031      2.285      5.443
REMARK INTER + INTRA:         -12.623
REMARK INTER:                 -11.898
REMARK INTRA:                  -0.725
REMARK UNBOUND:                -0.836
REMARK SMILES CCCCCNc1nc(Nc2ccccc2OC)c2cnn(C)c2n1
REMARK SMILES IDX 6 1 5 3 4 4 3 5 2 6 1 7 7 8 8 9 25 10 9 11 24 12 19 13 22 14
REMARK SMILES IDX 20 15 21 16 23 17 10 18 11 20 12 21 16 22 13 23 15 24 14 25
REMARK SMILES IDX 17 26 18 27
REMARK H PARENT 6 2 10 19
ROOT
ATOM      1  N   UNL     1       7.722  46.217  50.690  1.00  0.00    -0.354 N 
ATOM      2  H   UNL     1       8.448  45.563  50.415  1.00  0.00     0.163 HD
ENDROOT
BRANCH   1   3
ATOM      3  C   UNL     1       8.070  47.087  51.801  1.00  0.00     0.116 C 
BRANCH   3   4
ATOM      4  C   UNL     1       9.567  46.997  52.107  1.00  0.00     0.021 C 
BRANCH   4   5
ATOM      5  C   UNL     1       9.869  46.491  53.520  1.00  0.00     0.002 C 
BRANCH   5   6
ATOM      6  C   UNL     1       9.513  47.496  54.615  1.00  0.00    -0.003 C 
ATOM      7  C   UNL     1      10.601  47.567  55.676  1.00  0.00     0.004 C 
ENDBRANCH   5   6
ENDBRANCH   4   5
ENDBRANCH   3   4
ENDBRANCH   1   3
BRANCH   1   8
ATOM      8  C   UNL     1       6.588  45.431  50.870  1.00  0.00     0.226 A 
ATOM      9  N   UNL     1       5.576  46.055  51.499  1.00  0.00    -0.195 NA
ATOM     10  N   UNL     1       6.568  44.170  50.420  1.00  0.00    -0.193 NA
ATOM     11  C   UNL     1       4.404  45.412  51.748  1.00  0.00     0.147 A 
ATOM     12  C   UNL     1       5.410  43.548  50.673  1.00  0.00     0.165 A 
ATOM     13  C   UNL     1       4.309  44.084  51.312  1.00  0.00     0.082 A 
ATOM     14  N   UNL     1       5.072  42.260  50.357  1.00  0.00    -0.250 N 
ATOM     15  C   UNL     1       3.366  43.036  51.322  1.00  0.00     0.149 A 
ATOM     16  N   UNL     1       3.818  41.920  50.738  1.00  0.00    -0.179 NA
ATOM     17  C   UNL     1       5.899  41.288  49.688  1.00  0.00     0.176 C 
BRANCH  11  18
ATOM     18  N   UNL     1       3.334  46.038  52.394  1.00  0.00    -0.336 N 
ATOM     19  H   UNL     1       3.109  46.968  52.059  1.00  0.00     0.168 HD
BRANCH  18  20
ATOM     20  C   UNL     1       2.476  45.660  53.447  1.00  0.00     0.082 A 
ATOM     21  C   UNL     1       1.134  45.312  53.268  1.00  0.00     0.030 A 
ATOM     22  C   UNL     1       3.012  45.627  54.760  1.00  0.00     0.142 A 
ATOM     23  C   UNL     1       0.336  44.941  54.353  1.00  0.00     0.002 A 
ATOM     24  C   UNL     1       2.210  45.253  55.843  1.00  0.00     0.048 A 
ATOM     25  C   UNL     1       0.874  44.910  55.637  1.00  0.00     0.004 A 
BRANCH  22  26
ATOM     26  O   UNL     1       4.340  45.987  54.850  1.00  0.00    -0.495 OA
ATOM     27  C   UNL     1       5.240  45.005  55.350  1.00  0.00     0.278 C 
ENDBRANCH  22  26
ENDBRANCH  18  20
ENDBRANCH  11  18
ENDBRANCH   1   8
TORSDOF 8
ENDMDL
MODEL 10
REMARK VINA RESULT:    -8.021      2.109      6.003
REMARK INTER + INTRA:         -12.608
REMARK INTER:                 -11.247
REMARK INTRA:                  -1.360
REMARK UNBOUND:                -0.836
REMARK SMILES CCCCCNc1nc(Nc2ccccc2OC)c2cnn(C)c2n1
REMARK SMILES IDX 6 1 5 3 4 4 3 5 2 6 1 7 7 8 8 9 25 10 9 11 24 12 19 13 22 14
REMARK SMILES IDX 20 15 21 16 23 17 10 18 11 20 12 21 16 22 13 23 15 24 14 25
REMARK SMILES IDX 17 26 18 27
REMARK H PARENT 6 2 10 19
ROOT
ATOM      1  N   UNL     1       7.636  44.878  49.370  1.00  0.00    -0.354 N 
ATOM      2  H   UNL     1       6.933  45.209  48.716  1.00  0.00     0.163 HD
ENDROOT
BRANCH   1   3
ATOM      3  C   UNL     1       7.860  43.442  49.353  1.00  0.00     0.116 C 
BRANCH   3   4
ATOM      4  C   UNL     1       6.557  42.697  49.052  1.00  0.00     0.021 C 
BRANCH   4   5
ATOM      5  C   UNL     1       6.228  41.610  50.078  1.00  0.00     0.002 C 
BRANCH   5   6
ATOM      6  C   UNL     1       4.876  41.809  50.763  1.00  0.00    -0.003 C 
ATOM      7  C   UNL     1       3.762  41.103  50.004  1.00  0.00     0.004 C 
ENDBRANCH   5   6
ENDBRANCH   4   5
ENDBRANCH   3   4
ENDBRANCH   1   3
BRANCH   1   8
ATOM      8  C   UNL     1       7.260  45.417  50.596  1.00  0.00     0.226 A 
ATOM      9  N   UNL     1       5.930  45.469  50.794  1.00  0.00    -0.195 NA
ATOM     10  N   UNL     1       8.193  45.822  51.466  1.00  0.00    -0.193 NA
ATOM     11  C   UNL     1       5.412  45.974  51.945  1.00  0.00     0.147 A 
ATOM     12  C   UNL     1       7.670  46.319  52.594  1.00  0.00     0.165 A 
ATOM     13  C   UNL     1       6.329  46.425  52.903  1.00  0.00     0.082 A 
ATOM     14  N   UNL     1       8.347  46.823  53.671  1.00  0.00    -0.250 N 
ATOM     15  C   UNL     1       6.311  47.001  54.190  1.00  0.00     0.149 A 
ATOM     16  N   UNL     1       7.536  47.245  54.670  1.00  0.00    -0.179 NA
ATOM     17  C   UNL     1       9.776  46.938  53.820  1.00  0.00     0.176 C 
BRANCH  11  18
ATOM     18  N   UNL     1       4.035  46.033  52.179  1.00  0.00    -0.336 N 
ATOM     19  H   UNL     1       3.676  46.946  52.435  1.00  0.00     0.168 HD
BRANCH  18  20
ATOM     20  C   UNL     1       3.000  45.075  52.151  1.00  0.00     0.082 A 
ATOM     21  C   UNL     1       2.308  44.715  50.991  1.00  0.00     0.030 A 
ATOM     22  C   UNL     1       2.650  44.441  53.370  1.00  0.00     0.142 A 
ATOM     23  C   UNL     1       1.295  43.753  51.028  1.00  0.00     0.002 A 
ATOM     24  C   UNL     1       1.636  43.478  53.401  1.00  0.00     0.048 A 
ATOM     25  C   UNL     1       0.961  43.136  52.229  1.00  0.00     0.004 A 
BRANCH  22  26
ATOM     26  O   UNL     1       3.378  44.856  54.466  1.00  0.00    -0.495 OA
ATOM     27  C   UNL     1       2.674  45.579  55.469  1.00  0.00     0.278 C 
ENDBRANCH  22  26
ENDBRANCH  18  20
ENDBRANCH  11  18
ENDBRANCH   1   8
TORSDOF 8
ENDMDL
MODEL 11
REMARK VINA RESULT:    -7.960      2.117      5.575
REMARK INTER + INTRA:         -12.519
REMARK INTER:                 -11.695
REMARK INTRA:                  -0.824
REMARK UNBOUND:                -0.836
REMARK SMILES CCCCCNc1nc(Nc2ccccc2OC)c2cnn(C)c2n1
REMARK SMILES IDX 6 1 5 3 4 4 3 5 2 6 1 7 7 8 8 9 25 10 9 11 24 12 19 13 22 14
REMARK SMILES IDX 20 15 21 16 23 17 10 18 11 20 12 21 16 22 13 23 15 24 14 25
REMARK SMILES IDX 17 26 18 27
REMARK H PARENT 6 2 10 19
ROOT
ATOM      1  N   UNL     1       5.588  46.837  52.327  1.00  0.00    -0.354 N 
ATOM      2  H   UNL     1       5.535  47.361  51.459  1.00  0.00     0.163 HD
ENDROOT
BRANCH   1   3
ATOM      3  C   UNL     1       6.799  47.053  53.100  1.00  0.00     0.116 C 
BRANCH   3   4
ATOM      4  C   UNL     1       7.771  47.956  52.337  1.00  0.00     0.021 C 
BRANCH   4   5
ATOM      5  C   UNL     1       9.126  47.297  52.065  1.00  0.00     0.002 C 
BRANCH   5   6
ATOM      6  C   UNL     1       9.615  46.414  53.213  1.00  0.00    -0.003 C 
ATOM      7  C   UNL     1      10.092  47.251  54.391  1.00  0.00     0.004 C 
ENDBRANCH   5   6
ENDBRANCH   4   5
ENDBRANCH   3   4
ENDBRANCH   1   3
BRANCH   1   8
ATOM      8  C   UNL     1       5.332  45.520  51.959  1.00  0.00     0.226 A 
ATOM      9  N   UNL     1       4.329  44.939  52.643  1.00  0.00    -0.195 NA
ATOM     10  N   UNL     1       6.052  44.941  50.990  1.00  0.00    -0.193 NA
ATOM     11  C   UNL     1       3.966  43.652  52.397  1.00  0.00     0.147 A 
ATOM     12  C   UNL     1       5.686  43.674  50.758  1.00  0.00     0.165 A 
ATOM     13  C   UNL     1       4.680  42.977  51.398  1.00  0.00     0.082 A 
ATOM     14  N   UNL     1       6.225  42.808  49.847  1.00  0.00    -0.250 N 
ATOM     15  C   UNL     1       4.697  41.704  50.791  1.00  0.00     0.149 A 
ATOM     16  N   UNL     1       5.632  41.591  49.840  1.00  0.00    -0.179 NA
ATOM     17  C   UNL     1       7.316  43.071  48.942  1.00  0.00     0.176 C 
BRANCH  11  18
ATOM     18  N   UNL     1       2.924  43.027  53.087  1.00  0.00    -0.336 N 
ATOM     19  H   UNL     1       3.207  42.295  53.730  1.00  0.00     0.168 HD
BRANCH  18  20
ATOM     20  C   UNL     1       1.522  43.180  53.082  1.00  0.00     0.082 A 
ATOM     21  C   UNL     1       0.682  42.596  52.129  1.00  0.00     0.030 A 
ATOM     22  C   UNL     1       0.937  43.967  54.106  1.00  0.00     0.142 A 
ATOM     23  C   UNL     1      -0.702  42.781  52.182  1.00  0.00     0.002 A 
ATOM     24  C   UNL     1      -0.449  44.148  54.155  1.00  0.00     0.048 A 
ATOM     25  C   UNL     1      -1.265  43.554  53.193  1.00  0.00     0.004 A 
BRANCH  22  26
ATOM     26  O   UNL     1       1.835  44.509  55.002  1.00  0.00    -0.495 OA
ATOM     27  C   UNL     1       1.294  45.089  56.183  1.00  0.00     0.278 C 
ENDBRANCH  22  26
ENDBRANCH  18  20
ENDBRANCH  11  18
ENDBRANCH   1   8
TORSDOF 8
ENDMDL
MODEL 12
REMARK VINA RESULT:    -7.959      2.244      6.381
REMARK INTER + INTRA:         -12.517
REMARK INTER:                 -11.459
REMARK INTRA:                  -1.058
REMARK UNBOUND:                -0.836
REMARK SMILES CCCCCNc1nc(Nc2ccccc2OC)c2cnn(C)c2n1
REMARK SMILES IDX 6 1 5 3 4 4 3 5 2 6 1 7 7 8 8 9 25 10 9 11 24 12 19 13 22 14
REMARK SMILES IDX 20 15 21 16 23 17 10 18 11 20 12 21 16 22 13 23 15 24 14 25
REMARK SMILES IDX 17 26 18 27
REMARK H PARENT 6 2 10 19
ROOT
ATOM      1  N   UNL     1       1.997  45.507  52.450  1.00  0.00    -0.354 N 
ATOM      2  H   UNL     1       1.714  46.276  51.850  1.00  0.00     0.163 HD
ENDROOT
BRANCH   1   3
ATOM      3  C   UNL     1       2.042  45.819  53.868  1.00  0.00     0.116 C 
BRANCH   3   4
ATOM      4  C   UNL     1       1.662  44.593  54.702  1.00  0.00     0.021 C 
BRANCH   4   5
ATOM      5  C   UNL     1       0.330  43.964  54.285  1.00  0.00     0.002 C 
BRANCH   5   6
ATOM      6  C   UNL     1       0.470  42.535  53.759  1.00  0.00    -0.003 C 
ATOM      7  C   UNL     1      -0.086  42.408  52.349  1.00  0.00     0.004 C 
ENDBRANCH   5   6
ENDBRANCH   4   5
ENDBRANCH   3   4
ENDBRANCH   1   3
BRANCH   1   8
ATOM      8  C   UNL     1       3.185  45.045  51.894  1.00  0.00     0.226 A 
ATOM      9  N   UNL     1       4.179  45.952  51.880  1.00  0.00    -0.195 NA
ATOM     10  N   UNL     1       3.270  43.788  51.439  1.00  0.00    -0.193 NA
ATOM     11  C   UNL     1       5.400  45.646  51.364  1.00  0.00     0.147 A 
ATOM     12  C   UNL     1       4.476  43.500  50.932  1.00  0.00     0.165 A 
ATOM     13  C   UNL     1       5.564  44.348  50.863  1.00  0.00     0.082 A 
ATOM     14  N   UNL     1       4.884  42.316  50.382  1.00  0.00    -0.250 N 
ATOM     15  C   UNL     1       6.573  43.572  50.257  1.00  0.00     0.149 A 
ATOM     16  N   UNL     1       6.172  42.330  49.963  1.00  0.00    -0.179 NA
ATOM     17  C   UNL     1       4.096  41.121  50.218  1.00  0.00     0.176 C 
BRANCH  11  18
ATOM     18  N   UNL     1       6.451  46.566  51.344  1.00  0.00    -0.336 N 
ATOM     19  H   UNL     1       6.354  47.323  50.676  1.00  0.00     0.168 HD
BRANCH  18  20
ATOM     20  C   UNL     1       7.663  46.677  52.057  1.00  0.00     0.082 A 
ATOM     21  C   UNL     1       8.903  46.282  51.545  1.00  0.00     0.030 A 
ATOM     22  C   UNL     1       7.615  47.224  53.365  1.00  0.00     0.142 A 
ATOM     23  C   UNL     1      10.070  46.423  52.301  1.00  0.00     0.002 A 
ATOM     24  C   UNL     1       8.786  47.364  54.116  1.00  0.00     0.048 A 
ATOM     25  C   UNL     1      10.011  46.964  53.582  1.00  0.00     0.004 A 
BRANCH  22  26
ATOM     26  O   UNL     1       6.355  47.583  53.794  1.00  0.00    -0.495 OA
ATOM     27  C   UNL     1       5.805  46.833  54.870  1.00  0.00     0.278 C 
ENDBRANCH  22  26
ENDBRANCH  18  20
ENDBRANCH  11  18
ENDBRANCH   1   8
TORSDOF 8
ENDMDL
MODEL 13
REMARK VINA RESULT:    -7.944      2.219      5.327
REMARK INTER + INTRA:         -12.495
REMARK INTER:                 -11.607
REMARK INTRA:                  -0.888
REMARK UNBOUND:                -0.836
REMARK SMILES CCCCCNc1nc(Nc2ccccc2OC)c2cnn(C)c2n1
REMARK SMILES IDX 6 1 5 3 4 4 3 5 2 6 1 7 7 8 8 9 25 10 9 11 24 12 19 13 22 14
REMARK SMILES IDX 20 15 21 16 23 17 10 18 11 20 12 21 16 22 13 23 15 24 14 25
REMARK SMILES IDX 17 26 18 27
REMARK H PARENT 6 2 10 19
ROOT
ATOM      1  N   UNL     1       7.570  46.588  51.183  1.00  0.00    -0.354 N 
ATOM      2  H   UNL     1       7.402  47.122  50.335  1.00  0.00     0.163 HD
ENDROOT
BRANCH   1   3
ATOM      3  C   UNL     1       8.878  45.960  51.263  1.00  0.00     0.116 C 
BRANCH   3   4
ATOM      4  C   UNL     1       9.830  46.807  52.111  1.00  0.00     0.021 C 
BRANCH   4   5
ATOM      5  C   UNL     1       9.851  46.402  53.588  1.00  0.00     0.002 C 
BRANCH   5   6
ATOM      6  C   UNL     1       9.615  47.572  54.543  1.00  0.00    -0.003 C 
ATOM      7  C   UNL     1      10.592  47.539  55.709  1.00  0.00     0.004 C 
ENDBRANCH   5   6
ENDBRANCH   4   5
ENDBRANCH   3   4
ENDBRANCH   1   3
BRANCH   1   8
ATOM      8  C   UNL     1       6.479  45.730  51.280  1.00  0.00     0.226 A 
ATOM      9  N   UNL     1       5.398  46.273  51.870  1.00  0.00    -0.195 NA
ATOM     10  N   UNL     1       6.560  44.484  50.797  1.00  0.00    -0.193 NA
ATOM     11  C   UNL     1       4.257  45.554  52.040  1.00  0.00     0.147 A 
ATOM     12  C   UNL     1       5.431  43.786  50.972  1.00  0.00     0.165 A 
ATOM     13  C   UNL     1       4.268  44.236  51.564  1.00  0.00     0.082 A 
ATOM     14  N   UNL     1       5.191  42.490  50.605  1.00  0.00    -0.250 N 
ATOM     15  C   UNL     1       3.392  43.133  51.496  1.00  0.00     0.149 A 
ATOM     16  N   UNL     1       3.942  42.064  50.909  1.00  0.00    -0.179 NA
ATOM     17  C   UNL     1       6.110  41.590  49.956  1.00  0.00     0.176 C 
BRANCH  11  18
ATOM     18  N   UNL     1       3.118  46.095  52.643  1.00  0.00    -0.336 N 
ATOM     19  H   UNL     1       2.818  46.991  52.277  1.00  0.00     0.168 HD
BRANCH  18  20
ATOM     20  C   UNL     1       2.273  45.667  53.687  1.00  0.00     0.082 A 
ATOM     21  C   UNL     1       2.672  45.585  55.024  1.00  0.00     0.030 A 
ATOM     22  C   UNL     1       0.942  45.305  53.356  1.00  0.00     0.142 A 
ATOM     23  C   UNL     1       1.783  45.158  56.015  1.00  0.00     0.002 A 
ATOM     24  C   UNL     1       0.056  44.880  54.352  1.00  0.00     0.048 A 
ATOM     25  C   UNL     1       0.479  44.808  55.679  1.00  0.00     0.004 A 
BRANCH  22  26
ATOM     26  O   UNL     1       0.630  45.411  52.017  1.00  0.00    -0.495 OA
ATOM     27  C   UNL     1      -0.209  44.400  51.471  1.00  0.00     0.278 C 
ENDBRANCH  22  26
ENDBRANCH  18  20
ENDBRANCH  11  18
ENDBRANCH   1   8
TORSDOF 8
ENDMDL
MODEL 14
REMARK VINA RESULT:    -7.908      2.017      5.435
REMARK INTER + INTRA:         -12.443
REMARK INTER:                 -11.707
REMARK INTRA:                  -0.736
REMARK UNBOUND:                -0.836
REMARK SMILES CCCCCNc1nc(Nc2ccccc2OC)c2cnn(C)c2n1
REMARK SMILES IDX 6 1 5 3 4 4 3 5 2 6 1 7 7 8 8 9 25 10 9 11 24 12 19 13 22 14
REMARK SMILES IDX 20 15 21 16 23 17 10 18 11 20 12 21 16 22 13 23 15 24 14 25
REMARK SMILES IDX 17 26 18 27
REMARK H PARENT 6 2 10 19
ROOT
ATOM      1  N   UNL     1       5.321  46.826  52.326  1.00  0.00    -0.354 N 
ATOM      2  H   UNL     1       5.438  47.256  51.414  1.00  0.00     0.163 HD
ENDROOT
BRANCH   1   3
ATOM      3  C   UNL     1       6.426  47.032  53.247  1.00  0.00     0.116 C 
BRANCH   3   4
ATOM      4  C   UNL     1       7.637  47.613  52.513  1.00  0.00     0.021 C 
BRANCH   4   5
ATOM      5  C   UNL     1       8.817  47.921  53.439  1.00  0.00     0.002 C 
BRANCH   5   6
ATOM      6  C   UNL     1       9.916  46.859  53.399  1.00  0.00    -0.003 C 
ATOM      7  C   UNL     1      10.202  46.412  51.973  1.00  0.00     0.004 C 
ENDBRANCH   5   6
ENDBRANCH   4   5
ENDBRANCH   3   4
ENDBRANCH   1   3
BRANCH   1   8
ATOM      8  C   UNL     1       5.001  45.500  52.053  1.00  0.00     0.226 A 
ATOM      9  N   UNL     1       3.976  45.016  52.777  1.00  0.00    -0.195 NA
ATOM     10  N   UNL     1       5.689  44.821  51.125  1.00  0.00    -0.193 NA
ATOM     11  C   UNL     1       3.551  43.734  52.622  1.00  0.00     0.147 A 
ATOM     12  C   UNL     1       5.262  43.559  50.984  1.00  0.00     0.165 A 
ATOM     13  C   UNL     1       4.227  42.958  51.672  1.00  0.00     0.082 A 
ATOM     14  N   UNL     1       5.755  42.607  50.135  1.00  0.00    -0.250 N 
ATOM     15  C   UNL     1       4.181  41.646  51.156  1.00  0.00     0.149 A 
ATOM     16  N   UNL     1       5.105  41.422  50.215  1.00  0.00    -0.179 NA
ATOM     17  C   UNL     1       6.852  42.754  49.212  1.00  0.00     0.176 C 
BRANCH  11  18
ATOM     18  N   UNL     1       2.484  43.209  53.356  1.00  0.00    -0.336 N 
ATOM     19  H   UNL     1       2.479  42.200  53.455  1.00  0.00     0.168 HD
BRANCH  18  20
ATOM     20  C   UNL     1       1.370  43.783  54.002  1.00  0.00     0.082 A 
ATOM     21  C   UNL     1       1.462  44.577  55.150  1.00  0.00     0.030 A 
ATOM     22  C   UNL     1       0.086  43.544  53.448  1.00  0.00     0.142 A 
ATOM     23  C   UNL     1       0.319  45.123  55.739  1.00  0.00     0.002 A 
ATOM     24  C   UNL     1      -1.055  44.093  54.042  1.00  0.00     0.048 A 
ATOM     25  C   UNL     1      -0.935  44.883  55.186  1.00  0.00     0.004 A 
BRANCH  22  26
ATOM     26  O   UNL     1       0.083  42.750  52.321  1.00  0.00    -0.495 OA
ATOM     27  C   UNL     1      -0.360  43.353  51.111  1.00  0.00     0.278 C 
ENDBRANCH  22  26
ENDBRANCH  18  20
ENDBRANCH  11  18
ENDBRANCH   1   8
TORSDOF 8
ENDMDL
MODEL 15
REMARK VINA RESULT:    -7.827      1.847      5.462
REMARK INTER + INTRA:         -12.323
REMARK INTER:                 -11.132
REMARK INTRA:                  -1.191
REMARK UNBOUND:                -0.836
REMARK SMILES CCCCCNc1nc(Nc2ccccc2OC)c2cnn(C)c2n1
REMARK SMILES IDX 6 1 5 3 4 4 3 5 2 6 1 7 7 8 8 9 25 10 9 11 24 12 19 13 22 14
REMARK SMILES IDX 20 15 21 16 23 17 10 18 11 20 12 21 16 22 13 23 15 24 14 25
REMARK SMILES IDX 17 26 18 27
REMARK H PARENT 6 2 10 19
ROOT
ATOM      1  N   UNL     1       4.332  46.882  55.128  1.00  0.00    -0.354 N 
ATOM      2  H   UNL     1       4.620  47.439  55.926  1.00  0.00     0.163 HD
ENDROOT
BRANCH   1   3
ATOM      3  C   UNL     1       3.688  45.622  55.461  1.00  0.00     0.116 C 
BRANCH   3   4
ATOM      4  C   UNL     1       2.189  45.688  55.157  1.00  0.00     0.021 C 
BRANCH   4   5
ATOM      5  C   UNL     1       1.838  45.241  53.735  1.00  0.00     0.002 C 
BRANCH   5   6
ATOM      6  C   UNL     1       2.208  43.786  53.446  1.00  0.00    -0.003 C 
ATOM      7  C   UNL     1       0.993  42.875  53.548  1.00  0.00     0.004 C 
ENDBRANCH   5   6
ENDBRANCH   4   5
ENDBRANCH   3   4
ENDBRANCH   1   3
BRANCH   1   8
ATOM      8  C   UNL     1       5.470  46.788  54.334  1.00  0.00     0.226 A 
ATOM      9  N   UNL     1       5.264  46.211  53.136  1.00  0.00    -0.195 NA
ATOM     10  N   UNL     1       6.641  47.261  54.780  1.00  0.00    -0.193 NA
ATOM     11  C   UNL     1       6.284  46.046  52.252  1.00  0.00     0.147 A 
ATOM     12  C   UNL     1       7.637  47.092  53.901  1.00  0.00     0.165 A 
ATOM     13  C   UNL     1       7.543  46.513  52.651  1.00  0.00     0.082 A 
ATOM     14  N   UNL     1       8.948  47.453  54.053  1.00  0.00    -0.250 N 
ATOM     15  C   UNL     1       8.854  46.581  52.136  1.00  0.00     0.149 A 
ATOM     16  N   UNL     1       9.718  47.157  52.980  1.00  0.00    -0.179 NA
ATOM     17  C   UNL     1       9.544  48.088  55.201  1.00  0.00     0.176 C 
BRANCH  11  18
ATOM     18  N   UNL     1       6.096  45.457  50.999  1.00  0.00    -0.336 N 
ATOM     19  H   UNL     1       6.057  46.102  50.217  1.00  0.00     0.168 HD
BRANCH  18  20
ATOM     20  C   UNL     1       5.931  44.126  50.563  1.00  0.00     0.082 A 
ATOM     21  C   UNL     1       4.879  43.301  50.973  1.00  0.00     0.030 A 
ATOM     22  C   UNL     1       6.886  43.602  49.655  1.00  0.00     0.142 A 
ATOM     23  C   UNL     1       4.768  41.991  50.500  1.00  0.00     0.002 A 
ATOM     24  C   UNL     1       6.769  42.291  49.183  1.00  0.00     0.048 A 
ATOM     25  C   UNL     1       5.709  41.488  49.607  1.00  0.00     0.004 A 
BRANCH  22  26
ATOM     26  O   UNL     1       7.891  44.479  49.305  1.00  0.00    -0.495 OA
ATOM     27  C   UNL     1       9.222  44.092  49.625  1.00  0.00     0.278 C 
ENDBRANCH  22  26
ENDBRANCH  18  20
ENDBRANCH  11  18
ENDBRANCH   1   8
TORSDOF 8
ENDMDL
MODEL 16
REMARK VINA RESULT:    -7.779      1.660      5.139
REMARK INTER + INTRA:         -12.252
REMARK INTER:                 -11.089
REMARK INTRA:                  -1.163
REMARK UNBOUND:                -0.836
REMARK SMILES CCCCCNc1nc(Nc2ccccc2OC)c2cnn(C)c2n1
REMARK SMILES IDX 6 1 5 3 4 4 3 5 2 6 1 7 7 8 8 9 25 10 9 11 24 12 19 13 22 14
REMARK SMILES IDX 20 15 21 16 23 17 10 18 11 20 12 21 16 22 13 23 15 24 14 25
REMARK SMILES IDX 17 26 18 27
REMARK H PARENT 6 2 10 19
ROOT
ATOM      1  N   UNL     1       4.341  46.849  55.286  1.00  0.00    -0.354 N 
ATOM      2  H   UNL     1       4.674  47.496  55.994  1.00  0.00     0.163 HD
ENDROOT
BRANCH   1   3
ATOM      3  C   UNL     1       3.782  45.610  55.801  1.00  0.00     0.116 C 
BRANCH   3   4
ATOM      4  C   UNL     1       2.264  45.584  55.610  1.00  0.00     0.021 C 
BRANCH   4   5
ATOM      5  C   UNL     1       1.803  44.582  54.549  1.00  0.00     0.002 C 
BRANCH   5   6
ATOM      6  C   UNL     1       0.866  45.189  53.504  1.00  0.00    -0.003 C 
ATOM      7  C   UNL     1       1.626  46.069  52.524  1.00  0.00     0.004 C 
ENDBRANCH   5   6
ENDBRANCH   4   5
ENDBRANCH   3   4
ENDBRANCH   1   3
BRANCH   1   8
ATOM      8  C   UNL     1       5.408  46.711  54.404  1.00  0.00     0.226 A 
ATOM      9  N   UNL     1       5.088  46.128  53.234  1.00  0.00    -0.195 NA
ATOM     10  N   UNL     1       6.625  47.152  54.749  1.00  0.00    -0.193 NA
ATOM     11  C   UNL     1       6.028  45.923  52.274  1.00  0.00     0.147 A 
ATOM     12  C   UNL     1       7.542  46.942  53.795  1.00  0.00     0.165 A 
ATOM     13  C   UNL     1       7.330  46.353  52.564  1.00  0.00     0.082 A 
ATOM     14  N   UNL     1       8.871  47.263  53.837  1.00  0.00    -0.250 N 
ATOM     15  C   UNL     1       8.596  46.375  51.945  1.00  0.00     0.149 A 
ATOM     16  N   UNL     1       9.543  46.931  52.709  1.00  0.00    -0.179 NA
ATOM     17  C   UNL     1       9.577  47.890  54.926  1.00  0.00     0.176 C 
BRANCH  11  18
ATOM     18  N   UNL     1       5.722  45.327  51.047  1.00  0.00    -0.336 N 
ATOM     19  H   UNL     1       5.222  45.916  50.391  1.00  0.00     0.168 HD
BRANCH  18  20
ATOM     20  C   UNL     1       5.949  44.046  50.503  1.00  0.00     0.082 A 
ATOM     21  C   UNL     1       7.049  43.727  49.702  1.00  0.00     0.030 A 
ATOM     22  C   UNL     1       5.007  43.026  50.793  1.00  0.00     0.142 A 
ATOM     23  C   UNL     1       7.221  42.436  49.197  1.00  0.00     0.002 A 
ATOM     24  C   UNL     1       5.184  41.735  50.286  1.00  0.00     0.048 A 
ATOM     25  C   UNL     1       6.291  41.442  49.490  1.00  0.00     0.004 A 
BRANCH  22  26
ATOM     26  O   UNL     1       3.951  43.424  51.585  1.00  0.00    -0.495 OA
ATOM     27  C   UNL     1       2.746  42.675  51.475  1.00  0.00     0.278 C 
ENDBRANCH  22  26
ENDBRANCH  18  20
ENDBRANCH  11  18
ENDBRANCH   1   8
TORSDOF 8
ENDMDL
MODEL 17
REMARK VINA RESULT:    -7.756      1.942      6.308
REMARK INTER + INTRA:         -12.219
REMARK INTER:                 -11.134
REMARK INTRA:                  -1.084
REMARK UNBOUND:                -0.836
REMARK SMILES CCCCCNc1nc(Nc2ccccc2OC)c2cnn(C)c2n1
REMARK SMILES IDX 6 1 5 3 4 4 3 5 2 6 1 7 7 8 8 9 25 10 9 11 24 12 19 13 22 14
REMARK SMILES IDX 20 15 21 16 23 17 10 18 11 20 12 21 16 22 13 23 15 24 14 25
REMARK SMILES IDX 17 26 18 27
REMARK H PARENT 6 2 10 19
ROOT
ATOM      1  N   UNL     1       2.716  44.349  54.156  1.00  0.00    -0.354 N 
ATOM      2  H   UNL     1       2.205  43.473  54.200  1.00  0.00     0.163 HD
ENDROOT
BRANCH   1   3
ATOM      3  C   UNL     1       1.885  45.540  54.094  1.00  0.00     0.116 C 
BRANCH   3   4
ATOM      4  C   UNL     1       0.859  45.422  52.964  1.00  0.00     0.021 C 
BRANCH   4   5
ATOM      5  C   UNL     1      -0.271  44.436  53.270  1.00  0.00     0.002 C 
BRANCH   5   6
ATOM      6  C   UNL     1      -0.144  43.112  52.516  1.00  0.00    -0.003 C 
ATOM      7  C   UNL     1       0.131  41.957  53.468  1.00  0.00     0.004 C 
ENDBRANCH   5   6
ENDBRANCH   4   5
ENDBRANCH   3   4
ENDBRANCH   1   3
BRANCH   1   8
ATOM      8  C   UNL     1       3.613  44.182  53.106  1.00  0.00     0.226 A 
ATOM      9  N   UNL     1       4.505  45.181  52.975  1.00  0.00    -0.195 NA
ATOM     10  N   UNL     1       3.548  43.089  52.335  1.00  0.00    -0.193 NA
ATOM     11  C   UNL     1       5.443  45.159  51.992  1.00  0.00     0.147 A 
ATOM     12  C   UNL     1       4.476  43.080  51.369  1.00  0.00     0.165 A 
ATOM     13  C   UNL     1       5.434  44.047  51.139  1.00  0.00     0.082 A 
ATOM     14  N   UNL     1       4.671  42.120  50.415  1.00  0.00    -0.250 N 
ATOM     15  C   UNL     1       6.154  43.566  50.026  1.00  0.00     0.149 A 
ATOM     16  N   UNL     1       5.701  42.390  49.578  1.00  0.00    -0.179 NA
ATOM     17  C   UNL     1       3.909  40.910  50.236  1.00  0.00     0.176 C 
BRANCH  11  18
ATOM     18  N   UNL     1       6.386  46.179  51.837  1.00  0.00    -0.336 N 
ATOM     19  H   UNL     1       6.221  46.808  51.059  1.00  0.00     0.168 HD
BRANCH  18  20
ATOM     20  C   UNL     1       7.558  46.536  52.535  1.00  0.00     0.082 A 
ATOM     21  C   UNL     1       7.556  47.156  53.789  1.00  0.00     0.030 A 
ATOM     22  C   UNL     1       8.806  46.243  51.929  1.00  0.00     0.142 A 
ATOM     23  C   UNL     1       8.754  47.479  54.432  1.00  0.00     0.002 A 
ATOM     24  C   UNL     1      10.002  46.568  52.577  1.00  0.00     0.048 A 
ATOM     25  C   UNL     1       9.973  47.185  53.828  1.00  0.00     0.004 A 
BRANCH  22  26
ATOM     26  O   UNL     1       8.719  45.636  50.693  1.00  0.00    -0.495 OA
ATOM     27  C   UNL     1       9.748  44.714  50.357  1.00  0.00     0.278 C 
ENDBRANCH  22  26
ENDBRANCH  18  20
ENDBRANCH  11  18
ENDBRANCH   1   8
TORSDOF 8
ENDMDL
MODEL 18
REMARK VINA RESULT:    -7.753      2.113      5.617
REMARK INTER + INTRA:         -12.214
REMARK INTER:                 -10.841
REMARK INTRA:                  -1.373
REMARK UNBOUND:                -0.836
REMARK SMILES CCCCCNc1nc(Nc2ccccc2OC)c2cnn(C)c2n1
REMARK SMILES IDX 6 1 5 3 4 4 3 5 2 6 1 7 7 8 8 9 25 10 9 11 24 12 19 13 22 14
REMARK SMILES IDX 20 15 21 16 23 17 10 18 11 20 12 21 16 22 13 23 15 24 14 25
REMARK SMILES IDX 17 26 18 27
REMARK H PARENT 6 2 10 19
ROOT
ATOM      1  N   UNL     1       2.239  45.696  52.301  1.00  0.00    -0.354 N 
ATOM      2  H   UNL     1       2.542  46.637  52.534  1.00  0.00     0.163 HD
ENDROOT
BRANCH   1   3
ATOM      3  C   UNL     1       1.597  44.974  53.387  1.00  0.00     0.116 C 
BRANCH   3   4
ATOM      4  C   UNL     1       2.618  44.610  54.468  1.00  0.00     0.021 C 
BRANCH   4   5
ATOM      5  C   UNL     1       3.038  45.803  55.331  1.00  0.00     0.002 C 
BRANCH   5   6
ATOM      6  C   UNL     1       4.512  46.179  55.173  1.00  0.00    -0.003 C 
ATOM      7  C   UNL     1       5.404  44.947  55.211  1.00  0.00     0.004 C 
ENDBRANCH   5   6
ENDBRANCH   4   5
ENDBRANCH   3   4
ENDBRANCH   1   3
BRANCH   1   8
ATOM      8  C   UNL     1       3.363  45.089  51.751  1.00  0.00     0.226 A 
ATOM      9  N   UNL     1       4.447  45.883  51.687  1.00  0.00    -0.195 NA
ATOM     10  N   UNL     1       3.307  43.813  51.348  1.00  0.00    -0.193 NA
ATOM     11  C   UNL     1       5.619  45.429  51.170  1.00  0.00     0.147 A 
ATOM     12  C   UNL     1       4.467  43.378  50.839  1.00  0.00     0.165 A 
ATOM     13  C   UNL     1       5.637  44.102  50.721  1.00  0.00     0.082 A 
ATOM     14  N   UNL     1       4.738  42.137  50.333  1.00  0.00    -0.250 N 
ATOM     15  C   UNL     1       6.548  43.199  50.136  1.00  0.00     0.149 A 
ATOM     16  N   UNL     1       6.013  41.996  49.899  1.00  0.00    -0.179 NA
ATOM     17  C   UNL     1       3.826  41.026  50.229  1.00  0.00     0.176 C 
BRANCH  11  18
ATOM     18  N   UNL     1       6.762  46.230  51.099  1.00  0.00    -0.336 N 
ATOM     19  H   UNL     1       6.923  46.680  50.205  1.00  0.00     0.168 HD
BRANCH  18  20
ATOM     20  C   UNL     1       7.782  46.556  52.017  1.00  0.00     0.082 A 
ATOM     21  C   UNL     1       7.566  47.280  53.193  1.00  0.00     0.030 A 
ATOM     22  C   UNL     1       9.099  46.116  51.728  1.00  0.00     0.142 A 
ATOM     23  C   UNL     1       8.620  47.566  54.065  1.00  0.00     0.002 A 
ATOM     24  C   UNL     1      10.150  46.403  52.605  1.00  0.00     0.048 A 
ATOM     25  C   UNL     1       9.907  47.127  53.772  1.00  0.00     0.004 A 
BRANCH  22  26
ATOM     26  O   UNL     1       9.227  45.412  50.549  1.00  0.00    -0.495 OA
ATOM     27  C   UNL     1      10.236  44.410  50.504  1.00  0.00     0.278 C 
ENDBRANCH  22  26
ENDBRANCH  18  20
ENDBRANCH  11  18
ENDBRANCH   1   8
TORSDOF 8
ENDMDL
MODEL 19
REMARK VINA RESULT:    -7.562      2.136      5.605
REMARK INTER + INTRA:         -11.935
REMARK INTER:                 -11.158
REMARK INTRA:                  -0.777
REMARK UNBOUND:                -0.836
REMARK SMILES CCCCCNc1nc(Nc2ccccc2OC)c2cnn(C)c2n1
REMARK SMILES IDX 6 1 5 3 4 4 3 5 2 6 1 7 7 8 8 9 25 10 9 11 24 12 19 13 22 14
REMARK SMILES IDX 20 15 21 16 23 17 10 18 11 20 12 21 16 22 13 23 15 24 14 25
REMARK SMILES IDX 17 26 18 27
REMARK H PARENT 6 2 10 19
ROOT
ATOM      1  N   UNL     1       6.215  47.502  53.554  1.00  0.00    -0.354 N 
ATOM      2  H   UNL     1       5.564  48.218  53.245  1.00  0.00     0.163 HD
ENDROOT
BRANCH   1   3
ATOM      3  C   UNL     1       7.572  47.652  53.057  1.00  0.00     0.116 C 
BRANCH   3   4
ATOM      4  C   UNL     1       8.587  47.363  54.166  1.00  0.00     0.021 C 
BRANCH   4   5
ATOM      5  C   UNL     1       9.917  46.815  53.643  1.00  0.00     0.002 C 
BRANCH   5   6
ATOM      6  C   UNL     1      10.018  46.812  52.118  1.00  0.00    -0.003 C 
ATOM      7  C   UNL     1      10.456  45.453  51.594  1.00  0.00     0.004 C 
ENDBRANCH   5   6
ENDBRANCH   4   5
ENDBRANCH   3   4
ENDBRANCH   1   3
BRANCH   1   8
ATOM      8  C   UNL     1       5.588  46.299  53.246  1.00  0.00     0.226 A 
ATOM      9  N   UNL     1       4.624  45.939  54.114  1.00  0.00    -0.195 NA
ATOM     10  N   UNL     1       5.953  45.611  52.157  1.00  0.00    -0.193 NA
ATOM     11  C   UNL     1       3.926  44.785  53.945  1.00  0.00     0.147 A 
ATOM     12  C   UNL     1       5.258  44.476  52.003  1.00  0.00     0.165 A 
ATOM     13  C   UNL     1       4.255  44.006  52.828  1.00  0.00     0.082 A 
ATOM     14  N   UNL     1       5.393  43.549  51.007  1.00  0.00    -0.250 N 
ATOM     15  C   UNL     1       3.853  42.793  52.233  1.00  0.00     0.149 A 
ATOM     16  N   UNL     1       4.537  42.506  51.119  1.00  0.00    -0.179 NA
ATOM     17  C   UNL     1       6.323  43.589  49.907  1.00  0.00     0.176 C 
BRANCH  11  18
ATOM     18  N   UNL     1       2.915  44.391  54.827  1.00  0.00    -0.336 N 
ATOM     19  H   UNL     1       3.231  44.069  55.735  1.00  0.00     0.168 HD
BRANCH  18  20
ATOM     20  C   UNL     1       1.510  44.325  54.731  1.00  0.00     0.082 A 
ATOM     21  C   UNL     1       0.832  43.535  53.798  1.00  0.00     0.030 A 
ATOM     22  C   UNL     1       0.746  45.104  55.638  1.00  0.00     0.142 A 
ATOM     23  C   UNL     1      -0.565  43.509  53.757  1.00  0.00     0.002 A 
ATOM     24  C   UNL     1      -0.652  45.074  55.594  1.00  0.00     0.048 A 
ATOM     25  C   UNL     1      -1.304  44.275  54.653  1.00  0.00     0.004 A 
BRANCH  22  26
ATOM     26  O   UNL     1       1.490  45.856  56.521  1.00  0.00    -0.495 OA
ATOM     27  C   UNL     1       0.843  46.267  57.720  1.00  0.00     0.278 C 
ENDBRANCH  22  26
ENDBRANCH  18  20
ENDBRANCH  11  18
ENDBRANCH   1   8
TORSDOF 8
ENDMDL
MODEL 20
REMARK VINA RESULT:    -7.550      2.013      6.130
REMARK INTER + INTRA:         -11.917
REMARK INTER:                 -11.122
REMARK INTRA:                  -0.795
REMARK UNBOUND:                -0.836
REMARK SMILES CCCCCNc1nc(Nc2ccccc2OC)c2cnn(C)c2n1
REMARK SMILES IDX 6 1 5 3 4 4 3 5 2 6 1 7 7 8 8 9 25 10 9 11 24 12 19 13 22 14
REMARK SMILES IDX 20 15 21 16 23 17 10 18 11 20 12 21 16 22 13 23 15 24 14 25
REMARK SMILES IDX 17 26 18 27
REMARK H PARENT 6 2 10 19
ROOT
ATOM      1  N   UNL     1       2.808  46.075  56.449  1.00  0.00    -0.354 N 
ATOM      2  H   UNL     1       3.545  45.744  57.065  1.00  0.00     0.163 HD
ENDROOT
BRANCH   1   3
ATOM      3  C   UNL     1       1.468  45.649  56.815  1.00  0.00     0.116 C 
BRANCH   3   4
ATOM      4  C   UNL     1       0.916  46.520  57.946  1.00  0.00     0.021 C 
BRANCH   4   5
ATOM      5  C   UNL     1      -0.549  46.918  57.746  1.00  0.00     0.002 C 
BRANCH   5   6
ATOM      6  C   UNL     1      -1.066  47.890  58.807  1.00  0.00    -0.003 C 
ATOM      7  C   UNL     1      -0.055  48.075  59.928  1.00  0.00     0.004 C 
ENDBRANCH   5   6
ENDBRANCH   4   5
ENDBRANCH   3   4
ENDBRANCH   1   3
BRANCH   1   8
ATOM      8  C   UNL     1       3.230  45.718  55.173  1.00  0.00     0.226 A 
ATOM      9  N   UNL     1       4.242  46.464  54.694  1.00  0.00    -0.195 NA
ATOM     10  N   UNL     1       2.642  44.699  54.532  1.00  0.00    -0.193 NA
ATOM     11  C   UNL     1       4.758  46.235  53.458  1.00  0.00     0.147 A 
ATOM     12  C   UNL     1       3.158  44.485  53.315  1.00  0.00     0.165 A 
ATOM     13  C   UNL     1       4.190  45.187  52.723  1.00  0.00     0.082 A 
ATOM     14  N   UNL     1       2.779  43.534  52.408  1.00  0.00    -0.250 N 
ATOM     15  C   UNL     1       4.352  44.573  51.463  1.00  0.00     0.149 A 
ATOM     16  N   UNL     1       3.500  43.561  51.262  1.00  0.00    -0.179 NA
ATOM     17  C   UNL     1       1.728  42.560  52.563  1.00  0.00     0.176 C 
BRANCH  11  18
ATOM     18  N   UNL     1       5.814  46.990  52.940  1.00  0.00    -0.336 N 
ATOM     19  H   UNL     1       5.550  47.704  52.270  1.00  0.00     0.168 HD
BRANCH  18  20
ATOM     20  C   UNL     1       7.211  46.975  53.135  1.00  0.00     0.082 A 
ATOM     21  C   UNL     1       7.827  47.279  54.353  1.00  0.00     0.030 A 
ATOM     22  C   UNL     1       8.031  46.626  52.032  1.00  0.00     0.142 A 
ATOM     23  C   UNL     1       9.217  47.240  54.484  1.00  0.00     0.002 A 
ATOM     24  C   UNL     1       9.422  46.587  52.169  1.00  0.00     0.048 A 
ATOM     25  C   UNL     1      10.012  46.894  53.396  1.00  0.00     0.004 A 
BRANCH  22  26
ATOM     26  O   UNL     1       7.345  46.344  50.869  1.00  0.00    -0.495 OA
ATOM     27  C   UNL     1       7.675  45.130  50.206  1.00  0.00     0.278 C 
ENDBRANCH  22  26
ENDBRANCH  18  20
ENDBRANCH  11  18
ENDBRANCH   1   8
TORSDOF 8
ENDMDL
