MODEL 1
REMARK VINA RESULT:    -8.024      0.000      0.000
REMARK INTER + INTRA:         -12.199
REMARK INTER:                 -11.542
REMARK INTRA:                  -0.657
REMARK UNBOUND:                -0.657
REMARK SMILES COc1ccc(CNc2nc(NCCO)c3nccnc3n2)cc1
REMARK SMILES IDX 9 1 10 2 11 3 16 4 17 5 18 6 19 7 20 8 21 9 22 10 8 11 7 13
REMARK SMILES IDX 6 14 3 15 4 16 24 17 5 18 23 19 2 20 1 21 12 22 13 24 14 25
REMARK SMILES IDX 15 26
REMARK H PARENT 8 12 12 23 15 27
ROOT
ATOM      1  C   UNL     1       5.793  45.096  50.874  1.00  0.00     0.227 A 
ATOM      2  N   UNL     1       5.978  43.838  50.472  1.00  0.00    -0.193 NA
ATOM      3  C   UNL     1       5.045  42.929  50.812  1.00  0.00     0.160 A 
ATOM      4  C   UNL     1       3.924  43.246  51.577  1.00  0.00     0.150 A 
ATOM      5  N   UNL     1       2.967  42.327  51.922  1.00  0.00    -0.247 NA
ATOM      6  C   UNL     1       1.941  42.791  52.655  1.00  0.00     0.132 A 
ATOM      7  C   UNL     1       1.857  44.116  53.016  1.00  0.00     0.133 A 
ATOM      8  N   UNL     1       2.795  45.023  52.658  1.00  0.00    -0.233 NA
ATOM      9  C   UNL     1       3.840  44.597  51.937  1.00  0.00     0.185 A 
ATOM     10  N   UNL     1       4.748  45.501  51.589  1.00  0.00    -0.191 NA
ENDROOT
BRANCH   1  11
ATOM     11  N   UNL     1       6.785  45.988  50.512  1.00  0.00    -0.350 N 
ATOM     12  H   UNL     1       6.519  46.915  50.826  1.00  0.00     0.164 HD
BRANCH  11  13
ATOM     13  C   UNL     1       8.132  45.583  50.852  1.00  0.00     0.152 C 
BRANCH  13  14
ATOM     14  C   UNL     1       8.540  46.256  52.143  1.00  0.00    -0.029 A 
ATOM     15  C   UNL     1       9.280  47.497  54.563  1.00  0.00     0.118 A 
ATOM     16  C   UNL     1       7.933  47.330  54.244  1.00  0.00     0.047 A 
ATOM     17  C   UNL     1      10.254  47.040  53.672  1.00  0.00     0.047 A 
ATOM     18  C   UNL     1       7.567  46.714  53.043  1.00  0.00     0.009 A 
ATOM     19  C   UNL     1       9.891  46.422  52.472  1.00  0.00     0.009 A 
BRANCH  15  20
ATOM     20  O   UNL     1       9.773  48.080  55.698  1.00  0.00    -0.497 OA
ATOM     21  C   UNL     1      11.016  47.590  56.183  1.00  0.00     0.278 C 
ENDBRANCH  15  20
ENDBRANCH  13  14
ENDBRANCH  11  13
ENDBRANCH   1  11
BRANCH   3  22
ATOM     22  N   UNL     1       5.256  41.574  50.461  1.00  0.00    -0.366 N 
ATOM     23  H   UNL     1       4.629  41.007  51.037  1.00  0.00     0.162 HD
BRANCH  22  24
ATOM     24  C   UNL     1       5.201  41.216  49.041  1.00  0.00     0.142 C 
BRANCH  24  25
ATOM     25  C   UNL     1       3.890  40.505  48.673  1.00  0.00     0.177 C 
BRANCH  25  26
ATOM     26  O   UNL     1       3.165  40.087  49.827  1.00  0.00    -0.395 OA
ATOM     27  H   UNL     1       2.238  39.972  49.524  1.00  0.00     0.210 HD
ENDBRANCH  25  26
ENDBRANCH  24  25
ENDBRANCH  22  24
ENDBRANCH   3  22
TORSDOF 8
ENDMDL
MODEL 2
REMARK VINA RESULT:    -7.925      1.154      1.560
REMARK INTER + INTRA:         -12.056
REMARK INTER:                 -11.602
REMARK INTRA:                  -0.454
REMARK UNBOUND:                -0.657
REMARK SMILES COc1ccc(CNc2nc(NCCO)c3nccnc3n2)cc1
REMARK SMILES IDX 9 1 10 2 11 3 16 4 17 5 18 6 19 7 20 8 21 9 22 10 8 11 7 13
REMARK SMILES IDX 6 14 3 15 4 16 24 17 5 18 23 19 2 20 1 21 12 22 13 24 14 25
REMARK SMILES IDX 15 26
REMARK H PARENT 8 12 12 23 15 27
ROOT
ATOM      1  C   UNL     1       4.878  45.157  51.459  1.00  0.00     0.227 A 
ATOM      2  N   UNL     1       5.099  43.893  51.100  1.00  0.00    -0.193 NA
ATOM      3  C   UNL     1       4.203  42.966  51.486  1.00  0.00     0.160 A 
ATOM      4  C   UNL     1       3.082  43.273  52.256  1.00  0.00     0.150 A 
ATOM      5  N   UNL     1       2.162  42.336  52.648  1.00  0.00    -0.247 NA
ATOM      6  C   UNL     1       1.130  42.792  53.380  1.00  0.00     0.132 A 
ATOM      7  C   UNL     1       1.007  44.126  53.694  1.00  0.00     0.133 A 
ATOM      8  N   UNL     1       1.909  45.050  53.289  1.00  0.00    -0.233 NA
ATOM      9  C   UNL     1       2.958  44.633  52.568  1.00  0.00     0.185 A 
ATOM     10  N   UNL     1       3.829  45.553  52.174  1.00  0.00    -0.191 NA
ENDROOT
BRANCH   1  11
ATOM     11  N   UNL     1       5.834  46.068  51.049  1.00  0.00    -0.350 N 
ATOM     12  H   UNL     1       5.664  46.951  51.518  1.00  0.00     0.164 HD
BRANCH  11  13
ATOM     13  C   UNL     1       7.200  45.592  51.104  1.00  0.00     0.152 C 
BRANCH  13  14
ATOM     14  C   UNL     1       7.905  46.243  52.272  1.00  0.00    -0.029 A 
ATOM     15  C   UNL     1       9.233  47.474  54.432  1.00  0.00     0.118 A 
ATOM     16  C   UNL     1       9.938  47.132  53.279  1.00  0.00     0.047 A 
ATOM     17  C   UNL     1       7.865  47.202  54.501  1.00  0.00     0.047 A 
ATOM     18  C   UNL     1       9.278  46.522  52.207  1.00  0.00     0.009 A 
ATOM     19  C   UNL     1       7.202  46.594  53.431  1.00  0.00     0.009 A 
BRANCH  15  20
ATOM     20  O   UNL     1       9.753  48.071  55.548  1.00  0.00    -0.497 OA
ATOM     21  C   UNL     1      10.945  47.507  56.080  1.00  0.00     0.278 C 
ENDBRANCH  15  20
ENDBRANCH  13  14
ENDBRANCH  11  13
ENDBRANCH   1  11
BRANCH   3  22
ATOM     22  N   UNL     1       4.454  41.606  51.182  1.00  0.00    -0.366 N 
ATOM     23  H   UNL     1       3.858  41.041  51.790  1.00  0.00     0.162 HD
BRANCH  22  24
ATOM     24  C   UNL     1       4.385  41.194  49.777  1.00  0.00     0.142 C 
BRANCH  24  25
ATOM     25  C   UNL     1       5.729  41.368  49.054  1.00  0.00     0.177 C 
BRANCH  25  26
ATOM     26  O   UNL     1       6.825  40.912  49.844  1.00  0.00    -0.395 OA
ATOM     27  H   UNL     1       6.636  39.967  50.029  1.00  0.00     0.210 HD
ENDBRANCH  25  26
ENDBRANCH  24  25
ENDBRANCH  22  24
ENDBRANCH   3  22
TORSDOF 8
ENDMDL
MODEL 3
REMARK VINA RESULT:    -7.839      1.781      3.386
REMARK INTER + INTRA:         -11.932
REMARK INTER:                 -11.200
REMARK INTRA:                  -0.732
REMARK UNBOUND:                -0.657
REMARK SMILES COc1ccc(CNc2nc(NCCO)c3nccnc3n2)cc1
REMARK SMILES IDX 9 1 10 2 11 3 16 4 17 5 18 6 19 7 20 8 21 9 22 10 8 11 7 13
REMARK SMILES IDX 6 14 3 15 4 16 24 17 5 18 23 19 2 20 1 21 12 22 13 24 14 25
REMARK SMILES IDX 15 26
REMARK H PARENT 8 12 12 23 15 27
ROOT
ATOM      1  C   UNL     1       5.951  45.157  51.216  1.00  0.00     0.227 A 
ATOM      2  N   UNL     1       5.058  44.944  52.184  1.00  0.00    -0.193 NA
ATOM      3  C   UNL     1       4.361  43.793  52.150  1.00  0.00     0.160 A 
ATOM      4  C   UNL     1       4.518  42.843  51.142  1.00  0.00     0.150 A 
ATOM      5  N   UNL     1       3.815  41.667  51.104  1.00  0.00    -0.247 NA
ATOM      6  C   UNL     1       4.088  40.850  50.071  1.00  0.00     0.132 A 
ATOM      7  C   UNL     1       5.032  41.179  49.125  1.00  0.00     0.133 A 
ATOM      8  N   UNL     1       5.736  42.332  49.178  1.00  0.00    -0.233 NA
ATOM      9  C   UNL     1       5.484  43.179  50.185  1.00  0.00     0.185 A 
ATOM     10  N   UNL     1       6.188  44.304  50.224  1.00  0.00    -0.191 NA
ENDROOT
BRANCH   1  11
ATOM     11  N   UNL     1       6.632  46.358  51.289  1.00  0.00    -0.350 N 
ATOM     12  H   UNL     1       6.256  46.898  52.059  1.00  0.00     0.164 HD
BRANCH  11  13
ATOM     13  C   UNL     1       8.076  46.249  51.255  1.00  0.00     0.152 C 
BRANCH  13  14
ATOM     14  C   UNL     1       8.640  46.762  52.560  1.00  0.00    -0.029 A 
ATOM     15  C   UNL     1       9.668  47.712  55.007  1.00  0.00     0.118 A 
ATOM     16  C   UNL     1       8.366  48.029  54.624  1.00  0.00     0.047 A 
ATOM     17  C   UNL     1      10.452  46.918  54.167  1.00  0.00     0.047 A 
ATOM     18  C   UNL     1       7.856  47.557  53.409  1.00  0.00     0.009 A 
ATOM     19  C   UNL     1       9.945  46.443  52.954  1.00  0.00     0.009 A 
BRANCH  15  20
ATOM     20  O   UNL     1      10.287  48.107  56.161  1.00  0.00    -0.497 OA
ATOM     21  C   UNL     1      11.410  47.342  56.581  1.00  0.00     0.278 C 
ENDBRANCH  15  20
ENDBRANCH  13  14
ENDBRANCH  11  13
ENDBRANCH   1  11
BRANCH   3  22
ATOM     22  N   UNL     1       3.354  43.578  53.122  1.00  0.00    -0.366 N 
ATOM     23  H   UNL     1       3.804  43.162  53.941  1.00  0.00     0.162 HD
BRANCH  22  24
ATOM     24  C   UNL     1       2.480  44.703  53.465  1.00  0.00     0.142 C 
BRANCH  24  25
ATOM     25  C   UNL     1       2.856  45.340  54.812  1.00  0.00     0.177 C 
BRANCH  25  26
ATOM     26  O   UNL     1       3.976  44.697  55.414  1.00  0.00    -0.395 OA
ATOM     27  H   UNL     1       4.741  44.916  54.841  1.00  0.00     0.210 HD
ENDBRANCH  25  26
ENDBRANCH  24  25
ENDBRANCH  22  24
ENDBRANCH   3  22
TORSDOF 8
ENDMDL
MODEL 4
REMARK VINA RESULT:    -7.751      2.518      6.762
REMARK INTER + INTRA:         -11.806
REMARK INTER:                 -11.180
REMARK INTRA:                  -0.626
REMARK UNBOUND:                -0.657
REMARK SMILES COc1ccc(CNc2nc(NCCO)c3nccnc3n2)cc1
REMARK SMILES IDX 9 1 10 2 11 3 16 4 17 5 18 6 19 7 20 8 21 9 22 10 8 11 7 13
REMARK SMILES IDX 6 14 3 15 4 16 24 17 5 18 23 19 2 20 1 21 12 22 13 24 14 25
REMARK SMILES IDX 15 26
REMARK H PARENT 8 12 12 23 15 27
ROOT
ATOM      1  C   UNL     1       5.438  47.069  53.120  1.00  0.00     0.227 A 
ATOM      2  N   UNL     1       5.799  46.541  51.950  1.00  0.00    -0.193 NA
ATOM      3  C   UNL     1       7.111  46.334  51.734  1.00  0.00     0.160 A 
ATOM      4  C   UNL     1       8.093  46.671  52.665  1.00  0.00     0.150 A 
ATOM      5  N   UNL     1       9.431  46.459  52.454  1.00  0.00    -0.247 NA
ATOM      6  C   UNL     1      10.251  46.829  53.453  1.00  0.00     0.132 A 
ATOM      7  C   UNL     1       9.763  47.371  54.620  1.00  0.00     0.133 A 
ATOM      8  N   UNL     1       8.440  47.561  54.830  1.00  0.00    -0.233 NA
ATOM      9  C   UNL     1       7.591  47.216  53.854  1.00  0.00     0.185 A 
ATOM     10  N   UNL     1       6.297  47.404  54.079  1.00  0.00    -0.191 NA
ENDROOT
BRANCH   1  11
ATOM     11  N   UNL     1       4.082  47.273  53.288  1.00  0.00    -0.350 N 
ATOM     12  H   UNL     1       3.682  47.550  52.399  1.00  0.00     0.164 HD
BRANCH  11  13
ATOM     13  C   UNL     1       3.380  46.209  53.976  1.00  0.00     0.152 C 
BRANCH  13  14
ATOM     14  C   UNL     1       3.113  45.083  53.004  1.00  0.00    -0.029 A 
ATOM     15  C   UNL     1       2.615  43.001  51.170  1.00  0.00     0.118 A 
ATOM     16  C   UNL     1       1.913  44.203  51.075  1.00  0.00     0.047 A 
ATOM     17  C   UNL     1       3.566  42.846  52.180  1.00  0.00     0.047 A 
ATOM     18  C   UNL     1       2.161  45.235  51.986  1.00  0.00     0.009 A 
ATOM     19  C   UNL     1       3.818  43.876  53.090  1.00  0.00     0.009 A 
BRANCH  15  20
ATOM     20  O   UNL     1       2.469  41.917  50.349  1.00  0.00    -0.497 OA
ATOM     21  C   UNL     1       3.642  41.163  50.069  1.00  0.00     0.278 C 
ENDBRANCH  15  20
ENDBRANCH  13  14
ENDBRANCH  11  13
ENDBRANCH   1  11
BRANCH   3  22
ATOM     22  N   UNL     1       7.525  45.845  50.472  1.00  0.00    -0.366 N 
ATOM     23  H   UNL     1       8.536  45.986  50.405  1.00  0.00     0.162 HD
BRANCH  22  24
ATOM     24  C   UNL     1       7.116  44.489  50.094  1.00  0.00     0.142 C 
BRANCH  24  25
ATOM     25  C   UNL     1       8.165  43.790  49.217  1.00  0.00     0.177 C 
BRANCH  25  26
ATOM     26  O   UNL     1       9.494  44.067  49.648  1.00  0.00    -0.395 OA
ATOM     27  H   UNL     1      10.033  43.308  49.336  1.00  0.00     0.210 HD
ENDBRANCH  25  26
ENDBRANCH  24  25
ENDBRANCH  22  24
ENDBRANCH   3  22
TORSDOF 8
ENDMDL
MODEL 5
REMARK VINA RESULT:    -7.635      2.018      7.400
REMARK INTER + INTRA:         -11.639
REMARK INTER:                 -10.786
REMARK INTRA:                  -0.853
REMARK UNBOUND:                -0.657
REMARK SMILES COc1ccc(CNc2nc(NCCO)c3nccnc3n2)cc1
REMARK SMILES IDX 9 1 10 2 11 3 16 4 17 5 18 6 19 7 20 8 21 9 22 10 8 11 7 13
REMARK SMILES IDX 6 14 3 15 4 16 24 17 5 18 23 19 2 20 1 21 12 22 13 24 14 25
REMARK SMILES IDX 15 26
REMARK H PARENT 8 12 12 23 15 27
ROOT
ATOM      1  C   UNL     1       7.039  45.383  50.647  1.00  0.00     0.227 A 
ATOM      2  N   UNL     1       8.014  46.152  51.131  1.00  0.00    -0.193 NA
ATOM      3  C   UNL     1       7.771  46.829  52.269  1.00  0.00     0.160 A 
ATOM      4  C   UNL     1       6.547  46.774  52.934  1.00  0.00     0.150 A 
ATOM      5  N   UNL     1       6.295  47.457  54.096  1.00  0.00    -0.247 NA
ATOM      6  C   UNL     1       5.068  47.292  54.622  1.00  0.00     0.132 A 
ATOM      7  C   UNL     1       4.137  46.471  54.028  1.00  0.00     0.133 A 
ATOM      8  N   UNL     1       4.398  45.786  52.892  1.00  0.00    -0.233 NA
ATOM      9  C   UNL     1       5.605  45.933  52.331  1.00  0.00     0.185 A 
ATOM     10  N   UNL     1       5.846  45.249  51.219  1.00  0.00    -0.191 NA
ENDROOT
BRANCH   1  11
ATOM     11  N   UNL     1       7.333  44.720  49.471  1.00  0.00    -0.350 N 
ATOM     12  H   UNL     1       7.986  45.280  48.935  1.00  0.00     0.164 HD
BRANCH  11  13
ATOM     13  C   UNL     1       7.697  43.326  49.625  1.00  0.00     0.152 C 
BRANCH  13  14
ATOM     14  C   UNL     1       6.504  42.463  49.284  1.00  0.00    -0.029 A 
ATOM     15  C   UNL     1       4.296  40.839  48.628  1.00  0.00     0.118 A 
ATOM     16  C   UNL     1       5.123  41.337  47.622  1.00  0.00     0.047 A 
ATOM     17  C   UNL     1       4.578  41.151  49.959  1.00  0.00     0.047 A 
ATOM     18  C   UNL     1       6.219  42.143  47.948  1.00  0.00     0.009 A 
ATOM     19  C   UNL     1       5.673  41.954  50.289  1.00  0.00     0.009 A 
BRANCH  15  20
ATOM     20  O   UNL     1       3.197  40.044  48.448  1.00  0.00    -0.497 OA
ATOM     21  C   UNL     1       3.153  39.270  47.255  1.00  0.00     0.278 C 
ENDBRANCH  15  20
ENDBRANCH  13  14
ENDBRANCH  11  13
ENDBRANCH   1  11
BRANCH   3  22
ATOM     22  N   UNL     1       8.763  47.711  52.762  1.00  0.00    -0.366 N 
ATOM     23  H   UNL     1       8.294  48.402  53.352  1.00  0.00     0.162 HD
BRANCH  22  24
ATOM     24  C   UNL     1       9.943  47.125  53.406  1.00  0.00     0.142 C 
BRANCH  24  25
ATOM     25  C   UNL     1       9.990  47.423  54.912  1.00  0.00     0.177 C 
BRANCH  25  26
ATOM     26  O   UNL     1       8.971  48.337  55.309  1.00  0.00    -0.395 OA
ATOM     27  H   UNL     1       9.059  49.104  54.703  1.00  0.00     0.210 HD
ENDBRANCH  25  26
ENDBRANCH  24  25
ENDBRANCH  22  24
ENDBRANCH   3  22
TORSDOF 8
ENDMDL
MODEL 6
REMARK VINA RESULT:    -7.610      2.556      7.375
REMARK INTER + INTRA:         -11.604
REMARK INTER:                 -10.925
REMARK INTRA:                  -0.679
REMARK UNBOUND:                -0.657
REMARK SMILES COc1ccc(CNc2nc(NCCO)c3nccnc3n2)cc1
REMARK SMILES IDX 9 1 10 2 11 3 16 4 17 5 18 6 19 7 20 8 21 9 22 10 8 11 7 13
REMARK SMILES IDX 6 14 3 15 4 16 24 17 5 18 23 19 2 20 1 21 12 22 13 24 14 25
REMARK SMILES IDX 15 26
REMARK H PARENT 8 12 12 23 15 27
ROOT
ATOM      1  C   UNL     1       7.122  45.759  51.044  1.00  0.00     0.227 A 
ATOM      2  N   UNL     1       6.083  46.217  51.745  1.00  0.00    -0.193 NA
ATOM      3  C   UNL     1       6.340  46.835  52.913  1.00  0.00     0.160 A 
ATOM      4  C   UNL     1       7.629  46.990  53.419  1.00  0.00     0.150 A 
ATOM      5  N   UNL     1       7.898  47.624  54.604  1.00  0.00    -0.247 NA
ATOM      6  C   UNL     1       9.195  47.702  54.950  1.00  0.00     0.132 A 
ATOM      7  C   UNL     1      10.185  47.188  54.145  1.00  0.00     0.133 A 
ATOM      8  N   UNL     1       9.916  46.580  52.967  1.00  0.00    -0.233 NA
ATOM      9  C   UNL     1       8.634  46.472  52.593  1.00  0.00     0.185 A 
ATOM     10  N   UNL     1       8.388  45.877  51.432  1.00  0.00    -0.191 NA
ENDROOT
BRANCH   1  11
ATOM     11  N   UNL     1       6.805  45.121  49.860  1.00  0.00    -0.350 N 
ATOM     12  H   UNL     1       6.940  45.771  49.094  1.00  0.00     0.164 HD
BRANCH  11  13
ATOM     13  C   UNL     1       7.415  43.820  49.680  1.00  0.00     0.152 C 
BRANCH  13  14
ATOM     14  C   UNL     1       6.329  42.791  49.464  1.00  0.00    -0.029 A 
ATOM     15  C   UNL     1       4.285  40.889  49.076  1.00  0.00     0.118 A 
ATOM     16  C   UNL     1       4.417  41.535  50.305  1.00  0.00     0.047 A 
ATOM     17  C   UNL     1       5.174  41.198  48.044  1.00  0.00     0.047 A 
ATOM     18  C   UNL     1       5.432  42.479  50.497  1.00  0.00     0.009 A 
ATOM     19  C   UNL     1       6.187  42.143  48.232  1.00  0.00     0.009 A 
BRANCH  15  20
ATOM     20  O   UNL     1       3.343  39.949  48.757  1.00  0.00    -0.497 OA
ATOM     21  C   UNL     1       3.226  39.599  47.384  1.00  0.00     0.278 C 
ENDBRANCH  15  20
ENDBRANCH  13  14
ENDBRANCH  11  13
ENDBRANCH   1  11
BRANCH   3  22
ATOM     22  N   UNL     1       5.251  47.262  53.711  1.00  0.00    -0.366 N 
ATOM     23  H   UNL     1       4.962  48.181  53.369  1.00  0.00     0.162 HD
BRANCH  22  24
ATOM     24  C   UNL     1       4.123  46.341  53.882  1.00  0.00     0.142 C 
BRANCH  24  25
ATOM     25  C   UNL     1       4.510  45.095  54.693  1.00  0.00     0.177 C 
BRANCH  25  26
ATOM     26  O   UNL     1       3.596  44.844  55.757  1.00  0.00    -0.395 OA
ATOM     27  H   UNL     1       4.151  44.765  56.563  1.00  0.00     0.210 HD
ENDBRANCH  25  26
ENDBRANCH  24  25
ENDBRANCH  22  24
ENDBRANCH   3  22
TORSDOF 8
ENDMDL
MODEL 7
REMARK VINA RESULT:    -7.572      1.453      3.346
REMARK INTER + INTRA:         -11.549
REMARK INTER:                 -10.933
REMARK INTRA:                  -0.616
REMARK UNBOUND:                -0.657
REMARK SMILES COc1ccc(CNc2nc(NCCO)c3nccnc3n2)cc1
REMARK SMILES IDX 9 1 10 2 11 3 16 4 17 5 18 6 19 7 20 8 21 9 22 10 8 11 7 13
REMARK SMILES IDX 6 14 3 15 4 16 24 17 5 18 23 19 2 20 1 21 12 22 13 24 14 25
REMARK SMILES IDX 15 26
REMARK H PARENT 8 12 12 23 15 27
ROOT
ATOM      1  C   UNL     1       5.029  44.761  52.110  1.00  0.00     0.227 A 
ATOM      2  N   UNL     1       3.987  44.117  52.636  1.00  0.00    -0.193 NA
ATOM      3  C   UNL     1       3.634  42.941  52.083  1.00  0.00     0.160 A 
ATOM      4  C   UNL     1       4.295  42.394  50.984  1.00  0.00     0.150 A 
ATOM      5  N   UNL     1       3.945  41.195  50.420  1.00  0.00    -0.247 NA
ATOM      6  C   UNL     1       4.686  40.798  49.371  1.00  0.00     0.132 A 
ATOM      7  C   UNL     1       5.741  41.552  48.911  1.00  0.00     0.133 A 
ATOM      8  N   UNL     1       6.094  42.726  49.483  1.00  0.00    -0.233 NA
ATOM      9  C   UNL     1       5.372  43.162  50.524  1.00  0.00     0.185 A 
ATOM     10  N   UNL     1       5.735  44.312  51.077  1.00  0.00    -0.191 NA
ENDROOT
BRANCH   1  11
ATOM     11  N   UNL     1       5.343  45.969  52.704  1.00  0.00    -0.350 N 
ATOM     12  H   UNL     1       5.579  45.802  53.675  1.00  0.00     0.164 HD
BRANCH  11  13
ATOM     13  C   UNL     1       6.284  46.790  51.971  1.00  0.00     0.152 C 
BRANCH  13  14
ATOM     14  C   UNL     1       7.556  46.923  52.776  1.00  0.00    -0.029 A 
ATOM     15  C   UNL     1       9.941  47.186  54.256  1.00  0.00     0.118 A 
ATOM     16  C   UNL     1       9.986  46.799  52.917  1.00  0.00     0.047 A 
ATOM     17  C   UNL     1       8.704  47.443  54.850  1.00  0.00     0.047 A 
ATOM     18  C   UNL     1       8.802  46.670  52.183  1.00  0.00     0.009 A 
ATOM     19  C   UNL     1       7.519  47.317  54.119  1.00  0.00     0.009 A 
BRANCH  15  20
ATOM     20  O   UNL     1      11.018  47.349  55.084  1.00  0.00    -0.497 OA
ATOM     21  C   UNL     1      10.750  47.813  56.401  1.00  0.00     0.278 C 
ENDBRANCH  15  20
ENDBRANCH  13  14
ENDBRANCH  11  13
ENDBRANCH   1  11
BRANCH   3  22
ATOM     22  N   UNL     1       2.486  42.275  52.575  1.00  0.00    -0.366 N 
ATOM     23  H   UNL     1       2.793  41.640  53.315  1.00  0.00     0.162 HD
BRANCH  22  24
ATOM     24  C   UNL     1       1.335  43.092  52.970  1.00  0.00     0.142 C 
BRANCH  24  25
ATOM     25  C   UNL     1       0.340  42.311  53.841  1.00  0.00     0.177 C 
BRANCH  25  26
ATOM     26  O   UNL     1      -0.184  41.171  53.163  1.00  0.00    -0.395 OA
ATOM     27  H   UNL     1      -1.107  41.410  52.929  1.00  0.00     0.210 HD
ENDBRANCH  25  26
ENDBRANCH  24  25
ENDBRANCH  22  24
ENDBRANCH   3  22
TORSDOF 8
ENDMDL
MODEL 8
REMARK VINA RESULT:    -7.570      3.751      6.389
REMARK INTER + INTRA:         -11.545
REMARK INTER:                 -10.927
REMARK INTRA:                  -0.618
REMARK UNBOUND:                -0.657
REMARK SMILES COc1ccc(CNc2nc(NCCO)c3nccnc3n2)cc1
REMARK SMILES IDX 9 1 10 2 11 3 16 4 17 5 18 6 19 7 20 8 21 9 22 10 8 11 7 13
REMARK SMILES IDX 6 14 3 15 4 16 24 17 5 18 23 19 2 20 1 21 12 22 13 24 14 25
REMARK SMILES IDX 15 26
REMARK H PARENT 8 12 12 23 15 27
ROOT
ATOM      1  C   UNL     1       3.247  45.972  54.633  1.00  0.00     0.227 A 
ATOM      2  N   UNL     1       2.800  45.958  55.890  1.00  0.00    -0.193 NA
ATOM      3  C   UNL     1       1.571  45.455  56.111  1.00  0.00     0.160 A 
ATOM      4  C   UNL     1       0.753  44.979  55.088  1.00  0.00     0.150 A 
ATOM      5  N   UNL     1      -0.497  44.461  55.307  1.00  0.00    -0.247 NA
ATOM      6  C   UNL     1      -1.158  44.034  54.216  1.00  0.00     0.132 A 
ATOM      7  C   UNL     1      -0.594  44.102  52.963  1.00  0.00     0.133 A 
ATOM      8  N   UNL     1       0.647  44.597  52.755  1.00  0.00    -0.233 NA
ATOM      9  C   UNL     1       1.333  45.045  53.815  1.00  0.00     0.185 A 
ATOM     10  N   UNL     1       2.551  45.523  53.593  1.00  0.00    -0.191 NA
ENDROOT
BRANCH   1  11
ATOM     11  N   UNL     1       4.508  46.510  54.457  1.00  0.00    -0.350 N 
ATOM     12  H   UNL     1       5.194  45.773  54.570  1.00  0.00     0.164 HD
BRANCH  11  13
ATOM     13  C   UNL     1       4.668  47.327  53.272  1.00  0.00     0.152 C 
BRANCH  13  14
ATOM     14  C   UNL     1       5.676  46.675  52.353  1.00  0.00    -0.029 A 
ATOM     15  C   UNL     1       7.573  45.456  50.663  1.00  0.00     0.118 A 
ATOM     16  C   UNL     1       7.984  46.364  51.638  1.00  0.00     0.047 A 
ATOM     17  C   UNL     1       6.215  45.157  50.539  1.00  0.00     0.047 A 
ATOM     18  C   UNL     1       7.042  46.969  52.477  1.00  0.00     0.009 A 
ATOM     19  C   UNL     1       5.271  45.758  51.377  1.00  0.00     0.009 A 
BRANCH  15  20
ATOM     20  O   UNL     1       8.387  44.797  49.782  1.00  0.00    -0.497 OA
ATOM     21  C   UNL     1       7.896  43.573  49.249  1.00  0.00     0.278 C 
ENDBRANCH  15  20
ENDBRANCH  13  14
ENDBRANCH  11  13
ENDBRANCH   1  11
BRANCH   3  22
ATOM     22  N   UNL     1       1.044  45.498  57.425  1.00  0.00    -0.366 N 
ATOM     23  H   UNL     1       1.779  45.179  58.060  1.00  0.00     0.162 HD
BRANCH  22  24
ATOM     24  C   UNL     1       0.411  46.743  57.869  1.00  0.00     0.142 C 
BRANCH  24  25
ATOM     25  C   UNL     1       0.967  47.227  59.217  1.00  0.00     0.177 C 
BRANCH  25  26
ATOM     26  O   UNL     1       2.276  46.725  59.468  1.00  0.00    -0.395 OA
ATOM     27  H   UNL     1       2.363  45.929  58.901  1.00  0.00     0.210 HD
ENDBRANCH  25  26
ENDBRANCH  24  25
ENDBRANCH  22  24
ENDBRANCH   3  22
TORSDOF 8
ENDMDL
MODEL 9
REMARK VINA RESULT:    -7.536      2.050      7.383
REMARK INTER + INTRA:         -11.497
REMARK INTER:                 -10.604
REMARK INTRA:                  -0.892
REMARK UNBOUND:                -0.657
REMARK SMILES COc1ccc(CNc2nc(NCCO)c3nccnc3n2)cc1
REMARK SMILES IDX 9 1 10 2 11 3 16 4 17 5 18 6 19 7 20 8 21 9 22 10 8 11 7 13
REMARK SMILES IDX 6 14 3 15 4 16 24 17 5 18 23 19 2 20 1 21 12 22 13 24 14 25
REMARK SMILES IDX 15 26
REMARK H PARENT 8 12 12 23 15 27
ROOT
ATOM      1  C   UNL     1       7.106  45.292  50.488  1.00  0.00     0.227 A 
ATOM      2  N   UNL     1       8.118  45.957  51.046  1.00  0.00    -0.193 NA
ATOM      3  C   UNL     1       7.850  46.711  52.129  1.00  0.00     0.160 A 
ATOM      4  C   UNL     1       6.569  46.837  52.664  1.00  0.00     0.150 A 
ATOM      5  N   UNL     1       6.290  47.598  53.769  1.00  0.00    -0.247 NA
ATOM      6  C   UNL     1       5.006  47.610  54.168  1.00  0.00     0.132 A 
ATOM      7  C   UNL     1       4.042  46.883  53.508  1.00  0.00     0.133 A 
ATOM      8  N   UNL     1       4.326  46.119  52.428  1.00  0.00    -0.233 NA
ATOM      9  C   UNL     1       5.592  46.091  51.992  1.00  0.00     0.185 A 
ATOM     10  N   UNL     1       5.855  45.332  50.936  1.00  0.00    -0.191 NA
ENDROOT
BRANCH   1  11
ATOM     11  N   UNL     1       7.430  44.544  49.372  1.00  0.00    -0.350 N 
ATOM     12  H   UNL     1       8.133  45.043  48.839  1.00  0.00     0.164 HD
BRANCH  11  13
ATOM     13  C   UNL     1       7.725  43.149  49.631  1.00  0.00     0.152 C 
BRANCH  13  14
ATOM     14  C   UNL     1       6.504  42.318  49.310  1.00  0.00    -0.029 A 
ATOM     15  C   UNL     1       4.212  40.784  48.730  1.00  0.00     0.118 A 
ATOM     16  C   UNL     1       4.498  41.146  50.046  1.00  0.00     0.047 A 
ATOM     17  C   UNL     1       5.070  41.193  47.708  1.00  0.00     0.047 A 
ATOM     18  C   UNL     1       5.637  41.908  50.333  1.00  0.00     0.009 A 
ATOM     19  C   UNL     1       6.207  41.956  47.991  1.00  0.00     0.009 A 
BRANCH  15  20
ATOM     20  O   UNL     1       3.139  40.044  48.314  1.00  0.00    -0.497 OA
ATOM     21  C   UNL     1       3.178  39.551  46.981  1.00  0.00     0.278 C 
ENDBRANCH  15  20
ENDBRANCH  13  14
ENDBRANCH  11  13
ENDBRANCH   1  11
BRANCH   3  22
ATOM     22  N   UNL     1       8.892  47.486  52.694  1.00  0.00    -0.366 N 
ATOM     23  H   UNL     1       8.467  48.326  53.092  1.00  0.00     0.162 HD
BRANCH  22  24
ATOM     24  C   UNL     1       9.814  46.823  53.622  1.00  0.00     0.142 C 
BRANCH  24  25
ATOM     25  C   UNL     1       9.950  47.586  54.948  1.00  0.00     0.177 C 
BRANCH  25  26
ATOM     26  O   UNL     1       8.768  48.315  55.270  1.00  0.00    -0.395 OA
ATOM     27  H   UNL     1       9.070  49.229  55.460  1.00  0.00     0.210 HD
ENDBRANCH  25  26
ENDBRANCH  24  25
ENDBRANCH  22  24
ENDBRANCH   3  22
TORSDOF 8
ENDMDL
MODEL 10
REMARK VINA RESULT:    -7.532      2.984      7.268
REMARK INTER + INTRA:         -11.492
REMARK INTER:                 -10.618
REMARK INTRA:                  -0.873
REMARK UNBOUND:                -0.657
REMARK SMILES COc1ccc(CNc2nc(NCCO)c3nccnc3n2)cc1
REMARK SMILES IDX 9 1 10 2 11 3 16 4 17 5 18 6 19 7 20 8 21 9 22 10 8 11 7 13
REMARK SMILES IDX 6 14 3 15 4 16 24 17 5 18 23 19 2 20 1 21 12 22 13 24 14 25
REMARK SMILES IDX 15 26
REMARK H PARENT 8 12 12 23 15 27
ROOT
ATOM      1  C   UNL     1       5.373  46.769  53.483  1.00  0.00     0.227 A 
ATOM      2  N   UNL     1       5.520  46.282  52.250  1.00  0.00    -0.193 NA
ATOM      3  C   UNL     1       6.773  46.127  51.784  1.00  0.00     0.160 A 
ATOM      4  C   UNL     1       7.903  46.475  52.522  1.00  0.00     0.150 A 
ATOM      5  N   UNL     1       9.182  46.314  52.055  1.00  0.00    -0.247 NA
ATOM      6  C   UNL     1      10.166  46.688  52.892  1.00  0.00     0.132 A 
ATOM      7  C   UNL     1       9.893  47.183  54.146  1.00  0.00     0.133 A 
ATOM      8  N   UNL     1       8.630  47.322  54.609  1.00  0.00    -0.233 NA
ATOM      9  C   UNL     1       7.621  46.973  53.800  1.00  0.00     0.185 A 
ATOM     10  N   UNL     1       6.388  47.110  54.272  1.00  0.00    -0.191 NA
ENDROOT
BRANCH   1  11
ATOM     11  N   UNL     1       4.068  46.921  53.911  1.00  0.00    -0.350 N 
ATOM     12  H   UNL     1       3.452  46.849  53.109  1.00  0.00     0.164 HD
BRANCH  11  13
ATOM     13  C   UNL     1       3.695  46.110  55.052  1.00  0.00     0.152 C 
BRANCH  13  14
ATOM     14  C   UNL     1       2.545  45.209  54.663  1.00  0.00    -0.029 A 
ATOM     15  C   UNL     1       0.420  43.507  53.937  1.00  0.00     0.118 A 
ATOM     16  C   UNL     1       1.637  43.436  53.261  1.00  0.00     0.047 A 
ATOM     17  C   UNL     1       0.270  44.426  54.977  1.00  0.00     0.047 A 
ATOM     18  C   UNL     1       2.692  44.281  53.622  1.00  0.00     0.009 A 
ATOM     19  C   UNL     1       1.323  45.270  55.342  1.00  0.00     0.009 A 
BRANCH  15  20
ATOM     20  O   UNL     1      -0.687  42.743  53.686  1.00  0.00    -0.497 OA
ATOM     21  C   UNL     1      -1.000  42.497  52.320  1.00  0.00     0.278 C 
ENDBRANCH  15  20
ENDBRANCH  13  14
ENDBRANCH  11  13
ENDBRANCH   1  11
BRANCH   3  22
ATOM     22  N   UNL     1       6.953  45.683  50.451  1.00  0.00    -0.366 N 
ATOM     23  H   UNL     1       7.808  46.117  50.097  1.00  0.00     0.162 HD
BRANCH  22  24
ATOM     24  C   UNL     1       6.902  44.241  50.196  1.00  0.00     0.142 C 
BRANCH  24  25
ATOM     25  C   UNL     1       8.018  43.780  49.247  1.00  0.00     0.177 C 
BRANCH  25  26
ATOM     26  O   UNL     1       9.308  44.176  49.705  1.00  0.00    -0.395 OA
ATOM     27  H   UNL     1       9.721  44.643  48.947  1.00  0.00     0.210 HD
ENDBRANCH  25  26
ENDBRANCH  24  25
ENDBRANCH  22  24
ENDBRANCH   3  22
TORSDOF 8
ENDMDL
MODEL 11
REMARK VINA RESULT:    -7.507      2.884      7.179
REMARK INTER + INTRA:         -11.455
REMARK INTER:                 -10.844
REMARK INTRA:                  -0.611
REMARK UNBOUND:                -0.657
REMARK SMILES COc1ccc(CNc2nc(NCCO)c3nccnc3n2)cc1
REMARK SMILES IDX 9 1 10 2 11 3 16 4 17 5 18 6 19 7 20 8 21 9 22 10 8 11 7 13
REMARK SMILES IDX 6 14 3 15 4 16 24 17 5 18 23 19 2 20 1 21 12 22 13 24 14 25
REMARK SMILES IDX 15 26
REMARK H PARENT 8 12 12 23 15 27
ROOT
ATOM      1  C   UNL     1       5.146  46.625  53.230  1.00  0.00     0.227 A 
ATOM      2  N   UNL     1       5.457  46.003  52.092  1.00  0.00    -0.193 NA
ATOM      3  C   UNL     1       6.761  45.894  51.774  1.00  0.00     0.160 A 
ATOM      4  C   UNL     1       7.779  46.422  52.568  1.00  0.00     0.150 A 
ATOM      5  N   UNL     1       9.108  46.310  52.253  1.00  0.00    -0.247 NA
ATOM      6  C   UNL     1       9.969  46.863  53.126  1.00  0.00     0.132 A 
ATOM      7  C   UNL     1       9.529  47.486  54.271  1.00  0.00     0.133 A 
ATOM      8  N   UNL     1       8.217  47.577  54.585  1.00  0.00    -0.233 NA
ATOM      9  C   UNL     1       7.327  47.049  53.735  1.00  0.00     0.185 A 
ATOM     10  N   UNL     1       6.044  47.143  54.062  1.00  0.00    -0.191 NA
ENDROOT
BRANCH   1  11
ATOM     11  N   UNL     1       3.795  46.722  53.504  1.00  0.00    -0.350 N 
ATOM     12  H   UNL     1       3.275  46.495  52.664  1.00  0.00     0.164 HD
BRANCH  11  13
ATOM     13  C   UNL     1       3.360  46.036  54.703  1.00  0.00     0.152 C 
BRANCH  13  14
ATOM     14  C   UNL     1       2.301  45.022  54.336  1.00  0.00    -0.029 A 
ATOM     15  C   UNL     1       0.307  43.151  53.651  1.00  0.00     0.118 A 
ATOM     16  C   UNL     1       0.035  44.157  54.578  1.00  0.00     0.047 A 
ATOM     17  C   UNL     1       1.573  43.086  53.067  1.00  0.00     0.047 A 
ATOM     18  C   UNL     1       1.026  45.085  54.918  1.00  0.00     0.009 A 
ATOM     19  C   UNL     1       2.564  44.013  53.402  1.00  0.00     0.009 A 
BRANCH  15  20
ATOM     20  O   UNL     1      -0.566  42.185  53.233  1.00  0.00    -0.497 OA
ATOM     21  C   UNL     1      -1.345  42.479  52.080  1.00  0.00     0.278 C 
ENDBRANCH  15  20
ENDBRANCH  13  14
ENDBRANCH  11  13
ENDBRANCH   1  11
BRANCH   3  22
ATOM     22  N   UNL     1       7.113  45.305  50.536  1.00  0.00    -0.366 N 
ATOM     23  H   UNL     1       8.113  45.094  50.571  1.00  0.00     0.162 HD
BRANCH  22  24
ATOM     24  C   UNL     1       6.311  44.173  50.062  1.00  0.00     0.142 C 
BRANCH  24  25
ATOM     25  C   UNL     1       7.185  43.007  49.576  1.00  0.00     0.177 C 
BRANCH  25  26
ATOM     26  O   UNL     1       8.361  43.459  48.911  1.00  0.00    -0.395 OA
ATOM     27  H   UNL     1       9.019  42.740  49.027  1.00  0.00     0.210 HD
ENDBRANCH  25  26
ENDBRANCH  24  25
ENDBRANCH  22  24
ENDBRANCH   3  22
TORSDOF 8
ENDMDL
MODEL 12
REMARK VINA RESULT:    -7.452      3.193      6.157
REMARK INTER + INTRA:         -11.376
REMARK INTER:                 -10.724
REMARK INTRA:                  -0.651
REMARK UNBOUND:                -0.657
REMARK SMILES COc1ccc(CNc2nc(NCCO)c3nccnc3n2)cc1
REMARK SMILES IDX 9 1 10 2 11 3 16 4 17 5 18 6 19 7 20 8 21 9 22 10 8 11 7 13
REMARK SMILES IDX 6 14 3 15 4 16 24 17 5 18 23 19 2 20 1 21 12 22 13 24 14 25
REMARK SMILES IDX 15 26
REMARK H PARENT 8 12 12 23 15 27
ROOT
ATOM      1  C   UNL     1       2.216  44.109  52.887  1.00  0.00     0.227 A 
ATOM      2  N   UNL     1       3.175  44.621  53.660  1.00  0.00    -0.193 NA
ATOM      3  C   UNL     1       2.827  45.049  54.888  1.00  0.00     0.160 A 
ATOM      4  C   UNL     1       1.517  45.000  55.363  1.00  0.00     0.150 A 
ATOM      5  N   UNL     1       1.157  45.429  56.614  1.00  0.00    -0.247 NA
ATOM      6  C   UNL     1      -0.145  45.306  56.927  1.00  0.00     0.132 A 
ATOM      7  C   UNL     1      -1.048  44.762  56.043  1.00  0.00     0.133 A 
ATOM      8  N   UNL     1      -0.684  44.323  54.817  1.00  0.00    -0.233 NA
ATOM      9  C   UNL     1       0.603  44.440  54.462  1.00  0.00     0.185 A 
ATOM     10  N   UNL     1       0.944  43.999  53.257  1.00  0.00    -0.191 NA
ENDROOT
BRANCH   1  11
ATOM     11  N   UNL     1       2.621  43.695  51.632  1.00  0.00    -0.350 N 
ATOM     12  H   UNL     1       3.053  44.478  51.155  1.00  0.00     0.164 HD
BRANCH  11  13
ATOM     13  C   UNL     1       3.380  42.462  51.606  1.00  0.00     0.152 C 
BRANCH  13  14
ATOM     14  C   UNL     1       4.695  42.705  50.901  1.00  0.00    -0.029 A 
ATOM     15  C   UNL     1       7.139  43.141  49.565  1.00  0.00     0.118 A 
ATOM     16  C   UNL     1       6.594  41.859  49.629  1.00  0.00     0.047 A 
ATOM     17  C   UNL     1       6.458  44.202  50.167  1.00  0.00     0.047 A 
ATOM     18  C   UNL     1       5.380  41.643  50.292  1.00  0.00     0.009 A 
ATOM     19  C   UNL     1       5.245  43.990  50.828  1.00  0.00     0.009 A 
BRANCH  15  20
ATOM     20  O   UNL     1       8.311  43.488  48.953  1.00  0.00    -0.497 OA
ATOM     21  C   UNL     1       9.170  44.370  49.664  1.00  0.00     0.278 C 
ENDBRANCH  15  20
ENDBRANCH  13  14
ENDBRANCH  11  13
ENDBRANCH   1  11
BRANCH   3  22
ATOM     22  N   UNL     1       3.811  45.666  55.698  1.00  0.00    -0.366 N 
ATOM     23  H   UNL     1       3.672  45.334  56.655  1.00  0.00     0.162 HD
BRANCH  22  24
ATOM     24  C   UNL     1       5.208  45.580  55.264  1.00  0.00     0.142 C 
BRANCH  24  25
ATOM     25  C   UNL     1       5.684  46.871  54.581  1.00  0.00     0.177 C 
BRANCH  25  26
ATOM     26  O   UNL     1       4.848  47.982  54.894  1.00  0.00    -0.395 OA
ATOM     27  H   UNL     1       3.943  47.612  54.977  1.00  0.00     0.210 HD
ENDBRANCH  25  26
ENDBRANCH  24  25
ENDBRANCH  22  24
ENDBRANCH   3  22
TORSDOF 8
ENDMDL
MODEL 13
REMARK VINA RESULT:    -7.419      3.214      7.518
REMARK INTER + INTRA:         -11.328
REMARK INTER:                 -10.731
REMARK INTRA:                  -0.598
REMARK UNBOUND:                -0.657
REMARK SMILES COc1ccc(CNc2nc(NCCO)c3nccnc3n2)cc1
REMARK SMILES IDX 9 1 10 2 11 3 16 4 17 5 18 6 19 7 20 8 21 9 22 10 8 11 7 13
REMARK SMILES IDX 6 14 3 15 4 16 24 17 5 18 23 19 2 20 1 21 12 22 13 24 14 25
REMARK SMILES IDX 15 26
REMARK H PARENT 8 12 12 23 15 27
ROOT
ATOM      1  C   UNL     1       5.221  45.263  54.356  1.00  0.00     0.227 A 
ATOM      2  N   UNL     1       5.146  45.031  53.045  1.00  0.00    -0.193 NA
ATOM      3  C   UNL     1       6.105  45.556  52.261  1.00  0.00     0.160 A 
ATOM      4  C   UNL     1       7.144  46.341  52.759  1.00  0.00     0.150 A 
ATOM      5  N   UNL     1       8.127  46.875  51.967  1.00  0.00    -0.247 NA
ATOM      6  C   UNL     1       9.065  47.601  52.599  1.00  0.00     0.132 A 
ATOM      7  C   UNL     1       9.039  47.776  53.964  1.00  0.00     0.133 A 
ATOM      8  N   UNL     1       8.076  47.232  54.743  1.00  0.00    -0.233 NA
ATOM      9  C   UNL     1       7.116  46.512  54.149  1.00  0.00     0.185 A 
ATOM     10  N   UNL     1       6.183  45.981  54.929  1.00  0.00    -0.191 NA
ENDROOT
BRANCH   1  11
ATOM     11  N   UNL     1       4.206  44.714  55.117  1.00  0.00    -0.350 N 
ATOM     12  H   UNL     1       4.619  44.177  55.871  1.00  0.00     0.164 HD
BRANCH  11  13
ATOM     13  C   UNL     1       3.165  45.639  55.515  1.00  0.00     0.152 C 
BRANCH  13  14
ATOM     14  C   UNL     1       1.817  45.023  55.219  1.00  0.00    -0.029 A 
ATOM     15  C   UNL     1      -0.684  43.850  54.662  1.00  0.00     0.118 A 
ATOM     16  C   UNL     1       0.421  43.553  53.866  1.00  0.00     0.047 A 
ATOM     17  C   UNL     1      -0.536  44.730  55.736  1.00  0.00     0.047 A 
ATOM     18  C   UNL     1       1.663  44.136  54.143  1.00  0.00     0.009 A 
ATOM     19  C   UNL     1       0.704  45.312  56.017  1.00  0.00     0.009 A 
BRANCH  15  20
ATOM     20  O   UNL     1      -1.949  43.353  54.501  1.00  0.00    -0.497 OA
ATOM     21  C   UNL     1      -3.007  44.083  55.108  1.00  0.00     0.278 C 
ENDBRANCH  15  20
ENDBRANCH  13  14
ENDBRANCH  11  13
ENDBRANCH   1  11
BRANCH   3  22
ATOM     22  N   UNL     1       6.006  45.388  50.858  1.00  0.00    -0.366 N 
ATOM     23  H   UNL     1       6.436  46.206  50.420  1.00  0.00     0.162 HD
BRANCH  22  24
ATOM     24  C   UNL     1       6.476  44.124  50.284  1.00  0.00     0.142 C 
BRANCH  24  25
ATOM     25  C   UNL     1       7.853  44.265  49.619  1.00  0.00     0.177 C 
BRANCH  25  26
ATOM     26  O   UNL     1       8.217  43.098  48.888  1.00  0.00    -0.395 OA
ATOM     27  H   UNL     1       7.706  43.144  48.052  1.00  0.00     0.210 HD
ENDBRANCH  25  26
ENDBRANCH  24  25
ENDBRANCH  22  24
ENDBRANCH   3  22
TORSDOF 8
ENDMDL
MODEL 14
REMARK VINA RESULT:    -7.354      2.161      3.283
REMARK INTER + INTRA:         -11.235
REMARK INTER:                 -10.483
REMARK INTRA:                  -0.752
REMARK UNBOUND:                -0.657
REMARK SMILES COc1ccc(CNc2nc(NCCO)c3nccnc3n2)cc1
REMARK SMILES IDX 9 1 10 2 11 3 16 4 17 5 18 6 19 7 20 8 21 9 22 10 8 11 7 13
REMARK SMILES IDX 6 14 3 15 4 16 24 17 5 18 23 19 2 20 1 21 12 22 13 24 14 25
REMARK SMILES IDX 15 26
REMARK H PARENT 8 12 12 23 15 27
ROOT
ATOM      1  C   UNL     1       2.887  45.521  53.735  1.00  0.00     0.227 A 
ATOM      2  N   UNL     1       3.384  44.314  53.462  1.00  0.00    -0.193 NA
ATOM      3  C   UNL     1       2.623  43.473  52.737  1.00  0.00     0.160 A 
ATOM      4  C   UNL     1       1.345  43.805  52.290  1.00  0.00     0.150 A 
ATOM      5  N   UNL     1       0.567  42.956  51.547  1.00  0.00    -0.247 NA
ATOM      6  C   UNL     1      -0.639  43.427  51.183  1.00  0.00     0.132 A 
ATOM      7  C   UNL     1      -1.048  44.695  51.526  1.00  0.00     0.133 A 
ATOM      8  N   UNL     1      -0.268  45.535  52.244  1.00  0.00    -0.233 NA
ATOM      9  C   UNL     1       0.935  45.098  52.637  1.00  0.00     0.185 A 
ATOM     10  N   UNL     1       1.689  45.938  53.335  1.00  0.00    -0.191 NA
ENDROOT
BRANCH   1  11
ATOM     11  N   UNL     1       3.701  46.342  54.492  1.00  0.00    -0.350 N 
ATOM     12  H   UNL     1       4.318  45.764  55.050  1.00  0.00     0.164 HD
BRANCH  11  13
ATOM     13  C   UNL     1       4.349  47.411  53.760  1.00  0.00     0.152 C 
BRANCH  13  14
ATOM     14  C   UNL     1       5.794  47.037  53.515  1.00  0.00    -0.029 A 
ATOM     15  C   UNL     1       8.485  46.353  53.034  1.00  0.00     0.118 A 
ATOM     16  C   UNL     1       7.536  46.220  52.021  1.00  0.00     0.047 A 
ATOM     17  C   UNL     1       8.086  46.830  54.284  1.00  0.00     0.047 A 
ATOM     18  C   UNL     1       6.200  46.561  52.260  1.00  0.00     0.009 A 
ATOM     19  C   UNL     1       6.753  47.173  54.526  1.00  0.00     0.009 A 
BRANCH  15  20
ATOM     20  O   UNL     1       9.817  46.057  52.933  1.00  0.00    -0.497 OA
ATOM     21  C   UNL     1      10.366  46.006  51.623  1.00  0.00     0.278 C 
ENDBRANCH  15  20
ENDBRANCH  13  14
ENDBRANCH  11  13
ENDBRANCH   1  11
BRANCH   3  22
ATOM     22  N   UNL     1       3.096  42.160  52.499  1.00  0.00    -0.366 N 
ATOM     23  H   UNL     1       2.289  41.583  52.255  1.00  0.00     0.162 HD
BRANCH  22  24
ATOM     24  C   UNL     1       4.215  41.993  51.567  1.00  0.00     0.142 C 
BRANCH  24  25
ATOM     25  C   UNL     1       3.750  41.525  50.180  1.00  0.00     0.177 C 
BRANCH  25  26
ATOM     26  O   UNL     1       3.350  40.157  50.183  1.00  0.00    -0.395 OA
ATOM     27  H   UNL     1       3.973  39.705  50.793  1.00  0.00     0.210 HD
ENDBRANCH  25  26
ENDBRANCH  24  25
ENDBRANCH  22  24
ENDBRANCH   3  22
TORSDOF 8
ENDMDL
MODEL 15
REMARK VINA RESULT:    -7.274      2.773      7.128
REMARK INTER + INTRA:         -11.120
REMARK INTER:                 -10.667
REMARK INTRA:                  -0.452
REMARK UNBOUND:                -0.657
REMARK SMILES COc1ccc(CNc2nc(NCCO)c3nccnc3n2)cc1
REMARK SMILES IDX 9 1 10 2 11 3 16 4 17 5 18 6 19 7 20 8 21 9 22 10 8 11 7 13
REMARK SMILES IDX 6 14 3 15 4 16 24 17 5 18 23 19 2 20 1 21 12 22 13 24 14 25
REMARK SMILES IDX 15 26
REMARK H PARENT 8 12 12 23 15 27
ROOT
ATOM      1  C   UNL     1       6.466  45.967  51.528  1.00  0.00     0.227 A 
ATOM      2  N   UNL     1       5.632  46.439  52.456  1.00  0.00    -0.193 NA
ATOM      3  C   UNL     1       6.170  47.006  53.552  1.00  0.00     0.160 A 
ATOM      4  C   UNL     1       7.546  47.093  53.759  1.00  0.00     0.150 A 
ATOM      5  N   UNL     1       8.101  47.673  54.871  1.00  0.00    -0.247 NA
ATOM      6  C   UNL     1       9.445  47.688  54.919  1.00  0.00     0.132 A 
ATOM      7  C   UNL     1      10.206  47.165  53.899  1.00  0.00     0.133 A 
ATOM      8  N   UNL     1       9.653  46.610  52.797  1.00  0.00    -0.233 NA
ATOM      9  C   UNL     1       8.317  46.565  52.716  1.00  0.00     0.185 A 
ATOM     10  N   UNL     1       7.791  46.022  51.625  1.00  0.00    -0.191 NA
ENDROOT
BRANCH   1  11
ATOM     11  N   UNL     1       5.865  45.384  50.429  1.00  0.00    -0.350 N 
ATOM     12  H   UNL     1       6.430  45.577  49.609  1.00  0.00     0.164 HD
BRANCH  11  13
ATOM     13  C   UNL     1       5.478  43.999  50.601  1.00  0.00     0.152 C 
BRANCH  13  14
ATOM     14  C   UNL     1       4.087  43.944  51.189  1.00  0.00    -0.029 A 
ATOM     15  C   UNL     1       1.481  43.848  52.260  1.00  0.00     0.118 A 
ATOM     16  C   UNL     1       1.844  44.875  51.390  1.00  0.00     0.047 A 
ATOM     17  C   UNL     1       2.421  42.869  52.589  1.00  0.00     0.047 A 
ATOM     18  C   UNL     1       3.138  44.922  50.859  1.00  0.00     0.009 A 
ATOM     19  C   UNL     1       3.713  42.912  52.058  1.00  0.00     0.009 A 
BRANCH  15  20
ATOM     20  O   UNL     1       0.257  43.685  52.847  1.00  0.00    -0.497 OA
ATOM     21  C   UNL     1       0.023  42.449  53.511  1.00  0.00     0.278 C 
ENDBRANCH  15  20
ENDBRANCH  13  14
ENDBRANCH  11  13
ENDBRANCH   1  11
BRANCH   3  22
ATOM     22  N   UNL     1       5.307  47.446  54.584  1.00  0.00    -0.366 N 
ATOM     23  H   UNL     1       5.183  48.454  54.470  1.00  0.00     0.162 HD
BRANCH  22  24
ATOM     24  C   UNL     1       4.039  46.735  54.768  1.00  0.00     0.142 C 
BRANCH  24  25
ATOM     25  C   UNL     1       4.246  45.310  55.303  1.00  0.00     0.177 C 
BRANCH  25  26
ATOM     26  O   UNL     1       3.013  44.682  55.645  1.00  0.00    -0.395 OA
ATOM     27  H   UNL     1       2.810  44.986  56.556  1.00  0.00     0.210 HD
ENDBRANCH  25  26
ENDBRANCH  24  25
ENDBRANCH  22  24
ENDBRANCH   3  22
TORSDOF 8
ENDMDL
MODEL 16
REMARK VINA RESULT:    -7.237      2.138      3.387
REMARK INTER + INTRA:         -11.067
REMARK INTER:                 -10.405
REMARK INTRA:                  -0.662
REMARK UNBOUND:                -0.657
REMARK SMILES COc1ccc(CNc2nc(NCCO)c3nccnc3n2)cc1
REMARK SMILES IDX 9 1 10 2 11 3 16 4 17 5 18 6 19 7 20 8 21 9 22 10 8 11 7 13
REMARK SMILES IDX 6 14 3 15 4 16 24 17 5 18 23 19 2 20 1 21 12 22 13 24 14 25
REMARK SMILES IDX 15 26
REMARK H PARENT 8 12 12 23 15 27
ROOT
ATOM      1  C   UNL     1       3.814  45.342  54.481  1.00  0.00     0.227 A 
ATOM      2  N   UNL     1       3.937  44.511  53.445  1.00  0.00    -0.193 NA
ATOM      3  C   UNL     1       2.845  43.826  53.059  1.00  0.00     0.160 A 
ATOM      4  C   UNL     1       1.616  43.934  53.708  1.00  0.00     0.150 A 
ATOM      5  N   UNL     1       0.499  43.243  53.316  1.00  0.00    -0.247 NA
ATOM      6  C   UNL     1      -0.614  43.463  54.038  1.00  0.00     0.132 A 
ATOM      7  C   UNL     1      -0.622  44.345  55.095  1.00  0.00     0.133 A 
ATOM      8  N   UNL     1       0.480  45.038  55.465  1.00  0.00    -0.233 NA
ATOM      9  C   UNL     1       1.612  44.837  54.778  1.00  0.00     0.185 A 
ATOM     10  N   UNL     1       2.681  45.529  55.151  1.00  0.00    -0.191 NA
ENDROOT
BRANCH   1  11
ATOM     11  N   UNL     1       4.966  46.012  54.847  1.00  0.00    -0.350 N 
ATOM     12  H   UNL     1       5.717  45.338  54.943  1.00  0.00     0.164 HD
BRANCH  11  13
ATOM     13  C   UNL     1       5.280  47.178  54.048  1.00  0.00     0.152 C 
BRANCH  13  14
ATOM     14  C   UNL     1       6.653  47.007  53.440  1.00  0.00    -0.029 A 
ATOM     15  C   UNL     1       9.222  46.674  52.331  1.00  0.00     0.118 A 
ATOM     16  C   UNL     1       9.079  47.046  53.667  1.00  0.00     0.047 A 
ATOM     17  C   UNL     1       8.080  46.466  51.554  1.00  0.00     0.047 A 
ATOM     18  C   UNL     1       7.803  47.211  54.217  1.00  0.00     0.009 A 
ATOM     19  C   UNL     1       6.805  46.627  52.101  1.00  0.00     0.009 A 
BRANCH  15  20
ATOM     20  O   UNL     1      10.405  46.480  51.671  1.00  0.00    -0.497 OA
ATOM     21  C   UNL     1      10.655  45.172  51.173  1.00  0.00     0.278 C 
ENDBRANCH  15  20
ENDBRANCH  13  14
ENDBRANCH  11  13
ENDBRANCH   1  11
BRANCH   3  22
ATOM     22  N   UNL     1       2.969  42.882  52.010  1.00  0.00    -0.366 N 
ATOM     23  H   UNL     1       2.118  42.936  51.447  1.00  0.00     0.162 HD
BRANCH  22  24
ATOM     24  C   UNL     1       4.189  42.915  51.198  1.00  0.00     0.142 C 
BRANCH  24  25
ATOM     25  C   UNL     1       4.645  41.510  50.780  1.00  0.00     0.177 C 
BRANCH  25  26
ATOM     26  O   UNL     1       3.544  40.655  50.484  1.00  0.00    -0.395 OA
ATOM     27  H   UNL     1       3.694  40.346  49.565  1.00  0.00     0.210 HD
ENDBRANCH  25  26
ENDBRANCH  24  25
ENDBRANCH  22  24
ENDBRANCH   3  22
TORSDOF 8
ENDMDL
MODEL 17
REMARK VINA RESULT:    -7.235      2.462      4.256
REMARK INTER + INTRA:         -11.064
REMARK INTER:                 -10.366
REMARK INTRA:                  -0.698
REMARK UNBOUND:                -0.657
REMARK SMILES COc1ccc(CNc2nc(NCCO)c3nccnc3n2)cc1
REMARK SMILES IDX 9 1 10 2 11 3 16 4 17 5 18 6 19 7 20 8 21 9 22 10 8 11 7 13
REMARK SMILES IDX 6 14 3 15 4 16 24 17 5 18 23 19 2 20 1 21 12 22 13 24 14 25
REMARK SMILES IDX 15 26
REMARK H PARENT 8 12 12 23 15 27
ROOT
ATOM      1  C   UNL     1       3.441  43.827  51.636  1.00  0.00     0.227 A 
ATOM      2  N   UNL     1       3.345  44.002  52.954  1.00  0.00    -0.193 NA
ATOM      3  C   UNL     1       2.126  43.884  53.514  1.00  0.00     0.160 A 
ATOM      4  C   UNL     1       0.977  43.614  52.772  1.00  0.00     0.150 A 
ATOM      5  N   UNL     1      -0.266  43.487  53.336  1.00  0.00    -0.247 NA
ATOM      6  C   UNL     1      -1.274  43.217  52.488  1.00  0.00     0.132 A 
ATOM      7  C   UNL     1      -1.054  43.061  51.138  1.00  0.00     0.133 A 
ATOM      8  N   UNL     1       0.178  43.169  50.590  1.00  0.00    -0.233 NA
ATOM      9  C   UNL     1       1.206  43.450  51.401  1.00  0.00     0.185 A 
ATOM     10  N   UNL     1       2.408  43.547  50.847  1.00  0.00    -0.191 NA
ENDROOT
BRANCH   1  11
ATOM     11  N   UNL     1       4.711  43.971  51.108  1.00  0.00    -0.350 N 
ATOM     12  H   UNL     1       4.844  43.272  50.386  1.00  0.00     0.164 HD
BRANCH  11  13
ATOM     13  C   UNL     1       5.071  45.323  50.733  1.00  0.00     0.152 C 
BRANCH  13  14
ATOM     14  C   UNL     1       6.355  45.705  51.434  1.00  0.00    -0.029 A 
ATOM     15  C   UNL     1       8.756  46.433  52.719  1.00  0.00     0.118 A 
ATOM     16  C   UNL     1       8.755  46.118  51.361  1.00  0.00     0.047 A 
ATOM     17  C   UNL     1       7.555  46.386  53.430  1.00  0.00     0.047 A 
ATOM     18  C   UNL     1       7.563  45.757  50.723  1.00  0.00     0.009 A 
ATOM     19  C   UNL     1       6.362  46.028  52.796  1.00  0.00     0.009 A 
BRANCH  15  20
ATOM     20  O   UNL     1       9.845  46.799  53.460  1.00  0.00    -0.497 OA
ATOM     21  C   UNL     1       9.600  47.604  54.607  1.00  0.00     0.278 C 
ENDBRANCH  15  20
ENDBRANCH  13  14
ENDBRANCH  11  13
ENDBRANCH   1  11
BRANCH   3  22
ATOM     22  N   UNL     1       1.986  44.139  54.899  1.00  0.00    -0.366 N 
ATOM     23  H   UNL     1       2.595  43.484  55.395  1.00  0.00     0.162 HD
BRANCH  22  24
ATOM     24  C   UNL     1       2.143  45.520  55.362  1.00  0.00     0.142 C 
BRANCH  24  25
ATOM     25  C   UNL     1       3.617  45.952  55.409  1.00  0.00     0.177 C 
BRANCH  25  26
ATOM     26  O   UNL     1       4.482  44.868  55.739  1.00  0.00    -0.395 OA
ATOM     27  H   UNL     1       5.389  45.196  55.560  1.00  0.00     0.210 HD
ENDBRANCH  25  26
ENDBRANCH  24  25
ENDBRANCH  22  24
ENDBRANCH   3  22
TORSDOF 8
ENDMDL
MODEL 18
REMARK VINA RESULT:    -7.189      3.224      5.219
REMARK INTER + INTRA:         -10.998
REMARK INTER:                 -10.143
REMARK INTRA:                  -0.856
REMARK UNBOUND:                -0.657
REMARK SMILES COc1ccc(CNc2nc(NCCO)c3nccnc3n2)cc1
REMARK SMILES IDX 9 1 10 2 11 3 16 4 17 5 18 6 19 7 20 8 21 9 22 10 8 11 7 13
REMARK SMILES IDX 6 14 3 15 4 16 24 17 5 18 23 19 2 20 1 21 12 22 13 24 14 25
REMARK SMILES IDX 15 26
REMARK H PARENT 8 12 12 23 15 27
ROOT
ATOM      1  C   UNL     1       3.799  45.162  54.448  1.00  0.00     0.227 A 
ATOM      2  N   UNL     1       2.709  45.516  55.128  1.00  0.00    -0.193 NA
ATOM      3  C   UNL     1       1.514  45.138  54.637  1.00  0.00     0.160 A 
ATOM      4  C   UNL     1       1.377  44.423  53.448  1.00  0.00     0.150 A 
ATOM      5  N   UNL     1       0.164  44.030  52.945  1.00  0.00    -0.247 NA
ATOM      6  C   UNL     1       0.200  43.338  51.793  1.00  0.00     0.132 A 
ATOM      7  C   UNL     1       1.391  43.032  51.175  1.00  0.00     0.133 A 
ATOM      8  N   UNL     1       2.586  43.406  51.686  1.00  0.00    -0.233 NA
ATOM      9  C   UNL     1       2.592  44.109  52.827  1.00  0.00     0.185 A 
ATOM     10  N   UNL     1       3.773  44.463  53.317  1.00  0.00    -0.191 NA
ENDROOT
BRANCH   1  11
ATOM     11  N   UNL     1       5.000  45.584  54.986  1.00  0.00    -0.350 N 
ATOM     12  H   UNL     1       5.690  44.854  54.854  1.00  0.00     0.164 HD
BRANCH  11  13
ATOM     13  C   UNL     1       5.420  46.912  54.587  1.00  0.00     0.152 C 
BRANCH  13  14
ATOM     14  C   UNL     1       6.763  46.820  53.901  1.00  0.00    -0.029 A 
ATOM     15  C   UNL     1       9.280  46.640  52.645  1.00  0.00     0.118 A 
ATOM     16  C   UNL     1       9.175  47.169  53.931  1.00  0.00     0.047 A 
ATOM     17  C   UNL     1       8.127  46.200  51.992  1.00  0.00     0.047 A 
ATOM     18  C   UNL     1       7.925  47.258  54.554  1.00  0.00     0.009 A 
ATOM     19  C   UNL     1       6.878  46.285  52.613  1.00  0.00     0.009 A 
BRANCH  15  20
ATOM     20  O   UNL     1      10.435  46.498  51.925  1.00  0.00    -0.497 OA
ATOM     21  C   UNL     1      10.566  45.311  51.152  1.00  0.00     0.278 C 
ENDBRANCH  15  20
ENDBRANCH  13  14
ENDBRANCH  11  13
ENDBRANCH   1  11
BRANCH   3  22
ATOM     22  N   UNL     1       0.338  45.566  55.301  1.00  0.00    -0.366 N 
ATOM     23  H   UNL     1      -0.457  45.305  54.714  1.00  0.00     0.162 HD
BRANCH  22  24
ATOM     24  C   UNL     1       0.161  45.176  56.702  1.00  0.00     0.142 C 
BRANCH  24  25
ATOM     25  C   UNL     1       0.410  46.345  57.666  1.00  0.00     0.177 C 
BRANCH  25  26
ATOM     26  O   UNL     1       1.792  46.496  57.980  1.00  0.00    -0.395 OA
ATOM     27  H   UNL     1       1.862  46.313  58.941  1.00  0.00     0.210 HD
ENDBRANCH  25  26
ENDBRANCH  24  25
ENDBRANCH  22  24
ENDBRANCH   3  22
TORSDOF 8
ENDMDL
MODEL 19
REMARK VINA RESULT:    -7.136      3.163      4.443
REMARK INTER + INTRA:         -10.922
REMARK INTER:                 -10.090
REMARK INTRA:                  -0.831
REMARK UNBOUND:                -0.657
REMARK SMILES COc1ccc(CNc2nc(NCCO)c3nccnc3n2)cc1
REMARK SMILES IDX 9 1 10 2 11 3 16 4 17 5 18 6 19 7 20 8 21 9 22 10 8 11 7 13
REMARK SMILES IDX 6 14 3 15 4 16 24 17 5 18 23 19 2 20 1 21 12 22 13 24 14 25
REMARK SMILES IDX 15 26
REMARK H PARENT 8 12 12 23 15 27
ROOT
ATOM      1  C   UNL     1       3.248  45.828  52.590  1.00  0.00     0.227 A 
ATOM      2  N   UNL     1       3.143  45.604  53.901  1.00  0.00    -0.193 NA
ATOM      3  C   UNL     1       2.180  44.760  54.317  1.00  0.00     0.160 A 
ATOM      4  C   UNL     1       1.288  44.141  53.443  1.00  0.00     0.150 A 
ATOM      5  N   UNL     1       0.309  43.276  53.859  1.00  0.00    -0.247 NA
ATOM      6  C   UNL     1      -0.465  42.753  52.892  1.00  0.00     0.132 A 
ATOM      7  C   UNL     1      -0.265  43.061  51.566  1.00  0.00     0.133 A 
ATOM      8  N   UNL     1       0.714  43.901  51.160  1.00  0.00    -0.233 NA
ATOM      9  C   UNL     1       1.500  44.453  52.094  1.00  0.00     0.185 A 
ATOM     10  N   UNL     1       2.459  45.270  51.677  1.00  0.00    -0.191 NA
ENDROOT
BRANCH   1  11
ATOM     11  N   UNL     1       4.242  46.711  52.215  1.00  0.00    -0.350 N 
ATOM     12  H   UNL     1       4.524  47.247  53.028  1.00  0.00     0.164 HD
BRANCH  11  13
ATOM     13  C   UNL     1       5.327  46.129  51.452  1.00  0.00     0.152 C 
BRANCH  13  14
ATOM     14  C   UNL     1       6.633  46.398  52.163  1.00  0.00    -0.029 A 
ATOM     15  C   UNL     1       9.059  46.885  53.512  1.00  0.00     0.118 A 
ATOM     16  C   UNL     1       7.849  46.948  54.202  1.00  0.00     0.047 A 
ATOM     17  C   UNL     1       9.053  46.575  52.151  1.00  0.00     0.047 A 
ATOM     18  C   UNL     1       6.645  46.706  53.532  1.00  0.00     0.009 A 
ATOM     19  C   UNL     1       7.852  46.331  51.479  1.00  0.00     0.009 A 
BRANCH  15  20
ATOM     20  O   UNL     1      10.301  47.099  54.044  1.00  0.00    -0.497 OA
ATOM     21  C   UNL     1      10.358  47.448  55.421  1.00  0.00     0.278 C 
ENDBRANCH  15  20
ENDBRANCH  13  14
ENDBRANCH  11  13
ENDBRANCH   1  11
BRANCH   3  22
ATOM     22  N   UNL     1       2.000  44.565  55.708  1.00  0.00    -0.366 N 
ATOM     23  H   UNL     1       2.911  44.321  56.103  1.00  0.00     0.162 HD
BRANCH  22  24
ATOM     24  C   UNL     1       1.317  45.618  56.465  1.00  0.00     0.142 C 
BRANCH  24  25
ATOM     25  C   UNL     1      -0.164  45.289  56.708  1.00  0.00     0.177 C 
BRANCH  25  26
ATOM     26  O   UNL     1      -0.988  45.699  55.620  1.00  0.00    -0.395 OA
ATOM     27  H   UNL     1      -1.310  44.867  55.209  1.00  0.00     0.210 HD
ENDBRANCH  25  26
ENDBRANCH  24  25
ENDBRANCH  22  24
ENDBRANCH   3  22
TORSDOF 8
ENDMDL
MODEL 20
REMARK VINA RESULT:    -7.110      2.512      7.517
REMARK INTER + INTRA:         -10.884
REMARK INTER:                 -10.053
REMARK INTRA:                  -0.830
REMARK UNBOUND:                -0.657
REMARK SMILES COc1ccc(CNc2nc(NCCO)c3nccnc3n2)cc1
REMARK SMILES IDX 9 1 10 2 11 3 16 4 17 5 18 6 19 7 20 8 21 9 22 10 8 11 7 13
REMARK SMILES IDX 6 14 3 15 4 16 24 17 5 18 23 19 2 20 1 21 12 22 13 24 14 25
REMARK SMILES IDX 15 26
REMARK H PARENT 8 12 12 23 15 27
ROOT
ATOM      1  C   UNL     1       4.976  45.984  52.396  1.00  0.00     0.227 A 
ATOM      2  N   UNL     1       6.077  46.734  52.470  1.00  0.00    -0.193 NA
ATOM      3  C   UNL     1       7.125  46.385  51.701  1.00  0.00     0.160 A 
ATOM      4  C   UNL     1       7.109  45.271  50.863  1.00  0.00     0.150 A 
ATOM      5  N   UNL     1       8.171  44.912  50.073  1.00  0.00    -0.247 NA
ATOM      6  C   UNL     1       7.997  43.817  49.312  1.00  0.00     0.132 A 
ATOM      7  C   UNL     1       6.812  43.117  49.322  1.00  0.00     0.133 A 
ATOM      8  N   UNL     1       5.762  43.486  50.090  1.00  0.00    -0.233 NA
ATOM      9  C   UNL     1       5.900  44.565  50.871  1.00  0.00     0.185 A 
ATOM     10  N   UNL     1       4.857  44.916  51.613  1.00  0.00    -0.191 NA
ENDROOT
BRANCH   1  11
ATOM     11  N   UNL     1       3.934  46.376  53.214  1.00  0.00    -0.350 N 
ATOM     12  H   UNL     1       4.262  47.111  53.830  1.00  0.00     0.164 HD
BRANCH  11  13
ATOM     13  C   UNL     1       2.687  46.653  52.532  1.00  0.00     0.152 C 
BRANCH  13  14
ATOM     14  C   UNL     1       1.603  45.766  53.102  1.00  0.00    -0.029 A 
ATOM     15  C   UNL     1      -0.416  44.096  54.140  1.00  0.00     0.118 A 
ATOM     16  C   UNL     1      -0.464  44.509  52.809  1.00  0.00     0.047 A 
ATOM     17  C   UNL     1       0.643  44.517  54.947  1.00  0.00     0.047 A 
ATOM     18  C   UNL     1       0.540  45.337  52.294  1.00  0.00     0.009 A 
ATOM     19  C   UNL     1       1.648  45.342  54.435  1.00  0.00     0.009 A 
BRANCH  15  20
ATOM     20  O   UNL     1      -1.328  43.291  54.767  1.00  0.00    -0.497 OA
ATOM     21  C   UNL     1      -2.024  43.851  55.872  1.00  0.00     0.278 C 
ENDBRANCH  15  20
ENDBRANCH  13  14
ENDBRANCH  11  13
ENDBRANCH   1  11
BRANCH   3  22
ATOM     22  N   UNL     1       8.329  47.120  51.816  1.00  0.00    -0.366 N 
ATOM     23  H   UNL     1       8.085  48.113  51.798  1.00  0.00     0.162 HD
BRANCH  22  24
ATOM     24  C   UNL     1       9.238  46.779  52.915  1.00  0.00     0.142 C 
BRANCH  24  25
ATOM     25  C   UNL     1       9.135  47.773  54.081  1.00  0.00     0.177 C 
BRANCH  25  26
ATOM     26  O   UNL     1       7.970  47.553  54.872  1.00  0.00    -0.395 OA
ATOM     27  H   UNL     1       8.172  47.949  55.748  1.00  0.00     0.210 HD
ENDBRANCH  25  26
ENDBRANCH  24  25
ENDBRANCH  22  24
ENDBRANCH   3  22
TORSDOF 8
ENDMDL
