MODEL 1
REMARK VINA RESULT:    -8.699      0.000      0.000
REMARK INTER + INTRA:         -12.421
REMARK INTER:                 -11.750
REMARK INTRA:                  -0.671
REMARK UNBOUND:                -0.671
REMARK SMILES CC(C)CCNc1nc(Nc2ccc(Br)cc2)c2cnn(C)c2n1
REMARK SMILES IDX 6 1 5 3 4 4 2 5 1 6 3 7 7 8 8 9 24 10 9 11 23 12 18 13 21 14
REMARK SMILES IDX 19 15 20 16 22 17 10 18 11 20 12 21 17 22 13 23 16 24 14 25
REMARK SMILES IDX 15 26
REMARK H PARENT 6 2 10 19
ROOT
ATOM      1  N   UNL     1       7.309  46.190  50.829  1.00  0.00    -0.354 N 
ATOM      2  H   UNL     1       8.246  45.831  50.681  1.00  0.00     0.163 HD
ENDROOT
BRANCH   1   3
ATOM      3  C   UNL     1       7.166  47.094  51.957  1.00  0.00     0.116 C 
BRANCH   3   4
ATOM      4  C   UNL     1       8.535  47.642  52.371  1.00  0.00     0.024 C 
BRANCH   4   5
ATOM      5  C   UNL     1       9.483  46.611  53.019  1.00  0.00    -0.016 C 
ATOM      6  C   UNL     1      10.080  47.195  54.302  1.00  0.00     0.007 C 
ATOM      7  C   UNL     1      10.606  46.176  52.076  1.00  0.00     0.007 C 
ENDBRANCH   4   5
ENDBRANCH   3   4
ENDBRANCH   1   3
BRANCH   1   8
ATOM      8  C   UNL     1       6.478  45.076  50.874  1.00  0.00     0.226 A 
ATOM      9  N   UNL     1       6.689  44.056  50.022  1.00  0.00    -0.195 NA
ATOM     10  N   UNL     1       5.511  45.131  51.796  1.00  0.00    -0.193 NA
ATOM     11  C   UNL     1       5.907  42.947  50.044  1.00  0.00     0.147 A 
ATOM     12  C   UNL     1       4.741  44.033  51.805  1.00  0.00     0.165 A 
ATOM     13  C   UNL     1       4.867  42.931  50.983  1.00  0.00     0.082 A 
ATOM     14  N   UNL     1       3.675  43.774  52.624  1.00  0.00    -0.250 N 
ATOM     15  C   UNL     1       3.825  42.071  51.389  1.00  0.00     0.149 A 
ATOM     16  N   UNL     1       3.089  42.577  52.384  1.00  0.00    -0.179 NA
ATOM     17  C   UNL     1       3.152  44.624  53.663  1.00  0.00     0.176 C 
BRANCH  11  18
ATOM     18  N   UNL     1       6.106  41.883  49.151  1.00  0.00    -0.339 N 
ATOM     19  H   UNL     1       6.945  41.350  49.332  1.00  0.00     0.168 HD
BRANCH  18  20
ATOM     20  C   UNL     1       5.406  41.478  48.002  1.00  0.00     0.040 A 
ATOM     21  C   UNL     1       5.724  41.899  46.705  1.00  0.00     0.027 A 
ATOM     22  C   UNL     1       4.287  40.642  48.160  1.00  0.00     0.027 A 
ATOM     23  C   UNL     1       4.968  41.490  45.601  1.00  0.00     0.018 A 
ATOM     24  C   UNL     1       3.525  40.229  47.061  1.00  0.00     0.018 A 
ATOM     25  C   UNL     1       3.871  40.655  45.784  1.00  0.00     0.018 A 
ATOM     26  Br  UNL     1       2.847  40.103  44.296  1.00  0.00    -0.051 Br
ENDBRANCH  18  20
ENDBRANCH  11  18
ENDBRANCH   1   8
TORSDOF 6
ENDMDL
MODEL 2
REMARK VINA RESULT:    -8.681      2.896      4.820
REMARK INTER + INTRA:         -12.398
REMARK INTER:                 -11.648
REMARK INTRA:                  -0.750
REMARK UNBOUND:                -0.671
REMARK SMILES CC(C)CCNc1nc(Nc2ccc(Br)cc2)c2cnn(C)c2n1
REMARK SMILES IDX 6 1 5 3 4 4 2 5 1 6 3 7 7 8 8 9 24 10 9 11 23 12 18 13 21 14
REMARK SMILES IDX 19 15 20 16 22 17 10 18 11 20 12 21 17 22 13 23 16 24 14 25
REMARK SMILES IDX 15 26
REMARK H PARENT 6 2 10 19
ROOT
ATOM      1  N   UNL     1       6.033  47.024  52.493  1.00  0.00    -0.354 N 
ATOM      2  H   UNL     1       6.108  47.610  51.668  1.00  0.00     0.163 HD
ENDROOT
BRANCH   1   3
ATOM      3  C   UNL     1       7.148  47.116  53.420  1.00  0.00     0.116 C 
BRANCH   3   4
ATOM      4  C   UNL     1       8.279  47.944  52.802  1.00  0.00     0.024 C 
BRANCH   4   5
ATOM      5  C   UNL     1       9.702  47.423  53.091  1.00  0.00    -0.016 C 
ATOM      6  C   UNL     1       9.949  46.134  52.302  1.00  0.00     0.007 C 
ATOM      7  C   UNL     1       9.942  47.171  54.580  1.00  0.00     0.007 C 
ENDBRANCH   4   5
ENDBRANCH   3   4
ENDBRANCH   1   3
BRANCH   1   8
ATOM      8  C   UNL     1       5.778  45.740  52.023  1.00  0.00     0.226 A 
ATOM      9  N   UNL     1       4.785  45.017  52.573  1.00  0.00    -0.195 NA
ATOM     10  N   UNL     1       6.579  45.333  51.031  1.00  0.00    -0.193 NA
ATOM     11  C   UNL     1       4.499  43.765  52.132  1.00  0.00     0.147 A 
ATOM     12  C   UNL     1       6.290  44.094  50.608  1.00  0.00     0.165 A 
ATOM     13  C   UNL     1       5.297  43.267  51.095  1.00  0.00     0.082 A 
ATOM     14  N   UNL     1       6.914  43.391  49.613  1.00  0.00    -0.250 N 
ATOM     15  C   UNL     1       5.414  42.091  50.325  1.00  0.00     0.149 A 
ATOM     16  N   UNL     1       6.399  42.153  49.423  1.00  0.00    -0.179 NA
ATOM     17  C   UNL     1       8.014  43.836  48.795  1.00  0.00     0.176 C 
BRANCH  11  18
ATOM     18  N   UNL     1       3.476  42.995  52.708  1.00  0.00    -0.339 N 
ATOM     19  H   UNL     1       3.811  42.281  53.339  1.00  0.00     0.168 HD
BRANCH  18  20
ATOM     20  C   UNL     1       2.087  42.973  52.502  1.00  0.00     0.040 A 
ATOM     21  C   UNL     1       1.159  42.595  53.479  1.00  0.00     0.027 A 
ATOM     22  C   UNL     1       1.594  43.299  51.226  1.00  0.00     0.027 A 
ATOM     23  C   UNL     1      -0.213  42.559  53.205  1.00  0.00     0.018 A 
ATOM     24  C   UNL     1       0.224  43.264  50.943  1.00  0.00     0.018 A 
ATOM     25  C   UNL     1      -0.674  42.894  51.937  1.00  0.00     0.018 A 
ATOM     26  Br  UNL     1      -2.526  42.844  51.563  1.00  0.00    -0.051 Br
ENDBRANCH  18  20
ENDBRANCH  11  18
ENDBRANCH   1   8
TORSDOF 6
ENDMDL
MODEL 3
REMARK VINA RESULT:    -8.651      3.395      7.605
REMARK INTER + INTRA:         -12.357
REMARK INTER:                 -11.698
REMARK INTRA:                  -0.659
REMARK UNBOUND:                -0.671
REMARK SMILES CC(C)CCNc1nc(Nc2ccc(Br)cc2)c2cnn(C)c2n1
REMARK SMILES IDX 6 1 5 3 4 4 2 5 1 6 3 7 7 8 8 9 24 10 9 11 23 12 18 13 21 14
REMARK SMILES IDX 19 15 20 16 22 17 10 18 11 20 12 21 17 22 13 23 16 24 14 25
REMARK SMILES IDX 15 26
REMARK H PARENT 6 2 10 19
ROOT
ATOM      1  N   UNL     1       6.339  41.678  49.292  1.00  0.00    -0.354 N 
ATOM      2  H   UNL     1       7.266  41.949  48.981  1.00  0.00     0.163 HD
ENDROOT
BRANCH   1   3
ATOM      3  C   UNL     1       5.425  41.283  48.235  1.00  0.00     0.116 C 
BRANCH   3   4
ATOM      4  C   UNL     1       5.794  41.991  46.927  1.00  0.00     0.024 C 
BRANCH   4   5
ATOM      5  C   UNL     1       5.120  41.420  45.663  1.00  0.00    -0.016 C 
ATOM      6  C   UNL     1       5.053  42.501  44.581  1.00  0.00     0.007 C 
ATOM      7  C   UNL     1       3.716  40.880  45.941  1.00  0.00     0.007 C 
ENDBRANCH   4   5
ENDBRANCH   3   4
ENDBRANCH   1   3
BRANCH   1   8
ATOM      8  C   UNL     1       5.884  42.725  50.086  1.00  0.00     0.226 A 
ATOM      9  N   UNL     1       6.644  43.826  50.230  1.00  0.00    -0.195 NA
ATOM     10  N   UNL     1       4.688  42.525  50.651  1.00  0.00    -0.193 NA
ATOM     11  C   UNL     1       6.226  44.874  50.987  1.00  0.00     0.147 A 
ATOM     12  C   UNL     1       4.289  43.564  51.400  1.00  0.00     0.165 A 
ATOM     13  C   UNL     1       4.982  44.739  51.615  1.00  0.00     0.082 A 
ATOM     14  N   UNL     1       3.122  43.678  52.105  1.00  0.00    -0.250 N 
ATOM     15  C   UNL     1       4.143  45.487  52.467  1.00  0.00     0.149 A 
ATOM     16  N   UNL     1       3.009  44.849  52.776  1.00  0.00    -0.179 NA
ATOM     17  C   UNL     1       2.060  42.708  52.188  1.00  0.00     0.176 C 
BRANCH  11  18
ATOM     18  N   UNL     1       7.016  46.022  51.159  1.00  0.00    -0.339 N 
ATOM     19  H   UNL     1       6.991  46.655  50.372  1.00  0.00     0.168 HD
BRANCH  18  20
ATOM     20  C   UNL     1       7.899  46.410  52.180  1.00  0.00     0.040 A 
ATOM     21  C   UNL     1       9.293  46.415  52.045  1.00  0.00     0.027 A 
ATOM     22  C   UNL     1       7.364  46.765  53.430  1.00  0.00     0.027 A 
ATOM     23  C   UNL     1      10.125  46.778  53.110  1.00  0.00     0.018 A 
ATOM     24  C   UNL     1       8.189  47.128  54.501  1.00  0.00     0.018 A 
ATOM     25  C   UNL     1       9.569  47.133  54.334  1.00  0.00     0.018 A 
ATOM     26  Br  UNL     1      10.691  47.621  55.774  1.00  0.00    -0.051 Br
ENDBRANCH  18  20
ENDBRANCH  11  18
ENDBRANCH   1   8
TORSDOF 6
ENDMDL
MODEL 4
REMARK VINA RESULT:    -8.612      2.906      4.660
REMARK INTER + INTRA:         -12.304
REMARK INTER:                 -11.519
REMARK INTRA:                  -0.785
REMARK UNBOUND:                -0.671
REMARK SMILES CC(C)CCNc1nc(Nc2ccc(Br)cc2)c2cnn(C)c2n1
REMARK SMILES IDX 6 1 5 3 4 4 2 5 1 6 3 7 7 8 8 9 24 10 9 11 23 12 18 13 21 14
REMARK SMILES IDX 19 15 20 16 22 17 10 18 11 20 12 21 17 22 13 23 16 24 14 25
REMARK SMILES IDX 15 26
REMARK H PARENT 6 2 10 19
ROOT
ATOM      1  N   UNL     1       6.175  47.118  52.581  1.00  0.00    -0.354 N 
ATOM      2  H   UNL     1       5.352  47.683  52.401  1.00  0.00     0.163 HD
ENDROOT
BRANCH   1   3
ATOM      3  C   UNL     1       7.420  47.658  52.063  1.00  0.00     0.116 C 
BRANCH   3   4
ATOM      4  C   UNL     1       8.389  47.945  53.215  1.00  0.00     0.024 C 
BRANCH   4   5
ATOM      5  C   UNL     1       9.382  46.807  53.530  1.00  0.00    -0.016 C 
ATOM      6  C   UNL     1      10.265  47.207  54.715  1.00  0.00     0.007 C 
ATOM      7  C   UNL     1      10.259  46.447  52.330  1.00  0.00     0.007 C 
ENDBRANCH   4   5
ENDBRANCH   3   4
ENDBRANCH   1   3
BRANCH   1   8
ATOM      8  C   UNL     1       5.866  45.842  52.122  1.00  0.00     0.226 A 
ATOM      9  N   UNL     1       4.843  45.167  52.677  1.00  0.00    -0.195 NA
ATOM     10  N   UNL     1       6.649  45.393  51.134  1.00  0.00    -0.193 NA
ATOM     11  C   UNL     1       4.503  43.925  52.246  1.00  0.00     0.147 A 
ATOM     12  C   UNL     1       6.307  44.164  50.721  1.00  0.00     0.165 A 
ATOM     13  C   UNL     1       5.280  43.384  51.214  1.00  0.00     0.082 A 
ATOM     14  N   UNL     1       6.901  43.426  49.733  1.00  0.00    -0.250 N 
ATOM     15  C   UNL     1       5.347  42.197  50.455  1.00  0.00     0.149 A 
ATOM     16  N   UNL     1       6.334  42.210  49.553  1.00  0.00    -0.179 NA
ATOM     17  C   UNL     1       8.019  43.817  48.912  1.00  0.00     0.176 C 
BRANCH  11  18
ATOM     18  N   UNL     1       3.449  43.203  52.828  1.00  0.00    -0.339 N 
ATOM     19  H   UNL     1       3.732  42.624  53.605  1.00  0.00     0.168 HD
BRANCH  18  20
ATOM     20  C   UNL     1       2.095  43.070  52.476  1.00  0.00     0.040 A 
ATOM     21  C   UNL     1       1.573  43.436  51.229  1.00  0.00     0.027 A 
ATOM     22  C   UNL     1       1.196  42.591  53.444  1.00  0.00     0.027 A 
ATOM     23  C   UNL     1       0.208  43.313  50.948  1.00  0.00     0.018 A 
ATOM     24  C   UNL     1      -0.171  42.466  53.171  1.00  0.00     0.018 A 
ATOM     25  C   UNL     1      -0.658  42.827  51.920  1.00  0.00     0.018 A 
ATOM     26  Br  UNL     1      -2.503  42.663  51.544  1.00  0.00    -0.051 Br
ENDBRANCH  18  20
ENDBRANCH  11  18
ENDBRANCH   1   8
TORSDOF 6
ENDMDL
MODEL 5
REMARK VINA RESULT:    -8.600      3.728      7.263
REMARK INTER + INTRA:         -12.288
REMARK INTER:                 -11.082
REMARK INTRA:                  -1.206
REMARK UNBOUND:                -0.671
REMARK SMILES CC(C)CCNc1nc(Nc2ccc(Br)cc2)c2cnn(C)c2n1
REMARK SMILES IDX 6 1 5 3 4 4 2 5 1 6 3 7 7 8 8 9 24 10 9 11 23 12 18 13 21 14
REMARK SMILES IDX 19 15 20 16 22 17 10 18 11 20 12 21 17 22 13 23 16 24 14 25
REMARK SMILES IDX 15 26
REMARK H PARENT 6 2 10 19
ROOT
ATOM      1  N   UNL     1       2.884  44.728  51.885  1.00  0.00    -0.354 N 
ATOM      2  H   UNL     1       2.276  44.878  51.087  1.00  0.00     0.163 HD
ENDROOT
BRANCH   1   3
ATOM      3  C   UNL     1       2.707  45.664  52.981  1.00  0.00     0.116 C 
BRANCH   3   4
ATOM      4  C   UNL     1       2.990  44.971  54.318  1.00  0.00     0.024 C 
BRANCH   4   5
ATOM      5  C   UNL     1       4.055  45.658  55.197  1.00  0.00    -0.016 C 
ATOM      6  C   UNL     1       4.272  47.095  54.717  1.00  0.00     0.007 C 
ATOM      7  C   UNL     1       5.387  44.906  55.197  1.00  0.00     0.007 C 
ENDBRANCH   4   5
ENDBRANCH   3   4
ENDBRANCH   1   3
BRANCH   1   8
ATOM      8  C   UNL     1       4.176  44.677  51.373  1.00  0.00     0.226 A 
ATOM      9  N   UNL     1       5.033  45.682  51.633  1.00  0.00    -0.195 NA
ATOM     10  N   UNL     1       4.451  43.590  50.642  1.00  0.00    -0.193 NA
ATOM     11  C   UNL     1       6.306  45.661  51.161  1.00  0.00     0.147 A 
ATOM     12  C   UNL     1       5.709  43.583  50.177  1.00  0.00     0.165 A 
ATOM     13  C   UNL     1       6.669  44.554  50.383  1.00  0.00     0.082 A 
ATOM     14  N   UNL     1       6.302  42.621  49.405  1.00  0.00    -0.250 N 
ATOM     15  C   UNL     1       7.800  44.078  49.688  1.00  0.00     0.149 A 
ATOM     16  N   UNL     1       7.587  42.904  49.085  1.00  0.00    -0.179 NA
ATOM     17  C   UNL     1       5.705  41.398  48.932  1.00  0.00     0.176 C 
BRANCH  11  18
ATOM     18  N   UNL     1       7.204  46.710  51.410  1.00  0.00    -0.339 N 
ATOM     19  H   UNL     1       7.237  47.402  50.675  1.00  0.00     0.168 HD
BRANCH  18  20
ATOM     20  C   UNL     1       8.128  46.929  52.446  1.00  0.00     0.040 A 
ATOM     21  C   UNL     1       9.495  46.645  52.347  1.00  0.00     0.027 A 
ATOM     22  C   UNL     1       7.650  47.413  53.677  1.00  0.00     0.027 A 
ATOM     23  C   UNL     1      10.361  46.852  53.426  1.00  0.00     0.018 A 
ATOM     24  C   UNL     1       8.510  47.621  54.762  1.00  0.00     0.018 A 
ATOM     25  C   UNL     1       9.864  47.340  54.629  1.00  0.00     0.018 A 
ATOM     26  Br  UNL     1      11.032  47.618  56.089  1.00  0.00    -0.051 Br
ENDBRANCH  18  20
ENDBRANCH  11  18
ENDBRANCH   1   8
TORSDOF 6
ENDMDL
MODEL 6
REMARK VINA RESULT:    -8.567      3.781      6.825
REMARK INTER + INTRA:         -12.244
REMARK INTER:                 -11.057
REMARK INTRA:                  -1.187
REMARK UNBOUND:                -0.671
REMARK SMILES CC(C)CCNc1nc(Nc2ccc(Br)cc2)c2cnn(C)c2n1
REMARK SMILES IDX 6 1 5 3 4 4 2 5 1 6 3 7 7 8 8 9 24 10 9 11 23 12 18 13 21 14
REMARK SMILES IDX 19 15 20 16 22 17 10 18 11 20 12 21 17 22 13 23 16 24 14 25
REMARK SMILES IDX 15 26
REMARK H PARENT 6 2 10 19
ROOT
ATOM      1  N   UNL     1       2.335  45.648  51.581  1.00  0.00    -0.354 N 
ATOM      2  H   UNL     1       2.022  46.149  50.756  1.00  0.00     0.163 HD
ENDROOT
BRANCH   1   3
ATOM      3  C   UNL     1       2.400  46.440  52.796  1.00  0.00     0.116 C 
BRANCH   3   4
ATOM      4  C   UNL     1       2.517  45.523  54.017  1.00  0.00     0.024 C 
BRANCH   4   5
ATOM      5  C   UNL     1       3.707  45.827  54.951  1.00  0.00    -0.016 C 
ATOM      6  C   UNL     1       4.269  47.216  54.634  1.00  0.00     0.007 C 
ATOM      7  C   UNL     1       4.819  44.782  54.841  1.00  0.00     0.007 C 
ENDBRANCH   4   5
ENDBRANCH   3   4
ENDBRANCH   1   3
BRANCH   1   8
ATOM      8  C   UNL     1       3.534  45.041  51.224  1.00  0.00     0.226 A 
ATOM      9  N   UNL     1       4.672  45.758  51.241  1.00  0.00    -0.195 NA
ATOM     10  N   UNL     1       3.432  43.751  50.884  1.00  0.00    -0.193 NA
ATOM     11  C   UNL     1       5.863  45.196  50.912  1.00  0.00     0.147 A 
ATOM     12  C   UNL     1       4.614  43.208  50.555  1.00  0.00     0.165 A 
ATOM     13  C   UNL     1       5.839  43.845  50.540  1.00  0.00     0.082 A 
ATOM     14  N   UNL     1       4.854  41.918  50.166  1.00  0.00    -0.250 N 
ATOM     15  C   UNL     1       6.746  42.849  50.125  1.00  0.00     0.149 A 
ATOM     16  N   UNL     1       6.157  41.672  49.889  1.00  0.00    -0.179 NA
ATOM     17  C   UNL     1       3.888  40.857  50.035  1.00  0.00     0.176 C 
BRANCH  11  18
ATOM     18  N   UNL     1       7.055  45.937  50.910  1.00  0.00    -0.339 N 
ATOM     19  H   UNL     1       7.384  46.177  49.986  1.00  0.00     0.168 HD
BRANCH  18  20
ATOM     20  C   UNL     1       7.919  46.329  51.946  1.00  0.00     0.040 A 
ATOM     21  C   UNL     1       9.314  46.346  51.835  1.00  0.00     0.027 A 
ATOM     22  C   UNL     1       7.360  46.675  53.189  1.00  0.00     0.027 A 
ATOM     23  C   UNL     1      10.126  46.712  52.915  1.00  0.00     0.018 A 
ATOM     24  C   UNL     1       8.164  47.042  54.274  1.00  0.00     0.018 A 
ATOM     25  C   UNL     1       9.547  47.060  54.130  1.00  0.00     0.018 A 
ATOM     26  Br  UNL     1      10.640  47.553  55.590  1.00  0.00    -0.051 Br
ENDBRANCH  18  20
ENDBRANCH  11  18
ENDBRANCH   1   8
TORSDOF 6
ENDMDL
MODEL 7
REMARK VINA RESULT:    -8.482      3.772      6.422
REMARK INTER + INTRA:         -12.129
REMARK INTER:                 -11.647
REMARK INTRA:                  -0.482
REMARK UNBOUND:                -0.671
REMARK SMILES CC(C)CCNc1nc(Nc2ccc(Br)cc2)c2cnn(C)c2n1
REMARK SMILES IDX 6 1 5 3 4 4 2 5 1 6 3 7 7 8 8 9 24 10 9 11 23 12 18 13 21 14
REMARK SMILES IDX 19 15 20 16 22 17 10 18 11 20 12 21 17 22 13 23 16 24 14 25
REMARK SMILES IDX 15 26
REMARK H PARENT 6 2 10 19
ROOT
ATOM      1  N   UNL     1       5.793  46.908  52.660  1.00  0.00    -0.354 N 
ATOM      2  H   UNL     1       5.769  47.416  51.782  1.00  0.00     0.163 HD
ENDROOT
BRANCH   1   3
ATOM      3  C   UNL     1       7.083  46.887  53.326  1.00  0.00     0.116 C 
BRANCH   3   4
ATOM      4  C   UNL     1       8.117  47.659  52.499  1.00  0.00     0.024 C 
BRANCH   4   5
ATOM      5  C   UNL     1       9.588  47.311  52.802  1.00  0.00    -0.016 C 
ATOM      6  C   UNL     1       9.979  46.029  52.061  1.00  0.00     0.007 C 
ATOM      7  C   UNL     1       9.853  47.143  54.299  1.00  0.00     0.007 C 
ENDBRANCH   4   5
ENDBRANCH   3   4
ENDBRANCH   1   3
BRANCH   1   8
ATOM      8  C   UNL     1       5.266  45.651  52.384  1.00  0.00     0.226 A 
ATOM      9  N   UNL     1       4.189  45.220  53.065  1.00  0.00    -0.195 NA
ATOM     10  N   UNL     1       5.909  44.967  51.431  1.00  0.00    -0.193 NA
ATOM     11  C   UNL     1       3.639  44.003  52.815  1.00  0.00     0.147 A 
ATOM     12  C   UNL     1       5.361  43.766  51.197  1.00  0.00     0.165 A 
ATOM     13  C   UNL     1       4.260  43.225  51.830  1.00  0.00     0.082 A 
ATOM     14  N   UNL     1       5.774  42.828  50.289  1.00  0.00    -0.250 N 
ATOM     15  C   UNL     1       4.099  41.959  51.229  1.00  0.00     0.149 A 
ATOM     16  N   UNL     1       5.019  41.704  50.293  1.00  0.00    -0.179 NA
ATOM     17  C   UNL     1       6.885  42.934  49.378  1.00  0.00     0.176 C 
BRANCH  11  18
ATOM     18  N   UNL     1       2.525  43.535  53.529  1.00  0.00    -0.339 N 
ATOM     19  H   UNL     1       2.300  42.567  53.344  1.00  0.00     0.168 HD
BRANCH  18  20
ATOM     20  C   UNL     1       1.616  44.182  54.382  1.00  0.00     0.040 A 
ATOM     21  C   UNL     1       1.988  44.864  55.546  1.00  0.00     0.027 A 
ATOM     22  C   UNL     1       0.244  44.100  54.084  1.00  0.00     0.027 A 
ATOM     23  C   UNL     1       1.032  45.461  56.377  1.00  0.00     0.018 A 
ATOM     24  C   UNL     1      -0.718  44.693  54.909  1.00  0.00     0.018 A 
ATOM     25  C   UNL     1      -0.317  45.373  56.054  1.00  0.00     0.018 A 
ATOM     26  Br  UNL     1      -1.610  46.175  57.175  1.00  0.00    -0.051 Br
ENDBRANCH  18  20
ENDBRANCH  11  18
ENDBRANCH   1   8
TORSDOF 6
ENDMDL
MODEL 8
REMARK VINA RESULT:    -8.424      2.912      5.315
REMARK INTER + INTRA:         -12.050
REMARK INTER:                 -11.315
REMARK INTRA:                  -0.734
REMARK UNBOUND:                -0.671
REMARK SMILES CC(C)CCNc1nc(Nc2ccc(Br)cc2)c2cnn(C)c2n1
REMARK SMILES IDX 6 1 5 3 4 4 2 5 1 6 3 7 7 8 8 9 24 10 9 11 23 12 18 13 21 14
REMARK SMILES IDX 19 15 20 16 22 17 10 18 11 20 12 21 17 22 13 23 16 24 14 25
REMARK SMILES IDX 15 26
REMARK H PARENT 6 2 10 19
ROOT
ATOM      1  N   UNL     1       6.816  46.285  51.322  1.00  0.00    -0.354 N 
ATOM      2  H   UNL     1       7.708  45.878  51.060  1.00  0.00     0.163 HD
ENDROOT
BRANCH   1   3
ATOM      3  C   UNL     1       6.862  47.197  52.452  1.00  0.00     0.116 C 
BRANCH   3   4
ATOM      4  C   UNL     1       8.284  47.738  52.635  1.00  0.00     0.024 C 
BRANCH   4   5
ATOM      5  C   UNL     1       9.325  46.696  53.093  1.00  0.00    -0.016 C 
ATOM      6  C   UNL     1      10.044  47.201  54.346  1.00  0.00     0.007 C 
ATOM      7  C   UNL     1      10.349  46.374  52.003  1.00  0.00     0.007 C 
ENDBRANCH   4   5
ENDBRANCH   3   4
ENDBRANCH   1   3
BRANCH   1   8
ATOM      8  C   UNL     1       5.942  45.215  51.479  1.00  0.00     0.226 A 
ATOM      9  N   UNL     1       4.949  45.298  52.383  1.00  0.00    -0.195 NA
ATOM     10  N   UNL     1       6.186  44.167  50.684  1.00  0.00    -0.193 NA
ATOM     11  C   UNL     1       4.068  44.278  52.556  1.00  0.00     0.147 A 
ATOM     12  C   UNL     1       5.314  43.164  50.868  1.00  0.00     0.165 A 
ATOM     13  C   UNL     1       4.260  43.142  51.760  1.00  0.00     0.082 A 
ATOM     14  N   UNL     1       5.284  41.961  50.216  1.00  0.00    -0.250 N 
ATOM     15  C   UNL     1       3.665  41.878  51.565  1.00  0.00     0.149 A 
ATOM     16  N   UNL     1       4.284  41.148  50.631  1.00  0.00    -0.179 NA
ATOM     17  C   UNL     1       6.180  41.513  49.181  1.00  0.00     0.176 C 
BRANCH  11  18
ATOM     18  N   UNL     1       3.038  44.345  53.506  1.00  0.00    -0.339 N 
ATOM     19  H   UNL     1       3.366  44.432  54.458  1.00  0.00     0.168 HD
BRANCH  18  20
ATOM     20  C   UNL     1       1.643  44.224  53.390  1.00  0.00     0.040 A 
ATOM     21  C   UNL     1       0.911  43.131  53.871  1.00  0.00     0.027 A 
ATOM     22  C   UNL     1       0.939  45.229  52.704  1.00  0.00     0.027 A 
ATOM     23  C   UNL     1      -0.474  43.049  53.694  1.00  0.00     0.018 A 
ATOM     24  C   UNL     1      -0.447  45.154  52.522  1.00  0.00     0.018 A 
ATOM     25  C   UNL     1      -1.148  44.062  53.020  1.00  0.00     0.018 A 
ATOM     26  Br  UNL     1      -3.018  43.952  52.777  1.00  0.00    -0.051 Br
ENDBRANCH  18  20
ENDBRANCH  11  18
ENDBRANCH   1   8
TORSDOF 6
ENDMDL
MODEL 9
REMARK VINA RESULT:    -8.354      3.678      7.535
REMARK INTER + INTRA:         -11.956
REMARK INTER:                 -11.035
REMARK INTRA:                  -0.921
REMARK UNBOUND:                -0.671
REMARK SMILES CC(C)CCNc1nc(Nc2ccc(Br)cc2)c2cnn(C)c2n1
REMARK SMILES IDX 6 1 5 3 4 4 2 5 1 6 3 7 7 8 8 9 24 10 9 11 23 12 18 13 21 14
REMARK SMILES IDX 19 15 20 16 22 17 10 18 11 20 12 21 17 22 13 23 16 24 14 25
REMARK SMILES IDX 15 26
REMARK H PARENT 6 2 10 19
ROOT
ATOM      1  N   UNL     1       3.078  44.081  52.399  1.00  0.00    -0.354 N 
ATOM      2  H   UNL     1       2.707  43.173  52.138  1.00  0.00     0.163 HD
ENDROOT
BRANCH   1   3
ATOM      3  C   UNL     1       2.162  45.195  52.226  1.00  0.00     0.116 C 
BRANCH   3   4
ATOM      4  C   UNL     1       2.000  45.953  53.547  1.00  0.00     0.024 C 
BRANCH   4   5
ATOM      5  C   UNL     1       2.582  45.240  54.785  1.00  0.00    -0.016 C 
ATOM      6  C   UNL     1       1.495  45.091  55.853  1.00  0.00     0.007 C 
ATOM      7  C   UNL     1       3.786  45.977  55.372  1.00  0.00     0.007 C 
ENDBRANCH   4   5
ENDBRANCH   3   4
ENDBRANCH   1   3
BRANCH   1   8
ATOM      8  C   UNL     1       4.279  44.210  51.711  1.00  0.00     0.226 A 
ATOM      9  N   UNL     1       5.071  45.271  51.952  1.00  0.00    -0.195 NA
ATOM     10  N   UNL     1       4.540  43.227  50.841  1.00  0.00    -0.193 NA
ATOM     11  C   UNL     1       6.258  45.425  51.310  1.00  0.00     0.147 A 
ATOM     12  C   UNL     1       5.711  43.392  50.209  1.00  0.00     0.165 A 
ATOM     13  C   UNL     1       6.600  44.435  50.379  1.00  0.00     0.082 A 
ATOM     14  N   UNL     1       6.269  42.570  49.268  1.00  0.00    -0.250 N 
ATOM     15  C   UNL     1       7.655  44.144  49.490  1.00  0.00     0.149 A 
ATOM     16  N   UNL     1       7.462  43.012  48.804  1.00  0.00    -0.179 NA
ATOM     17  C   UNL     1       5.721  41.338  48.758  1.00  0.00     0.176 C 
BRANCH  11  18
ATOM     18  N   UNL     1       7.085  46.535  51.540  1.00  0.00    -0.339 N 
ATOM     19  H   UNL     1       7.047  47.230  50.808  1.00  0.00     0.168 HD
BRANCH  18  20
ATOM     20  C   UNL     1       8.018  46.817  52.551  1.00  0.00     0.040 A 
ATOM     21  C   UNL     1       9.397  46.618  52.418  1.00  0.00     0.027 A 
ATOM     22  C   UNL     1       7.542  47.277  53.791  1.00  0.00     0.027 A 
ATOM     23  C   UNL     1      10.276  46.884  53.474  1.00  0.00     0.018 A 
ATOM     24  C   UNL     1       8.414  47.545  54.853  1.00  0.00     0.018 A 
ATOM     25  C   UNL     1       9.780  47.347  54.688  1.00  0.00     0.018 A 
ATOM     26  Br  UNL     1      10.964  47.705  56.116  1.00  0.00    -0.051 Br
ENDBRANCH  18  20
ENDBRANCH  11  18
ENDBRANCH   1   8
TORSDOF 6
ENDMDL
MODEL 10
REMARK VINA RESULT:    -8.336      3.765      6.441
REMARK INTER + INTRA:         -11.932
REMARK INTER:                 -11.552
REMARK INTRA:                  -0.380
REMARK UNBOUND:                -0.671
REMARK SMILES CC(C)CCNc1nc(Nc2ccc(Br)cc2)c2cnn(C)c2n1
REMARK SMILES IDX 6 1 5 3 4 4 2 5 1 6 3 7 7 8 8 9 24 10 9 11 23 12 18 13 21 14
REMARK SMILES IDX 19 15 20 16 22 17 10 18 11 20 12 21 17 22 13 23 16 24 14 25
REMARK SMILES IDX 15 26
REMARK H PARENT 6 2 10 19
ROOT
ATOM      1  N   UNL     1       5.937  46.809  52.654  1.00  0.00    -0.354 N 
ATOM      2  H   UNL     1       5.237  47.500  52.407  1.00  0.00     0.163 HD
ENDROOT
BRANCH   1   3
ATOM      3  C   UNL     1       7.250  47.023  52.070  1.00  0.00     0.116 C 
BRANCH   3   4
ATOM      4  C   UNL     1       8.102  47.895  52.998  1.00  0.00     0.024 C 
BRANCH   4   5
ATOM      5  C   UNL     1       9.575  47.456  53.135  1.00  0.00    -0.016 C 
ATOM      6  C   UNL     1       9.841  46.251  52.228  1.00  0.00     0.007 C 
ATOM      7  C   UNL     1       9.950  47.110  54.577  1.00  0.00     0.007 C 
ENDBRANCH   4   5
ENDBRANCH   3   4
ENDBRANCH   1   3
BRANCH   1   8
ATOM      8  C   UNL     1       5.370  45.574  52.360  1.00  0.00     0.226 A 
ATOM      9  N   UNL     1       4.285  45.162  53.042  1.00  0.00    -0.195 NA
ATOM     10  N   UNL     1       5.984  44.888  51.388  1.00  0.00    -0.193 NA
ATOM     11  C   UNL     1       3.696  43.968  52.773  1.00  0.00     0.147 A 
ATOM     12  C   UNL     1       5.397  43.709  51.136  1.00  0.00     0.165 A 
ATOM     13  C   UNL     1       4.285  43.190  51.768  1.00  0.00     0.082 A 
ATOM     14  N   UNL     1       5.774  42.777  50.207  1.00  0.00    -0.250 N 
ATOM     15  C   UNL     1       4.081  41.941  51.145  1.00  0.00     0.149 A 
ATOM     16  N   UNL     1       4.985  41.677  50.196  1.00  0.00    -0.179 NA
ATOM     17  C   UNL     1       6.881  42.866  49.288  1.00  0.00     0.176 C 
BRANCH  11  18
ATOM     18  N   UNL     1       2.574  43.520  53.487  1.00  0.00    -0.339 N 
ATOM     19  H   UNL     1       2.328  42.559  53.297  1.00  0.00     0.168 HD
BRANCH  18  20
ATOM     20  C   UNL     1       1.682  44.182  54.347  1.00  0.00     0.040 A 
ATOM     21  C   UNL     1       0.293  44.199  54.168  1.00  0.00     0.027 A 
ATOM     22  C   UNL     1       2.209  44.919  55.422  1.00  0.00     0.027 A 
ATOM     23  C   UNL     1      -0.544  44.907  55.038  1.00  0.00     0.018 A 
ATOM     24  C   UNL     1       1.379  45.630  56.295  1.00  0.00     0.018 A 
ATOM     25  C   UNL     1       0.003  45.619  56.099  1.00  0.00     0.018 A 
ATOM     26  Br  UNL     1      -1.125  46.578  57.273  1.00  0.00    -0.051 Br
ENDBRANCH  18  20
ENDBRANCH  11  18
ENDBRANCH   1   8
TORSDOF 6
ENDMDL
MODEL 11
REMARK VINA RESULT:    -8.126      3.492      5.943
REMARK INTER + INTRA:         -11.648
REMARK INTER:                 -10.806
REMARK INTRA:                  -0.842
REMARK UNBOUND:                -0.671
REMARK SMILES CC(C)CCNc1nc(Nc2ccc(Br)cc2)c2cnn(C)c2n1
REMARK SMILES IDX 6 1 5 3 4 4 2 5 1 6 3 7 7 8 8 9 24 10 9 11 23 12 18 13 21 14
REMARK SMILES IDX 19 15 20 16 22 17 10 18 11 20 12 21 17 22 13 23 16 24 14 25
REMARK SMILES IDX 15 26
REMARK H PARENT 6 2 10 19
ROOT
ATOM      1  N   UNL     1       8.201  46.071  50.666  1.00  0.00    -0.354 N 
ATOM      2  H   UNL     1       8.905  45.368  50.861  1.00  0.00     0.163 HD
ENDROOT
BRANCH   1   3
ATOM      3  C   UNL     1       8.354  47.317  51.395  1.00  0.00     0.116 C 
BRANCH   3   4
ATOM      4  C   UNL     1       9.477  47.188  52.430  1.00  0.00     0.024 C 
BRANCH   4   5
ATOM      5  C   UNL     1       9.094  47.607  53.864  1.00  0.00    -0.016 C 
ATOM      6  C   UNL     1      10.219  47.225  54.831  1.00  0.00     0.007 C 
ATOM      7  C   UNL     1       7.779  46.978  54.327  1.00  0.00     0.007 C 
ENDBRANCH   4   5
ENDBRANCH   3   4
ENDBRANCH   1   3
BRANCH   1   8
ATOM      8  C   UNL     1       6.975  45.441  50.853  1.00  0.00     0.226 A 
ATOM      9  N   UNL     1       5.954  46.126  51.400  1.00  0.00    -0.195 NA
ATOM     10  N   UNL     1       6.931  44.164  50.455  1.00  0.00    -0.193 NA
ATOM     11  C   UNL     1       4.738  45.548  51.585  1.00  0.00     0.147 A 
ATOM     12  C   UNL     1       5.728  43.603  50.649  1.00  0.00     0.165 A 
ATOM     13  C   UNL     1       4.614  44.208  51.196  1.00  0.00     0.082 A 
ATOM     14  N   UNL     1       5.353  42.321  50.350  1.00  0.00    -0.250 N 
ATOM     15  C   UNL     1       3.627  43.201  51.182  1.00  0.00     0.149 A 
ATOM     16  N   UNL     1       4.068  42.045  50.674  1.00  0.00    -0.179 NA
ATOM     17  C   UNL     1       6.170  41.296  49.751  1.00  0.00     0.176 C 
BRANCH  11  18
ATOM     18  N   UNL     1       3.670  46.246  52.169  1.00  0.00    -0.339 N 
ATOM     19  H   UNL     1       3.557  47.187  51.817  1.00  0.00     0.168 HD
BRANCH  18  20
ATOM     20  C   UNL     1       2.787  45.913  53.209  1.00  0.00     0.040 A 
ATOM     21  C   UNL     1       1.431  45.619  53.019  1.00  0.00     0.027 A 
ATOM     22  C   UNL     1       3.272  45.925  54.528  1.00  0.00     0.027 A 
ATOM     23  C   UNL     1       0.591  45.328  54.099  1.00  0.00     0.018 A 
ATOM     24  C   UNL     1       2.438  45.637  55.615  1.00  0.00     0.018 A 
ATOM     25  C   UNL     1       1.099  45.338  55.393  1.00  0.00     0.018 A 
ATOM     26  Br  UNL     1      -0.034  44.948  56.855  1.00  0.00    -0.051 Br
ENDBRANCH  18  20
ENDBRANCH  11  18
ENDBRANCH   1   8
TORSDOF 6
ENDMDL
MODEL 12
REMARK VINA RESULT:    -8.101      3.570      6.877
REMARK INTER + INTRA:         -11.614
REMARK INTER:                 -10.781
REMARK INTRA:                  -0.833
REMARK UNBOUND:                -0.671
REMARK SMILES CC(C)CCNc1nc(Nc2ccc(Br)cc2)c2cnn(C)c2n1
REMARK SMILES IDX 6 1 5 3 4 4 2 5 1 6 3 7 7 8 8 9 24 10 9 11 23 12 18 13 21 14
REMARK SMILES IDX 19 15 20 16 22 17 10 18 11 20 12 21 17 22 13 23 16 24 14 25
REMARK SMILES IDX 15 26
REMARK H PARENT 6 2 10 19
ROOT
ATOM      1  N   UNL     1       3.890  41.325  51.353  1.00  0.00    -0.354 N 
ATOM      2  H   UNL     1       4.573  41.187  52.090  1.00  0.00     0.163 HD
ENDROOT
BRANCH   1   3
ATOM      3  C   UNL     1       4.418  41.262  50.001  1.00  0.00     0.116 C 
BRANCH   3   4
ATOM      4  C   UNL     1       5.907  41.624  50.000  1.00  0.00     0.024 C 
BRANCH   4   5
ATOM      5  C   UNL     1       6.300  42.767  49.042  1.00  0.00    -0.016 C 
ATOM      6  C   UNL     1       6.179  42.290  47.592  1.00  0.00     0.007 C 
ATOM      7  C   UNL     1       7.716  43.285  49.299  1.00  0.00     0.007 C 
ENDBRANCH   4   5
ENDBRANCH   3   4
ENDBRANCH   1   3
BRANCH   1   8
ATOM      8  C   UNL     1       3.235  42.513  51.661  1.00  0.00     0.226 A 
ATOM      9  N   UNL     1       3.926  43.527  52.215  1.00  0.00    -0.195 NA
ATOM     10  N   UNL     1       1.931  42.530  51.364  1.00  0.00    -0.193 NA
ATOM     11  C   UNL     1       3.323  44.706  52.516  1.00  0.00     0.147 A 
ATOM     12  C   UNL     1       1.346  43.697  51.672  1.00  0.00     0.165 A 
ATOM     13  C   UNL     1       1.954  44.800  52.238  1.00  0.00     0.082 A 
ATOM     14  N   UNL     1       0.032  44.039  51.494  1.00  0.00    -0.250 N 
ATOM     15  C   UNL     1       0.915  45.747  52.360  1.00  0.00     0.149 A 
ATOM     16  N   UNL     1      -0.261  45.292  51.915  1.00  0.00    -0.179 NA
ATOM     17  C   UNL     1      -1.008  43.219  50.926  1.00  0.00     0.176 C 
BRANCH  11  18
ATOM     18  N   UNL     1       4.027  45.765  53.109  1.00  0.00    -0.339 N 
ATOM     19  H   UNL     1       3.433  46.457  53.544  1.00  0.00     0.168 HD
BRANCH  18  20
ATOM     20  C   UNL     1       5.395  46.087  53.133  1.00  0.00     0.040 A 
ATOM     21  C   UNL     1       6.215  46.091  51.999  1.00  0.00     0.027 A 
ATOM     22  C   UNL     1       5.994  46.373  54.372  1.00  0.00     0.027 A 
ATOM     23  C   UNL     1       7.581  46.385  52.089  1.00  0.00     0.018 A 
ATOM     24  C   UNL     1       7.358  46.667  54.472  1.00  0.00     0.018 A 
ATOM     25  C   UNL     1       8.146  46.674  53.326  1.00  0.00     0.018 A 
ATOM     26  Br  UNL     1       9.989  47.069  53.452  1.00  0.00    -0.051 Br
ENDBRANCH  18  20
ENDBRANCH  11  18
ENDBRANCH   1   8
TORSDOF 6
ENDMDL
MODEL 13
REMARK VINA RESULT:    -7.967      4.261      7.620
REMARK INTER + INTRA:         -11.433
REMARK INTER:                 -10.212
REMARK INTRA:                  -1.221
REMARK UNBOUND:                -0.671
REMARK SMILES CC(C)CCNc1nc(Nc2ccc(Br)cc2)c2cnn(C)c2n1
REMARK SMILES IDX 6 1 5 3 4 4 2 5 1 6 3 7 7 8 8 9 24 10 9 11 23 12 18 13 21 14
REMARK SMILES IDX 19 15 20 16 22 17 10 18 11 20 12 21 17 22 13 23 16 24 14 25
REMARK SMILES IDX 15 26
REMARK H PARENT 6 2 10 19
ROOT
ATOM      1  N   UNL     1       1.289  42.656  52.485  1.00  0.00    -0.354 N 
ATOM      2  H   UNL     1       1.614  41.751  52.809  1.00  0.00     0.163 HD
ENDROOT
BRANCH   1   3
ATOM      3  C   UNL     1       2.037  43.218  51.374  1.00  0.00     0.116 C 
BRANCH   3   4
ATOM      4  C   UNL     1       3.331  42.427  51.156  1.00  0.00     0.024 C 
BRANCH   4   5
ATOM      5  C   UNL     1       4.631  43.241  51.329  1.00  0.00    -0.016 C 
ATOM      6  C   UNL     1       4.341  44.728  51.110  1.00  0.00     0.007 C 
ATOM      7  C   UNL     1       5.738  42.784  50.377  1.00  0.00     0.007 C 
ENDBRANCH   4   5
ENDBRANCH   3   4
ENDBRANCH   1   3
BRANCH   1   8
ATOM      8  C   UNL     1       1.236  43.467  53.613  1.00  0.00     0.226 A 
ATOM      9  N   UNL     1       2.318  44.185  53.966  1.00  0.00    -0.195 NA
ATOM     10  N   UNL     1       0.067  43.452  54.264  1.00  0.00    -0.193 NA
ATOM     11  C   UNL     1       2.299  44.998  55.054  1.00  0.00     0.147 A 
ATOM     12  C   UNL     1       0.062  44.253  55.339  1.00  0.00     0.165 A 
ATOM     13  C   UNL     1       1.108  45.034  55.790  1.00  0.00     0.082 A 
ATOM     14  N   UNL     1      -0.972  44.465  56.211  1.00  0.00    -0.250 N 
ATOM     15  C   UNL     1       0.598  45.671  56.940  1.00  0.00     0.149 A 
ATOM     16  N   UNL     1      -0.667  45.328  57.209  1.00  0.00    -0.179 NA
ATOM     17  C   UNL     1      -2.287  43.879  56.156  1.00  0.00     0.176 C 
BRANCH  11  18
ATOM     18  N   UNL     1       3.425  45.740  55.442  1.00  0.00    -0.339 N 
ATOM     19  H   UNL     1       3.378  46.088  56.389  1.00  0.00     0.168 HD
BRANCH  18  20
ATOM     20  C   UNL     1       4.562  46.162  54.732  1.00  0.00     0.040 A 
ATOM     21  C   UNL     1       4.586  47.282  53.892  1.00  0.00     0.027 A 
ATOM     22  C   UNL     1       5.733  45.391  54.824  1.00  0.00     0.027 A 
ATOM     23  C   UNL     1       5.740  47.634  53.182  1.00  0.00     0.018 A 
ATOM     24  C   UNL     1       6.891  45.735  54.116  1.00  0.00     0.018 A 
ATOM     25  C   UNL     1       6.888  46.859  53.298  1.00  0.00     0.018 A 
ATOM     26  Br  UNL     1       8.446  47.330  52.338  1.00  0.00    -0.051 Br
ENDBRANCH  18  20
ENDBRANCH  11  18
ENDBRANCH   1   8
TORSDOF 6
ENDMDL
MODEL 14
REMARK VINA RESULT:    -7.936      3.591      5.249
REMARK INTER + INTRA:         -11.391
REMARK INTER:                 -10.489
REMARK INTRA:                  -0.902
REMARK UNBOUND:                -0.671
REMARK SMILES CC(C)CCNc1nc(Nc2ccc(Br)cc2)c2cnn(C)c2n1
REMARK SMILES IDX 6 1 5 3 4 4 2 5 1 6 3 7 7 8 8 9 24 10 9 11 23 12 18 13 21 14
REMARK SMILES IDX 19 15 20 16 22 17 10 18 11 20 12 21 17 22 13 23 16 24 14 25
REMARK SMILES IDX 15 26
REMARK H PARENT 6 2 10 19
ROOT
ATOM      1  N   UNL     1       2.895  45.337  55.665  1.00  0.00    -0.354 N 
ATOM      2  H   UNL     1       2.298  46.125  55.894  1.00  0.00     0.163 HD
ENDROOT
BRANCH   1   3
ATOM      3  C   UNL     1       4.226  45.686  55.200  1.00  0.00     0.116 C 
BRANCH   3   4
ATOM      4  C   UNL     1       4.307  47.189  54.915  1.00  0.00     0.024 C 
BRANCH   4   5
ATOM      5  C   UNL     1       4.644  47.560  53.456  1.00  0.00    -0.016 C 
ATOM      6  C   UNL     1       3.470  47.189  52.546  1.00  0.00     0.007 C 
ATOM      7  C   UNL     1       5.919  46.878  52.958  1.00  0.00     0.007 C 
ENDBRANCH   4   5
ENDBRANCH   3   4
ENDBRANCH   1   3
BRANCH   1   8
ATOM      8  C   UNL     1       2.163  44.551  54.782  1.00  0.00     0.226 A 
ATOM      9  N   UNL     1       2.804  43.859  53.822  1.00  0.00    -0.195 NA
ATOM     10  N   UNL     1       0.840  44.560  54.982  1.00  0.00    -0.193 NA
ATOM     11  C   UNL     1       2.124  43.070  52.950  1.00  0.00     0.147 A 
ATOM     12  C   UNL     1       0.179  43.783  54.112  1.00  0.00     0.165 A 
ATOM     13  C   UNL     1       0.732  43.031  53.094  1.00  0.00     0.082 A 
ATOM     14  N   UNL     1      -1.172  43.573  54.047  1.00  0.00    -0.250 N 
ATOM     15  C   UNL     1      -0.375  42.411  52.477  1.00  0.00     0.149 A 
ATOM     16  N   UNL     1      -1.541  42.738  53.047  1.00  0.00    -0.179 NA
ATOM     17  C   UNL     1      -2.179  44.136  54.910  1.00  0.00     0.176 C 
BRANCH  11  18
ATOM     18  N   UNL     1       2.779  42.356  51.935  1.00  0.00    -0.339 N 
ATOM     19  H   UNL     1       2.340  41.475  51.708  1.00  0.00     0.168 HD
BRANCH  18  20
ATOM     20  C   UNL     1       3.976  42.596  51.239  1.00  0.00     0.040 A 
ATOM     21  C   UNL     1       4.776  41.587  50.691  1.00  0.00     0.027 A 
ATOM     22  C   UNL     1       4.431  43.922  51.129  1.00  0.00     0.027 A 
ATOM     23  C   UNL     1       5.978  41.885  50.039  1.00  0.00     0.018 A 
ATOM     24  C   UNL     1       5.633  44.228  50.480  1.00  0.00     0.018 A 
ATOM     25  C   UNL     1       6.401  43.205  49.936  1.00  0.00     0.018 A 
ATOM     26  Br  UNL     1       8.025  43.610  49.059  1.00  0.00    -0.051 Br
ENDBRANCH  18  20
ENDBRANCH  11  18
ENDBRANCH   1   8
TORSDOF 6
ENDMDL
MODEL 15
REMARK VINA RESULT:    -7.930      2.738      6.185
REMARK INTER + INTRA:         -11.382
REMARK INTER:                 -10.399
REMARK INTRA:                  -0.983
REMARK UNBOUND:                -0.671
REMARK SMILES CC(C)CCNc1nc(Nc2ccc(Br)cc2)c2cnn(C)c2n1
REMARK SMILES IDX 6 1 5 3 4 4 2 5 1 6 3 7 7 8 8 9 24 10 9 11 23 12 18 13 21 14
REMARK SMILES IDX 19 15 20 16 22 17 10 18 11 20 12 21 17 22 13 23 16 24 14 25
REMARK SMILES IDX 15 26
REMARK H PARENT 6 2 10 19
ROOT
ATOM      1  N   UNL     1       7.869  45.163  49.642  1.00  0.00    -0.354 N 
ATOM      2  H   UNL     1       7.283  45.539  48.904  1.00  0.00     0.163 HD
ENDROOT
BRANCH   1   3
ATOM      3  C   UNL     1       8.023  43.718  49.632  1.00  0.00     0.116 C 
BRANCH   3   4
ATOM      4  C   UNL     1       6.857  43.070  48.878  1.00  0.00     0.024 C 
BRANCH   4   5
ATOM      5  C   UNL     1       6.064  42.019  49.682  1.00  0.00    -0.016 C 
ATOM      6  C   UNL     1       5.229  41.161  48.728  1.00  0.00     0.007 C 
ATOM      7  C   UNL     1       5.156  42.653  50.737  1.00  0.00     0.007 C 
ENDBRANCH   4   5
ENDBRANCH   3   4
ENDBRANCH   1   3
BRANCH   1   8
ATOM      8  C   UNL     1       7.365  45.681  50.829  1.00  0.00     0.226 A 
ATOM      9  N   UNL     1       6.034  45.798  50.989  1.00  0.00    -0.195 NA
ATOM     10  N   UNL     1       8.290  46.026  51.732  1.00  0.00    -0.193 NA
ATOM     11  C   UNL     1       5.504  46.286  52.141  1.00  0.00     0.147 A 
ATOM     12  C   UNL     1       7.755  46.513  52.861  1.00  0.00     0.165 A 
ATOM     13  C   UNL     1       6.411  46.674  53.134  1.00  0.00     0.082 A 
ATOM     14  N   UNL     1       8.422  46.951  53.973  1.00  0.00    -0.250 N 
ATOM     15  C   UNL     1       6.382  47.219  54.435  1.00  0.00     0.149 A 
ATOM     16  N   UNL     1       7.602  47.397  54.954  1.00  0.00    -0.179 NA
ATOM     17  C   UNL     1       9.849  46.974  54.176  1.00  0.00     0.176 C 
BRANCH  11  18
ATOM     18  N   UNL     1       4.118  46.429  52.314  1.00  0.00    -0.339 N 
ATOM     19  H   UNL     1       3.820  47.385  52.446  1.00  0.00     0.168 HD
BRANCH  18  20
ATOM     20  C   UNL     1       3.084  45.485  52.427  1.00  0.00     0.040 A 
ATOM     21  C   UNL     1       2.765  44.814  53.613  1.00  0.00     0.027 A 
ATOM     22  C   UNL     1       2.355  45.150  51.272  1.00  0.00     0.027 A 
ATOM     23  C   UNL     1       1.746  43.856  53.656  1.00  0.00     0.018 A 
ATOM     24  C   UNL     1       1.335  44.193  51.306  1.00  0.00     0.018 A 
ATOM     25  C   UNL     1       1.034  43.550  52.502  1.00  0.00     0.018 A 
ATOM     26  Br  UNL     1      -0.342  42.256  52.557  1.00  0.00    -0.051 Br
ENDBRANCH  18  20
ENDBRANCH  11  18
ENDBRANCH   1   8
TORSDOF 6
ENDMDL
MODEL 16
REMARK VINA RESULT:    -7.928      3.446      7.120
REMARK INTER + INTRA:         -11.380
REMARK INTER:                 -10.553
REMARK INTRA:                  -0.827
REMARK UNBOUND:                -0.671
REMARK SMILES CC(C)CCNc1nc(Nc2ccc(Br)cc2)c2cnn(C)c2n1
REMARK SMILES IDX 6 1 5 3 4 4 2 5 1 6 3 7 7 8 8 9 24 10 9 11 23 12 18 13 21 14
REMARK SMILES IDX 19 15 20 16 22 17 10 18 11 20 12 21 17 22 13 23 16 24 14 25
REMARK SMILES IDX 15 26
REMARK H PARENT 6 2 10 19
ROOT
ATOM      1  N   UNL     1       2.920  41.613  50.727  1.00  0.00    -0.354 N 
ATOM      2  H   UNL     1       2.326  40.940  51.198  1.00  0.00     0.163 HD
ENDROOT
BRANCH   1   3
ATOM      3  C   UNL     1       4.284  41.173  50.491  1.00  0.00     0.116 C 
BRANCH   3   4
ATOM      4  C   UNL     1       4.513  40.944  48.994  1.00  0.00     0.024 C 
BRANCH   4   5
ATOM      5  C   UNL     1       5.845  41.494  48.445  1.00  0.00    -0.016 C 
ATOM      6  C   UNL     1       6.309  42.674  49.302  1.00  0.00     0.007 C 
ATOM      7  C   UNL     1       5.741  41.927  46.982  1.00  0.00     0.007 C 
ENDBRANCH   4   5
ENDBRANCH   3   4
ENDBRANCH   1   3
BRANCH   1   8
ATOM      8  C   UNL     1       2.813  42.791  51.458  1.00  0.00     0.226 A 
ATOM      9  N   UNL     1       3.724  43.766  51.283  1.00  0.00    -0.195 NA
ATOM     10  N   UNL     1       1.772  42.841  52.298  1.00  0.00    -0.193 NA
ATOM     11  C   UNL     1       3.644  44.935  51.970  1.00  0.00     0.147 A 
ATOM     12  C   UNL     1       1.707  43.997  52.974  1.00  0.00     0.165 A 
ATOM     13  C   UNL     1       2.581  45.061  52.873  1.00  0.00     0.082 A 
ATOM     14  N   UNL     1       0.770  44.364  53.901  1.00  0.00    -0.250 N 
ATOM     15  C   UNL     1       2.079  46.013  53.785  1.00  0.00     0.149 A 
ATOM     16  N   UNL     1       0.979  45.597  54.421  1.00  0.00    -0.179 NA
ATOM     17  C   UNL     1      -0.360  43.589  54.346  1.00  0.00     0.176 C 
BRANCH  11  18
ATOM     18  N   UNL     1       4.597  45.953  51.809  1.00  0.00    -0.339 N 
ATOM     19  H   UNL     1       4.405  46.572  51.033  1.00  0.00     0.168 HD
BRANCH  18  20
ATOM     20  C   UNL     1       5.809  46.218  52.467  1.00  0.00     0.040 A 
ATOM     21  C   UNL     1       5.941  46.293  53.859  1.00  0.00     0.027 A 
ATOM     22  C   UNL     1       6.951  46.477  51.689  1.00  0.00     0.027 A 
ATOM     23  C   UNL     1       7.169  46.596  54.458  1.00  0.00     0.018 A 
ATOM     24  C   UNL     1       8.182  46.781  52.280  1.00  0.00     0.018 A 
ATOM     25  C   UNL     1       8.285  46.838  53.666  1.00  0.00     0.018 A 
ATOM     26  Br  UNL     1       9.943  47.250  54.472  1.00  0.00    -0.051 Br
ENDBRANCH  18  20
ENDBRANCH  11  18
ENDBRANCH   1   8
TORSDOF 6
ENDMDL
MODEL 17
REMARK VINA RESULT:    -7.888      3.382      7.150
REMARK INTER + INTRA:         -11.326
REMARK INTER:                 -10.401
REMARK INTRA:                  -0.925
REMARK UNBOUND:                -0.671
REMARK SMILES CC(C)CCNc1nc(Nc2ccc(Br)cc2)c2cnn(C)c2n1
REMARK SMILES IDX 6 1 5 3 4 4 2 5 1 6 3 7 7 8 8 9 24 10 9 11 23 12 18 13 21 14
REMARK SMILES IDX 19 15 20 16 22 17 10 18 11 20 12 21 17 22 13 23 16 24 14 25
REMARK SMILES IDX 15 26
REMARK H PARENT 6 2 10 19
ROOT
ATOM      1  N   UNL     1       7.344  43.377  49.158  1.00  0.00    -0.354 N 
ATOM      2  H   UNL     1       7.699  43.765  48.291  1.00  0.00     0.163 HD
ENDROOT
BRANCH   1   3
ATOM      3  C   UNL     1       6.136  42.581  49.029  1.00  0.00     0.116 C 
BRANCH   3   4
ATOM      4  C   UNL     1       6.073  41.535  50.147  1.00  0.00     0.024 C 
BRANCH   4   5
ATOM      5  C   UNL     1       4.658  41.242  50.688  1.00  0.00    -0.016 C 
ATOM      6  C   UNL     1       3.745  40.810  49.537  1.00  0.00     0.007 C 
ATOM      7  C   UNL     1       4.047  42.445  51.409  1.00  0.00     0.007 C 
ENDBRANCH   4   5
ENDBRANCH   3   4
ENDBRANCH   1   3
BRANCH   1   8
ATOM      8  C   UNL     1       7.236  44.449  50.038  1.00  0.00     0.226 A 
ATOM      9  N   UNL     1       6.019  44.919  50.365  1.00  0.00    -0.195 NA
ATOM     10  N   UNL     1       8.402  44.926  50.490  1.00  0.00    -0.193 NA
ATOM     11  C   UNL     1       5.874  45.956  51.231  1.00  0.00     0.147 A 
ATOM     12  C   UNL     1       8.246  45.953  51.339  1.00  0.00     0.165 A 
ATOM     13  C   UNL     1       7.051  46.513  51.745  1.00  0.00     0.082 A 
ATOM     14  N   UNL     1       9.231  46.659  51.976  1.00  0.00    -0.250 N 
ATOM     15  C   UNL     1       7.432  47.549  52.623  1.00  0.00     0.149 A 
ATOM     16  N   UNL     1       8.757  47.651  52.767  1.00  0.00    -0.179 NA
ATOM     17  C   UNL     1      10.652  46.444  51.881  1.00  0.00     0.176 C 
BRANCH  11  18
ATOM     18  N   UNL     1       4.610  46.466  51.567  1.00  0.00    -0.339 N 
ATOM     19  H   UNL     1       4.334  47.266  51.016  1.00  0.00     0.168 HD
BRANCH  18  20
ATOM     20  C   UNL     1       3.701  46.128  52.584  1.00  0.00     0.040 A 
ATOM     21  C   UNL     1       2.317  46.036  52.393  1.00  0.00     0.027 A 
ATOM     22  C   UNL     1       4.196  45.920  53.883  1.00  0.00     0.027 A 
ATOM     23  C   UNL     1       1.456  45.729  53.453  1.00  0.00     0.018 A 
ATOM     24  C   UNL     1       3.342  45.615  54.949  1.00  0.00     0.018 A 
ATOM     25  C   UNL     1       1.973  45.519  54.727  1.00  0.00     0.018 A 
ATOM     26  Br  UNL     1       0.812  45.108  56.160  1.00  0.00    -0.051 Br
ENDBRANCH  18  20
ENDBRANCH  11  18
ENDBRANCH   1   8
TORSDOF 6
ENDMDL
MODEL 18
REMARK VINA RESULT:    -7.774      2.485      5.939
REMARK INTER + INTRA:         -11.172
REMARK INTER:                 -10.589
REMARK INTRA:                  -0.583
REMARK UNBOUND:                -0.671
REMARK SMILES CC(C)CCNc1nc(Nc2ccc(Br)cc2)c2cnn(C)c2n1
REMARK SMILES IDX 6 1 5 3 4 4 2 5 1 6 3 7 7 8 8 9 24 10 9 11 23 12 18 13 21 14
REMARK SMILES IDX 19 15 20 16 22 17 10 18 11 20 12 21 17 22 13 23 16 24 14 25
REMARK SMILES IDX 15 26
REMARK H PARENT 6 2 10 19
ROOT
ATOM      1  N   UNL     1       4.671  47.176  54.862  1.00  0.00    -0.354 N 
ATOM      2  H   UNL     1       4.887  47.036  55.843  1.00  0.00     0.163 HD
ENDROOT
BRANCH   1   3
ATOM      3  C   UNL     1       3.510  46.450  54.376  1.00  0.00     0.116 C 
BRANCH   3   4
ATOM      4  C   UNL     1       3.112  45.361  55.377  1.00  0.00     0.024 C 
BRANCH   4   5
ATOM      5  C   UNL     1       1.830  44.582  55.019  1.00  0.00    -0.016 C 
ATOM      6  C   UNL     1       1.795  44.311  53.512  1.00  0.00     0.007 C 
ATOM      7  C   UNL     1       0.559  45.320  55.441  1.00  0.00     0.007 C 
ENDBRANCH   4   5
ENDBRANCH   3   4
ENDBRANCH   1   3
BRANCH   1   8
ATOM      8  C   UNL     1       5.848  46.908  54.172  1.00  0.00     0.226 A 
ATOM      9  N   UNL     1       5.797  46.236  53.008  1.00  0.00    -0.195 NA
ATOM     10  N   UNL     1       6.961  47.364  54.759  1.00  0.00    -0.193 NA
ATOM     11  C   UNL     1       6.925  45.969  52.300  1.00  0.00     0.147 A 
ATOM     12  C   UNL     1       8.068  47.088  54.054  1.00  0.00     0.165 A 
ATOM     13  C   UNL     1       8.133  46.411  52.853  1.00  0.00     0.082 A 
ATOM     14  N   UNL     1       9.358  47.415  54.375  1.00  0.00    -0.250 N 
ATOM     15  C   UNL     1       9.509  46.384  52.541  1.00  0.00     0.149 A 
ATOM     16  N   UNL     1      10.265  46.988  53.464  1.00  0.00    -0.179 NA
ATOM     17  C   UNL     1       9.807  48.138  55.538  1.00  0.00     0.176 C 
BRANCH  11  18
ATOM     18  N   UNL     1       6.887  45.254  51.092  1.00  0.00    -0.339 N 
ATOM     19  H   UNL     1       7.484  45.638  50.373  1.00  0.00     0.168 HD
BRANCH  18  20
ATOM     20  C   UNL     1       6.111  44.162  50.670  1.00  0.00     0.040 A 
ATOM     21  C   UNL     1       4.900  43.790  51.266  1.00  0.00     0.027 A 
ATOM     22  C   UNL     1       6.597  43.360  49.624  1.00  0.00     0.027 A 
ATOM     23  C   UNL     1       4.187  42.669  50.825  1.00  0.00     0.018 A 
ATOM     24  C   UNL     1       5.891  42.237  49.177  1.00  0.00     0.018 A 
ATOM     25  C   UNL     1       4.685  41.898  49.781  1.00  0.00     0.018 A 
ATOM     26  Br  UNL     1       3.726  40.383  49.186  1.00  0.00    -0.051 Br
ENDBRANCH  18  20
ENDBRANCH  11  18
ENDBRANCH   1   8
TORSDOF 6
ENDMDL
MODEL 19
REMARK VINA RESULT:    -7.557      3.485      5.653
REMARK INTER + INTRA:         -10.880
REMARK INTER:                  -9.874
REMARK INTRA:                  -1.006
REMARK UNBOUND:                -0.671
REMARK SMILES CC(C)CCNc1nc(Nc2ccc(Br)cc2)c2cnn(C)c2n1
REMARK SMILES IDX 6 1 5 3 4 4 2 5 1 6 3 7 7 8 8 9 24 10 9 11 23 12 18 13 21 14
REMARK SMILES IDX 19 15 20 16 22 17 10 18 11 20 12 21 17 22 13 23 16 24 14 25
REMARK SMILES IDX 15 26
REMARK H PARENT 6 2 10 19
ROOT
ATOM      1  N   UNL     1       5.148  46.664  52.042  1.00  0.00    -0.354 N 
ATOM      2  H   UNL     1       5.611  47.168  51.294  1.00  0.00     0.163 HD
ENDROOT
BRANCH   1   3
ATOM      3  C   UNL     1       5.736  46.835  53.359  1.00  0.00     0.116 C 
BRANCH   3   4
ATOM      4  C   UNL     1       4.648  47.173  54.382  1.00  0.00     0.024 C 
BRANCH   4   5
ATOM      5  C   UNL     1       4.289  46.031  55.355  1.00  0.00    -0.016 C 
ATOM      6  C   UNL     1       5.377  44.955  55.310  1.00  0.00     0.007 C 
ATOM      7  C   UNL     1       2.929  45.404  55.045  1.00  0.00     0.007 C 
ENDBRANCH   4   5
ENDBRANCH   3   4
ENDBRANCH   1   3
BRANCH   1   8
ATOM      8  C   UNL     1       5.065  45.343  51.615  1.00  0.00     0.226 A 
ATOM      9  N   UNL     1       4.022  44.585  52.002  1.00  0.00    -0.195 NA
ATOM     10  N   UNL     1       6.071  44.939  50.831  1.00  0.00    -0.193 NA
ATOM     11  C   UNL     1       3.901  43.295  51.595  1.00  0.00     0.147 A 
ATOM     12  C   UNL     1       5.943  43.663  50.440  1.00  0.00     0.165 A 
ATOM     13  C   UNL     1       4.919  42.798  50.772  1.00  0.00     0.082 A 
ATOM     14  N   UNL     1       6.794  42.952  49.637  1.00  0.00    -0.250 N 
ATOM     15  C   UNL     1       5.255  41.593  50.119  1.00  0.00     0.149 A 
ATOM     16  N   UNL     1       6.397  41.674  49.429  1.00  0.00    -0.179 NA
ATOM     17  C   UNL     1       8.010  43.426  49.028  1.00  0.00     0.176 C 
BRANCH  11  18
ATOM     18  N   UNL     1       2.827  42.489  52.004  1.00  0.00    -0.339 N 
ATOM     19  H   UNL     1       3.069  41.514  52.115  1.00  0.00     0.168 HD
BRANCH  18  20
ATOM     20  C   UNL     1       1.464  42.768  52.201  1.00  0.00     0.040 A 
ATOM     21  C   UNL     1       0.601  43.199  51.186  1.00  0.00     0.027 A 
ATOM     22  C   UNL     1       0.941  42.663  53.501  1.00  0.00     0.027 A 
ATOM     23  C   UNL     1      -0.740  43.497  51.450  1.00  0.00     0.018 A 
ATOM     24  C   UNL     1      -0.400  42.960  53.774  1.00  0.00     0.018 A 
ATOM     25  C   UNL     1      -1.235  43.375  52.744  1.00  0.00     0.018 A 
ATOM     26  Br  UNL     1      -3.046  43.779  53.103  1.00  0.00    -0.051 Br
ENDBRANCH  18  20
ENDBRANCH  11  18
ENDBRANCH   1   8
TORSDOF 6
ENDMDL
