MODEL 1
REMARK VINA RESULT:    -8.507      0.000      0.000
REMARK INTER + INTRA:         -12.152
REMARK INTER:                 -11.491
REMARK INTRA:                  -0.660
REMARK UNBOUND:                -0.660
REMARK SMILES CCCNc1nc(Nc2ccc(CC)cc2)c2cnn(C)c2n1
REMARK SMILES IDX 5 1 6 2 7 3 17 4 18 5 19 6 20 7 21 8 22 9 23 10 4 11 3 13
REMARK SMILES IDX 2 14 1 15 8 16 9 18 10 19 16 20 11 21 15 22 12 23 13 24
REMARK SMILES IDX 14 25
REMARK H PARENT 4 12 8 17
ROOT
ATOM      1  C   UNL     1       3.700  42.623  51.700  1.00  0.00     0.226 A 
ATOM      2  N   UNL     1       4.424  43.726  51.430  1.00  0.00    -0.195 NA
ATOM      3  C   UNL     1       4.004  44.940  51.867  1.00  0.00     0.147 A 
ATOM      4  C   UNL     1       2.788  45.001  52.552  1.00  0.00     0.082 A 
ATOM      5  C   UNL     1       1.944  45.973  53.128  1.00  0.00     0.149 A 
ATOM      6  N   UNL     1       0.846  45.444  53.684  1.00  0.00    -0.179 NA
ATOM      7  N   UNL     1       0.990  44.119  53.448  1.00  0.00    -0.250 N 
ATOM      8  C   UNL     1      -0.023  43.203  53.909  1.00  0.00     0.176 C 
ATOM      9  C   UNL     1       2.131  43.806  52.762  1.00  0.00     0.165 A 
ATOM     10  N   UNL     1       2.538  42.591  52.367  1.00  0.00    -0.193 NA
ENDROOT
BRANCH   1  11
ATOM     11  N   UNL     1       4.256  41.441  51.221  1.00  0.00    -0.354 N 
ATOM     12  H   UNL     1       4.903  41.135  51.939  1.00  0.00     0.163 HD
BRANCH  11  13
ATOM     13  C   UNL     1       4.810  41.532  49.882  1.00  0.00     0.116 C 
BRANCH  13  14
ATOM     14  C   UNL     1       6.336  41.504  49.967  1.00  0.00     0.018 C 
ATOM     15  C   UNL     1       6.955  42.738  49.330  1.00  0.00     0.006 C 
ENDBRANCH  13  14
ENDBRANCH  11  13
ENDBRANCH   1  11
BRANCH   3  16
ATOM     16  N   UNL     1       4.804  46.047  51.542  1.00  0.00    -0.339 N 
ATOM     17  H   UNL     1       4.779  46.135  50.528  1.00  0.00     0.168 HD
BRANCH  16  18
ATOM     18  C   UNL     1       6.091  46.352  52.032  1.00  0.00     0.040 A 
ATOM     19  C   UNL     1       7.193  46.114  51.201  1.00  0.00     0.026 A 
ATOM     20  C   UNL     1       6.327  46.794  53.338  1.00  0.00     0.026 A 
ATOM     21  C   UNL     1       8.495  46.360  51.645  1.00  0.00     0.006 A 
ATOM     22  C   UNL     1       7.628  47.041  53.786  1.00  0.00     0.006 A 
ATOM     23  C   UNL     1       8.723  46.836  52.939  1.00  0.00    -0.048 A 
BRANCH  23  24
ATOM     24  C   UNL     1      10.127  47.086  53.428  1.00  0.00     0.032 C 
ATOM     25  C   UNL     1      10.168  47.347  54.926  1.00  0.00     0.009 C 
ENDBRANCH  23  24
ENDBRANCH  16  18
ENDBRANCH   3  16
TORSDOF 6
ENDMDL
MODEL 2
REMARK VINA RESULT:    -8.434      0.197      1.015
REMARK INTER + INTRA:         -12.053
REMARK INTER:                 -11.422
REMARK INTRA:                  -0.631
REMARK UNBOUND:                -0.660
REMARK SMILES CCCNc1nc(Nc2ccc(CC)cc2)c2cnn(C)c2n1
REMARK SMILES IDX 5 1 6 2 7 3 17 4 18 5 19 6 20 7 21 8 22 9 23 10 4 11 3 13
REMARK SMILES IDX 2 14 1 15 8 16 9 18 10 19 16 20 11 21 15 22 12 23 13 24
REMARK SMILES IDX 14 25
REMARK H PARENT 4 12 8 17
ROOT
ATOM      1  C   UNL     1       3.720  42.590  51.682  1.00  0.00     0.226 A 
ATOM      2  N   UNL     1       4.494  43.665  51.439  1.00  0.00    -0.195 NA
ATOM      3  C   UNL     1       4.132  44.886  51.907  1.00  0.00     0.147 A 
ATOM      4  C   UNL     1       2.921  44.986  52.597  1.00  0.00     0.082 A 
ATOM      5  C   UNL     1       2.124  45.981  53.199  1.00  0.00     0.149 A 
ATOM      6  N   UNL     1       1.003  45.490  53.744  1.00  0.00    -0.179 NA
ATOM      7  N   UNL     1       1.084  44.167  53.473  1.00  0.00    -0.250 N 
ATOM      8  C   UNL     1       0.030  43.288  53.913  1.00  0.00     0.176 C 
ATOM      9  C   UNL     1       2.209  43.818  52.777  1.00  0.00     0.165 A 
ATOM     10  N   UNL     1       2.558  42.596  52.351  1.00  0.00    -0.193 NA
ENDROOT
BRANCH   1  11
ATOM     11  N   UNL     1       4.219  41.397  51.172  1.00  0.00    -0.354 N 
ATOM     12  H   UNL     1       4.822  41.023  51.897  1.00  0.00     0.163 HD
BRANCH  11  13
ATOM     13  C   UNL     1       4.822  41.506  49.856  1.00  0.00     0.116 C 
BRANCH  13  14
ATOM     14  C   UNL     1       6.342  41.405  49.990  1.00  0.00     0.018 C 
ATOM     15  C   UNL     1       7.040  42.599  49.357  1.00  0.00     0.006 C 
ENDBRANCH  13  14
ENDBRANCH  11  13
ENDBRANCH   1  11
BRANCH   3  16
ATOM     16  N   UNL     1       4.982  45.962  51.609  1.00  0.00    -0.339 N 
ATOM     17  H   UNL     1       4.942  46.093  50.600  1.00  0.00     0.168 HD
BRANCH  16  18
ATOM     18  C   UNL     1       6.294  46.179  52.081  1.00  0.00     0.040 A 
ATOM     19  C   UNL     1       6.473  46.471  53.439  1.00  0.00     0.026 A 
ATOM     20  C   UNL     1       7.414  46.204  51.243  1.00  0.00     0.026 A 
ATOM     21  C   UNL     1       7.744  46.734  53.957  1.00  0.00     0.006 A 
ATOM     22  C   UNL     1       8.687  46.466  51.757  1.00  0.00     0.006 A 
ATOM     23  C   UNL     1       8.865  46.724  53.121  1.00  0.00    -0.048 A 
BRANCH  23  24
ATOM     24  C   UNL     1      10.235  47.024  53.672  1.00  0.00     0.032 C 
ATOM     25  C   UNL     1      10.185  47.392  55.147  1.00  0.00     0.009 C 
ENDBRANCH  23  24
ENDBRANCH  16  18
ENDBRANCH   3  16
TORSDOF 6
ENDMDL
MODEL 3
REMARK VINA RESULT:    -8.380      1.316      1.738
REMARK INTER + INTRA:         -11.980
REMARK INTER:                 -11.189
REMARK INTRA:                  -0.791
REMARK UNBOUND:                -0.660
REMARK SMILES CCCNc1nc(Nc2ccc(CC)cc2)c2cnn(C)c2n1
REMARK SMILES IDX 5 1 6 2 7 3 17 4 18 5 19 6 20 7 21 8 22 9 23 10 4 11 3 13
REMARK SMILES IDX 2 14 1 15 8 16 9 18 10 19 16 20 11 21 15 22 12 23 13 24
REMARK SMILES IDX 14 25
REMARK H PARENT 4 12 8 17
ROOT
ATOM      1  C   UNL     1       3.260  42.455  51.581  1.00  0.00     0.226 A 
ATOM      2  N   UNL     1       4.011  43.328  52.279  1.00  0.00    -0.195 NA
ATOM      3  C   UNL     1       3.463  44.482  52.737  1.00  0.00     0.147 A 
ATOM      4  C   UNL     1       2.129  44.743  52.419  1.00  0.00     0.082 A 
ATOM      5  C   UNL     1       1.175  45.765  52.603  1.00  0.00     0.149 A 
ATOM      6  N   UNL     1      -0.014  45.470  52.060  1.00  0.00    -0.179 NA
ATOM      7  N   UNL     1       0.192  44.250  51.513  1.00  0.00    -0.250 N 
ATOM      8  C   UNL     1      -0.888  43.593  50.821  1.00  0.00     0.176 C 
ATOM      9  C   UNL     1       1.463  43.777  51.691  1.00  0.00     0.165 A 
ATOM     10  N   UNL     1       1.971  42.617  51.251  1.00  0.00    -0.193 NA
ENDROOT
BRANCH   1  11
ATOM     11  N   UNL     1       3.933  41.301  51.195  1.00  0.00    -0.354 N 
ATOM     12  H   UNL     1       4.569  41.090  51.957  1.00  0.00     0.163 HD
BRANCH  11  13
ATOM     13  C   UNL     1       4.541  41.367  49.878  1.00  0.00     0.116 C 
BRANCH  13  14
ATOM     14  C   UNL     1       6.057  41.496  50.030  1.00  0.00     0.018 C 
ATOM     15  C   UNL     1       6.542  42.882  49.638  1.00  0.00     0.006 C 
ENDBRANCH  13  14
ENDBRANCH  11  13
ENDBRANCH   1  11
BRANCH   3  16
ATOM     16  N   UNL     1       4.307  45.349  53.450  1.00  0.00    -0.339 N 
ATOM     17  H   UNL     1       3.749  46.168  53.687  1.00  0.00     0.168 HD
BRANCH  16  18
ATOM     18  C   UNL     1       5.625  45.730  53.122  1.00  0.00     0.040 A 
ATOM     19  C   UNL     1       6.530  45.960  54.166  1.00  0.00     0.026 A 
ATOM     20  C   UNL     1       6.046  45.976  51.811  1.00  0.00     0.026 A 
ATOM     21  C   UNL     1       7.838  46.378  53.905  1.00  0.00     0.006 A 
ATOM     22  C   UNL     1       7.354  46.394  51.546  1.00  0.00     0.006 A 
ATOM     23  C   UNL     1       8.264  46.588  52.590  1.00  0.00    -0.048 A 
BRANCH  23  24
ATOM     24  C   UNL     1       9.669  47.055  52.305  1.00  0.00     0.032 C 
ATOM     25  C   UNL     1      10.540  45.934  51.761  1.00  0.00     0.009 C 
ENDBRANCH  23  24
ENDBRANCH  16  18
ENDBRANCH   3  16
TORSDOF 6
ENDMDL
MODEL 4
REMARK VINA RESULT:    -8.313      1.586      4.272
REMARK INTER + INTRA:         -11.889
REMARK INTER:                 -11.449
REMARK INTRA:                  -0.440
REMARK UNBOUND:                -0.660
REMARK SMILES CCCNc1nc(Nc2ccc(CC)cc2)c2cnn(C)c2n1
REMARK SMILES IDX 5 1 6 2 7 3 17 4 18 5 19 6 20 7 21 8 22 9 23 10 4 11 3 13
REMARK SMILES IDX 2 14 1 15 8 16 9 18 10 19 16 20 11 21 15 22 12 23 13 24
REMARK SMILES IDX 14 25
REMARK H PARENT 4 12 8 17
ROOT
ATOM      1  C   UNL     1       3.855  44.771  51.724  1.00  0.00     0.226 A 
ATOM      2  N   UNL     1       5.025  45.435  51.651  1.00  0.00    -0.195 NA
ATOM      3  C   UNL     1       6.084  44.881  51.007  1.00  0.00     0.147 A 
ATOM      4  C   UNL     1       5.926  43.600  50.476  1.00  0.00     0.082 A 
ATOM      5  C   UNL     1       6.696  42.629  49.802  1.00  0.00     0.149 A 
ATOM      6  N   UNL     1       6.000  41.522  49.513  1.00  0.00    -0.179 NA
ATOM      7  N   UNL     1       4.774  41.788  50.021  1.00  0.00    -0.250 N 
ATOM      8  C   UNL     1       3.729  40.803  49.901  1.00  0.00     0.176 C 
ATOM      9  C   UNL     1       4.684  43.016  50.619  1.00  0.00     0.165 A 
ATOM     10  N   UNL     1       3.614  43.551  51.224  1.00  0.00    -0.193 NA
ENDROOT
BRANCH   1  11
ATOM     11  N   UNL     1       2.845  45.460  52.385  1.00  0.00    -0.354 N 
ATOM     12  H   UNL     1       2.312  45.924  51.657  1.00  0.00     0.163 HD
BRANCH  11  13
ATOM     13  C   UNL     1       3.303  46.318  53.464  1.00  0.00     0.116 C 
BRANCH  13  14
ATOM     14  C   UNL     1       3.198  45.560  54.788  1.00  0.00     0.018 C 
ATOM     15  C   UNL     1       4.570  45.253  55.366  1.00  0.00     0.006 C 
ENDBRANCH  13  14
ENDBRANCH  11  13
ENDBRANCH   1  11
BRANCH   3  16
ATOM     16  N   UNL     1       7.273  45.626  50.978  1.00  0.00    -0.339 N 
ATOM     17  H   UNL     1       7.927  45.107  50.394  1.00  0.00     0.168 HD
BRANCH  16  18
ATOM     18  C   UNL     1       7.948  46.214  52.070  1.00  0.00     0.040 A 
ATOM     19  C   UNL     1       7.194  46.615  53.179  1.00  0.00     0.026 A 
ATOM     20  C   UNL     1       9.318  46.495  52.059  1.00  0.00     0.026 A 
ATOM     21  C   UNL     1       7.801  47.239  54.273  1.00  0.00     0.006 A 
ATOM     22  C   UNL     1       9.929  47.118  53.152  1.00  0.00     0.006 A 
ATOM     23  C   UNL     1       9.178  47.486  54.273  1.00  0.00    -0.048 A 
BRANCH  23  24
ATOM     24  C   UNL     1       9.833  48.174  55.443  1.00  0.00     0.032 C 
ATOM     25  C   UNL     1      10.962  47.340  56.030  1.00  0.00     0.009 C 
ENDBRANCH  23  24
ENDBRANCH  16  18
ENDBRANCH   3  16
TORSDOF 6
ENDMDL
MODEL 5
REMARK VINA RESULT:    -8.254      1.603      4.211
REMARK INTER + INTRA:         -11.810
REMARK INTER:                 -11.317
REMARK INTRA:                  -0.493
REMARK UNBOUND:                -0.660
REMARK SMILES CCCNc1nc(Nc2ccc(CC)cc2)c2cnn(C)c2n1
REMARK SMILES IDX 5 1 6 2 7 3 17 4 18 5 19 6 20 7 21 8 22 9 23 10 4 11 3 13
REMARK SMILES IDX 2 14 1 15 8 16 9 18 10 19 16 20 11 21 15 22 12 23 13 24
REMARK SMILES IDX 14 25
REMARK H PARENT 4 12 8 17
ROOT
ATOM      1  C   UNL     1       3.916  44.700  51.801  1.00  0.00     0.226 A 
ATOM      2  N   UNL     1       5.069  45.394  51.750  1.00  0.00    -0.195 NA
ATOM      3  C   UNL     1       6.133  44.899  51.068  1.00  0.00     0.147 A 
ATOM      4  C   UNL     1       6.000  43.641  50.476  1.00  0.00     0.082 A 
ATOM      5  C   UNL     1       6.786  42.724  49.748  1.00  0.00     0.149 A 
ATOM      6  N   UNL     1       6.113  41.616  49.411  1.00  0.00    -0.179 NA
ATOM      7  N   UNL     1       4.887  41.826  49.944  1.00  0.00    -0.250 N 
ATOM      8  C   UNL     1       3.864  40.824  49.786  1.00  0.00     0.176 C 
ATOM      9  C   UNL     1       4.774  43.021  50.602  1.00  0.00     0.165 A 
ATOM     10  N   UNL     1       3.699  43.500  51.244  1.00  0.00    -0.193 NA
ENDROOT
BRANCH   1  11
ATOM     11  N   UNL     1       2.897  45.330  52.505  1.00  0.00    -0.354 N 
ATOM     12  H   UNL     1       2.297  45.746  51.801  1.00  0.00     0.163 HD
BRANCH  11  13
ATOM     13  C   UNL     1       3.351  46.234  53.547  1.00  0.00     0.116 C 
BRANCH  13  14
ATOM     14  C   UNL     1       3.294  45.515  54.896  1.00  0.00     0.018 C 
ATOM     15  C   UNL     1       4.685  45.184  55.412  1.00  0.00     0.006 C 
ENDBRANCH  13  14
ENDBRANCH  11  13
ENDBRANCH   1  11
BRANCH   3  16
ATOM     16  N   UNL     1       7.304  45.673  51.065  1.00  0.00    -0.339 N 
ATOM     17  H   UNL     1       8.000  45.145  50.541  1.00  0.00     0.168 HD
BRANCH  16  18
ATOM     18  C   UNL     1       7.906  46.329  52.159  1.00  0.00     0.040 A 
ATOM     19  C   UNL     1       9.302  46.430  52.188  1.00  0.00     0.026 A 
ATOM     20  C   UNL     1       7.182  46.803  53.258  1.00  0.00     0.026 A 
ATOM     21  C   UNL     1       9.958  47.034  53.265  1.00  0.00     0.006 A 
ATOM     22  C   UNL     1       7.834  47.408  54.337  1.00  0.00     0.006 A 
ATOM     23  C   UNL     1       9.227  47.538  54.345  1.00  0.00    -0.048 A 
BRANCH  23  24
ATOM     24  C   UNL     1       9.931  48.175  55.517  1.00  0.00     0.032 C 
ATOM     25  C   UNL     1      11.057  47.300  56.045  1.00  0.00     0.009 C 
ENDBRANCH  23  24
ENDBRANCH  16  18
ENDBRANCH   3  16
TORSDOF 6
ENDMDL
MODEL 6
REMARK VINA RESULT:    -8.094      1.819      2.485
REMARK INTER + INTRA:         -11.594
REMARK INTER:                 -11.292
REMARK INTRA:                  -0.302
REMARK UNBOUND:                -0.660
REMARK SMILES CCCNc1nc(Nc2ccc(CC)cc2)c2cnn(C)c2n1
REMARK SMILES IDX 5 1 6 2 7 3 17 4 18 5 19 6 20 7 21 8 22 9 23 10 4 11 3 13
REMARK SMILES IDX 2 14 1 15 8 16 9 18 10 19 16 20 11 21 15 22 12 23 13 24
REMARK SMILES IDX 14 25
REMARK H PARENT 4 12 8 17
ROOT
ATOM      1  C   UNL     1       5.864  42.627  49.967  1.00  0.00     0.226 A 
ATOM      2  N   UNL     1       6.651  43.718  50.030  1.00  0.00    -0.195 NA
ATOM      3  C   UNL     1       6.319  44.751  50.845  1.00  0.00     0.147 A 
ATOM      4  C   UNL     1       5.125  44.657  51.564  1.00  0.00     0.082 A 
ATOM      5  C   UNL     1       4.358  45.439  52.451  1.00  0.00     0.149 A 
ATOM      6  N   UNL     1       3.241  44.821  52.857  1.00  0.00    -0.179 NA
ATOM      7  N   UNL     1       3.294  43.635  52.208  1.00  0.00    -0.250 N 
ATOM      8  C   UNL     1       2.234  42.676  52.397  1.00  0.00     0.176 C 
ATOM      9  C   UNL     1       4.398  43.494  51.412  1.00  0.00     0.165 A 
ATOM     10  N   UNL     1       4.716  42.448  50.637  1.00  0.00    -0.193 NA
ENDROOT
BRANCH   1  11
ATOM     11  N   UNL     1       6.331  41.630  49.116  1.00  0.00    -0.354 N 
ATOM     12  H   UNL     1       7.234  41.956  48.788  1.00  0.00     0.163 HD
BRANCH  11  13
ATOM     13  C   UNL     1       5.397  41.235  48.077  1.00  0.00     0.116 C 
BRANCH  13  14
ATOM     14  C   UNL     1       5.773  41.937  46.771  1.00  0.00     0.018 C 
ATOM     15  C   UNL     1       4.907  41.466  45.614  1.00  0.00     0.006 C 
ENDBRANCH  13  14
ENDBRANCH  11  13
ENDBRANCH   1  11
BRANCH   3  16
ATOM     16  N   UNL     1       7.182  45.858  50.854  1.00  0.00    -0.339 N 
ATOM     17  H   UNL     1       7.861  45.704  50.110  1.00  0.00     0.168 HD
BRANCH  16  18
ATOM     18  C   UNL     1       7.802  46.457  51.970  1.00  0.00     0.040 A 
ATOM     19  C   UNL     1       9.193  46.350  52.095  1.00  0.00     0.026 A 
ATOM     20  C   UNL     1       7.088  47.073  53.003  1.00  0.00     0.026 A 
ATOM     21  C   UNL     1       9.860  46.889  53.199  1.00  0.00     0.006 A 
ATOM     22  C   UNL     1       7.751  47.614  54.109  1.00  0.00     0.006 A 
ATOM     23  C   UNL     1       9.144  47.536  54.212  1.00  0.00    -0.048 A 
BRANCH  23  24
ATOM     24  C   UNL     1       9.857  48.103  55.412  1.00  0.00     0.032 C 
ATOM     25  C   UNL     1      10.986  47.198  55.881  1.00  0.00     0.009 C 
ENDBRANCH  23  24
ENDBRANCH  16  18
ENDBRANCH   3  16
TORSDOF 6
ENDMDL
MODEL 7
REMARK VINA RESULT:    -8.036      2.361      6.948
REMARK INTER + INTRA:         -11.516
REMARK INTER:                 -10.912
REMARK INTRA:                  -0.603
REMARK UNBOUND:                -0.660
REMARK SMILES CCCNc1nc(Nc2ccc(CC)cc2)c2cnn(C)c2n1
REMARK SMILES IDX 5 1 6 2 7 3 17 4 18 5 19 6 20 7 21 8 22 9 23 10 4 11 3 13
REMARK SMILES IDX 2 14 1 15 8 16 9 18 10 19 16 20 11 21 15 22 12 23 13 24
REMARK SMILES IDX 14 25
REMARK H PARENT 4 12 8 17
ROOT
ATOM      1  C   UNL     1       8.017  47.207  52.533  1.00  0.00     0.226 A 
ATOM      2  N   UNL     1       6.819  47.572  53.031  1.00  0.00    -0.195 NA
ATOM      3  C   UNL     1       5.691  46.937  52.624  1.00  0.00     0.147 A 
ATOM      4  C   UNL     1       5.816  45.944  51.650  1.00  0.00     0.082 A 
ATOM      5  C   UNL     1       4.988  45.081  50.903  1.00  0.00     0.149 A 
ATOM      6  N   UNL     1       5.677  44.292  50.069  1.00  0.00    -0.179 NA
ATOM      7  N   UNL     1       6.960  44.668  50.280  1.00  0.00    -0.250 N 
ATOM      8  C   UNL     1       8.017  44.025  49.540  1.00  0.00     0.176 C 
ATOM      9  C   UNL     1       7.094  45.663  51.209  1.00  0.00     0.165 A 
ATOM     10  N   UNL     1       8.227  46.253  51.615  1.00  0.00    -0.193 NA
ENDROOT
BRANCH   1  11
ATOM     11  N   UNL     1       9.094  47.916  53.053  1.00  0.00    -0.354 N 
ATOM     12  H   UNL     1       9.587  48.289  52.249  1.00  0.00     0.163 HD
BRANCH  11  13
ATOM     13  C   UNL     1       9.912  47.169  53.992  1.00  0.00     0.116 C 
BRANCH  13  14
ATOM     14  C   UNL     1       9.807  47.815  55.374  1.00  0.00     0.018 C 
ATOM     15  C   UNL     1      11.039  47.533  56.219  1.00  0.00     0.006 C 
ENDBRANCH  13  14
ENDBRANCH  11  13
ENDBRANCH   1  11
BRANCH   3  16
ATOM     16  N   UNL     1       4.478  47.375  53.178  1.00  0.00    -0.339 N 
ATOM     17  H   UNL     1       4.718  47.990  53.954  1.00  0.00     0.168 HD
BRANCH  16  18
ATOM     18  C   UNL     1       3.347  46.595  53.501  1.00  0.00     0.040 A 
ATOM     19  C   UNL     1       3.379  45.832  54.674  1.00  0.00     0.026 A 
ATOM     20  C   UNL     1       2.235  46.478  52.661  1.00  0.00     0.026 A 
ATOM     21  C   UNL     1       2.305  45.009  55.026  1.00  0.00     0.006 A 
ATOM     22  C   UNL     1       1.159  45.656  53.010  1.00  0.00     0.006 A 
ATOM     23  C   UNL     1       1.180  44.923  54.201  1.00  0.00    -0.048 A 
BRANCH  23  24
ATOM     24  C   UNL     1       0.027  44.023  54.568  1.00  0.00     0.032 C 
ATOM     25  C   UNL     1      -0.123  42.867  53.592  1.00  0.00     0.009 C 
ENDBRANCH  23  24
ENDBRANCH  16  18
ENDBRANCH   3  16
TORSDOF 6
ENDMDL
MODEL 8
REMARK VINA RESULT:    -8.007      2.546      7.070
REMARK INTER + INTRA:         -11.476
REMARK INTER:                 -11.000
REMARK INTRA:                  -0.477
REMARK UNBOUND:                -0.660
REMARK SMILES CCCNc1nc(Nc2ccc(CC)cc2)c2cnn(C)c2n1
REMARK SMILES IDX 5 1 6 2 7 3 17 4 18 5 19 6 20 7 21 8 22 9 23 10 4 11 3 13
REMARK SMILES IDX 2 14 1 15 8 16 9 18 10 19 16 20 11 21 15 22 12 23 13 24
REMARK SMILES IDX 14 25
REMARK H PARENT 4 12 8 17
ROOT
ATOM      1  C   UNL     1       6.096  46.917  54.209  1.00  0.00     0.226 A 
ATOM      2  N   UNL     1       5.870  46.429  52.974  1.00  0.00    -0.195 NA
ATOM      3  C   UNL     1       6.912  46.140  52.155  1.00  0.00     0.147 A 
ATOM      4  C   UNL     1       8.201  46.410  52.619  1.00  0.00     0.082 A 
ATOM      5  C   UNL     1       9.531  46.340  52.155  1.00  0.00     0.149 A 
ATOM      6  N   UNL     1      10.422  46.745  53.069  1.00  0.00    -0.179 NA
ATOM      7  N   UNL     1       9.647  47.088  54.124  1.00  0.00    -0.250 N 
ATOM      8  C   UNL     1      10.266  47.585  55.327  1.00  0.00     0.176 C 
ATOM      9  C   UNL     1       8.308  46.916  53.898  1.00  0.00     0.165 A 
ATOM     10  N   UNL     1       7.298  47.184  54.739  1.00  0.00    -0.193 NA
ENDROOT
BRANCH   1  11
ATOM     11  N   UNL     1       4.946  47.143  54.956  1.00  0.00    -0.354 N 
ATOM     12  H   UNL     1       5.186  46.890  55.909  1.00  0.00     0.163 HD
BRANCH  11  13
ATOM     13  C   UNL     1       3.748  46.514  54.429  1.00  0.00     0.116 C 
BRANCH  13  14
ATOM     14  C   UNL     1       3.393  45.305  55.296  1.00  0.00     0.018 C 
ATOM     15  C   UNL     1       1.920  44.946  55.179  1.00  0.00     0.006 C 
ENDBRANCH  13  14
ENDBRANCH  11  13
ENDBRANCH   1  11
BRANCH   3  16
ATOM     16  N   UNL     1       6.601  45.643  50.879  1.00  0.00    -0.339 N 
ATOM     17  H   UNL     1       6.183  46.413  50.361  1.00  0.00     0.168 HD
BRANCH  16  18
ATOM     18  C   UNL     1       5.956  44.428  50.562  1.00  0.00     0.040 A 
ATOM     19  C   UNL     1       4.718  44.158  51.158  1.00  0.00     0.026 A 
ATOM     20  C   UNL     1       6.534  43.445  49.753  1.00  0.00     0.026 A 
ATOM     21  C   UNL     1       4.049  42.955  50.913  1.00  0.00     0.006 A 
ATOM     22  C   UNL     1       5.868  42.240  49.506  1.00  0.00     0.006 A 
ATOM     23  C   UNL     1       4.615  41.989  50.075  1.00  0.00    -0.048 A 
BRANCH  23  24
ATOM     24  C   UNL     1       3.905  40.684  49.822  1.00  0.00     0.032 C 
ATOM     25  C   UNL     1       3.726  40.415  48.336  1.00  0.00     0.009 C 
ENDBRANCH  23  24
ENDBRANCH  16  18
ENDBRANCH   3  16
TORSDOF 6
ENDMDL
MODEL 9
REMARK VINA RESULT:    -7.994      2.325      6.918
REMARK INTER + INTRA:         -11.458
REMARK INTER:                 -10.887
REMARK INTRA:                  -0.571
REMARK UNBOUND:                -0.660
REMARK SMILES CCCNc1nc(Nc2ccc(CC)cc2)c2cnn(C)c2n1
REMARK SMILES IDX 5 1 6 2 7 3 17 4 18 5 19 6 20 7 21 8 22 9 23 10 4 11 3 13
REMARK SMILES IDX 2 14 1 15 8 16 9 18 10 19 16 20 11 21 15 22 12 23 13 24
REMARK SMILES IDX 14 25
REMARK H PARENT 4 12 8 17
ROOT
ATOM      1  C   UNL     1       8.038  47.170  52.449  1.00  0.00     0.226 A 
ATOM      2  N   UNL     1       6.846  47.509  52.977  1.00  0.00    -0.195 NA
ATOM      3  C   UNL     1       5.723  46.843  52.608  1.00  0.00     0.147 A 
ATOM      4  C   UNL     1       5.846  45.843  51.641  1.00  0.00     0.082 A 
ATOM      5  C   UNL     1       5.019  44.952  50.925  1.00  0.00     0.149 A 
ATOM      6  N   UNL     1       5.704  44.173  50.079  1.00  0.00    -0.179 NA
ATOM      7  N   UNL     1       6.983  44.583  50.249  1.00  0.00    -0.250 N 
ATOM      8  C   UNL     1       8.034  43.961  49.485  1.00  0.00     0.176 C 
ATOM      9  C   UNL     1       7.117  45.590  51.166  1.00  0.00     0.165 A 
ATOM     10  N   UNL     1       8.246  46.213  51.534  1.00  0.00    -0.193 NA
ENDROOT
BRANCH   1  11
ATOM     11  N   UNL     1       9.111  47.911  52.932  1.00  0.00    -0.354 N 
ATOM     12  H   UNL     1       9.563  48.300  52.111  1.00  0.00     0.163 HD
BRANCH  11  13
ATOM     13  C   UNL     1       9.985  47.189  53.839  1.00  0.00     0.116 C 
BRANCH  13  14
ATOM     14  C   UNL     1       9.743  47.681  55.267  1.00  0.00     0.018 C 
ATOM     15  C   UNL     1      11.008  47.601  56.107  1.00  0.00     0.006 C 
ENDBRANCH  13  14
ENDBRANCH  11  13
ENDBRANCH   1  11
BRANCH   3  16
ATOM     16  N   UNL     1       4.516  47.255  53.193  1.00  0.00    -0.339 N 
ATOM     17  H   UNL     1       4.763  47.863  53.973  1.00  0.00     0.168 HD
BRANCH  16  18
ATOM     18  C   UNL     1       3.403  46.454  53.528  1.00  0.00     0.040 A 
ATOM     19  C   UNL     1       2.296  46.462  52.672  1.00  0.00     0.026 A 
ATOM     20  C   UNL     1       3.318  45.723  54.718  1.00  0.00     0.026 A 
ATOM     21  C   UNL     1       1.150  45.719  52.970  1.00  0.00     0.006 A 
ATOM     22  C   UNL     1       2.174  44.979  55.020  1.00  0.00     0.006 A 
ATOM     23  C   UNL     1       1.084  44.962  54.144  1.00  0.00    -0.048 A 
BRANCH  23  24
ATOM     24  C   UNL     1      -0.157  44.174  54.479  1.00  0.00     0.032 C 
ATOM     25  C   UNL     1      -0.187  42.832  53.763  1.00  0.00     0.009 C 
ENDBRANCH  23  24
ENDBRANCH  16  18
ENDBRANCH   3  16
TORSDOF 6
ENDMDL
MODEL 10
REMARK VINA RESULT:    -7.889      2.197      4.696
REMARK INTER + INTRA:         -11.316
REMARK INTER:                 -10.634
REMARK INTRA:                  -0.682
REMARK UNBOUND:                -0.660
REMARK SMILES CCCNc1nc(Nc2ccc(CC)cc2)c2cnn(C)c2n1
REMARK SMILES IDX 5 1 6 2 7 3 17 4 18 5 19 6 20 7 21 8 22 9 23 10 4 11 3 13
REMARK SMILES IDX 2 14 1 15 8 16 9 18 10 19 16 20 11 21 15 22 12 23 13 24
REMARK SMILES IDX 14 25
REMARK H PARENT 4 12 8 17
ROOT
ATOM      1  C   UNL     1       1.989  45.196  55.046  1.00  0.00     0.226 A 
ATOM      2  N   UNL     1       2.792  45.960  54.281  1.00  0.00    -0.195 NA
ATOM      3  C   UNL     1       2.873  45.738  52.945  1.00  0.00     0.147 A 
ATOM      4  C   UNL     1       2.140  44.674  52.415  1.00  0.00     0.082 A 
ATOM      5  C   UNL     1       1.942  44.038  51.172  1.00  0.00     0.149 A 
ATOM      6  N   UNL     1       1.085  43.012  51.244  1.00  0.00    -0.179 NA
ATOM      7  N   UNL     1       0.743  42.987  52.553  1.00  0.00    -0.250 N 
ATOM      8  C   UNL     1      -0.185  41.991  53.024  1.00  0.00     0.176 C 
ATOM      9  C   UNL     1       1.359  43.956  53.298  1.00  0.00     0.165 A 
ATOM     10  N   UNL     1       1.238  44.172  54.615  1.00  0.00    -0.193 NA
ENDROOT
BRANCH   1  11
ATOM     11  N   UNL     1       1.975  45.545  56.392  1.00  0.00    -0.354 N 
ATOM     12  H   UNL     1       2.827  45.155  56.781  1.00  0.00     0.163 HD
BRANCH  11  13
ATOM     13  C   UNL     1       0.753  45.197  57.095  1.00  0.00     0.116 C 
BRANCH  13  14
ATOM     14  C   UNL     1       0.105  46.472  57.636  1.00  0.00     0.018 C 
ATOM     15  C   UNL     1       0.924  47.082  58.762  1.00  0.00     0.006 C 
ENDBRANCH  13  14
ENDBRANCH  11  13
ENDBRANCH   1  11
BRANCH   3  16
ATOM     16  N   UNL     1       3.737  46.567  52.212  1.00  0.00    -0.339 N 
ATOM     17  H   UNL     1       3.336  46.653  51.279  1.00  0.00     0.168 HD
BRANCH  16  18
ATOM     18  C   UNL     1       5.144  46.494  52.137  1.00  0.00     0.040 A 
ATOM     19  C   UNL     1       5.898  47.237  53.053  1.00  0.00     0.026 A 
ATOM     20  C   UNL     1       5.820  45.787  51.138  1.00  0.00     0.026 A 
ATOM     21  C   UNL     1       7.295  47.235  53.004  1.00  0.00     0.006 A 
ATOM     22  C   UNL     1       7.217  45.782  51.085  1.00  0.00     0.006 A 
ATOM     23  C   UNL     1       7.967  46.498  52.024  1.00  0.00    -0.048 A 
BRANCH  23  24
ATOM     24  C   UNL     1       9.473  46.507  51.957  1.00  0.00     0.032 C 
ATOM     25  C   UNL     1      10.098  46.909  53.284  1.00  0.00     0.009 C 
ENDBRANCH  23  24
ENDBRANCH  16  18
ENDBRANCH   3  16
TORSDOF 6
ENDMDL
MODEL 11
REMARK VINA RESULT:    -7.869      2.359      4.449
REMARK INTER + INTRA:         -11.290
REMARK INTER:                 -10.446
REMARK INTRA:                  -0.844
REMARK UNBOUND:                -0.660
REMARK SMILES CCCNc1nc(Nc2ccc(CC)cc2)c2cnn(C)c2n1
REMARK SMILES IDX 5 1 6 2 7 3 17 4 18 5 19 6 20 7 21 8 22 9 23 10 4 11 3 13
REMARK SMILES IDX 2 14 1 15 8 16 9 18 10 19 16 20 11 21 15 22 12 23 13 24
REMARK SMILES IDX 14 25
REMARK H PARENT 4 12 8 17
ROOT
ATOM      1  C   UNL     1       2.083  45.031  55.152  1.00  0.00     0.226 A 
ATOM      2  N   UNL     1       2.535  44.767  53.912  1.00  0.00    -0.195 NA
ATOM      3  C   UNL     1       1.713  44.201  52.993  1.00  0.00     0.147 A 
ATOM      4  C   UNL     1       0.418  43.866  53.395  1.00  0.00     0.082 A 
ATOM      5  C   UNL     1      -0.731  43.247  52.862  1.00  0.00     0.149 A 
ATOM      6  N   UNL     1      -1.743  43.187  53.737  1.00  0.00    -0.179 NA
ATOM      7  N   UNL     1      -1.226  43.765  54.846  1.00  0.00    -0.250 N 
ATOM      8  C   UNL     1      -2.040  43.884  56.029  1.00  0.00     0.176 C 
ATOM      9  C   UNL     1       0.070  44.177  54.694  1.00  0.00     0.165 A 
ATOM     10  N   UNL     1       0.853  44.762  55.612  1.00  0.00    -0.193 NA
ENDROOT
BRANCH   1  11
ATOM     11  N   UNL     1       3.016  45.637  55.987  1.00  0.00    -0.354 N 
ATOM     12  H   UNL     1       2.497  46.330  56.515  1.00  0.00     0.163 HD
BRANCH  11  13
ATOM     13  C   UNL     1       4.203  46.130  55.310  1.00  0.00     0.116 C 
BRANCH  13  14
ATOM     14  C   UNL     1       5.306  45.075  55.398  1.00  0.00     0.018 C 
ATOM     15  C   UNL     1       6.214  45.112  54.179  1.00  0.00     0.006 C 
ENDBRANCH  13  14
ENDBRANCH  11  13
ENDBRANCH   1  11
BRANCH   3  16
ATOM     16  N   UNL     1       2.254  43.946  51.723  1.00  0.00    -0.339 N 
ATOM     17  H   UNL     1       1.984  42.995  51.477  1.00  0.00     0.168 HD
BRANCH  16  18
ATOM     18  C   UNL     1       3.565  44.216  51.276  1.00  0.00     0.040 A 
ATOM     19  C   UNL     1       4.474  43.154  51.200  1.00  0.00     0.026 A 
ATOM     20  C   UNL     1       4.025  45.506  50.992  1.00  0.00     0.026 A 
ATOM     21  C   UNL     1       5.797  43.367  50.802  1.00  0.00     0.006 A 
ATOM     22  C   UNL     1       5.348  45.723  50.593  1.00  0.00     0.006 A 
ATOM     23  C   UNL     1       6.243  44.653  50.484  1.00  0.00    -0.048 A 
BRANCH  23  24
ATOM     24  C   UNL     1       7.673  44.890  50.072  1.00  0.00     0.032 C 
ATOM     25  C   UNL     1       8.141  43.873  49.042  1.00  0.00     0.009 C 
ENDBRANCH  23  24
ENDBRANCH  16  18
ENDBRANCH   3  16
TORSDOF 6
ENDMDL
MODEL 12
REMARK VINA RESULT:    -7.853      2.830      7.166
REMARK INTER + INTRA:         -11.267
REMARK INTER:                 -10.622
REMARK INTRA:                  -0.646
REMARK UNBOUND:                -0.660
REMARK SMILES CCCNc1nc(Nc2ccc(CC)cc2)c2cnn(C)c2n1
REMARK SMILES IDX 5 1 6 2 7 3 17 4 18 5 19 6 20 7 21 8 22 9 23 10 4 11 3 13
REMARK SMILES IDX 2 14 1 15 8 16 9 18 10 19 16 20 11 21 15 22 12 23 13 24
REMARK SMILES IDX 14 25
REMARK H PARENT 4 12 8 17
ROOT
ATOM      1  C   UNL     1       6.826  44.935  50.756  1.00  0.00     0.226 A 
ATOM      2  N   UNL     1       6.934  43.897  49.904  1.00  0.00    -0.195 NA
ATOM      3  C   UNL     1       6.015  42.900  49.925  1.00  0.00     0.147 A 
ATOM      4  C   UNL     1       4.999  42.969  50.881  1.00  0.00     0.082 A 
ATOM      5  C   UNL     1       3.901  42.200  51.319  1.00  0.00     0.149 A 
ATOM      6  N   UNL     1       3.231  42.776  52.325  1.00  0.00    -0.179 NA
ATOM      7  N   UNL     1       3.920  43.921  52.538  1.00  0.00    -0.250 N 
ATOM      8  C   UNL     1       3.489  44.826  53.573  1.00  0.00     0.176 C 
ATOM      9  C   UNL     1       4.995  44.075  51.706  1.00  0.00     0.165 A 
ATOM     10  N   UNL     1       5.873  45.088  51.687  1.00  0.00    -0.193 NA
ENDROOT
BRANCH   1  11
ATOM     11  N   UNL     1       7.815  45.901  50.612  1.00  0.00    -0.354 N 
ATOM     12  H   UNL     1       8.621  45.411  50.241  1.00  0.00     0.163 HD
BRANCH  11  13
ATOM     13  C   UNL     1       8.063  46.695  51.803  1.00  0.00     0.116 C 
BRANCH  13  14
ATOM     14  C   UNL     1       9.571  46.795  52.034  1.00  0.00     0.018 C 
ATOM     15  C   UNL     1       9.893  47.167  53.472  1.00  0.00     0.006 C 
ENDBRANCH  13  14
ENDBRANCH  11  13
ENDBRANCH   1  11
BRANCH   3  16
ATOM     16  N   UNL     1       6.195  41.847  49.014  1.00  0.00    -0.339 N 
ATOM     17  H   UNL     1       7.186  41.835  48.775  1.00  0.00     0.168 HD
BRANCH  16  18
ATOM     18  C   UNL     1       5.412  41.546  47.879  1.00  0.00     0.040 A 
ATOM     19  C   UNL     1       4.271  40.753  48.049  1.00  0.00     0.026 A 
ATOM     20  C   UNL     1       5.770  41.927  46.582  1.00  0.00     0.026 A 
ATOM     21  C   UNL     1       3.478  40.390  46.957  1.00  0.00     0.006 A 
ATOM     22  C   UNL     1       4.980  41.566  45.486  1.00  0.00     0.006 A 
ATOM     23  C   UNL     1       3.821  40.803  45.665  1.00  0.00    -0.048 A 
BRANCH  23  24
ATOM     24  C   UNL     1       2.979  40.399  44.482  1.00  0.00     0.032 C 
ATOM     25  C   UNL     1       1.605  41.049  44.516  1.00  0.00     0.009 C 
ENDBRANCH  23  24
ENDBRANCH  16  18
ENDBRANCH   3  16
TORSDOF 6
ENDMDL
MODEL 13
REMARK VINA RESULT:    -7.843      2.275      3.350
REMARK INTER + INTRA:         -11.254
REMARK INTER:                 -10.245
REMARK INTRA:                  -1.009
REMARK UNBOUND:                -0.660
REMARK SMILES CCCNc1nc(Nc2ccc(CC)cc2)c2cnn(C)c2n1
REMARK SMILES IDX 5 1 6 2 7 3 17 4 18 5 19 6 20 7 21 8 22 9 23 10 4 11 3 13
REMARK SMILES IDX 2 14 1 15 8 16 9 18 10 19 16 20 11 21 15 22 12 23 13 24
REMARK SMILES IDX 14 25
REMARK H PARENT 4 12 8 17
ROOT
ATOM      1  C   UNL     1       1.377  43.888  53.785  1.00  0.00     0.226 A 
ATOM      2  N   UNL     1       2.454  44.586  54.194  1.00  0.00    -0.195 NA
ATOM      3  C   UNL     1       2.413  45.282  55.358  1.00  0.00     0.147 A 
ATOM      4  C   UNL     1       1.215  45.284  56.075  1.00  0.00     0.082 A 
ATOM      5  C   UNL     1       0.680  45.863  57.244  1.00  0.00     0.149 A 
ATOM      6  N   UNL     1      -0.590  45.500  57.470  1.00  0.00    -0.179 NA
ATOM      7  N   UNL     1      -0.869  44.690  56.423  1.00  0.00    -0.250 N 
ATOM      8  C   UNL     1      -2.177  44.094  56.317  1.00  0.00     0.176 C 
ATOM      9  C   UNL     1       0.177  44.539  55.554  1.00  0.00     0.165 A 
ATOM     10  N   UNL     1       0.199  43.819  54.422  1.00  0.00    -0.193 NA
ENDROOT
BRANCH   1  11
ATOM     11  N   UNL     1       1.559  43.197  52.592  1.00  0.00    -0.354 N 
ATOM     12  H   UNL     1       0.818  42.505  52.564  1.00  0.00     0.163 HD
BRANCH  11  13
ATOM     13  C   UNL     1       2.901  42.680  52.392  1.00  0.00     0.116 C 
BRANCH  13  14
ATOM     14  C   UNL     1       3.546  43.400  51.207  1.00  0.00     0.018 C 
ATOM     15  C   UNL     1       4.933  43.917  51.555  1.00  0.00     0.006 C 
ENDBRANCH  13  14
ENDBRANCH  11  13
ENDBRANCH   1  11
BRANCH   3  16
ATOM     16  N   UNL     1       3.569  45.993  55.717  1.00  0.00    -0.339 N 
ATOM     17  H   UNL     1       3.255  46.859  56.152  1.00  0.00     0.168 HD
BRANCH  16  18
ATOM     18  C   UNL     1       4.716  46.227  54.928  1.00  0.00     0.040 A 
ATOM     19  C   UNL     1       4.669  47.250  53.974  1.00  0.00     0.026 A 
ATOM     20  C   UNL     1       5.862  45.429  54.992  1.00  0.00     0.026 A 
ATOM     21  C   UNL     1       5.759  47.503  53.137  1.00  0.00     0.006 A 
ATOM     22  C   UNL     1       6.955  45.679  54.156  1.00  0.00     0.006 A 
ATOM     23  C   UNL     1       6.917  46.725  53.229  1.00  0.00    -0.048 A 
BRANCH  23  24
ATOM     24  C   UNL     1       8.089  46.983  52.316  1.00  0.00     0.032 C 
ATOM     25  C   UNL     1       9.390  47.129  53.090  1.00  0.00     0.009 C 
ENDBRANCH  23  24
ENDBRANCH  16  18
ENDBRANCH   3  16
TORSDOF 6
ENDMDL
MODEL 14
REMARK VINA RESULT:    -7.688      1.969      6.132
REMARK INTER + INTRA:         -11.044
REMARK INTER:                 -10.296
REMARK INTRA:                  -0.749
REMARK UNBOUND:                -0.660
REMARK SMILES CCCNc1nc(Nc2ccc(CC)cc2)c2cnn(C)c2n1
REMARK SMILES IDX 5 1 6 2 7 3 17 4 18 5 19 6 20 7 21 8 22 9 23 10 4 11 3 13
REMARK SMILES IDX 2 14 1 15 8 16 9 18 10 19 16 20 11 21 15 22 12 23 13 24
REMARK SMILES IDX 14 25
REMARK H PARENT 4 12 8 17
ROOT
ATOM      1  C   UNL     1       7.007  45.674  50.998  1.00  0.00     0.226 A 
ATOM      2  N   UNL     1       5.982  46.317  51.589  1.00  0.00    -0.195 NA
ATOM      3  C   UNL     1       4.810  45.670  51.812  1.00  0.00     0.147 A 
ATOM      4  C   UNL     1       4.698  44.351  51.367  1.00  0.00     0.082 A 
ATOM      5  C   UNL     1       3.729  43.328  51.315  1.00  0.00     0.149 A 
ATOM      6  N   UNL     1       4.189  42.204  50.752  1.00  0.00    -0.179 NA
ATOM      7  N   UNL     1       5.465  42.521  50.430  1.00  0.00    -0.250 N 
ATOM      8  C   UNL     1       6.299  41.537  49.787  1.00  0.00     0.176 C 
ATOM      9  C   UNL     1       5.813  43.801  50.768  1.00  0.00     0.165 A 
ATOM     10  N   UNL     1       6.991  44.407  50.561  1.00  0.00    -0.193 NA
ENDROOT
BRANCH   1  11
ATOM     11  N   UNL     1       8.159  46.440  50.854  1.00  0.00    -0.354 N 
ATOM     12  H   UNL     1       8.879  45.793  50.553  1.00  0.00     0.163 HD
BRANCH  11  13
ATOM     13  C   UNL     1       8.495  47.250  52.011  1.00  0.00     0.116 C 
BRANCH  13  14
ATOM     14  C   UNL     1       9.760  46.692  52.665  1.00  0.00     0.018 C 
ATOM     15  C   UNL     1       9.927  47.205  54.086  1.00  0.00     0.006 C 
ENDBRANCH  13  14
ENDBRANCH  11  13
ENDBRANCH   1  11
BRANCH   3  16
ATOM     16  N   UNL     1       3.783  46.405  52.425  1.00  0.00    -0.339 N 
ATOM     17  H   UNL     1       4.120  47.363  52.508  1.00  0.00     0.168 HD
BRANCH  16  18
ATOM     18  C   UNL     1       3.031  46.048  53.564  1.00  0.00     0.040 A 
ATOM     19  C   UNL     1       1.681  45.717  53.393  1.00  0.00     0.026 A 
ATOM     20  C   UNL     1       3.544  46.096  54.864  1.00  0.00     0.026 A 
ATOM     21  C   UNL     1       0.875  45.393  54.488  1.00  0.00     0.006 A 
ATOM     22  C   UNL     1       2.741  45.772  55.962  1.00  0.00     0.006 A 
ATOM     23  C   UNL     1       1.403  45.408  55.783  1.00  0.00    -0.048 A 
BRANCH  23  24
ATOM     24  C   UNL     1       0.533  45.076  56.969  1.00  0.00     0.032 C 
ATOM     25  C   UNL     1      -0.946  45.128  56.619  1.00  0.00     0.009 C 
ENDBRANCH  23  24
ENDBRANCH  16  18
ENDBRANCH   3  16
TORSDOF 6
ENDMDL
MODEL 15
REMARK VINA RESULT:    -7.653      2.068      4.724
REMARK INTER + INTRA:         -10.997
REMARK INTER:                 -10.242
REMARK INTRA:                  -0.755
REMARK UNBOUND:                -0.660
REMARK SMILES CCCNc1nc(Nc2ccc(CC)cc2)c2cnn(C)c2n1
REMARK SMILES IDX 5 1 6 2 7 3 17 4 18 5 19 6 20 7 21 8 22 9 23 10 4 11 3 13
REMARK SMILES IDX 2 14 1 15 8 16 9 18 10 19 16 20 11 21 15 22 12 23 13 24
REMARK SMILES IDX 14 25
REMARK H PARENT 4 12 8 17
ROOT
ATOM      1  C   UNL     1       0.954  45.057  54.318  1.00  0.00     0.226 A 
ATOM      2  N   UNL     1       2.278  44.837  54.426  1.00  0.00    -0.195 NA
ATOM      3  C   UNL     1       2.946  44.194  53.436  1.00  0.00     0.147 A 
ATOM      4  C   UNL     1       2.207  43.736  52.342  1.00  0.00     0.082 A 
ATOM      5  C   UNL     1       2.415  43.009  51.152  1.00  0.00     0.149 A 
ATOM      6  N   UNL     1       1.294  42.852  50.436  1.00  0.00    -0.179 NA
ATOM      7  N   UNL     1       0.359  43.478  51.188  1.00  0.00    -0.250 N 
ATOM      8  C   UNL     1      -1.007  43.518  50.730  1.00  0.00     0.176 C 
ATOM      9  C   UNL     1       0.855  44.013  52.345  1.00  0.00     0.165 A 
ATOM     10  N   UNL     1       0.176  44.671  53.296  1.00  0.00    -0.193 NA
ENDROOT
BRANCH   1  11
ATOM     11  N   UNL     1       0.397  45.750  55.387  1.00  0.00    -0.354 N 
ATOM     12  H   UNL     1       0.995  46.558  55.527  1.00  0.00     0.163 HD
BRANCH  11  13
ATOM     13  C   UNL     1       0.154  44.944  56.570  1.00  0.00     0.116 C 
BRANCH  13  14
ATOM     14  C   UNL     1      -1.346  44.924  56.864  1.00  0.00     0.018 C 
ATOM     15  C   UNL     1      -2.050  43.812  56.102  1.00  0.00     0.006 C 
ENDBRANCH  13  14
ENDBRANCH  11  13
ENDBRANCH   1  11
BRANCH   3  16
ATOM     16  N   UNL     1       4.323  43.993  53.621  1.00  0.00    -0.339 N 
ATOM     17  H   UNL     1       4.445  43.685  54.584  1.00  0.00     0.168 HD
BRANCH  16  18
ATOM     18  C   UNL     1       5.377  44.850  53.240  1.00  0.00     0.040 A 
ATOM     19  C   UNL     1       5.744  44.895  51.890  1.00  0.00     0.026 A 
ATOM     20  C   UNL     1       6.131  45.588  54.159  1.00  0.00     0.026 A 
ATOM     21  C   UNL     1       6.806  45.695  51.459  1.00  0.00     0.006 A 
ATOM     22  C   UNL     1       7.193  46.390  53.732  1.00  0.00     0.006 A 
ATOM     23  C   UNL     1       7.534  46.459  52.377  1.00  0.00    -0.048 A 
BRANCH  23  24
ATOM     24  C   UNL     1       8.691  47.310  51.919  1.00  0.00     0.032 C 
ATOM     25  C   UNL     1      10.029  46.714  52.327  1.00  0.00     0.009 C 
ENDBRANCH  23  24
ENDBRANCH  16  18
ENDBRANCH   3  16
TORSDOF 6
ENDMDL
MODEL 16
REMARK VINA RESULT:    -7.494      2.019      6.347
REMARK INTER + INTRA:         -10.783
REMARK INTER:                 -10.103
REMARK INTRA:                  -0.680
REMARK UNBOUND:                -0.660
REMARK SMILES CCCNc1nc(Nc2ccc(CC)cc2)c2cnn(C)c2n1
REMARK SMILES IDX 5 1 6 2 7 3 17 4 18 5 19 6 20 7 21 8 22 9 23 10 4 11 3 13
REMARK SMILES IDX 2 14 1 15 8 16 9 18 10 19 16 20 11 21 15 22 12 23 13 24
REMARK SMILES IDX 14 25
REMARK H PARENT 4 12 8 17
ROOT
ATOM      1  C   UNL     1       7.480  45.594  50.713  1.00  0.00     0.226 A 
ATOM      2  N   UNL     1       6.145  45.717  50.843  1.00  0.00    -0.195 NA
ATOM      3  C   UNL     1       5.617  46.254  51.972  1.00  0.00     0.147 A 
ATOM      4  C   UNL     1       6.497  46.622  52.992  1.00  0.00     0.082 A 
ATOM      5  C   UNL     1       6.444  47.143  54.301  1.00  0.00     0.149 A 
ATOM      6  N   UNL     1       7.656  47.309  54.845  1.00  0.00    -0.179 NA
ATOM      7  N   UNL     1       8.491  46.874  53.872  1.00  0.00    -0.250 N 
ATOM      8  C   UNL     1       9.915  46.898  54.098  1.00  0.00     0.176 C 
ATOM      9  C   UNL     1       7.843  46.442  52.748  1.00  0.00     0.165 A 
ATOM     10  N   UNL     1       8.393  45.941  51.632  1.00  0.00    -0.193 NA
ENDROOT
BRANCH   1  11
ATOM     11  N   UNL     1       7.891  45.055  49.499  1.00  0.00    -0.354 N 
ATOM     12  H   UNL     1       7.254  45.432  48.805  1.00  0.00     0.163 HD
BRANCH  11  13
ATOM     13  C   UNL     1       8.031  43.610  49.494  1.00  0.00     0.116 C 
BRANCH  13  14
ATOM     14  C   UNL     1       6.712  42.979  49.045  1.00  0.00     0.018 C 
ATOM     15  C   UNL     1       6.277  41.865  49.983  1.00  0.00     0.006 C 
ENDBRANCH  13  14
ENDBRANCH  11  13
ENDBRANCH   1  11
BRANCH   3  16
ATOM     16  N   UNL     1       4.218  46.344  52.041  1.00  0.00    -0.339 N 
ATOM     17  H   UNL     1       4.007  47.193  52.562  1.00  0.00     0.168 HD
BRANCH  16  18
ATOM     18  C   UNL     1       3.306  45.321  52.377  1.00  0.00     0.040 A 
ATOM     19  C   UNL     1       2.177  45.659  53.134  1.00  0.00     0.026 A 
ATOM     20  C   UNL     1       3.520  43.974  52.068  1.00  0.00     0.026 A 
ATOM     21  C   UNL     1       1.259  44.683  53.531  1.00  0.00     0.006 A 
ATOM     22  C   UNL     1       2.603  42.995  52.463  1.00  0.00     0.006 A 
ATOM     23  C   UNL     1       1.459  43.342  53.188  1.00  0.00    -0.048 A 
BRANCH  23  24
ATOM     24  C   UNL     1       0.480  42.283  53.629  1.00  0.00     0.032 C 
ATOM     25  C   UNL     1      -0.606  42.048  52.590  1.00  0.00     0.009 C 
ENDBRANCH  23  24
ENDBRANCH  16  18
ENDBRANCH   3  16
TORSDOF 6
ENDMDL
MODEL 17
REMARK VINA RESULT:    -7.468      2.058      7.336
REMARK INTER + INTRA:         -10.749
REMARK INTER:                 -10.053
REMARK INTRA:                  -0.695
REMARK UNBOUND:                -0.660
REMARK SMILES CCCNc1nc(Nc2ccc(CC)cc2)c2cnn(C)c2n1
REMARK SMILES IDX 5 1 6 2 7 3 17 4 18 5 19 6 20 7 21 8 22 9 23 10 4 11 3 13
REMARK SMILES IDX 2 14 1 15 8 16 9 18 10 19 16 20 11 21 15 22 12 23 13 24
REMARK SMILES IDX 14 25
REMARK H PARENT 4 12 8 17
ROOT
ATOM      1  C   UNL     1       6.070  45.812  52.224  1.00  0.00     0.226 A 
ATOM      2  N   UNL     1       5.047  45.155  52.802  1.00  0.00    -0.195 NA
ATOM      3  C   UNL     1       4.682  43.929  52.349  1.00  0.00     0.147 A 
ATOM      4  C   UNL     1       5.368  43.410  51.249  1.00  0.00     0.082 A 
ATOM      5  C   UNL     1       5.333  42.270  50.420  1.00  0.00     0.149 A 
ATOM      6  N   UNL     1       6.274  42.291  49.467  1.00  0.00    -0.179 NA
ATOM      7  N   UNL     1       6.907  43.467  49.686  1.00  0.00    -0.250 N 
ATOM      8  C   UNL     1       8.006  43.849  48.836  1.00  0.00     0.176 C 
ATOM      9  C   UNL     1       6.393  44.178  50.736  1.00  0.00     0.165 A 
ATOM     10  N   UNL     1       6.792  45.378  51.182  1.00  0.00    -0.193 NA
ENDROOT
BRANCH   1  11
ATOM     11  N   UNL     1       6.359  47.044  52.801  1.00  0.00    -0.354 N 
ATOM     12  H   UNL     1       5.510  47.592  52.712  1.00  0.00     0.163 HD
BRANCH  11  13
ATOM     13  C   UNL     1       7.564  47.679  52.298  1.00  0.00     0.116 C 
BRANCH  13  14
ATOM     14  C   UNL     1       8.655  47.604  53.367  1.00  0.00     0.018 C 
ATOM     15  C   UNL     1       9.868  46.831  52.874  1.00  0.00     0.006 C 
ENDBRANCH  13  14
ENDBRANCH  11  13
ENDBRANCH   1  11
BRANCH   3  16
ATOM     16  N   UNL     1       3.602  43.306  52.994  1.00  0.00    -0.339 N 
ATOM     17  H   UNL     1       3.935  42.396  53.307  1.00  0.00     0.168 HD
BRANCH  16  18
ATOM     18  C   UNL     1       2.268  43.212  52.543  1.00  0.00     0.040 A 
ATOM     19  C   UNL     1       1.301  42.714  53.425  1.00  0.00     0.026 A 
ATOM     20  C   UNL     1       1.882  43.507  51.232  1.00  0.00     0.026 A 
ATOM     21  C   UNL     1      -0.029  42.561  53.023  1.00  0.00     0.006 A 
ATOM     22  C   UNL     1       0.553  43.356  50.825  1.00  0.00     0.006 A 
ATOM     23  C   UNL     1      -0.417  42.891  51.720  1.00  0.00    -0.048 A 
BRANCH  23  24
ATOM     24  C   UNL     1      -1.846  42.711  51.277  1.00  0.00     0.032 C 
ATOM     25  C   UNL     1      -2.064  43.202  49.855  1.00  0.00     0.009 C 
ENDBRANCH  23  24
ENDBRANCH  16  18
ENDBRANCH   3  16
TORSDOF 6
ENDMDL
MODEL 18
REMARK VINA RESULT:    -7.462      2.259      6.250
REMARK INTER + INTRA:         -10.741
REMARK INTER:                 -10.081
REMARK INTRA:                  -0.659
REMARK UNBOUND:                -0.660
REMARK SMILES CCCNc1nc(Nc2ccc(CC)cc2)c2cnn(C)c2n1
REMARK SMILES IDX 5 1 6 2 7 3 17 4 18 5 19 6 20 7 21 8 22 9 23 10 4 11 3 13
REMARK SMILES IDX 2 14 1 15 8 16 9 18 10 19 16 20 11 21 15 22 12 23 13 24
REMARK SMILES IDX 14 25
REMARK H PARENT 4 12 8 17
ROOT
ATOM      1  C   UNL     1       6.423  44.942  50.762  1.00  0.00     0.226 A 
ATOM      2  N   UNL     1       5.472  45.593  51.460  1.00  0.00    -0.195 NA
ATOM      3  C   UNL     1       5.816  46.589  52.314  1.00  0.00     0.147 A 
ATOM      4  C   UNL     1       7.174  46.873  52.472  1.00  0.00     0.082 A 
ATOM      5  C   UNL     1       7.996  47.728  53.234  1.00  0.00     0.149 A 
ATOM      6  N   UNL     1       9.299  47.571  52.966  1.00  0.00    -0.179 NA
ATOM      7  N   UNL     1       9.305  46.594  52.030  1.00  0.00    -0.250 N 
ATOM      8  C   UNL     1      10.561  46.141  51.487  1.00  0.00     0.176 C 
ATOM      9  C   UNL     1       8.056  46.135  51.710  1.00  0.00     0.165 A 
ATOM     10  N   UNL     1       7.743  45.166  50.838  1.00  0.00    -0.193 NA
ENDROOT
BRANCH   1  11
ATOM     11  N   UNL     1       5.936  43.964  49.902  1.00  0.00    -0.354 N 
ATOM     12  H   UNL     1       5.116  43.583  50.362  1.00  0.00     0.163 HD
BRANCH  11  13
ATOM     13  C   UNL     1       6.922  42.986  49.478  1.00  0.00     0.116 C 
BRANCH  13  14
ATOM     14  C   UNL     1       6.493  41.599  49.959  1.00  0.00     0.018 C 
ATOM     15  C   UNL     1       5.010  41.557  50.291  1.00  0.00     0.006 C 
ENDBRANCH  13  14
ENDBRANCH  11  13
ENDBRANCH   1  11
BRANCH   3  16
ATOM     16  N   UNL     1       4.773  47.217  53.014  1.00  0.00    -0.339 N 
ATOM     17  H   UNL     1       5.210  47.794  53.731  1.00  0.00     0.168 HD
BRANCH  16  18
ATOM     18  C   UNL     1       3.591  46.627  53.510  1.00  0.00     0.040 A 
ATOM     19  C   UNL     1       3.599  46.117  54.814  1.00  0.00     0.026 A 
ATOM     20  C   UNL     1       2.443  46.447  52.732  1.00  0.00     0.026 A 
ATOM     21  C   UNL     1       2.471  45.486  55.346  1.00  0.00     0.006 A 
ATOM     22  C   UNL     1       1.312  45.817  53.262  1.00  0.00     0.006 A 
ATOM     23  C   UNL     1       1.313  45.340  54.577  1.00  0.00    -0.048 A 
BRANCH  23  24
ATOM     24  C   UNL     1       0.100  44.645  55.141  1.00  0.00     0.032 C 
ATOM     25  C   UNL     1      -0.144  45.021  56.594  1.00  0.00     0.009 C 
ENDBRANCH  23  24
ENDBRANCH  16  18
ENDBRANCH   3  16
TORSDOF 6
ENDMDL
MODEL 19
REMARK VINA RESULT:    -7.447      1.611      6.606
REMARK INTER + INTRA:         -10.720
REMARK INTER:                 -10.079
REMARK INTRA:                  -0.641
REMARK UNBOUND:                -0.660
REMARK SMILES CCCNc1nc(Nc2ccc(CC)cc2)c2cnn(C)c2n1
REMARK SMILES IDX 5 1 6 2 7 3 17 4 18 5 19 6 20 7 21 8 22 9 23 10 4 11 3 13
REMARK SMILES IDX 2 14 1 15 8 16 9 18 10 19 16 20 11 21 15 22 12 23 13 24
REMARK SMILES IDX 14 25
REMARK H PARENT 4 12 8 17
ROOT
ATOM      1  C   UNL     1       6.667  45.356  51.094  1.00  0.00     0.226 A 
ATOM      2  N   UNL     1       5.772  45.772  52.010  1.00  0.00    -0.195 NA
ATOM      3  C   UNL     1       4.756  44.957  52.389  1.00  0.00     0.147 A 
ATOM      4  C   UNL     1       4.652  43.712  51.766  1.00  0.00     0.082 A 
ATOM      5  C   UNL     1       3.794  42.592  51.771  1.00  0.00     0.149 A 
ATOM      6  N   UNL     1       4.194  41.627  50.933  1.00  0.00    -0.179 NA
ATOM      7  N   UNL     1       5.314  42.146  50.378  1.00  0.00    -0.250 N 
ATOM      8  C   UNL     1       6.042  41.378  49.400  1.00  0.00     0.176 C 
ATOM      9  C   UNL     1       5.623  43.398  50.837  1.00  0.00     0.165 A 
ATOM     10  N   UNL     1       6.652  44.172  50.465  1.00  0.00    -0.193 NA
ENDROOT
BRANCH   1  11
ATOM     11  N   UNL     1       7.673  46.275  50.815  1.00  0.00    -0.354 N 
ATOM     12  H   UNL     1       8.410  45.741  50.365  1.00  0.00     0.163 HD
BRANCH  11  13
ATOM     13  C   UNL     1       8.091  47.077  51.951  1.00  0.00     0.116 C 
BRANCH  13  14
ATOM     14  C   UNL     1       9.557  46.775  52.267  1.00  0.00     0.018 C 
ATOM     15  C   UNL     1       9.924  47.203  53.679  1.00  0.00     0.006 C 
ENDBRANCH  13  14
ENDBRANCH  11  13
ENDBRANCH   1  11
BRANCH   3  16
ATOM     16  N   UNL     1       3.856  45.461  53.342  1.00  0.00    -0.339 N 
ATOM     17  H   UNL     1       4.276  45.293  54.255  1.00  0.00     0.168 HD
BRANCH  16  18
ATOM     18  C   UNL     1       2.460  45.261  53.398  1.00  0.00     0.040 A 
ATOM     19  C   UNL     1       1.931  44.566  54.492  1.00  0.00     0.026 A 
ATOM     20  C   UNL     1       1.592  45.645  52.371  1.00  0.00     0.026 A 
ATOM     21  C   UNL     1       0.561  44.304  54.583  1.00  0.00     0.006 A 
ATOM     22  C   UNL     1       0.221  45.384  52.459  1.00  0.00     0.006 A 
ATOM     23  C   UNL     1      -0.308  44.721  53.571  1.00  0.00    -0.048 A 
BRANCH  23  24
ATOM     24  C   UNL     1      -1.783  44.425  53.657  1.00  0.00     0.032 C 
ATOM     25  C   UNL     1      -2.269  44.374  55.097  1.00  0.00     0.009 C 
ENDBRANCH  23  24
ENDBRANCH  16  18
ENDBRANCH   3  16
TORSDOF 6
ENDMDL
MODEL 20
REMARK VINA RESULT:    -7.165      2.193      3.948
REMARK INTER + INTRA:         -10.338
REMARK INTER:                  -9.573
REMARK INTRA:                  -0.765
REMARK UNBOUND:                -0.660
REMARK SMILES CCCNc1nc(Nc2ccc(CC)cc2)c2cnn(C)c2n1
REMARK SMILES IDX 5 1 6 2 7 3 17 4 18 5 19 6 20 7 21 8 22 9 23 10 4 11 3 13
REMARK SMILES IDX 2 14 1 15 8 16 9 18 10 19 16 20 11 21 15 22 12 23 13 24
REMARK SMILES IDX 14 25
REMARK H PARENT 4 12 8 17
ROOT
ATOM      1  C   UNL     1       0.612  44.386  52.051  1.00  0.00     0.226 A 
ATOM      2  N   UNL     1       1.922  44.073  52.049  1.00  0.00    -0.195 NA
ATOM      3  C   UNL     1       2.639  44.136  53.199  1.00  0.00     0.147 A 
ATOM      4  C   UNL     1       1.985  44.577  54.352  1.00  0.00     0.082 A 
ATOM      5  C   UNL     1       2.286  44.851  55.702  1.00  0.00     0.149 A 
ATOM      6  N   UNL     1       1.221  45.268  56.398  1.00  0.00    -0.179 NA
ATOM      7  N   UNL     1       0.232  45.271  55.474  1.00  0.00    -0.250 N 
ATOM      8  C   UNL     1      -1.097  45.676  55.859  1.00  0.00     0.176 C 
ATOM      9  C   UNL     1       0.644  44.876  54.230  1.00  0.00     0.165 A 
ATOM     10  N   UNL     1      -0.095  44.796  53.114  1.00  0.00    -0.193 NA
ENDROOT
BRANCH   1  11
ATOM     11  N   UNL     1      -0.012  44.253  50.815  1.00  0.00    -0.354 N 
ATOM     12  H   UNL     1       0.440  44.930  50.210  1.00  0.00     0.163 HD
BRANCH  11  13
ATOM     13  C   UNL     1      -1.461  44.327  50.858  1.00  0.00     0.116 C 
BRANCH  13  14
ATOM     14  C   UNL     1      -2.047  43.026  50.307  1.00  0.00     0.018 C 
ATOM     15  C   UNL     1      -2.542  42.119  51.423  1.00  0.00     0.006 C 
ENDBRANCH  13  14
ENDBRANCH  11  13
ENDBRANCH   1  11
BRANCH   3  16
ATOM     16  N   UNL     1       4.001  43.805  53.120  1.00  0.00    -0.339 N 
ATOM     17  H   UNL     1       4.201  43.208  53.921  1.00  0.00     0.168 HD
BRANCH  16  18
ATOM     18  C   UNL     1       5.085  44.672  52.870  1.00  0.00     0.040 A 
ATOM     19  C   UNL     1       5.434  44.933  51.539  1.00  0.00     0.026 A 
ATOM     20  C   UNL     1       5.883  45.211  53.885  1.00  0.00     0.026 A 
ATOM     21  C   UNL     1       6.523  45.753  51.229  1.00  0.00     0.006 A 
ATOM     22  C   UNL     1       6.973  46.032  53.578  1.00  0.00     0.006 A 
ATOM     23  C   UNL     1       7.296  46.318  52.248  1.00  0.00    -0.048 A 
BRANCH  23  24
ATOM     24  C   UNL     1       8.482  47.189  51.917  1.00  0.00     0.032 C 
ATOM     25  C   UNL     1       9.543  47.138  53.006  1.00  0.00     0.009 C 
ENDBRANCH  23  24
ENDBRANCH  16  18
ENDBRANCH   3  16
TORSDOF 6
ENDMDL
