MODEL 1
REMARK VINA RESULT:    -7.963      0.000      0.000
REMARK INTER + INTRA:         -11.367
REMARK INTER:                 -10.757
REMARK INTRA:                  -0.611
REMARK UNBOUND:                -0.611
REMARK SMILES COC(CNc1nc(-c2ccc(Cl)cc2)nc2c1CCC2)OC
REMARK SMILES IDX 4 1 3 2 2 3 1 4 22 5 23 6 5 7 6 9 7 10 18 11 8 12 17 13
REMARK SMILES IDX 19 14 16 15 21 16 20 17 9 18 10 19 15 20 11 21 14 22 12 23
REMARK SMILES IDX 13 24
REMARK H PARENT 5 8
ROOT
ATOM      1  C   UNL     1       7.172  47.052  51.983  1.00  0.00     0.176 C 
ENDROOT
BRANCH   1   2
ATOM      2  C   UNL     1       8.552  47.036  52.686  1.00  0.00     0.268 C 
BRANCH   2   3
ATOM      3  O   UNL     1       8.597  48.174  53.567  1.00  0.00    -0.354 OA
ATOM      4  C   UNL     1       9.268  47.874  54.783  1.00  0.00     0.198 C 
ENDBRANCH   2   3
BRANCH   2   5
ATOM      5  O   UNL     1       9.611  47.122  51.729  1.00  0.00    -0.354 OA
ATOM      6  C   UNL     1      10.512  46.028  51.807  1.00  0.00     0.198 C 
ENDBRANCH   2   5
ENDBRANCH   1   2
BRANCH   1   7
ATOM      7  N   UNL     1       7.105  45.989  50.966  1.00  0.00    -0.365 N 
ATOM      8  H   UNL     1       8.028  45.569  50.860  1.00  0.00     0.162 HD
BRANCH   7   9
ATOM      9  C   UNL     1       6.161  44.988  51.231  1.00  0.00     0.133 A 
ATOM     10  N   UNL     1       5.210  45.174  52.165  1.00  0.00    -0.211 NA
ATOM     11  C   UNL     1       6.168  43.841  50.483  1.00  0.00     0.016 A 
ATOM     12  C   UNL     1       4.302  44.186  52.370  1.00  0.00     0.161 A 
ATOM     13  C   UNL     1       5.207  42.892  50.760  1.00  0.00     0.050 A 
ATOM     14  C   UNL     1       7.083  43.386  49.399  1.00  0.00     0.042 C 
ATOM     15  N   UNL     1       4.265  43.019  51.697  1.00  0.00    -0.233 NA
ATOM     16  C   UNL     1       5.385  41.676  49.898  1.00  0.00     0.057 C 
ATOM     17  C   UNL     1       6.263  42.245  48.776  1.00  0.00     0.011 C 
BRANCH  12  18
ATOM     18  C   UNL     1       3.277  44.409  53.414  1.00  0.00     0.019 A 
ATOM     19  C   UNL     1       2.003  43.811  53.335  1.00  0.00     0.013 A 
ATOM     20  C   UNL     1       3.531  45.229  54.532  1.00  0.00     0.013 A 
ATOM     21  C   UNL     1       1.031  44.020  54.320  1.00  0.00     0.021 A 
ATOM     22  C   UNL     1       2.564  45.442  55.521  1.00  0.00     0.021 A 
ATOM     23  C   UNL     1       1.317  44.835  55.410  1.00  0.00     0.041 A 
ATOM     24  Cl  UNL     1       0.126  45.095  56.623  1.00  0.00    -0.084 Cl
ENDBRANCH  12  18
ENDBRANCH   7   9
ENDBRANCH   1   7
TORSDOF 6
ENDMDL
MODEL 2
REMARK VINA RESULT:    -7.934      0.968      1.820
REMARK INTER + INTRA:         -11.327
REMARK INTER:                 -10.530
REMARK INTRA:                  -0.798
REMARK UNBOUND:                -0.611
REMARK SMILES COC(CNc1nc(-c2ccc(Cl)cc2)nc2c1CCC2)OC
REMARK SMILES IDX 4 1 3 2 2 3 1 4 22 5 23 6 5 7 6 9 7 10 18 11 8 12 17 13
REMARK SMILES IDX 19 14 16 15 21 16 20 17 9 18 10 19 15 20 11 21 14 22 12 23
REMARK SMILES IDX 13 24
REMARK H PARENT 5 8
ROOT
ATOM      1  C   UNL     1       7.501  46.064  52.120  1.00  0.00     0.176 C 
ENDROOT
BRANCH   1   2
ATOM      2  C   UNL     1       7.243  47.552  52.463  1.00  0.00     0.268 C 
BRANCH   2   3
ATOM      3  O   UNL     1       8.476  48.095  52.970  1.00  0.00    -0.354 OA
ATOM      4  C   UNL     1       9.552  47.175  52.838  1.00  0.00     0.198 C 
ENDBRANCH   2   3
BRANCH   2   5
ATOM      5  O   UNL     1       6.217  47.675  53.452  1.00  0.00    -0.354 OA
ATOM      6  C   UNL     1       6.409  46.800  54.553  1.00  0.00     0.198 C 
ENDBRANCH   2   5
ENDBRANCH   1   2
BRANCH   1   7
ATOM      7  N   UNL     1       6.686  45.659  50.963  1.00  0.00    -0.365 N 
ATOM      8  H   UNL     1       7.302  45.343  50.214  1.00  0.00     0.162 HD
BRANCH   7   9
ATOM      9  C   UNL     1       5.735  44.666  51.239  1.00  0.00     0.133 A 
ATOM     10  N   UNL     1       4.753  44.888  52.131  1.00  0.00    -0.211 NA
ATOM     11  C   UNL     1       5.770  43.488  50.541  1.00  0.00     0.016 A 
ATOM     12  C   UNL     1       3.840  43.907  52.348  1.00  0.00     0.161 A 
ATOM     13  C   UNL     1       4.803  42.549  50.827  1.00  0.00     0.050 A 
ATOM     14  C   UNL     1       6.722  42.990  49.509  1.00  0.00     0.042 C 
ATOM     15  N   UNL     1       3.829  42.712  51.725  1.00  0.00    -0.233 NA
ATOM     16  C   UNL     1       5.012  41.297  50.024  1.00  0.00     0.057 C 
ATOM     17  C   UNL     1       5.925  41.821  48.908  1.00  0.00     0.011 C 
BRANCH  12  18
ATOM     18  C   UNL     1       2.781  44.170  53.346  1.00  0.00     0.019 A 
ATOM     19  C   UNL     1       2.991  45.049  54.429  1.00  0.00     0.013 A 
ATOM     20  C   UNL     1       1.516  43.554  53.259  1.00  0.00     0.013 A 
ATOM     21  C   UNL     1       1.991  45.300  55.376  1.00  0.00     0.021 A 
ATOM     22  C   UNL     1       0.512  43.801  54.202  1.00  0.00     0.021 A 
ATOM     23  C   UNL     1       0.755  44.674  55.257  1.00  0.00     0.041 A 
ATOM     24  Cl  UNL     1      -0.477  44.980  56.418  1.00  0.00    -0.084 Cl
ENDBRANCH  12  18
ENDBRANCH   7   9
ENDBRANCH   1   7
TORSDOF 6
ENDMDL
MODEL 3
REMARK VINA RESULT:    -7.905      0.238      1.032
REMARK INTER + INTRA:         -11.288
REMARK INTER:                 -10.706
REMARK INTRA:                  -0.583
REMARK UNBOUND:                -0.611
REMARK SMILES COC(CNc1nc(-c2ccc(Cl)cc2)nc2c1CCC2)OC
REMARK SMILES IDX 4 1 3 2 2 3 1 4 22 5 23 6 5 7 6 9 7 10 18 11 8 12 17 13
REMARK SMILES IDX 19 14 16 15 21 16 20 17 9 18 10 19 15 20 11 21 14 22 12 23
REMARK SMILES IDX 13 24
REMARK H PARENT 5 8
ROOT
ATOM      1  C   UNL     1       7.093  47.083  52.160  1.00  0.00     0.176 C 
ENDROOT
BRANCH   1   2
ATOM      2  C   UNL     1       8.494  47.061  52.821  1.00  0.00     0.268 C 
BRANCH   2   3
ATOM      3  O   UNL     1       8.553  48.173  53.733  1.00  0.00    -0.354 OA
ATOM      4  C   UNL     1       9.401  47.904  54.841  1.00  0.00     0.198 C 
ENDBRANCH   2   3
BRANCH   2   5
ATOM      5  O   UNL     1       9.522  47.187  51.835  1.00  0.00    -0.354 OA
ATOM      6  C   UNL     1      10.396  46.069  51.808  1.00  0.00     0.198 C 
ENDBRANCH   2   5
ENDBRANCH   1   2
BRANCH   1   7
ATOM      7  N   UNL     1       6.993  46.023  51.143  1.00  0.00    -0.365 N 
ATOM      8  H   UNL     1       7.908  45.591  51.018  1.00  0.00     0.162 HD
BRANCH   7   9
ATOM      9  C   UNL     1       6.041  45.033  51.423  1.00  0.00     0.133 A 
ATOM     10  N   UNL     1       5.099  45.236  52.362  1.00  0.00    -0.211 NA
ATOM     11  C   UNL     1       6.030  43.881  50.684  1.00  0.00     0.016 A 
ATOM     12  C   UNL     1       4.183  44.259  52.583  1.00  0.00     0.161 A 
ATOM     13  C   UNL     1       5.063  42.943  50.976  1.00  0.00     0.050 A 
ATOM     14  C   UNL     1       6.933  43.408  49.596  1.00  0.00     0.042 C 
ATOM     15  N   UNL     1       4.130  43.087  51.919  1.00  0.00    -0.233 NA
ATOM     16  C   UNL     1       5.221  41.718  50.122  1.00  0.00     0.057 C 
ATOM     17  C   UNL     1       6.096  42.271  48.989  1.00  0.00     0.011 C 
BRANCH  12  18
ATOM     18  C   UNL     1       3.169  44.500  53.633  1.00  0.00     0.019 A 
ATOM     19  C   UNL     1       3.447  45.311  54.752  1.00  0.00     0.013 A 
ATOM     20  C   UNL     1       1.883  43.928  53.560  1.00  0.00     0.013 A 
ATOM     21  C   UNL     1       2.490  45.542  55.748  1.00  0.00     0.021 A 
ATOM     22  C   UNL     1       0.922  44.154  54.552  1.00  0.00     0.021 A 
ATOM     23  C   UNL     1       1.231  44.961  55.643  1.00  0.00     0.041 A 
ATOM     24  Cl  UNL     1       0.052  45.241  56.864  1.00  0.00    -0.084 Cl
ENDBRANCH  12  18
ENDBRANCH   7   9
ENDBRANCH   1   7
TORSDOF 6
ENDMDL
MODEL 4
REMARK VINA RESULT:    -7.870      3.808      6.880
REMARK INTER + INTRA:         -11.242
REMARK INTER:                 -10.538
REMARK INTRA:                  -0.704
REMARK UNBOUND:                -0.611
REMARK SMILES COC(CNc1nc(-c2ccc(Cl)cc2)nc2c1CCC2)OC
REMARK SMILES IDX 4 1 3 2 2 3 1 4 22 5 23 6 5 7 6 9 7 10 18 11 8 12 17 13
REMARK SMILES IDX 19 14 16 15 21 16 20 17 9 18 10 19 15 20 11 21 14 22 12 23
REMARK SMILES IDX 13 24
REMARK H PARENT 5 8
ROOT
ATOM      1  C   UNL     1       3.883  41.054  50.493  1.00  0.00     0.176 C 
ENDROOT
BRANCH   1   2
ATOM      2  C   UNL     1       4.065  41.163  48.958  1.00  0.00     0.268 C 
BRANCH   2   3
ATOM      3  O   UNL     1       3.364  40.054  48.365  1.00  0.00    -0.354 OA
ATOM      4  C   UNL     1       3.355  40.132  46.947  1.00  0.00     0.198 C 
ENDBRANCH   2   3
BRANCH   2   5
ATOM      5  O   UNL     1       5.449  41.107  48.606  1.00  0.00    -0.354 OA
ATOM      6  C   UNL     1       6.305  41.430  49.691  1.00  0.00     0.198 C 
ENDBRANCH   2   5
ENDBRANCH   1   2
BRANCH   1   7
ATOM      7  N   UNL     1       2.741  41.873  50.931  1.00  0.00    -0.365 N 
ATOM      8  H   UNL     1       2.014  41.261  51.303  1.00  0.00     0.162 HD
BRANCH   7   9
ATOM      9  C   UNL     1       3.057  42.856  51.878  1.00  0.00     0.133 A 
ATOM     10  N   UNL     1       4.234  43.504  51.824  1.00  0.00    -0.211 NA
ATOM     11  C   UNL     1       2.128  43.205  52.822  1.00  0.00     0.016 A 
ATOM     12  C   UNL     1       4.488  44.466  52.748  1.00  0.00     0.161 A 
ATOM     13  C   UNL     1       2.471  44.193  53.720  1.00  0.00     0.050 A 
ATOM     14  C   UNL     1       0.766  42.668  53.100  1.00  0.00     0.042 C 
ATOM     15  N   UNL     1       3.638  44.841  53.725  1.00  0.00    -0.233 NA
ATOM     16  C   UNL     1       1.374  44.418  54.721  1.00  0.00     0.057 C 
ATOM     17  C   UNL     1       0.186  43.777  53.993  1.00  0.00     0.011 C 
BRANCH  12  18
ATOM     18  C   UNL     1       5.797  45.152  52.677  1.00  0.00     0.019 A 
ATOM     19  C   UNL     1       6.469  45.579  53.841  1.00  0.00     0.013 A 
ATOM     20  C   UNL     1       6.428  45.409  51.443  1.00  0.00     0.013 A 
ATOM     21  C   UNL     1       7.708  46.228  53.777  1.00  0.00     0.021 A 
ATOM     22  C   UNL     1       7.666  46.057  51.372  1.00  0.00     0.021 A 
ATOM     23  C   UNL     1       8.300  46.464  52.542  1.00  0.00     0.041 A 
ATOM     24  Cl  UNL     1       9.822  47.261  52.459  1.00  0.00    -0.084 Cl
ENDBRANCH  12  18
ENDBRANCH   7   9
ENDBRANCH   1   7
TORSDOF 6
ENDMDL
MODEL 5
REMARK VINA RESULT:    -7.847      1.053      1.967
REMARK INTER + INTRA:         -11.210
REMARK INTER:                 -10.492
REMARK INTRA:                  -0.718
REMARK UNBOUND:                -0.611
REMARK SMILES COC(CNc1nc(-c2ccc(Cl)cc2)nc2c1CCC2)OC
REMARK SMILES IDX 4 1 3 2 2 3 1 4 22 5 23 6 5 7 6 9 7 10 18 11 8 12 17 13
REMARK SMILES IDX 19 14 16 15 21 16 20 17 9 18 10 19 15 20 11 21 14 22 12 23
REMARK SMILES IDX 13 24
REMARK H PARENT 5 8
ROOT
ATOM      1  C   UNL     1       7.654  46.751  53.075  1.00  0.00     0.176 C 
ENDROOT
BRANCH   1   2
ATOM      2  C   UNL     1       8.969  47.541  52.859  1.00  0.00     0.268 C 
BRANCH   2   3
ATOM      3  O   UNL     1       9.521  47.117  51.599  1.00  0.00    -0.354 OA
ATOM      4  C   UNL     1      10.466  46.069  51.762  1.00  0.00     0.198 C 
ENDBRANCH   2   3
BRANCH   2   5
ATOM      5  O   UNL     1       9.900  47.273  53.911  1.00  0.00    -0.354 OA
ATOM      6  C   UNL     1       9.559  47.926  55.125  1.00  0.00     0.198 C 
ENDBRANCH   2   5
ENDBRANCH   1   2
BRANCH   1   7
ATOM      7  N   UNL     1       6.865  46.726  51.832  1.00  0.00    -0.365 N 
ATOM      8  H   UNL     1       7.491  46.845  51.036  1.00  0.00     0.162 HD
BRANCH   7   9
ATOM      9  C   UNL     1       6.094  45.568  51.653  1.00  0.00     0.133 A 
ATOM     10  N   UNL     1       4.922  45.421  52.296  1.00  0.00    -0.211 NA
ATOM     11  C   UNL     1       6.510  44.614  50.764  1.00  0.00     0.016 A 
ATOM     12  C   UNL     1       4.198  44.294  52.074  1.00  0.00     0.161 A 
ATOM     13  C   UNL     1       5.711  43.502  50.602  1.00  0.00     0.050 A 
ATOM     14  C   UNL     1       7.739  44.526  49.926  1.00  0.00     0.042 C 
ATOM     15  N   UNL     1       4.557  43.298  51.240  1.00  0.00    -0.233 NA
ATOM     16  C   UNL     1       6.331  42.527  49.641  1.00  0.00     0.057 C 
ATOM     17  C   UNL     1       7.337  43.435  48.921  1.00  0.00     0.011 C 
BRANCH  12  18
ATOM     18  C   UNL     1       2.921  44.150  52.806  1.00  0.00     0.019 A 
ATOM     19  C   UNL     1       2.422  45.181  53.628  1.00  0.00     0.013 A 
ATOM     20  C   UNL     1       2.147  42.975  52.714  1.00  0.00     0.013 A 
ATOM     21  C   UNL     1       1.214  45.048  54.322  1.00  0.00     0.021 A 
ATOM     22  C   UNL     1       0.939  42.835  53.405  1.00  0.00     0.021 A 
ATOM     23  C   UNL     1       0.477  43.874  54.207  1.00  0.00     0.041 A 
ATOM     24  Cl  UNL     1      -1.008  43.706  55.058  1.00  0.00    -0.084 Cl
ENDBRANCH  12  18
ENDBRANCH   7   9
ENDBRANCH   1   7
TORSDOF 6
ENDMDL
MODEL 6
REMARK VINA RESULT:    -7.834      3.277      5.896
REMARK INTER + INTRA:         -11.192
REMARK INTER:                 -10.423
REMARK INTRA:                  -0.769
REMARK UNBOUND:                -0.611
REMARK SMILES COC(CNc1nc(-c2ccc(Cl)cc2)nc2c1CCC2)OC
REMARK SMILES IDX 4 1 3 2 2 3 1 4 22 5 23 6 5 7 6 9 7 10 18 11 8 12 17 13
REMARK SMILES IDX 19 14 16 15 21 16 20 17 9 18 10 19 15 20 11 21 14 22 12 23
REMARK SMILES IDX 13 24
REMARK H PARENT 5 8
ROOT
ATOM      1  C   UNL     1       4.581  45.176  55.252  1.00  0.00     0.176 C 
ENDROOT
BRANCH   1   2
ATOM      2  C   UNL     1       3.380  46.123  55.004  1.00  0.00     0.268 C 
BRANCH   2   3
ATOM      3  O   UNL     1       2.478  45.970  56.116  1.00  0.00    -0.354 OA
ATOM      4  C   UNL     1       1.486  44.986  55.859  1.00  0.00     0.198 C 
ENDBRANCH   2   3
BRANCH   2   5
ATOM      5  O   UNL     1       2.711  45.787  53.786  1.00  0.00    -0.354 OA
ATOM      6  C   UNL     1       2.751  46.835  52.830  1.00  0.00     0.198 C 
ENDBRANCH   2   5
ENDBRANCH   1   2
BRANCH   1   7
ATOM      7  N   UNL     1       5.837  45.826  54.842  1.00  0.00    -0.365 N 
ATOM      8  H   UNL     1       6.582  45.545  55.479  1.00  0.00     0.162 HD
BRANCH   7   9
ATOM      9  C   UNL     1       6.224  45.565  53.521  1.00  0.00     0.133 A 
ATOM     10  N   UNL     1       5.667  44.554  52.831  1.00  0.00    -0.211 NA
ATOM     11  C   UNL     1       7.128  46.393  52.908  1.00  0.00     0.016 A 
ATOM     12  C   UNL     1       6.056  44.353  51.546  1.00  0.00     0.161 A 
ATOM     13  C   UNL     1       7.464  46.114  51.601  1.00  0.00     0.050 A 
ATOM     14  C   UNL     1       7.881  47.571  53.423  1.00  0.00     0.042 C 
ATOM     15  N   UNL     1       6.962  45.104  50.888  1.00  0.00    -0.233 NA
ATOM     16  C   UNL     1       8.503  47.073  51.095  1.00  0.00     0.057 C 
ATOM     17  C   UNL     1       8.362  48.213  52.112  1.00  0.00     0.011 C 
BRANCH  12  18
ATOM     18  C   UNL     1       5.441  43.224  50.816  1.00  0.00     0.019 A 
ATOM     19  C   UNL     1       4.169  42.725  51.167  1.00  0.00     0.013 A 
ATOM     20  C   UNL     1       6.099  42.596  49.739  1.00  0.00     0.013 A 
ATOM     21  C   UNL     1       3.583  41.656  50.478  1.00  0.00     0.021 A 
ATOM     22  C   UNL     1       5.519  41.526  49.047  1.00  0.00     0.021 A 
ATOM     23  C   UNL     1       4.262  41.062  49.421  1.00  0.00     0.041 A 
ATOM     24  Cl  UNL     1       3.547  39.748  48.572  1.00  0.00    -0.084 Cl
ENDBRANCH  12  18
ENDBRANCH   7   9
ENDBRANCH   1   7
TORSDOF 6
ENDMDL
MODEL 7
REMARK VINA RESULT:    -7.765      1.255      1.907
REMARK INTER + INTRA:         -11.099
REMARK INTER:                 -10.409
REMARK INTRA:                  -0.690
REMARK UNBOUND:                -0.611
REMARK SMILES COC(CNc1nc(-c2ccc(Cl)cc2)nc2c1CCC2)OC
REMARK SMILES IDX 4 1 3 2 2 3 1 4 22 5 23 6 5 7 6 9 7 10 18 11 8 12 17 13
REMARK SMILES IDX 19 14 16 15 21 16 20 17 9 18 10 19 15 20 11 21 14 22 12 23
REMARK SMILES IDX 13 24
REMARK H PARENT 5 8
ROOT
ATOM      1  C   UNL     1       6.686  47.230  52.545  1.00  0.00     0.176 C 
ENDROOT
BRANCH   1   2
ATOM      2  C   UNL     1       7.563  46.991  53.798  1.00  0.00     0.268 C 
BRANCH   2   3
ATOM      3  O   UNL     1       6.717  47.162  54.951  1.00  0.00    -0.354 OA
ATOM      4  C   UNL     1       5.347  47.266  54.590  1.00  0.00     0.198 C 
ENDBRANCH   2   3
BRANCH   2   5
ATOM      5  O   UNL     1       8.644  47.926  53.847  1.00  0.00    -0.354 OA
ATOM      6  C   UNL     1       9.897  47.304  54.086  1.00  0.00     0.198 C 
ENDBRANCH   2   5
ENDBRANCH   1   2
BRANCH   1   7
ATOM      7  N   UNL     1       7.076  46.307  51.466  1.00  0.00    -0.365 N 
ATOM      8  H   UNL     1       8.041  46.013  51.610  1.00  0.00     0.162 HD
BRANCH   7   9
ATOM      9  C   UNL     1       6.255  45.178  51.340  1.00  0.00     0.133 A 
ATOM     10  N   UNL     1       5.098  45.094  52.020  1.00  0.00    -0.211 NA
ATOM     11  C   UNL     1       6.604  44.186  50.462  1.00  0.00     0.016 A 
ATOM     12  C   UNL     1       4.323  43.992  51.848  1.00  0.00     0.161 A 
ATOM     13  C   UNL     1       5.758  43.104  50.351  1.00  0.00     0.050 A 
ATOM     14  C   UNL     1       7.803  44.029  49.590  1.00  0.00     0.042 C 
ATOM     15  N   UNL     1       4.617  42.962  51.029  1.00  0.00    -0.233 NA
ATOM     16  C   UNL     1       6.308  42.083  49.398  1.00  0.00     0.057 C 
ATOM     17  C   UNL     1       7.327  42.931  48.625  1.00  0.00     0.011 C 
BRANCH  12  18
ATOM     18  C   UNL     1       3.064  43.916  52.621  1.00  0.00     0.019 A 
ATOM     19  C   UNL     1       2.705  44.920  53.543  1.00  0.00     0.013 A 
ATOM     20  C   UNL     1       2.170  42.837  52.469  1.00  0.00     0.013 A 
ATOM     21  C   UNL     1       1.514  44.852  54.277  1.00  0.00     0.021 A 
ATOM     22  C   UNL     1       0.978  42.763  53.199  1.00  0.00     0.021 A 
ATOM     23  C   UNL     1       0.656  43.773  54.100  1.00  0.00     0.041 A 
ATOM     24  Cl  UNL     1      -0.808  43.685  54.999  1.00  0.00    -0.084 Cl
ENDBRANCH  12  18
ENDBRANCH   7   9
ENDBRANCH   1   7
TORSDOF 6
ENDMDL
MODEL 8
REMARK VINA RESULT:    -7.680      3.814      6.880
REMARK INTER + INTRA:         -10.985
REMARK INTER:                 -10.263
REMARK INTRA:                  -0.722
REMARK UNBOUND:                -0.611
REMARK SMILES COC(CNc1nc(-c2ccc(Cl)cc2)nc2c1CCC2)OC
REMARK SMILES IDX 4 1 3 2 2 3 1 4 22 5 23 6 5 7 6 9 7 10 18 11 8 12 17 13
REMARK SMILES IDX 19 14 16 15 21 16 20 17 9 18 10 19 15 20 11 21 14 22 12 23
REMARK SMILES IDX 13 24
REMARK H PARENT 5 8
ROOT
ATOM      1  C   UNL     1       3.100  42.041  50.072  1.00  0.00     0.176 C 
ENDROOT
BRANCH   1   2
ATOM      2  C   UNL     1       3.900  40.772  49.688  1.00  0.00     0.268 C 
BRANCH   2   3
ATOM      3  O   UNL     1       5.112  41.209  49.045  1.00  0.00    -0.354 OA
ATOM      4  C   UNL     1       6.116  41.553  49.989  1.00  0.00     0.198 C 
ENDBRANCH   2   3
BRANCH   2   5
ATOM      5  O   UNL     1       3.146  39.949  48.794  1.00  0.00    -0.354 OA
ATOM      6  C   UNL     1       3.514  40.134  47.435  1.00  0.00     0.198 C 
ENDBRANCH   2   5
ENDBRANCH   1   2
BRANCH   1   7
ATOM      7  N   UNL     1       2.587  41.924  51.448  1.00  0.00    -0.365 N 
ATOM      8  H   UNL     1       2.894  41.036  51.844  1.00  0.00     0.162 HD
BRANCH   7   9
ATOM      9  C   UNL     1       2.960  42.973  52.300  1.00  0.00     0.133 A 
ATOM     10  N   UNL     1       4.162  43.563  52.174  1.00  0.00    -0.211 NA
ATOM     11  C   UNL     1       2.062  43.442  53.222  1.00  0.00     0.016 A 
ATOM     12  C   UNL     1       4.470  44.591  53.006  1.00  0.00     0.161 A 
ATOM     13  C   UNL     1       2.461  44.489  54.025  1.00  0.00     0.050 A 
ATOM     14  C   UNL     1       0.684  42.990  53.564  1.00  0.00     0.042 C 
ATOM     15  N   UNL     1       3.653  45.085  53.957  1.00  0.00    -0.233 NA
ATOM     16  C   UNL     1       1.391  44.847  55.016  1.00  0.00     0.057 C 
ATOM     17  C   UNL     1       0.165  44.195  54.363  1.00  0.00     0.011 C 
BRANCH  12  18
ATOM     18  C   UNL     1       5.805  45.211  52.857  1.00  0.00     0.019 A 
ATOM     19  C   UNL     1       6.550  45.632  53.978  1.00  0.00     0.013 A 
ATOM     20  C   UNL     1       6.388  45.410  51.589  1.00  0.00     0.013 A 
ATOM     21  C   UNL     1       7.813  46.220  53.841  1.00  0.00     0.021 A 
ATOM     22  C   UNL     1       7.650  45.997  51.445  1.00  0.00     0.021 A 
ATOM     23  C   UNL     1       8.357  46.399  52.574  1.00  0.00     0.041 A 
ATOM     24  Cl  UNL     1       9.909  47.121  52.401  1.00  0.00    -0.084 Cl
ENDBRANCH  12  18
ENDBRANCH   7   9
ENDBRANCH   1   7
TORSDOF 6
ENDMDL
MODEL 9
REMARK VINA RESULT:    -7.545      1.740      2.377
REMARK INTER + INTRA:         -10.803
REMARK INTER:                 -10.152
REMARK INTRA:                  -0.651
REMARK UNBOUND:                -0.611
REMARK SMILES COC(CNc1nc(-c2ccc(Cl)cc2)nc2c1CCC2)OC
REMARK SMILES IDX 4 1 3 2 2 3 1 4 22 5 23 6 5 7 6 9 7 10 18 11 8 12 17 13
REMARK SMILES IDX 19 14 16 15 21 16 20 17 9 18 10 19 15 20 11 21 14 22 12 23
REMARK SMILES IDX 13 24
REMARK H PARENT 5 8
ROOT
ATOM      1  C   UNL     1       6.666  46.813  54.531  1.00  0.00     0.176 C 
ENDROOT
BRANCH   1   2
ATOM      2  C   UNL     1       8.007  47.307  53.936  1.00  0.00     0.268 C 
BRANCH   2   3
ATOM      3  O   UNL     1       8.741  47.940  55.001  1.00  0.00    -0.354 OA
ATOM      4  C   UNL     1      10.071  47.451  55.090  1.00  0.00     0.198 C 
ENDBRANCH   2   3
BRANCH   2   5
ATOM      5  O   UNL     1       7.779  48.245  52.881  1.00  0.00    -0.354 OA
ATOM      6  C   UNL     1       8.450  47.893  51.680  1.00  0.00     0.198 C 
ENDBRANCH   2   5
ENDBRANCH   1   2
BRANCH   1   7
ATOM      7  N   UNL     1       5.562  47.078  53.593  1.00  0.00    -0.365 N 
ATOM      8  H   UNL     1       5.950  47.359  52.693  1.00  0.00     0.162 HD
BRANCH   7   9
ATOM      9  C   UNL     1       4.681  46.003  53.410  1.00  0.00     0.133 A 
ATOM     10  N   UNL     1       3.546  45.920  54.126  1.00  0.00    -0.211 NA
ATOM     11  C   UNL     1       4.949  45.070  52.445  1.00  0.00     0.016 A 
ATOM     12  C   UNL     1       2.711  44.874  53.898  1.00  0.00     0.161 A 
ATOM     13  C   UNL     1       4.046  44.042  52.282  1.00  0.00     0.050 A 
ATOM     14  C   UNL     1       6.107  44.926  51.517  1.00  0.00     0.042 C 
ATOM     15  N   UNL     1       2.923  43.901  52.990  1.00  0.00    -0.233 NA
ATOM     16  C   UNL     1       4.510  43.076  51.230  1.00  0.00     0.057 C 
ATOM     17  C   UNL     1       5.543  43.934  50.488  1.00  0.00     0.011 C 
BRANCH  12  18
ATOM     18  C   UNL     1       1.477  44.797  54.711  1.00  0.00     0.019 A 
ATOM     19  C   UNL     1       0.292  44.229  54.199  1.00  0.00     0.013 A 
ATOM     20  C   UNL     1       1.433  45.289  56.031  1.00  0.00     0.013 A 
ATOM     21  C   UNL     1      -0.877  44.155  54.965  1.00  0.00     0.021 A 
ATOM     22  C   UNL     1       0.267  45.218  56.802  1.00  0.00     0.021 A 
ATOM     23  C   UNL     1      -0.884  44.650  56.264  1.00  0.00     0.041 A 
ATOM     24  Cl  UNL     1      -2.318  44.561  57.210  1.00  0.00    -0.084 Cl
ENDBRANCH  12  18
ENDBRANCH   7   9
ENDBRANCH   1   7
TORSDOF 6
ENDMDL
MODEL 10
REMARK VINA RESULT:    -7.486      2.293      4.594
REMARK INTER + INTRA:         -10.723
REMARK INTER:                 -10.248
REMARK INTRA:                  -0.475
REMARK UNBOUND:                -0.611
REMARK SMILES COC(CNc1nc(-c2ccc(Cl)cc2)nc2c1CCC2)OC
REMARK SMILES IDX 4 1 3 2 2 3 1 4 22 5 23 6 5 7 6 9 7 10 18 11 8 12 17 13
REMARK SMILES IDX 19 14 16 15 21 16 20 17 9 18 10 19 15 20 11 21 14 22 12 23
REMARK SMILES IDX 13 24
REMARK H PARENT 5 8
ROOT
ATOM      1  C   UNL     1       7.565  44.220  50.076  1.00  0.00     0.176 C 
ENDROOT
BRANCH   1   2
ATOM      2  C   UNL     1       6.295  43.471  49.603  1.00  0.00     0.268 C 
BRANCH   2   3
ATOM      3  O   UNL     1       5.873  42.620  50.685  1.00  0.00    -0.354 OA
ATOM      4  C   UNL     1       4.585  42.975  51.166  1.00  0.00     0.198 C 
ENDBRANCH   2   3
BRANCH   2   5
ATOM      5  O   UNL     1       6.573  42.681  48.445  1.00  0.00    -0.354 OA
ATOM      6  C   UNL     1       5.672  41.595  48.291  1.00  0.00     0.198 C 
ENDBRANCH   2   5
ENDBRANCH   1   2
BRANCH   1   7
ATOM      7  N   UNL     1       7.276  45.654  50.251  1.00  0.00    -0.365 N 
ATOM      8  H   UNL     1       6.494  45.913  49.650  1.00  0.00     0.162 HD
BRANCH   7   9
ATOM      9  C   UNL     1       7.002  46.036  51.571  1.00  0.00     0.133 A 
ATOM     10  N   UNL     1       5.784  45.829  52.104  1.00  0.00    -0.211 NA
ATOM     11  C   UNL     1       8.004  46.561  52.343  1.00  0.00     0.016 A 
ATOM     12  C   UNL     1       5.571  46.194  53.395  1.00  0.00     0.161 A 
ATOM     13  C   UNL     1       7.698  46.902  53.642  1.00  0.00     0.050 A 
ATOM     14  C   UNL     1       9.422  46.883  52.017  1.00  0.00     0.042 C 
ATOM     15  N   UNL     1       6.498  46.745  54.204  1.00  0.00    -0.233 NA
ATOM     16  C   UNL     1       8.882  47.514  54.334  1.00  0.00     0.057 C 
ATOM     17  C   UNL     1      10.022  47.040  53.423  1.00  0.00     0.011 C 
BRANCH  12  18
ATOM     18  C   UNL     1       4.219  45.971  53.951  1.00  0.00     0.019 A 
ATOM     19  C   UNL     1       3.082  45.905  53.120  1.00  0.00     0.013 A 
ATOM     20  C   UNL     1       4.008  45.816  55.337  1.00  0.00     0.013 A 
ATOM     21  C   UNL     1       1.800  45.694  53.643  1.00  0.00     0.021 A 
ATOM     22  C   UNL     1       2.730  45.605  55.866  1.00  0.00     0.021 A 
ATOM     23  C   UNL     1       1.631  45.545  55.015  1.00  0.00     0.041 A 
ATOM     24  Cl  UNL     1       0.059  45.286  55.663  1.00  0.00    -0.084 Cl
ENDBRANCH  12  18
ENDBRANCH   7   9
ENDBRANCH   1   7
TORSDOF 6
ENDMDL
MODEL 11
REMARK VINA RESULT:    -7.373      4.387      7.265
REMARK INTER + INTRA:         -10.570
REMARK INTER:                  -9.969
REMARK INTRA:                  -0.601
REMARK UNBOUND:                -0.611
REMARK SMILES COC(CNc1nc(-c2ccc(Cl)cc2)nc2c1CCC2)OC
REMARK SMILES IDX 4 1 3 2 2 3 1 4 22 5 23 6 5 7 6 9 7 10 18 11 8 12 17 13
REMARK SMILES IDX 19 14 16 15 21 16 20 17 9 18 10 19 15 20 11 21 14 22 12 23
REMARK SMILES IDX 13 24
REMARK H PARENT 5 8
ROOT
ATOM      1  C   UNL     1       1.276  45.742  56.127  1.00  0.00     0.176 C 
ENDROOT
BRANCH   1   2
ATOM      2  C   UNL     1       0.557  45.519  57.481  1.00  0.00     0.268 C 
BRANCH   2   3
ATOM      3  O   UNL     1      -0.607  44.713  57.219  1.00  0.00    -0.354 OA
ATOM      4  C   UNL     1      -1.480  45.333  56.285  1.00  0.00     0.198 C 
ENDBRANCH   2   3
BRANCH   2   5
ATOM      5  O   UNL     1       0.164  46.766  58.058  1.00  0.00    -0.354 OA
ATOM      6  C   UNL     1       1.041  47.195  59.088  1.00  0.00     0.198 C 
ENDBRANCH   2   5
ENDBRANCH   1   2
BRANCH   1   7
ATOM      7  N   UNL     1       2.061  44.550  55.764  1.00  0.00    -0.365 N 
ATOM      8  H   UNL     1       1.494  43.717  55.916  1.00  0.00     0.162 HD
BRANCH   7   9
ATOM      9  C   UNL     1       2.550  44.552  54.450  1.00  0.00     0.133 A 
ATOM     10  N   UNL     1       3.801  44.969  54.187  1.00  0.00    -0.211 NA
ATOM     11  C   UNL     1       1.768  44.059  53.440  1.00  0.00     0.016 A 
ATOM     12  C   UNL     1       4.240  44.931  52.902  1.00  0.00     0.161 A 
ATOM     13  C   UNL     1       2.295  44.058  52.167  1.00  0.00     0.050 A 
ATOM     14  C   UNL     1       0.373  43.534  53.450  1.00  0.00     0.042 C 
ATOM     15  N   UNL     1       3.518  44.490  51.853  1.00  0.00    -0.233 NA
ATOM     16  C   UNL     1       1.298  43.543  51.169  1.00  0.00     0.057 C 
ATOM     17  C   UNL     1       0.318  42.811  52.095  1.00  0.00     0.011 C 
BRANCH  12  18
ATOM     18  C   UNL     1       5.614  45.411  52.637  1.00  0.00     0.019 A 
ATOM     19  C   UNL     1       6.135  45.466  51.328  1.00  0.00     0.013 A 
ATOM     20  C   UNL     1       6.462  45.832  53.682  1.00  0.00     0.013 A 
ATOM     21  C   UNL     1       7.435  45.919  51.073  1.00  0.00     0.021 A 
ATOM     22  C   UNL     1       7.762  46.286  53.434  1.00  0.00     0.021 A 
ATOM     23  C   UNL     1       8.243  46.327  52.129  1.00  0.00     0.041 A 
ATOM     24  Cl  UNL     1       9.840  46.885  51.821  1.00  0.00    -0.084 Cl
ENDBRANCH  12  18
ENDBRANCH   7   9
ENDBRANCH   1   7
TORSDOF 6
ENDMDL
MODEL 12
REMARK VINA RESULT:    -7.355      4.553      7.377
REMARK INTER + INTRA:         -10.546
REMARK INTER:                  -9.787
REMARK INTRA:                  -0.759
REMARK UNBOUND:                -0.611
REMARK SMILES COC(CNc1nc(-c2ccc(Cl)cc2)nc2c1CCC2)OC
REMARK SMILES IDX 4 1 3 2 2 3 1 4 22 5 23 6 5 7 6 9 7 10 18 11 8 12 17 13
REMARK SMILES IDX 19 14 16 15 21 16 20 17 9 18 10 19 15 20 11 21 14 22 12 23
REMARK SMILES IDX 13 24
REMARK H PARENT 5 8
ROOT
ATOM      1  C   UNL     1       1.259  45.962  56.657  1.00  0.00     0.176 C 
ENDROOT
BRANCH   1   2
ATOM      2  C   UNL     1      -0.236  45.907  57.059  1.00  0.00     0.268 C 
BRANCH   2   3
ATOM      3  O   UNL     1      -0.364  46.588  58.322  1.00  0.00    -0.354 OA
ATOM      4  C   UNL     1       0.874  47.130  58.758  1.00  0.00     0.198 C 
ENDBRANCH   2   3
BRANCH   2   5
ATOM      5  O   UNL     1      -0.677  44.554  57.191  1.00  0.00    -0.354 OA
ATOM      6  C   UNL     1      -2.031  44.377  56.803  1.00  0.00     0.198 C 
ENDBRANCH   2   5
ENDBRANCH   1   2
BRANCH   1   7
ATOM      7  N   UNL     1       1.719  44.633  56.219  1.00  0.00    -0.365 N 
ATOM      8  H   UNL     1       0.932  43.985  56.237  1.00  0.00     0.162 HD
BRANCH   7   9
ATOM      9  C   UNL     1       2.317  44.612  54.952  1.00  0.00     0.133 A 
ATOM     10  N   UNL     1       3.562  45.086  54.775  1.00  0.00    -0.211 NA
ATOM     11  C   UNL     1       1.649  44.038  53.903  1.00  0.00     0.016 A 
ATOM     12  C   UNL     1       4.110  45.023  53.534  1.00  0.00     0.161 A 
ATOM     13  C   UNL     1       2.283  44.017  52.679  1.00  0.00     0.050 A 
ATOM     14  C   UNL     1       0.288  43.437  53.820  1.00  0.00     0.042 C 
ATOM     15  N   UNL     1       3.504  44.504  52.448  1.00  0.00    -0.233 NA
ATOM     16  C   UNL     1       1.402  43.410  51.625  1.00  0.00     0.057 C 
ATOM     17  C   UNL     1       0.386  42.660  52.497  1.00  0.00     0.011 C 
BRANCH  12  18
ATOM     18  C   UNL     1       5.475  45.568  53.364  1.00  0.00     0.019 A 
ATOM     19  C   UNL     1       6.198  46.098  54.452  1.00  0.00     0.013 A 
ATOM     20  C   UNL     1       6.111  45.581  52.105  1.00  0.00     0.013 A 
ATOM     21  C   UNL     1       7.490  46.615  54.294  1.00  0.00     0.021 A 
ATOM     22  C   UNL     1       7.402  46.096  51.941  1.00  0.00     0.021 A 
ATOM     23  C   UNL     1       8.086  46.611  53.038  1.00  0.00     0.041 A 
ATOM     24  Cl  UNL     1       9.672  47.244  52.839  1.00  0.00    -0.084 Cl
ENDBRANCH  12  18
ENDBRANCH   7   9
ENDBRANCH   1   7
TORSDOF 6
ENDMDL
MODEL 13
REMARK VINA RESULT:    -7.292      3.670      5.882
REMARK INTER + INTRA:         -10.461
REMARK INTER:                 -10.014
REMARK INTRA:                  -0.447
REMARK UNBOUND:                -0.611
REMARK SMILES COC(CNc1nc(-c2ccc(Cl)cc2)nc2c1CCC2)OC
REMARK SMILES IDX 4 1 3 2 2 3 1 4 22 5 23 6 5 7 6 9 7 10 18 11 8 12 17 13
REMARK SMILES IDX 19 14 16 15 21 16 20 17 9 18 10 19 15 20 11 21 14 22 12 23
REMARK SMILES IDX 13 24
REMARK H PARENT 5 8
ROOT
ATOM      1  C   UNL     1       3.590  40.859  49.298  1.00  0.00     0.176 C 
ENDROOT
BRANCH   1   2
ATOM      2  C   UNL     1       3.575  39.995  48.013  1.00  0.00     0.268 C 
BRANCH   2   3
ATOM      3  O   UNL     1       3.002  40.799  46.964  1.00  0.00    -0.354 OA
ATOM      4  C   UNL     1       3.923  41.020  45.905  1.00  0.00     0.198 C 
ENDBRANCH   2   3
BRANCH   2   5
ATOM      5  O   UNL     1       2.791  38.815  48.203  1.00  0.00    -0.354 OA
ATOM      6  C   UNL     1       2.697  38.023  47.029  1.00  0.00     0.198 C 
ENDBRANCH   2   5
ENDBRANCH   1   2
BRANCH   1   7
ATOM      7  N   UNL     1       4.976  41.162  49.694  1.00  0.00    -0.365 N 
ATOM      8  H   UNL     1       5.571  41.143  48.867  1.00  0.00     0.162 HD
BRANCH   7   9
ATOM      9  C   UNL     1       5.138  42.383  50.363  1.00  0.00     0.133 A 
ATOM     10  N   UNL     1       4.325  42.719  51.380  1.00  0.00    -0.211 NA
ATOM     11  C   UNL     1       6.177  43.206  50.019  1.00  0.00     0.016 A 
ATOM     12  C   UNL     1       4.535  43.901  52.014  1.00  0.00     0.161 A 
ATOM     13  C   UNL     1       6.315  44.386  50.717  1.00  0.00     0.050 A 
ATOM     14  C   UNL     1       7.215  43.079  48.957  1.00  0.00     0.042 C 
ATOM     15  N   UNL     1       5.515  44.776  51.711  1.00  0.00    -0.233 NA
ATOM     16  C   UNL     1       7.460  45.199  50.184  1.00  0.00     0.057 C 
ATOM     17  C   UNL     1       8.244  44.123  49.420  1.00  0.00     0.011 C 
BRANCH  12  18
ATOM     18  C   UNL     1       3.616  44.255  53.118  1.00  0.00     0.019 A 
ATOM     19  C   UNL     1       2.281  43.804  53.139  1.00  0.00     0.013 A 
ATOM     20  C   UNL     1       4.037  45.059  54.197  1.00  0.00     0.013 A 
ATOM     21  C   UNL     1       1.409  44.136  54.182  1.00  0.00     0.021 A 
ATOM     22  C   UNL     1       3.170  45.396  55.243  1.00  0.00     0.021 A 
ATOM     23  C   UNL     1       1.858  44.932  55.230  1.00  0.00     0.041 A 
ATOM     24  Cl  UNL     1       0.791  45.343  56.515  1.00  0.00    -0.084 Cl
ENDBRANCH  12  18
ENDBRANCH   7   9
ENDBRANCH   1   7
TORSDOF 6
ENDMDL
MODEL 14
REMARK VINA RESULT:    -7.291      3.706      6.051
REMARK INTER + INTRA:         -10.460
REMARK INTER:                  -9.719
REMARK INTRA:                  -0.740
REMARK UNBOUND:                -0.611
REMARK SMILES COC(CNc1nc(-c2ccc(Cl)cc2)nc2c1CCC2)OC
REMARK SMILES IDX 4 1 3 2 2 3 1 4 22 5 23 6 5 7 6 9 7 10 18 11 8 12 17 13
REMARK SMILES IDX 19 14 16 15 21 16 20 17 9 18 10 19 15 20 11 21 14 22 12 23
REMARK SMILES IDX 13 24
REMARK H PARENT 5 8
ROOT
ATOM      1  C   UNL     1       1.714  43.565  53.096  1.00  0.00     0.176 C 
ENDROOT
BRANCH   1   2
ATOM      2  C   UNL     1       1.244  44.444  51.910  1.00  0.00     0.268 C 
BRANCH   2   3
ATOM      3  O   UNL     1       1.069  45.782  52.413  1.00  0.00    -0.354 OA
ATOM      4  C   UNL     1       2.290  46.509  52.417  1.00  0.00     0.198 C 
ENDBRANCH   2   3
BRANCH   2   5
ATOM      5  O   UNL     1       0.009  43.960  51.378  1.00  0.00    -0.354 OA
ATOM      6  C   UNL     1      -1.092  44.795  51.700  1.00  0.00     0.198 C 
ENDBRANCH   2   5
ENDBRANCH   1   2
BRANCH   1   7
ATOM      7  N   UNL     1       2.576  42.474  52.612  1.00  0.00    -0.365 N 
ATOM      8  H   UNL     1       2.044  41.888  51.969  1.00  0.00     0.162 HD
BRANCH   7   9
ATOM      9  C   UNL     1       3.760  42.897  51.992  1.00  0.00     0.133 A 
ATOM     10  N   UNL     1       4.536  43.833  52.567  1.00  0.00    -0.211 NA
ATOM     11  C   UNL     1       4.161  42.299  50.827  1.00  0.00     0.016 A 
ATOM     12  C   UNL     1       5.686  44.194  51.943  1.00  0.00     0.161 A 
ATOM     13  C   UNL     1       5.343  42.728  50.264  1.00  0.00     0.050 A 
ATOM     14  C   UNL     1       3.512  41.248  49.993  1.00  0.00     0.042 C 
ATOM     15  N   UNL     1       6.129  43.675  50.780  1.00  0.00    -0.233 NA
ATOM     16  C   UNL     1       5.612  42.020  48.967  1.00  0.00     0.057 C 
ATOM     17  C   UNL     1       4.687  40.804  49.107  1.00  0.00     0.011 C 
BRANCH  12  18
ATOM     18  C   UNL     1       6.513  45.238  52.587  1.00  0.00     0.019 A 
ATOM     19  C   UNL     1       7.524  45.919  51.879  1.00  0.00     0.013 A 
ATOM     20  C   UNL     1       6.327  45.595  53.938  1.00  0.00     0.013 A 
ATOM     21  C   UNL     1       8.308  46.907  52.485  1.00  0.00     0.021 A 
ATOM     22  C   UNL     1       7.107  46.582  54.551  1.00  0.00     0.021 A 
ATOM     23  C   UNL     1       8.095  47.234  53.820  1.00  0.00     0.041 A 
ATOM     24  Cl  UNL     1       9.057  48.448  54.570  1.00  0.00    -0.084 Cl
ENDBRANCH  12  18
ENDBRANCH   7   9
ENDBRANCH   1   7
TORSDOF 6
ENDMDL
MODEL 15
REMARK VINA RESULT:    -7.283      3.605      6.154
REMARK INTER + INTRA:         -10.448
REMARK INTER:                  -9.601
REMARK INTRA:                  -0.847
REMARK UNBOUND:                -0.611
REMARK SMILES COC(CNc1nc(-c2ccc(Cl)cc2)nc2c1CCC2)OC
REMARK SMILES IDX 4 1 3 2 2 3 1 4 22 5 23 6 5 7 6 9 7 10 18 11 8 12 17 13
REMARK SMILES IDX 19 14 16 15 21 16 20 17 9 18 10 19 15 20 11 21 14 22 12 23
REMARK SMILES IDX 13 24
REMARK H PARENT 5 8
ROOT
ATOM      1  C   UNL     1       1.474  43.201  52.499  1.00  0.00     0.176 C 
ENDROOT
BRANCH   1   2
ATOM      2  C   UNL     1       1.080  43.879  53.834  1.00  0.00     0.268 C 
BRANCH   2   3
ATOM      3  O   UNL     1      -0.335  44.139  53.781  1.00  0.00    -0.354 OA
ATOM      4  C   UNL     1      -1.030  43.134  53.055  1.00  0.00     0.198 C 
ENDBRANCH   2   3
BRANCH   2   5
ATOM      5  O   UNL     1       1.792  45.106  54.010  1.00  0.00    -0.354 OA
ATOM      6  C   UNL     1       1.638  45.992  52.912  1.00  0.00     0.198 C 
ENDBRANCH   2   5
ENDBRANCH   1   2
BRANCH   1   7
ATOM      7  N   UNL     1       2.670  42.364  52.685  1.00  0.00    -0.365 N 
ATOM      8  H   UNL     1       2.467  41.416  52.367  1.00  0.00     0.162 HD
BRANCH   7   9
ATOM      9  C   UNL     1       3.821  42.839  52.041  1.00  0.00     0.133 A 
ATOM     10  N   UNL     1       4.582  43.789  52.613  1.00  0.00    -0.211 NA
ATOM     11  C   UNL     1       4.207  42.280  50.852  1.00  0.00     0.016 A 
ATOM     12  C   UNL     1       5.700  44.202  51.964  1.00  0.00     0.161 A 
ATOM     13  C   UNL     1       5.357  42.760  50.264  1.00  0.00     0.050 A 
ATOM     14  C   UNL     1       3.569  41.225  50.014  1.00  0.00     0.042 C 
ATOM     15  N   UNL     1       6.126  43.722  50.778  1.00  0.00    -0.233 NA
ATOM     16  C   UNL     1       5.612  42.088  48.946  1.00  0.00     0.057 C 
ATOM     17  C   UNL     1       4.732  40.839  49.086  1.00  0.00     0.011 C 
BRANCH  12  18
ATOM     18  C   UNL     1       6.510  45.260  52.607  1.00  0.00     0.019 A 
ATOM     19  C   UNL     1       7.460  46.006  51.879  1.00  0.00     0.013 A 
ATOM     20  C   UNL     1       6.369  45.566  53.976  1.00  0.00     0.013 A 
ATOM     21  C   UNL     1       8.228  47.007  52.485  1.00  0.00     0.021 A 
ATOM     22  C   UNL     1       7.134  46.566  54.587  1.00  0.00     0.021 A 
ATOM     23  C   UNL     1       8.061  47.282  53.837  1.00  0.00     0.041 A 
ATOM     24  Cl  UNL     1       9.003  48.512  54.586  1.00  0.00    -0.084 Cl
ENDBRANCH  12  18
ENDBRANCH   7   9
ENDBRANCH   1   7
TORSDOF 6
ENDMDL
MODEL 16
REMARK VINA RESULT:    -7.089      2.669      4.983
REMARK INTER + INTRA:         -10.186
REMARK INTER:                  -9.430
REMARK INTRA:                  -0.756
REMARK UNBOUND:                -0.611
REMARK SMILES COC(CNc1nc(-c2ccc(Cl)cc2)nc2c1CCC2)OC
REMARK SMILES IDX 4 1 3 2 2 3 1 4 22 5 23 6 5 7 6 9 7 10 18 11 8 12 17 13
REMARK SMILES IDX 19 14 16 15 21 16 20 17 9 18 10 19 15 20 11 21 14 22 12 23
REMARK SMILES IDX 13 24
REMARK H PARENT 5 8
ROOT
ATOM      1  C   UNL     1       6.436  42.279  50.142  1.00  0.00     0.176 C 
ENDROOT
BRANCH   1   2
ATOM      2  C   UNL     1       5.807  41.515  48.950  1.00  0.00     0.268 C 
BRANCH   2   3
ATOM      3  O   UNL     1       6.021  42.314  47.771  1.00  0.00    -0.354 OA
ATOM      4  C   UNL     1       5.521  41.677  46.603  1.00  0.00     0.198 C 
ENDBRANCH   2   3
BRANCH   2   5
ATOM      5  O   UNL     1       4.406  41.319  49.155  1.00  0.00    -0.354 OA
ATOM      6  C   UNL     1       4.069  41.159  50.524  1.00  0.00     0.198 C 
ENDBRANCH   2   5
ENDBRANCH   1   2
BRANCH   1   7
ATOM      7  N   UNL     1       6.526  43.716  49.837  1.00  0.00    -0.365 N 
ATOM      8  H   UNL     1       5.976  43.916  49.002  1.00  0.00     0.162 HD
BRANCH   7   9
ATOM      9  C   UNL     1       6.121  44.561  50.880  1.00  0.00     0.133 A 
ATOM     10  N   UNL     1       4.978  44.322  51.548  1.00  0.00    -0.211 NA
ATOM     11  C   UNL     1       6.933  45.595  51.263  1.00  0.00     0.016 A 
ATOM     12  C   UNL     1       4.638  45.153  52.567  1.00  0.00     0.161 A 
ATOM     13  C   UNL     1       6.508  46.386  52.308  1.00  0.00     0.050 A 
ATOM     14  C   UNL     1       8.233  46.073  50.714  1.00  0.00     0.042 C 
ATOM     15  N   UNL     1       5.368  46.208  52.979  1.00  0.00    -0.233 NA
ATOM     16  C   UNL     1       7.475  47.505  52.567  1.00  0.00     0.057 C 
ATOM     17  C   UNL     1       8.728  46.970  51.860  1.00  0.00     0.011 C 
BRANCH  12  18
ATOM     18  C   UNL     1       3.368  44.878  53.274  1.00  0.00     0.019 A 
ATOM     19  C   UNL     1       3.167  45.282  54.610  1.00  0.00     0.013 A 
ATOM     20  C   UNL     1       2.305  44.199  52.644  1.00  0.00     0.013 A 
ATOM     21  C   UNL     1       1.967  45.024  55.283  1.00  0.00     0.021 A 
ATOM     22  C   UNL     1       1.103  43.938  53.311  1.00  0.00     0.021 A 
ATOM     23  C   UNL     1       0.940  44.352  54.629  1.00  0.00     0.041 A 
ATOM     24  Cl  UNL     1      -0.537  44.032  55.452  1.00  0.00    -0.084 Cl
ENDBRANCH  12  18
ENDBRANCH   7   9
ENDBRANCH   1   7
TORSDOF 6
ENDMDL
MODEL 17
REMARK VINA RESULT:    -6.915      2.852      5.534
REMARK INTER + INTRA:          -9.951
REMARK INTER:                  -9.413
REMARK INTRA:                  -0.538
REMARK UNBOUND:                -0.611
REMARK SMILES COC(CNc1nc(-c2ccc(Cl)cc2)nc2c1CCC2)OC
REMARK SMILES IDX 4 1 3 2 2 3 1 4 22 5 23 6 5 7 6 9 7 10 18 11 8 12 17 13
REMARK SMILES IDX 19 14 16 15 21 16 20 17 9 18 10 19 15 20 11 21 14 22 12 23
REMARK SMILES IDX 13 24
REMARK H PARENT 5 8
ROOT
ATOM      1  C   UNL     1       5.464  47.239  54.630  1.00  0.00     0.176 C 
ENDROOT
BRANCH   1   2
ATOM      2  C   UNL     1       6.899  46.664  54.543  1.00  0.00     0.268 C 
BRANCH   2   3
ATOM      3  O   UNL     1       7.801  47.698  54.979  1.00  0.00    -0.354 OA
ATOM      4  C   UNL     1       9.115  47.500  54.475  1.00  0.00     0.198 C 
ENDBRANCH   2   3
BRANCH   2   5
ATOM      5  O   UNL     1       7.212  46.281  53.201  1.00  0.00    -0.354 OA
ATOM      6  C   UNL     1       6.491  47.031  52.235  1.00  0.00     0.198 C 
ENDBRANCH   2   5
ENDBRANCH   1   2
BRANCH   1   7
ATOM      7  N   UNL     1       4.610  46.358  55.445  1.00  0.00    -0.365 N 
ATOM      8  H   UNL     1       4.041  46.929  56.069  1.00  0.00     0.162 HD
BRANCH   7   9
ATOM      9  C   UNL     1       3.782  45.502  54.706  1.00  0.00     0.133 A 
ATOM     10  N   UNL     1       4.267  44.825  53.650  1.00  0.00    -0.211 NA
ATOM     11  C   UNL     1       2.488  45.304  55.108  1.00  0.00     0.016 A 
ATOM     12  C   UNL     1       3.435  43.988  52.978  1.00  0.00     0.161 A 
ATOM     13  C   UNL     1       1.715  44.436  54.367  1.00  0.00     0.050 A 
ATOM     14  C   UNL     1       1.708  45.906  56.226  1.00  0.00     0.042 C 
ATOM     15  N   UNL     1       2.143  43.767  53.294  1.00  0.00    -0.233 NA
ATOM     16  C   UNL     1       0.312  44.373  54.899  1.00  0.00     0.057 C 
ATOM     17  C   UNL     1       0.515  44.940  56.310  1.00  0.00     0.011 C 
BRANCH  12  18
ATOM     18  C   UNL     1       3.988  43.268  51.811  1.00  0.00     0.019 A 
ATOM     19  C   UNL     1       5.153  43.716  51.153  1.00  0.00     0.013 A 
ATOM     20  C   UNL     1       3.375  42.104  51.304  1.00  0.00     0.013 A 
ATOM     21  C   UNL     1       5.679  43.038  50.048  1.00  0.00     0.021 A 
ATOM     22  C   UNL     1       3.896  41.421  50.199  1.00  0.00     0.021 A 
ATOM     23  C   UNL     1       5.048  41.892  49.576  1.00  0.00     0.041 A 
ATOM     24  Cl  UNL     1       5.691  41.055  48.219  1.00  0.00    -0.084 Cl
ENDBRANCH  12  18
ENDBRANCH   7   9
ENDBRANCH   1   7
TORSDOF 6
ENDMDL
MODEL 18
REMARK VINA RESULT:    -6.856      4.465      7.870
REMARK INTER + INTRA:          -9.871
REMARK INTER:                  -9.132
REMARK INTRA:                  -0.739
REMARK UNBOUND:                -0.611
REMARK SMILES COC(CNc1nc(-c2ccc(Cl)cc2)nc2c1CCC2)OC
REMARK SMILES IDX 4 1 3 2 2 3 1 4 22 5 23 6 5 7 6 9 7 10 18 11 8 12 17 13
REMARK SMILES IDX 19 14 16 15 21 16 20 17 9 18 10 19 15 20 11 21 14 22 12 23
REMARK SMILES IDX 13 24
REMARK H PARENT 5 8
ROOT
ATOM      1  C   UNL     1       0.896  43.060  50.891  1.00  0.00     0.176 C 
ENDROOT
BRANCH   1   2
ATOM      2  C   UNL     1      -0.581  43.499  51.056  1.00  0.00     0.268 C 
BRANCH   2   3
ATOM      3  O   UNL     1      -1.291  43.060  49.883  1.00  0.00    -0.354 OA
ATOM      4  C   UNL     1      -2.495  42.383  50.216  1.00  0.00     0.198 C 
ENDBRANCH   2   3
BRANCH   2   5
ATOM      5  O   UNL     1      -0.677  44.920  51.179  1.00  0.00    -0.354 OA
ATOM      6  C   UNL     1      -1.719  45.325  52.055  1.00  0.00     0.198 C 
ENDBRANCH   2   5
ENDBRANCH   1   2
BRANCH   1   7
ATOM      7  N   UNL     1       1.417  42.534  52.163  1.00  0.00    -0.365 N 
ATOM      8  H   UNL     1       2.030  41.742  51.971  1.00  0.00     0.162 HD
BRANCH   7   9
ATOM      9  C   UNL     1       2.098  43.476  52.948  1.00  0.00     0.133 A 
ATOM     10  N   UNL     1       3.310  43.926  52.578  1.00  0.00    -0.211 NA
ATOM     11  C   UNL     1       1.489  43.989  54.062  1.00  0.00     0.016 A 
ATOM     12  C   UNL     1       3.921  44.856  53.357  1.00  0.00     0.161 A 
ATOM     13  C   UNL     1       2.184  44.930  54.792  1.00  0.00     0.050 A 
ATOM     14  C   UNL     1       0.171  43.683  54.686  1.00  0.00     0.042 C 
ATOM     15  N   UNL     1       3.400  45.383  54.483  1.00  0.00    -0.233 NA
ATOM     16  C   UNL     1       1.409  45.349  56.009  1.00  0.00     0.057 C 
ATOM     17  C   UNL     1      -0.003  44.890  55.622  1.00  0.00     0.011 C 
BRANCH  12  18
ATOM     18  C   UNL     1       5.261  45.322  52.937  1.00  0.00     0.019 A 
ATOM     19  C   UNL     1       6.225  45.736  53.879  1.00  0.00     0.013 A 
ATOM     20  C   UNL     1       5.631  45.373  51.577  1.00  0.00     0.013 A 
ATOM     21  C   UNL     1       7.494  46.178  53.485  1.00  0.00     0.021 A 
ATOM     22  C   UNL     1       6.897  45.814  51.177  1.00  0.00     0.021 A 
ATOM     23  C   UNL     1       7.824  46.214  52.135  1.00  0.00     0.041 A 
ATOM     24  Cl  UNL     1       9.382  46.757  51.646  1.00  0.00    -0.084 Cl
ENDBRANCH  12  18
ENDBRANCH   7   9
ENDBRANCH   1   7
TORSDOF 6
ENDMDL
MODEL 19
REMARK VINA RESULT:    -6.826      2.408      4.491
REMARK INTER + INTRA:          -9.831
REMARK INTER:                  -9.064
REMARK INTRA:                  -0.768
REMARK UNBOUND:                -0.611
REMARK SMILES COC(CNc1nc(-c2ccc(Cl)cc2)nc2c1CCC2)OC
REMARK SMILES IDX 4 1 3 2 2 3 1 4 22 5 23 6 5 7 6 9 7 10 18 11 8 12 17 13
REMARK SMILES IDX 19 14 16 15 21 16 20 17 9 18 10 19 15 20 11 21 14 22 12 23
REMARK SMILES IDX 13 24
REMARK H PARENT 5 8
ROOT
ATOM      1  C   UNL     1       4.754  42.943  50.846  1.00  0.00     0.176 C 
ENDROOT
BRANCH   1   2
ATOM      2  C   UNL     1       6.168  42.549  50.354  1.00  0.00     0.268 C 
BRANCH   2   3
ATOM      3  O   UNL     1       6.571  43.530  49.380  1.00  0.00    -0.354 OA
ATOM      4  C   UNL     1       7.984  43.657  49.312  1.00  0.00     0.198 C 
ENDBRANCH   2   3
BRANCH   2   5
ATOM      5  O   UNL     1       6.153  41.250  49.756  1.00  0.00    -0.354 OA
ATOM      6  C   UNL     1       5.359  41.196  48.581  1.00  0.00     0.198 C 
ENDBRANCH   2   5
ENDBRANCH   1   2
BRANCH   1   7
ATOM      7  N   UNL     1       4.621  44.409  50.895  1.00  0.00    -0.365 N 
ATOM      8  H   UNL     1       3.841  44.694  50.304  1.00  0.00     0.162 HD
BRANCH   7   9
ATOM      9  C   UNL     1       4.451  44.937  52.183  1.00  0.00     0.133 A 
ATOM     10  N   UNL     1       3.298  44.753  52.851  1.00  0.00    -0.211 NA
ATOM     11  C   UNL     1       5.496  45.583  52.789  1.00  0.00     0.016 A 
ATOM     12  C   UNL     1       3.188  45.261  54.105  1.00  0.00     0.161 A 
ATOM     13  C   UNL     1       5.294  46.066  54.064  1.00  0.00     0.050 A 
ATOM     14  C   UNL     1       6.862  45.913  52.293  1.00  0.00     0.042 C 
ATOM     15  N   UNL     1       4.158  45.936  54.753  1.00  0.00    -0.233 NA
ATOM     16  C   UNL     1       6.507  46.797  54.563  1.00  0.00     0.057 C 
ATOM     17  C   UNL     1       7.580  46.257  53.608  1.00  0.00     0.011 C 
BRANCH  12  18
ATOM     18  C   UNL     1       1.903  45.060  54.811  1.00  0.00     0.019 A 
ATOM     19  C   UNL     1       0.828  44.378  54.204  1.00  0.00     0.013 A 
ATOM     20  C   UNL     1       1.698  45.542  56.120  1.00  0.00     0.013 A 
ATOM     21  C   UNL     1      -0.389  44.187  54.869  1.00  0.00     0.021 A 
ATOM     22  C   UNL     1       0.484  45.354  56.790  1.00  0.00     0.021 A 
ATOM     23  C   UNL     1      -0.554  44.676  56.160  1.00  0.00     0.041 A 
ATOM     24  Cl  UNL     1      -2.048  44.442  56.981  1.00  0.00    -0.084 Cl
ENDBRANCH  12  18
ENDBRANCH   7   9
ENDBRANCH   1   7
TORSDOF 6
ENDMDL
MODEL 20
REMARK VINA RESULT:    -6.792      4.093      7.306
REMARK INTER + INTRA:          -9.785
REMARK INTER:                  -8.941
REMARK INTRA:                  -0.844
REMARK UNBOUND:                -0.611
REMARK SMILES COC(CNc1nc(-c2ccc(Cl)cc2)nc2c1CCC2)OC
REMARK SMILES IDX 4 1 3 2 2 3 1 4 22 5 23 6 5 7 6 9 7 10 18 11 8 12 17 13
REMARK SMILES IDX 19 14 16 15 21 16 20 17 9 18 10 19 15 20 11 21 14 22 12 23
REMARK SMILES IDX 13 24
REMARK H PARENT 5 8
ROOT
ATOM      1  C   UNL     1       1.167  44.519  51.196  1.00  0.00     0.176 C 
ENDROOT
BRANCH   1   2
ATOM      2  C   UNL     1       1.047  43.001  51.480  1.00  0.00     0.268 C 
BRANCH   2   3
ATOM      3  O   UNL     1      -0.135  42.807  52.279  1.00  0.00    -0.354 OA
ATOM      4  C   UNL     1       0.127  42.011  53.426  1.00  0.00     0.198 C 
ENDBRANCH   2   3
BRANCH   2   5
ATOM      5  O   UNL     1       2.194  42.525  52.188  1.00  0.00    -0.354 OA
ATOM      6  C   UNL     1       3.373  42.544  51.398  1.00  0.00     0.198 C 
ENDBRANCH   2   5
ENDBRANCH   1   2
BRANCH   1   7
ATOM      7  N   UNL     1       0.688  45.293  52.353  1.00  0.00    -0.365 N 
ATOM      8  H   UNL     1      -0.131  44.831  52.749  1.00  0.00     0.162 HD
BRANCH   7   9
ATOM      9  C   UNL     1       1.645  45.494  53.358  1.00  0.00     0.133 A 
ATOM     10  N   UNL     1       2.920  45.780  53.040  1.00  0.00    -0.211 NA
ATOM     11  C   UNL     1       1.258  45.466  54.671  1.00  0.00     0.016 A 
ATOM     12  C   UNL     1       3.807  45.991  54.046  1.00  0.00     0.161 A 
ATOM     13  C   UNL     1       2.227  45.692  55.626  1.00  0.00     0.050 A 
ATOM     14  C   UNL     1      -0.066  45.188  55.296  1.00  0.00     0.042 C 
ATOM     15  N   UNL     1       3.509  45.948  55.359  1.00  0.00    -0.233 NA
ATOM     16  C   UNL     1       1.658  45.570  57.011  1.00  0.00     0.057 C 
ATOM     17  C   UNL     1       0.159  45.721  56.720  1.00  0.00     0.011 C 
BRANCH  12  18
ATOM     18  C   UNL     1       5.207  46.287  53.669  1.00  0.00     0.019 A 
ATOM     19  C   UNL     1       5.615  46.320  52.320  1.00  0.00     0.013 A 
ATOM     20  C   UNL     1       6.193  46.548  54.643  1.00  0.00     0.013 A 
ATOM     21  C   UNL     1       6.939  46.600  51.960  1.00  0.00     0.021 A 
ATOM     22  C   UNL     1       7.517  46.828  54.289  1.00  0.00     0.021 A 
ATOM     23  C   UNL     1       7.884  46.853  52.948  1.00  0.00     0.041 A 
ATOM     24  Cl  UNL     1       9.512  47.197  52.510  1.00  0.00    -0.084 Cl
ENDBRANCH  12  18
ENDBRANCH   7   9
ENDBRANCH   1   7
TORSDOF 6
ENDMDL
