MODEL 1
REMARK VINA RESULT:    -8.764      0.000      0.000
REMARK INTER + INTRA:         -12.709
REMARK INTER:                 -12.095
REMARK INTRA:                  -0.614
REMARK UNBOUND:                -0.614
REMARK SMILES OCCCNc1nc(Nc2ccncc2)nc2ccccc12
REMARK SMILES IDX 4 1 3 2 2 3 1 4 5 6 6 8 7 9 22 10 8 11 21 12 17 13 16 14
REMARK SMILES IDX 20 15 18 16 19 17 9 18 10 20 11 21 15 22 12 23 14 24 13 25
REMARK H PARENT 1 5 5 7 9 19
ROOT
ATOM      1  C   UNL     1       5.998  44.066  50.250  1.00  0.00     0.117 C 
ENDROOT
BRANCH   1   2
ATOM      2  C   UNL     1       6.733  43.032  49.397  1.00  0.00     0.049 C 
BRANCH   2   3
ATOM      3  C   UNL     1       6.271  41.612  49.689  1.00  0.00     0.158 C 
BRANCH   3   4
ATOM      4  O   UNL     1       7.361  40.803  50.107  1.00  0.00    -0.396 OA
ATOM      5  H   UNL     1       7.915  41.330  50.708  1.00  0.00     0.210 HD
ENDBRANCH   3   4
ENDBRANCH   2   3
ENDBRANCH   1   2
BRANCH   1   6
ATOM      6  N   UNL     1       6.821  45.270  50.359  1.00  0.00    -0.369 N 
ATOM      7  H   UNL     1       6.637  45.914  49.593  1.00  0.00     0.162 HD
BRANCH   6   8
ATOM      8  C   UNL     1       6.682  45.982  51.574  1.00  0.00     0.139 A 
ATOM      9  N   UNL     1       5.446  46.232  52.043  1.00  0.00    -0.195 NA
ATOM     10  C   UNL     1       7.834  46.385  52.267  1.00  0.00     0.043 A 
ATOM     11  C   UNL     1       5.328  46.912  53.192  1.00  0.00     0.229 A 
ATOM     12  C   UNL     1       9.170  46.120  51.864  1.00  0.00     0.014 A 
ATOM     13  C   UNL     1       7.599  47.093  53.447  1.00  0.00     0.078 A 
ATOM     14  N   UNL     1       6.371  47.358  53.897  1.00  0.00    -0.213 NA
ATOM     15  C   UNL     1      10.248  46.573  52.621  1.00  0.00     0.001 A 
ATOM     16  C   UNL     1       8.691  47.537  54.185  1.00  0.00     0.029 A 
ATOM     17  C   UNL     1      10.007  47.288  53.785  1.00  0.00     0.002 A 
BRANCH  11  18
ATOM     18  N   UNL     1       4.015  47.133  53.603  1.00  0.00    -0.324 N 
ATOM     19  H   UNL     1       3.870  48.126  53.704  1.00  0.00     0.170 HD
BRANCH  18  20
ATOM     20  C   UNL     1       2.919  46.297  53.844  1.00  0.00     0.044 A 
ATOM     21  C   UNL     1       2.861  45.598  55.055  1.00  0.00     0.046 A 
ATOM     22  C   UNL     1       1.875  46.102  52.943  1.00  0.00     0.046 A 
ATOM     23  C   UNL     1       1.783  44.761  55.309  1.00  0.00     0.113 A 
ATOM     24  C   UNL     1       0.838  45.243  53.281  1.00  0.00     0.113 A 
ATOM     25  N   UNL     1       0.768  44.567  54.445  1.00  0.00    -0.265 NA
ENDBRANCH  18  20
ENDBRANCH  11  18
ENDBRANCH   6   8
ENDBRANCH   1   6
TORSDOF 7
ENDMDL
MODEL 2
REMARK VINA RESULT:    -8.287      2.295      6.481
REMARK INTER + INTRA:         -12.050
REMARK INTER:                 -11.002
REMARK INTRA:                  -1.048
REMARK UNBOUND:                -0.614
REMARK SMILES OCCCNc1nc(Nc2ccncc2)nc2ccccc12
REMARK SMILES IDX 4 1 3 2 2 3 1 4 5 6 6 8 7 9 22 10 8 11 21 12 17 13 16 14
REMARK SMILES IDX 20 15 18 16 19 17 9 18 10 20 11 21 15 22 12 23 14 24 13 25
REMARK H PARENT 1 5 5 7 9 19
ROOT
ATOM      1  C   UNL     1       2.061  44.249  53.087  1.00  0.00     0.117 C 
ENDROOT
BRANCH   1   2
ATOM      2  C   UNL     1       1.681  44.508  54.545  1.00  0.00     0.049 C 
BRANCH   2   3
ATOM      3  C   UNL     1       2.664  45.440  55.239  1.00  0.00     0.158 C 
BRANCH   3   4
ATOM      4  O   UNL     1       3.841  44.740  55.618  1.00  0.00    -0.396 OA
ATOM      5  H   UNL     1       3.710  43.797  55.415  1.00  0.00     0.210 HD
ENDBRANCH   3   4
ENDBRANCH   2   3
ENDBRANCH   1   2
BRANCH   1   6
ATOM      6  N   UNL     1       3.180  43.309  53.044  1.00  0.00    -0.369 N 
ATOM      7  H   UNL     1       2.881  42.392  52.719  1.00  0.00     0.162 HD
BRANCH   6   8
ATOM      8  C   UNL     1       4.276  43.719  52.248  1.00  0.00     0.139 A 
ATOM      9  N   UNL     1       4.922  44.854  52.568  1.00  0.00    -0.195 NA
ATOM     10  C   UNL     1       4.674  42.919  51.166  1.00  0.00     0.043 A 
ATOM     11  C   UNL     1       5.955  45.235  51.804  1.00  0.00     0.229 A 
ATOM     12  C   UNL     1       4.075  41.686  50.792  1.00  0.00     0.014 A 
ATOM     13  C   UNL     1       5.754  43.410  50.431  1.00  0.00     0.078 A 
ATOM     14  N   UNL     1       6.378  44.549  50.739  1.00  0.00    -0.213 NA
ATOM     15  C   UNL     1       4.542  40.971  49.691  1.00  0.00     0.001 A 
ATOM     16  C   UNL     1       6.200  42.680  49.335  1.00  0.00     0.029 A 
ATOM     17  C   UNL     1       5.607  41.472  48.957  1.00  0.00     0.002 A 
BRANCH  11  18
ATOM     18  N   UNL     1       6.563  46.424  52.201  1.00  0.00    -0.324 N 
ATOM     19  H   UNL     1       5.957  47.194  51.961  1.00  0.00     0.170 HD
BRANCH  18  20
ATOM     20  C   UNL     1       7.756  46.730  52.864  1.00  0.00     0.044 A 
ATOM     21  C   UNL     1       8.971  46.454  52.224  1.00  0.00     0.046 A 
ATOM     22  C   UNL     1       7.819  47.288  54.139  1.00  0.00     0.046 A 
ATOM     23  C   UNL     1      10.164  46.747  52.870  1.00  0.00     0.113 A 
ATOM     24  C   UNL     1       9.059  47.545  54.708  1.00  0.00     0.113 A 
ATOM     25  N   UNL     1      10.235  47.288  54.102  1.00  0.00    -0.265 NA
ENDBRANCH  18  20
ENDBRANCH  11  18
ENDBRANCH   6   8
ENDBRANCH   1   6
TORSDOF 7
ENDMDL
MODEL 3
REMARK VINA RESULT:    -8.265      2.325      4.297
REMARK INTER + INTRA:         -12.020
REMARK INTER:                 -11.405
REMARK INTRA:                  -0.615
REMARK UNBOUND:                -0.614
REMARK SMILES OCCCNc1nc(Nc2ccncc2)nc2ccccc12
REMARK SMILES IDX 4 1 3 2 2 3 1 4 5 6 6 8 7 9 22 10 8 11 21 12 17 13 16 14
REMARK SMILES IDX 20 15 18 16 19 17 9 18 10 20 11 21 15 22 12 23 14 24 13 25
REMARK H PARENT 1 5 5 7 9 19
ROOT
ATOM      1  C   UNL     1       8.524  47.878  52.964  1.00  0.00     0.117 C 
ENDROOT
BRANCH   1   2
ATOM      2  C   UNL     1       9.765  47.170  53.510  1.00  0.00     0.049 C 
BRANCH   2   3
ATOM      3  C   UNL     1      10.039  47.529  54.963  1.00  0.00     0.158 C 
BRANCH   3   4
ATOM      4  O   UNL     1       9.149  48.544  55.408  1.00  0.00    -0.396 OA
ATOM      5  H   UNL     1       9.391  48.779  56.320  1.00  0.00     0.210 HD
ENDBRANCH   3   4
ENDBRANCH   2   3
ENDBRANCH   1   2
BRANCH   1   6
ATOM      6  N   UNL     1       8.188  47.315  51.657  1.00  0.00    -0.369 N 
ATOM      7  H   UNL     1       8.962  46.774  51.276  1.00  0.00     0.162 HD
BRANCH   6   8
ATOM      8  C   UNL     1       7.031  46.498  51.637  1.00  0.00     0.139 A 
ATOM      9  N   UNL     1       5.963  46.869  52.364  1.00  0.00    -0.195 NA
ATOM     10  C   UNL     1       7.024  45.343  50.841  1.00  0.00     0.043 A 
ATOM     11  C   UNL     1       4.875  46.085  52.340  1.00  0.00     0.229 A 
ATOM     12  C   UNL     1       8.092  44.909  50.011  1.00  0.00     0.014 A 
ATOM     13  C   UNL     1       5.846  44.594  50.895  1.00  0.00     0.078 A 
ATOM     14  N   UNL     1       4.796  44.954  51.636  1.00  0.00    -0.213 NA
ATOM     15  C   UNL     1       7.986  43.737  49.265  1.00  0.00     0.001 A 
ATOM     16  C   UNL     1       5.765  43.427  50.144  1.00  0.00     0.029 A 
ATOM     17  C   UNL     1       6.818  42.991  49.334  1.00  0.00     0.002 A 
BRANCH  11  18
ATOM     18  N   UNL     1       3.817  46.538  53.124  1.00  0.00    -0.324 N 
ATOM     19  H   UNL     1       3.886  47.540  53.215  1.00  0.00     0.170 HD
BRANCH  18  20
ATOM     20  C   UNL     1       2.723  45.914  53.734  1.00  0.00     0.044 A 
ATOM     21  C   UNL     1       2.820  45.557  55.084  1.00  0.00     0.046 A 
ATOM     22  C   UNL     1       1.533  45.609  53.076  1.00  0.00     0.046 A 
ATOM     23  C   UNL     1       1.746  44.931  55.703  1.00  0.00     0.113 A 
ATOM     24  C   UNL     1       0.512  44.981  53.776  1.00  0.00     0.113 A 
ATOM     25  N   UNL     1       0.591  44.635  55.077  1.00  0.00    -0.265 NA
ENDBRANCH  18  20
ENDBRANCH  11  18
ENDBRANCH   6   8
ENDBRANCH   1   6
TORSDOF 7
ENDMDL
MODEL 4
REMARK VINA RESULT:    -8.158      1.187      1.255
REMARK INTER + INTRA:         -11.872
REMARK INTER:                 -11.303
REMARK INTRA:                  -0.569
REMARK UNBOUND:                -0.614
REMARK SMILES OCCCNc1nc(Nc2ccncc2)nc2ccccc12
REMARK SMILES IDX 4 1 3 2 2 3 1 4 5 6 6 8 7 9 22 10 8 11 21 12 17 13 16 14
REMARK SMILES IDX 20 15 18 16 19 17 9 18 10 20 11 21 15 22 12 23 14 24 13 25
REMARK H PARENT 1 5 5 7 9 19
ROOT
ATOM      1  C   UNL     1       7.924  43.645  49.686  1.00  0.00     0.117 C 
ENDROOT
BRANCH   1   2
ATOM      2  C   UNL     1       6.746  42.917  49.039  1.00  0.00     0.049 C 
BRANCH   2   3
ATOM      3  C   UNL     1       6.268  41.739  49.876  1.00  0.00     0.158 C 
BRANCH   3   4
ATOM      4  O   UNL     1       7.313  40.793  50.056  1.00  0.00    -0.396 OA
ATOM      5  H   UNL     1       6.940  39.903  49.932  1.00  0.00     0.210 HD
ENDBRANCH   3   4
ENDBRANCH   2   3
ENDBRANCH   1   2
BRANCH   1   6
ATOM      6  N   UNL     1       7.682  45.086  49.636  1.00  0.00    -0.369 N 
ATOM      7  H   UNL     1       7.049  45.330  48.878  1.00  0.00     0.162 HD
BRANCH   6   8
ATOM      8  C   UNL     1       7.172  45.649  50.831  1.00  0.00     0.139 A 
ATOM      9  N   UNL     1       5.843  45.646  51.034  1.00  0.00    -0.195 NA
ATOM     10  C   UNL     1       8.067  46.169  51.779  1.00  0.00     0.043 A 
ATOM     11  C   UNL     1       5.372  46.187  52.167  1.00  0.00     0.229 A 
ATOM     12  C   UNL     1       9.482  46.168  51.660  1.00  0.00     0.014 A 
ATOM     13  C   UNL     1       7.472  46.715  52.918  1.00  0.00     0.078 A 
ATOM     14  N   UNL     1       6.151  46.731  53.105  1.00  0.00    -0.213 NA
ATOM     15  C   UNL     1      10.283  46.719  52.658  1.00  0.00     0.001 A 
ATOM     16  C   UNL     1       8.292  47.262  53.899  1.00  0.00     0.029 A 
ATOM     17  C   UNL     1       9.685  47.273  53.781  1.00  0.00     0.002 A 
BRANCH  11  18
ATOM     18  N   UNL     1       3.985  46.148  52.295  1.00  0.00    -0.324 N 
ATOM     19  H   UNL     1       3.600  46.992  51.898  1.00  0.00     0.170 HD
BRANCH  18  20
ATOM     20  C   UNL     1       3.082  45.205  52.797  1.00  0.00     0.044 A 
ATOM     21  C   UNL     1       2.254  45.570  53.865  1.00  0.00     0.046 A 
ATOM     22  C   UNL     1       2.958  43.907  52.306  1.00  0.00     0.046 A 
ATOM     23  C   UNL     1       1.355  44.644  54.379  1.00  0.00     0.113 A 
ATOM     24  C   UNL     1       2.032  43.049  52.884  1.00  0.00     0.113 A 
ATOM     25  N   UNL     1       1.226  43.388  53.910  1.00  0.00    -0.265 NA
ENDBRANCH  18  20
ENDBRANCH  11  18
ENDBRANCH   6   8
ENDBRANCH   1   6
TORSDOF 7
ENDMDL
MODEL 5
REMARK VINA RESULT:    -7.872      2.706      4.688
REMARK INTER + INTRA:         -11.478
REMARK INTER:                 -10.876
REMARK INTRA:                  -0.602
REMARK UNBOUND:                -0.614
REMARK SMILES OCCCNc1nc(Nc2ccncc2)nc2ccccc12
REMARK SMILES IDX 4 1 3 2 2 3 1 4 5 6 6 8 7 9 22 10 8 11 21 12 17 13 16 14
REMARK SMILES IDX 20 15 18 16 19 17 9 18 10 20 11 21 15 22 12 23 14 24 13 25
REMARK H PARENT 1 5 5 7 9 19
ROOT
ATOM      1  C   UNL     1       7.561  46.950  53.818  1.00  0.00     0.117 C 
ENDROOT
BRANCH   1   2
ATOM      2  C   UNL     1       8.987  47.448  53.585  1.00  0.00     0.049 C 
BRANCH   2   3
ATOM      3  C   UNL     1       9.744  47.657  54.888  1.00  0.00     0.158 C 
BRANCH   3   4
ATOM      4  O   UNL     1       9.171  48.718  55.639  1.00  0.00    -0.396 OA
ATOM      5  H   UNL     1       9.734  48.877  56.416  1.00  0.00     0.210 HD
ENDBRANCH   3   4
ENDBRANCH   2   3
ENDBRANCH   1   2
BRANCH   1   6
ATOM      6  N   UNL     1       6.831  46.975  52.552  1.00  0.00    -0.369 N 
ATOM      7  H   UNL     1       7.452  47.177  51.771  1.00  0.00     0.162 HD
BRANCH   6   8
ATOM      8  C   UNL     1       6.116  45.792  52.249  1.00  0.00     0.139 A 
ATOM      9  N   UNL     1       5.024  45.490  52.973  1.00  0.00    -0.195 NA
ATOM     10  C   UNL     1       6.550  44.983  51.188  1.00  0.00     0.043 A 
ATOM     11  C   UNL     1       4.358  44.364  52.680  1.00  0.00     0.229 A 
ATOM     12  C   UNL     1       7.662  45.255  50.348  1.00  0.00     0.014 A 
ATOM     13  C   UNL     1       5.791  43.830  50.973  1.00  0.00     0.078 A 
ATOM     14  N   UNL     1       4.721  43.523  51.708  1.00  0.00    -0.213 NA
ATOM     15  C   UNL     1       8.016  44.379  49.324  1.00  0.00     0.001 A 
ATOM     16  C   UNL     1       6.165  42.970  49.946  1.00  0.00     0.029 A 
ATOM     17  C   UNL     1       7.266  43.229  49.125  1.00  0.00     0.002 A 
BRANCH  11  18
ATOM     18  N   UNL     1       3.244  44.124  53.481  1.00  0.00    -0.324 N 
ATOM     19  H   UNL     1       3.531  44.139  54.449  1.00  0.00     0.170 HD
BRANCH  18  20
ATOM     20  C   UNL     1       1.885  43.922  53.220  1.00  0.00     0.044 A 
ATOM     21  C   UNL     1       1.120  45.004  52.765  1.00  0.00     0.046 A 
ATOM     22  C   UNL     1       1.229  42.706  53.394  1.00  0.00     0.046 A 
ATOM     23  C   UNL     1      -0.231  44.823  52.505  1.00  0.00     0.113 A 
ATOM     24  C   UNL     1      -0.127  42.618  53.110  1.00  0.00     0.113 A 
ATOM     25  N   UNL     1      -0.874  43.650  52.669  1.00  0.00    -0.265 NA
ENDBRANCH  18  20
ENDBRANCH  11  18
ENDBRANCH   6   8
ENDBRANCH   1   6
TORSDOF 7
ENDMDL
MODEL 6
REMARK VINA RESULT:    -7.842      2.275      6.352
REMARK INTER + INTRA:         -11.436
REMARK INTER:                 -10.577
REMARK INTRA:                  -0.859
REMARK UNBOUND:                -0.614
REMARK SMILES OCCCNc1nc(Nc2ccncc2)nc2ccccc12
REMARK SMILES IDX 4 1 3 2 2 3 1 4 5 6 6 8 7 9 22 10 8 11 21 12 17 13 16 14
REMARK SMILES IDX 20 15 18 16 19 17 9 18 10 20 11 21 15 22 12 23 14 24 13 25
REMARK H PARENT 1 5 5 7 9 19
ROOT
ATOM      1  C   UNL     1       2.788  44.607  53.246  1.00  0.00     0.117 C 
ENDROOT
BRANCH   1   2
ATOM      2  C   UNL     1       1.399  44.288  52.692  1.00  0.00     0.049 C 
BRANCH   2   3
ATOM      3  C   UNL     1       1.186  42.793  52.501  1.00  0.00     0.158 C 
BRANCH   3   4
ATOM      4  O   UNL     1       1.371  42.098  53.726  1.00  0.00    -0.396 OA
ATOM      5  H   UNL     1       2.167  41.545  53.642  1.00  0.00     0.210 HD
ENDBRANCH   3   4
ENDBRANCH   2   3
ENDBRANCH   1   2
BRANCH   1   6
ATOM      6  N   UNL     1       3.692  43.499  52.940  1.00  0.00    -0.369 N 
ATOM      7  H   UNL     1       3.180  42.686  52.605  1.00  0.00     0.162 HD
BRANCH   6   8
ATOM      8  C   UNL     1       4.707  43.797  52.000  1.00  0.00     0.139 A 
ATOM      9  N   UNL     1       5.461  44.894  52.184  1.00  0.00    -0.195 NA
ATOM     10  C   UNL     1       4.915  42.926  50.919  1.00  0.00     0.043 A 
ATOM     11  C   UNL     1       6.416  45.168  51.284  1.00  0.00     0.229 A 
ATOM     12  C   UNL     1       4.195  41.725  50.681  1.00  0.00     0.014 A 
ATOM     13  C   UNL     1       5.928  43.307  50.037  1.00  0.00     0.078 A 
ATOM     14  N   UNL     1       6.659  44.410  50.212  1.00  0.00    -0.213 NA
ATOM     15  C   UNL     1       4.475  40.933  49.569  1.00  0.00     0.001 A 
ATOM     16  C   UNL     1       6.187  42.502  48.933  1.00  0.00     0.029 A 
ATOM     17  C   UNL     1       5.473  41.326  48.689  1.00  0.00     0.002 A 
BRANCH  11  18
ATOM     18  N   UNL     1       7.146  46.325  51.546  1.00  0.00    -0.324 N 
ATOM     19  H   UNL     1       6.933  47.010  50.836  1.00  0.00     0.170 HD
BRANCH  18  20
ATOM     20  C   UNL     1       8.027  46.708  52.563  1.00  0.00     0.044 A 
ATOM     21  C   UNL     1       9.403  46.547  52.357  1.00  0.00     0.046 A 
ATOM     22  C   UNL     1       7.623  47.236  53.787  1.00  0.00     0.046 A 
ATOM     23  C   UNL     1      10.291  46.917  53.357  1.00  0.00     0.113 A 
ATOM     24  C   UNL     1       8.583  47.577  54.730  1.00  0.00     0.113 A 
ATOM     25  N   UNL     1       9.910  47.430  54.543  1.00  0.00    -0.265 NA
ENDBRANCH  18  20
ENDBRANCH  11  18
ENDBRANCH   6   8
ENDBRANCH   1   6
TORSDOF 7
ENDMDL
MODEL 7
REMARK VINA RESULT:    -7.828      2.193      4.871
REMARK INTER + INTRA:         -11.417
REMARK INTER:                 -10.809
REMARK INTRA:                  -0.608
REMARK UNBOUND:                -0.614
REMARK SMILES OCCCNc1nc(Nc2ccncc2)nc2ccccc12
REMARK SMILES IDX 4 1 3 2 2 3 1 4 5 6 6 8 7 9 22 10 8 11 21 12 17 13 16 14
REMARK SMILES IDX 20 15 18 16 19 17 9 18 10 20 11 21 15 22 12 23 14 24 13 25
REMARK H PARENT 1 5 5 7 9 19
ROOT
ATOM      1  C   UNL     1       3.824  47.277  53.448  1.00  0.00     0.117 C 
ENDROOT
BRANCH   1   2
ATOM      2  C   UNL     1       3.147  45.964  53.842  1.00  0.00     0.049 C 
BRANCH   2   3
ATOM      3  C   UNL     1       3.189  45.724  55.345  1.00  0.00     0.158 C 
BRANCH   3   4
ATOM      4  O   UNL     1       4.287  44.893  55.692  1.00  0.00    -0.396 OA
ATOM      5  H   UNL     1       4.100  43.995  55.368  1.00  0.00     0.210 HD
ENDBRANCH   3   4
ENDBRANCH   2   3
ENDBRANCH   1   2
BRANCH   1   6
ATOM      6  N   UNL     1       5.179  47.300  53.996  1.00  0.00    -0.369 N 
ATOM      7  H   UNL     1       5.222  46.833  54.899  1.00  0.00     0.162 HD
BRANCH   6   8
ATOM      8  C   UNL     1       6.172  46.732  53.162  1.00  0.00     0.139 A 
ATOM      9  N   UNL     1       5.789  46.045  52.072  1.00  0.00    -0.195 NA
ATOM     10  C   UNL     1       7.526  46.925  53.480  1.00  0.00     0.043 A 
ATOM     11  C   UNL     1       6.738  45.508  51.292  1.00  0.00     0.229 A 
ATOM     12  C   UNL     1       8.011  47.675  54.584  1.00  0.00     0.014 A 
ATOM     13  C   UNL     1       8.432  46.317  52.609  1.00  0.00     0.078 A 
ATOM     14  N   UNL     1       8.046  45.616  51.541  1.00  0.00    -0.213 NA
ATOM     15  C   UNL     1       9.380  47.798  54.817  1.00  0.00     0.001 A 
ATOM     16  C   UNL     1       9.792  46.451  52.864  1.00  0.00     0.029 A 
ATOM     17  C   UNL     1      10.274  47.179  53.955  1.00  0.00     0.002 A 
BRANCH  11  18
ATOM     18  N   UNL     1       6.256  44.808  50.189  1.00  0.00    -0.324 N 
ATOM     19  H   UNL     1       6.332  45.396  49.373  1.00  0.00     0.170 HD
BRANCH  18  20
ATOM     20  C   UNL     1       5.759  43.513  50.002  1.00  0.00     0.044 A 
ATOM     21  C   UNL     1       4.749  43.051  50.854  1.00  0.00     0.046 A 
ATOM     22  C   UNL     1       6.214  42.638  49.018  1.00  0.00     0.046 A 
ATOM     23  C   UNL     1       4.248  41.768  50.686  1.00  0.00     0.113 A 
ATOM     24  C   UNL     1       5.655  41.371  48.925  1.00  0.00     0.113 A 
ATOM     25  N   UNL     1       4.680  40.915  49.737  1.00  0.00    -0.265 NA
ENDBRANCH  18  20
ENDBRANCH  11  18
ENDBRANCH   6   8
ENDBRANCH   1   6
TORSDOF 7
ENDMDL
MODEL 8
REMARK VINA RESULT:    -7.802      1.948      2.677
REMARK INTER + INTRA:         -11.381
REMARK INTER:                 -10.304
REMARK INTRA:                  -1.077
REMARK UNBOUND:                -0.614
REMARK SMILES OCCCNc1nc(Nc2ccncc2)nc2ccccc12
REMARK SMILES IDX 4 1 3 2 2 3 1 4 5 6 6 8 7 9 22 10 8 11 21 12 17 13 16 14
REMARK SMILES IDX 20 15 18 16 19 17 9 18 10 20 11 21 15 22 12 23 14 24 13 25
REMARK H PARENT 1 5 5 7 9 19
ROOT
ATOM      1  C   UNL     1       6.187  41.939  50.016  1.00  0.00     0.117 C 
ENDROOT
BRANCH   1   2
ATOM      2  C   UNL     1       5.371  41.218  48.943  1.00  0.00     0.049 C 
BRANCH   2   3
ATOM      3  C   UNL     1       3.961  40.892  49.416  1.00  0.00     0.158 C 
BRANCH   3   4
ATOM      4  O   UNL     1       3.880  40.946  50.833  1.00  0.00    -0.396 OA
ATOM      5  H   UNL     1       3.512  40.102  51.147  1.00  0.00     0.210 HD
ENDBRANCH   3   4
ENDBRANCH   2   3
ENDBRANCH   1   2
BRANCH   1   6
ATOM      6  N   UNL     1       6.031  43.383  49.847  1.00  0.00    -0.369 N 
ATOM      7  H   UNL     1       5.347  43.600  49.125  1.00  0.00     0.162 HD
BRANCH   6   8
ATOM      8  C   UNL     1       5.667  44.087  51.020  1.00  0.00     0.139 A 
ATOM      9  N   UNL     1       4.614  43.655  51.736  1.00  0.00    -0.195 NA
ATOM     10  C   UNL     1       6.429  45.197  51.415  1.00  0.00     0.043 A 
ATOM     11  C   UNL     1       4.276  44.334  52.842  1.00  0.00     0.229 A 
ATOM     12  C   UNL     1       7.580  45.686  50.742  1.00  0.00     0.014 A 
ATOM     13  C   UNL     1       5.988  45.836  52.576  1.00  0.00     0.078 A 
ATOM     14  N   UNL     1       4.928  45.417  53.271  1.00  0.00    -0.213 NA
ATOM     15  C   UNL     1       8.263  46.805  51.215  1.00  0.00     0.001 A 
ATOM     16  C   UNL     1       6.684  46.952  53.026  1.00  0.00     0.029 A 
ATOM     17  C   UNL     1       7.810  47.443  52.360  1.00  0.00     0.002 A 
BRANCH  11  18
ATOM     18  N   UNL     1       3.172  43.824  53.520  1.00  0.00    -0.324 N 
ATOM     19  H   UNL     1       3.483  43.425  54.393  1.00  0.00     0.170 HD
BRANCH  18  20
ATOM     20  C   UNL     1       1.797  43.801  53.259  1.00  0.00     0.044 A 
ATOM     21  C   UNL     1       1.191  44.954  52.745  1.00  0.00     0.046 A 
ATOM     22  C   UNL     1       0.979  42.698  53.489  1.00  0.00     0.046 A 
ATOM     23  C   UNL     1      -0.172  44.950  52.486  1.00  0.00     0.113 A 
ATOM     24  C   UNL     1      -0.377  42.785  53.200  1.00  0.00     0.113 A 
ATOM     25  N   UNL     1      -0.972  43.888  52.703  1.00  0.00    -0.265 NA
ENDBRANCH  18  20
ENDBRANCH  11  18
ENDBRANCH   6   8
ENDBRANCH   1   6
TORSDOF 7
ENDMDL
MODEL 9
REMARK VINA RESULT:    -7.700      2.890      4.864
REMARK INTER + INTRA:         -11.241
REMARK INTER:                 -10.196
REMARK INTRA:                  -1.045
REMARK UNBOUND:                -0.614
REMARK SMILES OCCCNc1nc(Nc2ccncc2)nc2ccccc12
REMARK SMILES IDX 4 1 3 2 2 3 1 4 5 6 6 8 7 9 22 10 8 11 21 12 17 13 16 14
REMARK SMILES IDX 20 15 18 16 19 17 9 18 10 20 11 21 15 22 12 23 14 24 13 25
REMARK H PARENT 1 5 5 7 9 19
ROOT
ATOM      1  C   UNL     1       4.208  46.880  53.082  1.00  0.00     0.117 C 
ENDROOT
BRANCH   1   2
ATOM      2  C   UNL     1       4.367  47.089  54.588  1.00  0.00     0.049 C 
BRANCH   2   3
ATOM      3  C   UNL     1       3.627  46.032  55.396  1.00  0.00     0.158 C 
BRANCH   3   4
ATOM      4  O   UNL     1       4.342  44.805  55.395  1.00  0.00    -0.396 OA
ATOM      5  H   UNL     1       4.026  44.272  54.645  1.00  0.00     0.210 HD
ENDBRANCH   3   4
ENDBRANCH   2   3
ENDBRANCH   1   2
BRANCH   1   6
ATOM      6  N   UNL     1       5.417  46.250  52.555  1.00  0.00    -0.369 N 
ATOM      7  H   UNL     1       6.127  46.149  53.277  1.00  0.00     0.162 HD
BRANCH   6   8
ATOM      8  C   UNL     1       5.219  44.984  51.955  1.00  0.00     0.139 A 
ATOM      9  N   UNL     1       4.138  44.263  52.301  1.00  0.00    -0.195 NA
ATOM     10  C   UNL     1       6.140  44.528  50.998  1.00  0.00     0.043 A 
ATOM     11  C   UNL     1       3.965  43.063  51.729  1.00  0.00     0.229 A 
ATOM     12  C   UNL     1       7.278  45.248  50.545  1.00  0.00     0.014 A 
ATOM     13  C   UNL     1       5.871  43.264  50.472  1.00  0.00     0.078 A 
ATOM     14  N   UNL     1       4.809  42.542  50.835  1.00  0.00    -0.213 NA
ATOM     15  C   UNL     1       8.137  44.700  49.595  1.00  0.00     0.001 A 
ATOM     16  C   UNL     1       6.744  42.737  49.527  1.00  0.00     0.029 A 
ATOM     17  C   UNL     1       7.871  43.437  49.086  1.00  0.00     0.002 A 
BRANCH  11  18
ATOM     18  N   UNL     1       2.825  42.380  52.148  1.00  0.00    -0.324 N 
ATOM     19  H   UNL     1       3.093  41.453  52.442  1.00  0.00     0.170 HD
BRANCH  18  20
ATOM     20  C   UNL     1       1.476  42.727  52.272  1.00  0.00     0.044 A 
ATOM     21  C   UNL     1       0.802  43.217  51.146  1.00  0.00     0.046 A 
ATOM     22  C   UNL     1       0.750  42.628  53.457  1.00  0.00     0.046 A 
ATOM     23  C   UNL     1      -0.536  43.571  51.253  1.00  0.00     0.113 A 
ATOM     24  C   UNL     1      -0.585  43.008  53.471  1.00  0.00     0.113 A 
ATOM     25  N   UNL     1      -1.246  43.477  52.393  1.00  0.00    -0.265 NA
ENDBRANCH  18  20
ENDBRANCH  11  18
ENDBRANCH   6   8
ENDBRANCH   1   6
TORSDOF 7
ENDMDL
MODEL 10
REMARK VINA RESULT:    -7.677      2.250      4.359
REMARK INTER + INTRA:         -11.208
REMARK INTER:                 -10.578
REMARK INTRA:                  -0.630
REMARK UNBOUND:                -0.614
REMARK SMILES OCCCNc1nc(Nc2ccncc2)nc2ccccc12
REMARK SMILES IDX 4 1 3 2 2 3 1 4 5 6 6 8 7 9 22 10 8 11 21 12 17 13 16 14
REMARK SMILES IDX 20 15 18 16 19 17 9 18 10 20 11 21 15 22 12 23 14 24 13 25
REMARK H PARENT 1 5 5 7 9 19
ROOT
ATOM      1  C   UNL     1       7.451  46.897  53.950  1.00  0.00     0.117 C 
ENDROOT
BRANCH   1   2
ATOM      2  C   UNL     1       8.746  47.691  53.773  1.00  0.00     0.049 C 
BRANCH   2   3
ATOM      3  C   UNL     1       9.894  46.818  53.286  1.00  0.00     0.158 C 
BRANCH   3   4
ATOM      4  O   UNL     1       9.935  46.787  51.866  1.00  0.00    -0.396 OA
ATOM      5  H   UNL     1       9.521  47.602  51.534  1.00  0.00     0.210 HD
ENDBRANCH   3   4
ENDBRANCH   2   3
ENDBRANCH   1   2
BRANCH   1   6
ATOM      6  N   UNL     1       6.733  46.864  52.677  1.00  0.00    -0.369 N 
ATOM      7  H   UNL     1       7.372  46.945  51.888  1.00  0.00     0.162 HD
BRANCH   6   8
ATOM      8  C   UNL     1       5.928  45.718  52.473  1.00  0.00     0.139 A 
ATOM      9  N   UNL     1       4.884  45.504  53.292  1.00  0.00    -0.195 NA
ATOM     10  C   UNL     1       6.227  44.853  51.409  1.00  0.00     0.043 A 
ATOM     11  C   UNL     1       4.132  44.412  53.092  1.00  0.00     0.229 A 
ATOM     12  C   UNL     1       7.281  45.033  50.474  1.00  0.00     0.014 A 
ATOM     13  C   UNL     1       5.388  43.742  51.295  1.00  0.00     0.078 A 
ATOM     14  N   UNL     1       4.366  43.522  52.124  1.00  0.00    -0.213 NA
ATOM     15  C   UNL     1       7.499  44.107  49.456  1.00  0.00     0.001 A 
ATOM     16  C   UNL     1       5.627  42.831  50.272  1.00  0.00     0.029 A 
ATOM     17  C   UNL     1       6.670  42.999  49.357  1.00  0.00     0.002 A 
BRANCH  11  18
ATOM     18  N   UNL     1       3.076  44.262  53.987  1.00  0.00    -0.324 N 
ATOM     19  H   UNL     1       3.380  44.563  54.901  1.00  0.00     0.170 HD
BRANCH  18  20
ATOM     20  C   UNL     1       1.747  43.844  53.860  1.00  0.00     0.044 A 
ATOM     21  C   UNL     1       0.735  44.646  54.401  1.00  0.00     0.046 A 
ATOM     22  C   UNL     1       1.358  42.662  53.233  1.00  0.00     0.046 A 
ATOM     23  C   UNL     1      -0.589  44.242  54.289  1.00  0.00     0.113 A 
ATOM     24  C   UNL     1       0.010  42.338  53.170  1.00  0.00     0.113 A 
ATOM     25  N   UNL     1      -0.975  43.103  53.683  1.00  0.00    -0.265 NA
ENDBRANCH  18  20
ENDBRANCH  11  18
ENDBRANCH   6   8
ENDBRANCH   1   6
TORSDOF 7
ENDMDL
MODEL 11
REMARK VINA RESULT:    -7.566      1.859      2.524
REMARK INTER + INTRA:         -11.055
REMARK INTER:                 -10.304
REMARK INTRA:                  -0.752
REMARK UNBOUND:                -0.614
REMARK SMILES OCCCNc1nc(Nc2ccncc2)nc2ccccc12
REMARK SMILES IDX 4 1 3 2 2 3 1 4 5 6 6 8 7 9 22 10 8 11 21 12 17 13 16 14
REMARK SMILES IDX 20 15 18 16 19 17 9 18 10 20 11 21 15 22 12 23 14 24 13 25
REMARK H PARENT 1 5 5 7 9 19
ROOT
ATOM      1  C   UNL     1       6.184  42.007  50.086  1.00  0.00     0.117 C 
ENDROOT
BRANCH   1   2
ATOM      2  C   UNL     1       5.496  41.193  48.990  1.00  0.00     0.049 C 
BRANCH   2   3
ATOM      3  C   UNL     1       4.050  40.868  49.338  1.00  0.00     0.158 C 
BRANCH   3   4
ATOM      4  O   UNL     1       3.861  40.858  50.745  1.00  0.00    -0.396 OA
ATOM      5  H   UNL     1       3.014  41.295  50.939  1.00  0.00     0.210 HD
ENDBRANCH   3   4
ENDBRANCH   2   3
ENDBRANCH   1   2
BRANCH   1   6
ATOM      6  N   UNL     1       5.838  43.418  49.923  1.00  0.00    -0.369 N 
ATOM      7  H   UNL     1       5.131  43.546  49.203  1.00  0.00     0.162 HD
BRANCH   6   8
ATOM      8  C   UNL     1       5.387  44.064  51.099  1.00  0.00     0.139 A 
ATOM      9  N   UNL     1       4.282  43.602  51.710  1.00  0.00    -0.195 NA
ATOM     10  C   UNL     1       6.119  45.148  51.608  1.00  0.00     0.043 A 
ATOM     11  C   UNL     1       3.862  44.225  52.821  1.00  0.00     0.229 A 
ATOM     12  C   UNL     1       7.318  45.664  51.050  1.00  0.00     0.014 A 
ATOM     13  C   UNL     1       5.591  45.729  52.763  1.00  0.00     0.078 A 
ATOM     14  N   UNL     1       4.481  45.282  53.353  1.00  0.00    -0.213 NA
ATOM     15  C   UNL     1       7.965  46.754  51.630  1.00  0.00     0.001 A 
ATOM     16  C   UNL     1       6.252  46.817  53.322  1.00  0.00     0.029 A 
ATOM     17  C   UNL     1       7.427  47.336  52.769  1.00  0.00     0.002 A 
BRANCH  11  18
ATOM     18  N   UNL     1       2.708  43.688  53.386  1.00  0.00    -0.324 N 
ATOM     19  H   UNL     1       2.629  42.722  53.105  1.00  0.00     0.170 HD
BRANCH  18  20
ATOM     20  C   UNL     1       1.726  44.187  54.248  1.00  0.00     0.044 A 
ATOM     21  C   UNL     1       2.127  44.906  55.381  1.00  0.00     0.046 A 
ATOM     22  C   UNL     1       0.357  44.006  54.058  1.00  0.00     0.046 A 
ATOM     23  C   UNL     1       1.165  45.404  56.249  1.00  0.00     0.113 A 
ATOM     24  C   UNL     1      -0.533  44.539  54.981  1.00  0.00     0.113 A 
ATOM     25  N   UNL     1      -0.159  45.236  56.074  1.00  0.00    -0.265 NA
ENDBRANCH  18  20
ENDBRANCH  11  18
ENDBRANCH   6   8
ENDBRANCH   1   6
TORSDOF 7
ENDMDL
MODEL 12
REMARK VINA RESULT:    -7.527      3.062      5.171
REMARK INTER + INTRA:         -11.001
REMARK INTER:                 -10.080
REMARK INTRA:                  -0.921
REMARK UNBOUND:                -0.614
REMARK SMILES OCCCNc1nc(Nc2ccncc2)nc2ccccc12
REMARK SMILES IDX 4 1 3 2 2 3 1 4 5 6 6 8 7 9 22 10 8 11 21 12 17 13 16 14
REMARK SMILES IDX 20 15 18 16 19 17 9 18 10 20 11 21 15 22 12 23 14 24 13 25
REMARK H PARENT 1 5 5 7 9 19
ROOT
ATOM      1  C   UNL     1       4.360  46.468  53.363  1.00  0.00     0.117 C 
ENDROOT
BRANCH   1   2
ATOM      2  C   UNL     1       5.289  46.630  54.567  1.00  0.00     0.049 C 
BRANCH   2   3
ATOM      3  C   UNL     1       5.389  45.354  55.391  1.00  0.00     0.158 C 
BRANCH   3   4
ATOM      4  O   UNL     1       4.107  44.770  55.573  1.00  0.00    -0.396 OA
ATOM      5  H   UNL     1       3.742  44.563  54.695  1.00  0.00     0.210 HD
ENDBRANCH   3   4
ENDBRANCH   2   3
ENDBRANCH   1   2
BRANCH   1   6
ATOM      6  N   UNL     1       5.088  45.808  52.281  1.00  0.00    -0.369 N 
ATOM      7  H   UNL     1       6.089  45.795  52.462  1.00  0.00     0.162 HD
BRANCH   6   8
ATOM      8  C   UNL     1       4.676  44.482  52.005  1.00  0.00     0.139 A 
ATOM      9  N   UNL     1       3.619  43.979  52.666  1.00  0.00    -0.195 NA
ATOM     10  C   UNL     1       5.364  43.741  51.032  1.00  0.00     0.043 A 
ATOM     11  C   UNL     1       3.242  42.721  52.399  1.00  0.00     0.229 A 
ATOM     12  C   UNL     1       6.457  44.215  50.258  1.00  0.00     0.014 A 
ATOM     13  C   UNL     1       4.896  42.440  50.837  1.00  0.00     0.078 A 
ATOM     14  N   UNL     1       3.860  41.937  51.512  1.00  0.00    -0.213 NA
ATOM     15  C   UNL     1       7.078  43.392  49.320  1.00  0.00     0.001 A 
ATOM     16  C   UNL     1       5.533  41.637  49.897  1.00  0.00     0.029 A 
ATOM     17  C   UNL     1       6.616  42.096  49.142  1.00  0.00     0.002 A 
BRANCH  11  18
ATOM     18  N   UNL     1       2.144  42.276  53.132  1.00  0.00    -0.324 N 
ATOM     19  H   UNL     1       2.427  41.488  53.694  1.00  0.00     0.170 HD
BRANCH  18  20
ATOM     20  C   UNL     1       0.821  42.713  53.261  1.00  0.00     0.044 A 
ATOM     21  C   UNL     1      -0.131  42.253  52.344  1.00  0.00     0.046 A 
ATOM     22  C   UNL     1       0.384  43.595  54.247  1.00  0.00     0.046 A 
ATOM     23  C   UNL     1      -1.447  42.681  52.454  1.00  0.00     0.113 A 
ATOM     24  C   UNL     1      -0.952  43.970  54.279  1.00  0.00     0.113 A 
ATOM     25  N   UNL     1      -1.880  43.531  53.404  1.00  0.00    -0.265 NA
ENDBRANCH  18  20
ENDBRANCH  11  18
ENDBRANCH   6   8
ENDBRANCH   1   6
TORSDOF 7
ENDMDL
MODEL 13
REMARK VINA RESULT:    -7.524      2.040      4.163
REMARK INTER + INTRA:         -10.997
REMARK INTER:                 -10.459
REMARK INTRA:                  -0.538
REMARK UNBOUND:                -0.614
REMARK SMILES OCCCNc1nc(Nc2ccncc2)nc2ccccc12
REMARK SMILES IDX 4 1 3 2 2 3 1 4 5 6 6 8 7 9 22 10 8 11 21 12 17 13 16 14
REMARK SMILES IDX 20 15 18 16 19 17 9 18 10 20 11 21 15 22 12 23 14 24 13 25
REMARK H PARENT 1 5 5 7 9 19
ROOT
ATOM      1  C   UNL     1       7.976  47.196  53.986  1.00  0.00     0.117 C 
ENDROOT
BRANCH   1   2
ATOM      2  C   UNL     1       9.291  47.429  53.242  1.00  0.00     0.049 C 
BRANCH   2   3
ATOM      3  C   UNL     1       9.947  46.125  52.810  1.00  0.00     0.158 C 
BRANCH   3   4
ATOM      4  O   UNL     1      10.637  46.292  51.580  1.00  0.00    -0.396 OA
ATOM      5  H   UNL     1      10.496  45.493  51.043  1.00  0.00     0.210 HD
ENDBRANCH   3   4
ENDBRANCH   2   3
ENDBRANCH   1   2
BRANCH   1   6
ATOM      6  N   UNL     1       6.868  47.272  53.035  1.00  0.00    -0.369 N 
ATOM      7  H   UNL     1       7.205  47.397  52.083  1.00  0.00     0.162 HD
BRANCH   6   8
ATOM      8  C   UNL     1       5.992  46.160  53.047  1.00  0.00     0.139 A 
ATOM      9  N   UNL     1       5.106  46.043  54.052  1.00  0.00    -0.195 NA
ATOM     10  C   UNL     1       6.053  45.230  51.998  1.00  0.00     0.043 A 
ATOM     11  C   UNL     1       4.285  44.983  54.054  1.00  0.00     0.229 A 
ATOM     12  C   UNL     1       6.925  45.308  50.879  1.00  0.00     0.014 A 
ATOM     13  C   UNL     1       5.161  44.161  52.101  1.00  0.00     0.078 A 
ATOM     14  N   UNL     1       4.299  44.036  53.113  1.00  0.00    -0.213 NA
ATOM     15  C   UNL     1       6.912  44.324  49.894  1.00  0.00     0.001 A 
ATOM     16  C   UNL     1       5.169  43.189  51.107  1.00  0.00     0.029 A 
ATOM     17  C   UNL     1       6.033  43.257  50.010  1.00  0.00     0.002 A 
BRANCH  11  18
ATOM     18  N   UNL     1       3.405  44.934  55.133  1.00  0.00    -0.324 N 
ATOM     19  H   UNL     1       3.941  44.920  55.987  1.00  0.00     0.170 HD
BRANCH  18  20
ATOM     20  C   UNL     1       2.011  44.943  55.250  1.00  0.00     0.044 A 
ATOM     21  C   UNL     1       1.241  44.552  54.147  1.00  0.00     0.046 A 
ATOM     22  C   UNL     1       1.328  45.330  56.400  1.00  0.00     0.046 A 
ATOM     23  C   UNL     1      -0.144  44.561  54.244  1.00  0.00     0.113 A 
ATOM     24  C   UNL     1      -0.061  45.309  56.406  1.00  0.00     0.113 A 
ATOM     25  N   UNL     1      -0.813  44.932  55.352  1.00  0.00    -0.265 NA
ENDBRANCH  18  20
ENDBRANCH  11  18
ENDBRANCH   6   8
ENDBRANCH   1   6
TORSDOF 7
ENDMDL
MODEL 14
REMARK VINA RESULT:    -7.460      1.888      5.863
REMARK INTER + INTRA:         -10.909
REMARK INTER:                 -10.423
REMARK INTRA:                  -0.485
REMARK UNBOUND:                -0.614
REMARK SMILES OCCCNc1nc(Nc2ccncc2)nc2ccccc12
REMARK SMILES IDX 4 1 3 2 2 3 1 4 5 6 6 8 7 9 22 10 8 11 21 12 17 13 16 14
REMARK SMILES IDX 20 15 18 16 19 17 9 18 10 20 11 21 15 22 12 23 14 24 13 25
REMARK H PARENT 1 5 5 7 9 19
ROOT
ATOM      1  C   UNL     1       5.940  42.983  50.267  1.00  0.00     0.117 C 
ENDROOT
BRANCH   1   2
ATOM      2  C   UNL     1       6.326  41.622  49.687  1.00  0.00     0.049 C 
BRANCH   2   3
ATOM      3  C   UNL     1       5.399  41.195  48.558  1.00  0.00     0.158 C 
BRANCH   3   4
ATOM      4  O   UNL     1       6.015  41.400  47.295  1.00  0.00    -0.396 OA
ATOM      5  H   UNL     1       5.514  42.087  46.821  1.00  0.00     0.210 HD
ENDBRANCH   3   4
ENDBRANCH   2   3
ENDBRANCH   1   2
BRANCH   1   6
ATOM      6  N   UNL     1       4.756  42.826  51.109  1.00  0.00    -0.369 N 
ATOM      7  H   UNL     1       4.813  41.983  51.677  1.00  0.00     0.162 HD
BRANCH   6   8
ATOM      8  C   UNL     1       4.485  43.916  51.971  1.00  0.00     0.139 A 
ATOM      9  N   UNL     1       5.355  44.940  52.015  1.00  0.00    -0.195 NA
ATOM     10  C   UNL     1       3.306  43.909  52.733  1.00  0.00     0.043 A 
ATOM     11  C   UNL     1       5.089  45.964  52.839  1.00  0.00     0.229 A 
ATOM     12  C   UNL     1       2.317  42.890  52.707  1.00  0.00     0.014 A 
ATOM     13  C   UNL     1       3.131  45.018  53.563  1.00  0.00     0.078 A 
ATOM     14  N   UNL     1       4.008  46.022  53.621  1.00  0.00    -0.213 NA
ATOM     15  C   UNL     1       1.183  42.976  53.512  1.00  0.00     0.001 A 
ATOM     16  C   UNL     1       1.992  45.079  54.359  1.00  0.00     0.029 A 
ATOM     17  C   UNL     1       1.022  44.074  54.345  1.00  0.00     0.002 A 
BRANCH  11  18
ATOM     18  N   UNL     1       6.044  46.979  52.829  1.00  0.00    -0.324 N 
ATOM     19  H   UNL     1       5.573  47.865  52.727  1.00  0.00     0.170 HD
BRANCH  18  20
ATOM     20  C   UNL     1       7.435  47.005  52.968  1.00  0.00     0.044 A 
ATOM     21  C   UNL     1       8.228  46.864  51.823  1.00  0.00     0.046 A 
ATOM     22  C   UNL     1       8.095  47.152  54.187  1.00  0.00     0.046 A 
ATOM     23  C   UNL     1       9.611  46.882  51.943  1.00  0.00     0.113 A 
ATOM     24  C   UNL     1       9.483  47.157  54.212  1.00  0.00     0.113 A 
ATOM     25  N   UNL     1      10.257  47.025  53.116  1.00  0.00    -0.265 NA
ENDBRANCH  18  20
ENDBRANCH  11  18
ENDBRANCH   6   8
ENDBRANCH   1   6
TORSDOF 7
ENDMDL
MODEL 15
REMARK VINA RESULT:    -7.371      1.833      5.843
REMARK INTER + INTRA:         -10.787
REMARK INTER:                 -10.257
REMARK INTRA:                  -0.529
REMARK UNBOUND:                -0.614
REMARK SMILES OCCCNc1nc(Nc2ccncc2)nc2ccccc12
REMARK SMILES IDX 4 1 3 2 2 3 1 4 5 6 6 8 7 9 22 10 8 11 21 12 17 13 16 14
REMARK SMILES IDX 20 15 18 16 19 17 9 18 10 20 11 21 15 22 12 23 14 24 13 25
REMARK H PARENT 1 5 5 7 9 19
ROOT
ATOM      1  C   UNL     1       4.355  41.419  50.927  1.00  0.00     0.117 C 
ENDROOT
BRANCH   1   2
ATOM      2  C   UNL     1       4.840  41.211  49.492  1.00  0.00     0.049 C 
BRANCH   2   3
ATOM      3  C   UNL     1       6.275  41.678  49.297  1.00  0.00     0.158 C 
BRANCH   3   4
ATOM      4  O   UNL     1       7.172  40.884  50.062  1.00  0.00    -0.396 OA
ATOM      5  H   UNL     1       6.651  40.382  50.712  1.00  0.00     0.210 HD
ENDBRANCH   3   4
ENDBRANCH   2   3
ENDBRANCH   1   2
BRANCH   1   6
ATOM      6  N   UNL     1       3.381  42.509  50.950  1.00  0.00    -0.369 N 
ATOM      7  H   UNL     1       2.472  42.187  51.277  1.00  0.00     0.162 HD
BRANCH   6   8
ATOM      8  C   UNL     1       3.755  43.630  51.729  1.00  0.00     0.139 A 
ATOM      9  N   UNL     1       4.835  44.342  51.363  1.00  0.00    -0.195 NA
ATOM     10  C   UNL     1       2.976  43.981  52.842  1.00  0.00     0.043 A 
ATOM     11  C   UNL     1       5.183  45.399  52.112  1.00  0.00     0.229 A 
ATOM     12  C   UNL     1       1.798  43.310  53.265  1.00  0.00     0.014 A 
ATOM     13  C   UNL     1       3.430  45.091  53.556  1.00  0.00     0.078 A 
ATOM     14  N   UNL     1       4.515  45.782  53.203  1.00  0.00    -0.213 NA
ATOM     15  C   UNL     1       1.100  43.735  54.393  1.00  0.00     0.001 A 
ATOM     16  C   UNL     1       2.718  45.495  54.681  1.00  0.00     0.029 A 
ATOM     17  C   UNL     1       1.565  44.831  55.107  1.00  0.00     0.002 A 
BRANCH  11  18
ATOM     18  N   UNL     1       6.316  46.077  51.667  1.00  0.00    -0.324 N 
ATOM     19  H   UNL     1       6.175  46.348  50.706  1.00  0.00     0.170 HD
BRANCH  18  20
ATOM     20  C   UNL     1       7.515  46.467  52.274  1.00  0.00     0.044 A 
ATOM     21  C   UNL     1       8.717  46.241  51.593  1.00  0.00     0.046 A 
ATOM     22  C   UNL     1       7.595  47.062  53.531  1.00  0.00     0.046 A 
ATOM     23  C   UNL     1       9.916  46.617  52.182  1.00  0.00     0.113 A 
ATOM     24  C   UNL     1       8.840  47.402  54.043  1.00  0.00     0.113 A 
ATOM     25  N   UNL     1      10.004  47.194  53.396  1.00  0.00    -0.265 NA
ENDBRANCH  18  20
ENDBRANCH  11  18
ENDBRANCH   6   8
ENDBRANCH   1   6
TORSDOF 7
ENDMDL
MODEL 16
REMARK VINA RESULT:    -7.365      1.931      5.817
REMARK INTER + INTRA:         -10.778
REMARK INTER:                 -10.257
REMARK INTRA:                  -0.521
REMARK UNBOUND:                -0.614
REMARK SMILES OCCCNc1nc(Nc2ccncc2)nc2ccccc12
REMARK SMILES IDX 4 1 3 2 2 3 1 4 5 6 6 8 7 9 22 10 8 11 21 12 17 13 16 14
REMARK SMILES IDX 20 15 18 16 19 17 9 18 10 20 11 21 15 22 12 23 14 24 13 25
REMARK H PARENT 1 5 5 7 9 19
ROOT
ATOM      1  C   UNL     1       5.918  42.838  50.389  1.00  0.00     0.117 C 
ENDROOT
BRANCH   1   2
ATOM      2  C   UNL     1       6.257  41.500  49.730  1.00  0.00     0.049 C 
BRANCH   2   3
ATOM      3  C   UNL     1       5.378  41.216  48.520  1.00  0.00     0.158 C 
BRANCH   3   4
ATOM      4  O   UNL     1       6.036  41.595  47.320  1.00  0.00    -0.396 OA
ATOM      5  H   UNL     1       5.727  42.484  47.074  1.00  0.00     0.210 HD
ENDBRANCH   3   4
ENDBRANCH   2   3
ENDBRANCH   1   2
BRANCH   1   6
ATOM      6  N   UNL     1       4.727  42.674  51.220  1.00  0.00    -0.369 N 
ATOM      7  H   UNL     1       4.806  41.859  51.824  1.00  0.00     0.162 HD
BRANCH   6   8
ATOM      8  C   UNL     1       4.404  43.790  52.030  1.00  0.00     0.139 A 
ATOM      9  N   UNL     1       5.254  44.831  52.068  1.00  0.00    -0.195 NA
ATOM     10  C   UNL     1       3.198  43.789  52.746  1.00  0.00     0.043 A 
ATOM     11  C   UNL     1       4.939  45.880  52.842  1.00  0.00     0.229 A 
ATOM     12  C   UNL     1       2.228  42.751  52.722  1.00  0.00     0.014 A 
ATOM     13  C   UNL     1       2.971  44.924  53.527  1.00  0.00     0.078 A 
ATOM     14  N   UNL     1       3.828  45.946  53.580  1.00  0.00    -0.213 NA
ATOM     15  C   UNL     1       1.063  42.845  53.480  1.00  0.00     0.001 A 
ATOM     16  C   UNL     1       1.802  44.993  54.277  1.00  0.00     0.029 A 
ATOM     17  C   UNL     1       0.851  43.969  54.264  1.00  0.00     0.002 A 
BRANCH  11  18
ATOM     18  N   UNL     1       5.875  46.911  52.830  1.00  0.00    -0.324 N 
ATOM     19  H   UNL     1       5.385  47.793  52.805  1.00  0.00     0.170 HD
BRANCH  18  20
ATOM     20  C   UNL     1       7.272  46.956  52.885  1.00  0.00     0.044 A 
ATOM     21  C   UNL     1       7.891  47.117  54.131  1.00  0.00     0.046 A 
ATOM     22  C   UNL     1       8.100  46.862  51.768  1.00  0.00     0.046 A 
ATOM     23  C   UNL     1       9.276  47.169  54.203  1.00  0.00     0.113 A 
ATOM     24  C   UNL     1       9.477  46.925  51.936  1.00  0.00     0.113 A 
ATOM     25  N   UNL     1      10.085  47.076  53.130  1.00  0.00    -0.265 NA
ENDBRANCH  18  20
ENDBRANCH  11  18
ENDBRANCH   6   8
ENDBRANCH   1   6
TORSDOF 7
ENDMDL
MODEL 17
REMARK VINA RESULT:    -7.333      2.473      4.115
REMARK INTER + INTRA:         -10.734
REMARK INTER:                 -10.285
REMARK INTRA:                  -0.449
REMARK UNBOUND:                -0.614
REMARK SMILES OCCCNc1nc(Nc2ccncc2)nc2ccccc12
REMARK SMILES IDX 4 1 3 2 2 3 1 4 5 6 6 8 7 9 22 10 8 11 21 12 17 13 16 14
REMARK SMILES IDX 20 15 18 16 19 17 9 18 10 20 11 21 15 22 12 23 14 24 13 25
REMARK H PARENT 1 5 5 7 9 19
ROOT
ATOM      1  C   UNL     1       4.557  47.170  54.902  1.00  0.00     0.117 C 
ENDROOT
BRANCH   1   2
ATOM      2  C   UNL     1       4.132  45.824  55.488  1.00  0.00     0.049 C 
BRANCH   2   3
ATOM      3  C   UNL     1       2.765  45.383  54.984  1.00  0.00     0.158 C 
BRANCH   3   4
ATOM      4  O   UNL     1       2.156  44.484  55.900  1.00  0.00    -0.396 OA
ATOM      5  H   UNL     1       2.251  43.583  55.548  1.00  0.00     0.210 HD
ENDBRANCH   3   4
ENDBRANCH   2   3
ENDBRANCH   1   2
BRANCH   1   6
ATOM      6  N   UNL     1       5.993  47.140  54.626  1.00  0.00    -0.369 N 
ATOM      7  H   UNL     1       6.502  46.658  55.363  1.00  0.00     0.162 HD
BRANCH   6   8
ATOM      8  C   UNL     1       6.352  46.552  53.389  1.00  0.00     0.139 A 
ATOM      9  N   UNL     1       5.391  46.000  52.629  1.00  0.00    -0.195 NA
ATOM     10  C   UNL     1       7.694  46.587  52.980  1.00  0.00     0.043 A 
ATOM     11  C   UNL     1       5.744  45.442  51.462  1.00  0.00     0.229 A 
ATOM     12  C   UNL     1       8.758  47.191  53.701  1.00  0.00     0.014 A 
ATOM     13  C   UNL     1       7.956  45.971  51.754  1.00  0.00     0.078 A 
ATOM     14  N   UNL     1       7.002  45.403  51.014  1.00  0.00    -0.213 NA
ATOM     15  C   UNL     1      10.061  47.162  53.209  1.00  0.00     0.001 A 
ATOM     16  C   UNL     1       9.265  45.952  51.285  1.00  0.00     0.029 A 
ATOM     17  C   UNL     1      10.316  46.536  51.997  1.00  0.00     0.002 A 
BRANCH  11  18
ATOM     18  N   UNL     1       4.690  44.887  50.741  1.00  0.00    -0.324 N 
ATOM     19  H   UNL     1       4.946  44.854  49.766  1.00  0.00     0.170 HD
BRANCH  18  20
ATOM     20  C   UNL     1       3.443  44.361  51.094  1.00  0.00     0.044 A 
ATOM     21  C   UNL     1       2.328  45.208  51.081  1.00  0.00     0.046 A 
ATOM     22  C   UNL     1       3.234  43.037  51.473  1.00  0.00     0.046 A 
ATOM     23  C   UNL     1       1.083  44.703  51.433  1.00  0.00     0.113 A 
ATOM     24  C   UNL     1       1.953  42.621  51.812  1.00  0.00     0.113 A 
ATOM     25  N   UNL     1       0.871  43.425  51.800  1.00  0.00    -0.265 NA
ENDBRANCH  18  20
ENDBRANCH  11  18
ENDBRANCH   6   8
ENDBRANCH   1   6
TORSDOF 7
ENDMDL
MODEL 18
REMARK VINA RESULT:    -7.294      3.163      4.350
REMARK INTER + INTRA:         -10.680
REMARK INTER:                 -10.000
REMARK INTRA:                  -0.680
REMARK UNBOUND:                -0.614
REMARK SMILES OCCCNc1nc(Nc2ccncc2)nc2ccccc12
REMARK SMILES IDX 4 1 3 2 2 3 1 4 5 6 6 8 7 9 22 10 8 11 21 12 17 13 16 14
REMARK SMILES IDX 20 15 18 16 19 17 9 18 10 20 11 21 15 22 12 23 14 24 13 25
REMARK H PARENT 1 5 5 7 9 19
ROOT
ATOM      1  C   UNL     1       5.013  40.965  47.497  1.00  0.00     0.117 C 
ENDROOT
BRANCH   1   2
ATOM      2  C   UNL     1       5.536  41.865  46.377  1.00  0.00     0.049 C 
BRANCH   2   3
ATOM      3  C   UNL     1       5.026  41.436  45.009  1.00  0.00     0.158 C 
BRANCH   3   4
ATOM      4  O   UNL     1       3.723  41.952  44.773  1.00  0.00    -0.396 OA
ATOM      5  H   UNL     1       3.580  42.699  45.379  1.00  0.00     0.210 HD
ENDBRANCH   3   4
ENDBRANCH   2   3
ENDBRANCH   1   2
BRANCH   1   6
ATOM      6  N   UNL     1       5.900  41.076  48.654  1.00  0.00    -0.369 N 
ATOM      7  H   UNL     1       6.847  41.321  48.373  1.00  0.00     0.162 HD
BRANCH   6   8
ATOM      8  C   UNL     1       5.482  42.001  49.642  1.00  0.00     0.139 A 
ATOM      9  N   UNL     1       4.353  41.753  50.327  1.00  0.00    -0.195 NA
ATOM     10  C   UNL     1       6.272  43.133  49.895  1.00  0.00     0.043 A 
ATOM     11  C   UNL     1       3.965  42.639  51.255  1.00  0.00     0.229 A 
ATOM     12  C   UNL     1       7.499  43.441  49.249  1.00  0.00     0.014 A 
ATOM     13  C   UNL     1       5.774  43.995  50.875  1.00  0.00     0.078 A 
ATOM     14  N   UNL     1       4.640  43.757  51.536  1.00  0.00    -0.213 NA
ATOM     15  C   UNL     1       8.203  44.600  49.569  1.00  0.00     0.001 A 
ATOM     16  C   UNL     1       6.493  45.146  51.175  1.00  0.00     0.029 A 
ATOM     17  C   UNL     1       7.696  45.459  50.534  1.00  0.00     0.002 A 
BRANCH  11  18
ATOM     18  N   UNL     1       2.782  42.310  51.913  1.00  0.00    -0.324 N 
ATOM     19  H   UNL     1       2.808  41.332  52.157  1.00  0.00     0.170 HD
BRANCH  18  20
ATOM     20  C   UNL     1       1.658  43.041  52.313  1.00  0.00     0.044 A 
ATOM     21  C   UNL     1       0.926  43.733  51.341  1.00  0.00     0.046 A 
ATOM     22  C   UNL     1       1.218  43.136  53.631  1.00  0.00     0.046 A 
ATOM     23  C   UNL     1      -0.189  44.468  51.721  1.00  0.00     0.113 A 
ATOM     24  C   UNL     1       0.092  43.895  53.919  1.00  0.00     0.113 A 
ATOM     25  N   UNL     1      -0.623  44.564  52.992  1.00  0.00    -0.265 NA
ENDBRANCH  18  20
ENDBRANCH  11  18
ENDBRANCH   6   8
ENDBRANCH   1   6
TORSDOF 7
ENDMDL
MODEL 19
REMARK VINA RESULT:    -7.156      2.414      5.193
REMARK INTER + INTRA:         -10.490
REMARK INTER:                  -9.681
REMARK INTRA:                  -0.809
REMARK UNBOUND:                -0.614
REMARK SMILES OCCCNc1nc(Nc2ccncc2)nc2ccccc12
REMARK SMILES IDX 4 1 3 2 2 3 1 4 5 6 6 8 7 9 22 10 8 11 21 12 17 13 16 14
REMARK SMILES IDX 20 15 18 16 19 17 9 18 10 20 11 21 15 22 12 23 14 24 13 25
REMARK H PARENT 1 5 5 7 9 19
ROOT
ATOM      1  C   UNL     1       3.800  45.783  50.886  1.00  0.00     0.117 C 
ENDROOT
BRANCH   1   2
ATOM      2  C   UNL     1       2.733  45.793  51.981  1.00  0.00     0.049 C 
BRANCH   2   3
ATOM      3  C   UNL     1       2.785  44.542  52.847  1.00  0.00     0.158 C 
BRANCH   3   4
ATOM      4  O   UNL     1       3.774  43.641  52.370  1.00  0.00    -0.396 OA
ATOM      5  H   UNL     1       3.680  43.572  51.405  1.00  0.00     0.210 HD
ENDBRANCH   3   4
ENDBRANCH   2   3
ENDBRANCH   1   2
BRANCH   1   6
ATOM      6  N   UNL     1       5.070  46.236  51.452  1.00  0.00    -0.369 N 
ATOM      7  H   UNL     1       5.064  46.181  52.468  1.00  0.00     0.162 HD
BRANCH   6   8
ATOM      8  C   UNL     1       6.214  45.546  50.983  1.00  0.00     0.139 A 
ATOM      9  N   UNL     1       6.046  44.476  50.186  1.00  0.00    -0.195 NA
ATOM     10  C   UNL     1       7.488  46.013  51.341  1.00  0.00     0.043 A 
ATOM     11  C   UNL     1       7.137  43.829  49.753  1.00  0.00     0.229 A 
ATOM     12  C   UNL     1       7.750  47.159  52.138  1.00  0.00     0.014 A 
ATOM     13  C   UNL     1       8.555  45.262  50.844  1.00  0.00     0.078 A 
ATOM     14  N   UNL     1       8.383  44.187  50.072  1.00  0.00    -0.213 NA
ATOM     15  C   UNL     1       9.057  47.533  52.444  1.00  0.00     0.001 A 
ATOM     16  C   UNL     1       9.850  45.653  51.165  1.00  0.00     0.029 A 
ATOM     17  C   UNL     1      10.112  46.774  51.958  1.00  0.00     0.002 A 
BRANCH  11  18
ATOM     18  N   UNL     1       6.875  42.730  48.939  1.00  0.00    -0.324 N 
ATOM     19  H   UNL     1       7.725  42.469  48.462  1.00  0.00     0.170 HD
BRANCH  18  20
ATOM     20  C   UNL     1       5.742  41.942  48.705  1.00  0.00     0.044 A 
ATOM     21  C   UNL     1       4.971  41.531  49.800  1.00  0.00     0.046 A 
ATOM     22  C   UNL     1       5.329  41.525  47.442  1.00  0.00     0.046 A 
ATOM     23  C   UNL     1       3.847  40.746  49.587  1.00  0.00     0.113 A 
ATOM     24  C   UNL     1       4.191  40.738  47.324  1.00  0.00     0.113 A 
ATOM     25  N   UNL     1       3.439  40.339  48.369  1.00  0.00    -0.265 NA
ENDBRANCH  18  20
ENDBRANCH  11  18
ENDBRANCH   6   8
ENDBRANCH   1   6
TORSDOF 7
ENDMDL
MODEL 20
REMARK VINA RESULT:    -7.122      3.659      6.766
REMARK INTER + INTRA:         -10.443
REMARK INTER:                  -9.865
REMARK INTRA:                  -0.579
REMARK UNBOUND:                -0.614
REMARK SMILES OCCCNc1nc(Nc2ccncc2)nc2ccccc12
REMARK SMILES IDX 4 1 3 2 2 3 1 4 5 6 6 8 7 9 22 10 8 11 21 12 17 13 16 14
REMARK SMILES IDX 20 15 18 16 19 17 9 18 10 20 11 21 15 22 12 23 14 24 13 25
REMARK H PARENT 1 5 5 7 9 19
ROOT
ATOM      1  C   UNL     1       2.278  42.670  52.247  1.00  0.00     0.117 C 
ENDROOT
BRANCH   1   2
ATOM      2  C   UNL     1       1.330  42.992  53.403  1.00  0.00     0.049 C 
BRANCH   2   3
ATOM      3  C   UNL     1      -0.107  42.595  53.096  1.00  0.00     0.158 C 
BRANCH   3   4
ATOM      4  O   UNL     1      -0.255  41.183  53.117  1.00  0.00    -0.396 OA
ATOM      5  H   UNL     1      -0.313  40.899  54.045  1.00  0.00     0.210 HD
ENDBRANCH   3   4
ENDBRANCH   2   3
ENDBRANCH   1   2
BRANCH   1   6
ATOM      6  N   UNL     1       3.658  42.831  52.700  1.00  0.00    -0.369 N 
ATOM      7  H   UNL     1       3.960  42.037  53.260  1.00  0.00     0.162 HD
BRANCH   6   8
ATOM      8  C   UNL     1       4.608  43.026  51.669  1.00  0.00     0.139 A 
ATOM      9  N   UNL     1       4.706  42.106  50.694  1.00  0.00    -0.195 NA
ATOM     10  C   UNL     1       5.400  44.185  51.679  1.00  0.00     0.043 A 
ATOM     11  C   UNL     1       5.614  42.299  49.726  1.00  0.00     0.229 A 
ATOM     12  C   UNL     1       5.325  45.224  52.643  1.00  0.00     0.014 A 
ATOM     13  C   UNL     1       6.317  44.284  50.630  1.00  0.00     0.078 A 
ATOM     14  N   UNL     1       6.427  43.357  49.678  1.00  0.00    -0.213 NA
ATOM     15  C   UNL     1       6.165  46.333  52.567  1.00  0.00     0.001 A 
ATOM     16  C   UNL     1       7.148  45.398  50.577  1.00  0.00     0.029 A 
ATOM     17  C   UNL     1       7.084  46.418  51.531  1.00  0.00     0.002 A 
BRANCH  11  18
ATOM     18  N   UNL     1       5.654  41.296  48.761  1.00  0.00    -0.324 N 
ATOM     19  H   UNL     1       6.278  40.568  49.076  1.00  0.00     0.170 HD
BRANCH  18  20
ATOM     20  C   UNL     1       5.004  41.098  47.538  1.00  0.00     0.044 A 
ATOM     21  C   UNL     1       3.835  40.328  47.515  1.00  0.00     0.046 A 
ATOM     22  C   UNL     1       5.454  41.613  46.324  1.00  0.00     0.046 A 
ATOM     23  C   UNL     1       3.180  40.117  46.309  1.00  0.00     0.113 A 
ATOM     24  C   UNL     1       4.734  41.348  45.166  1.00  0.00     0.113 A 
ATOM     25  N   UNL     1       3.606  40.612  45.131  1.00  0.00    -0.265 NA
ENDBRANCH  18  20
ENDBRANCH  11  18
ENDBRANCH   6   8
ENDBRANCH   1   6
TORSDOF 7
ENDMDL
