MODEL 1
REMARK VINA RESULT:    -8.853      0.000      0.000
REMARK INTER + INTRA:         -13.318
REMARK INTER:                 -11.958
REMARK INTRA:                  -1.360
REMARK UNBOUND:                -1.360
REMARK SMILES CC(=O)NCCNc1nc(Nc2ccc(Cl)cc2Cl)c2cnn(C)c2n1
REMARK SMILES IDX 7 1 6 3 5 4 4 5 2 6 1 7 3 8 8 10 9 11 26 12 10 13 25 14
REMARK SMILES IDX 20 15 23 16 21 17 22 18 24 19 11 20 12 22 13 23 18 24 14 25
REMARK SMILES IDX 17 26 15 27 19 28 16 29
REMARK H PARENT 7 2 4 9 11 21
ROOT
ATOM      1  N   UNL     1       2.677  45.880  52.279  1.00  0.00    -0.352 N 
ATOM      2  H   UNL     1       2.148  46.336  51.544  1.00  0.00     0.163 HD
ENDROOT
BRANCH   1   3
ATOM      3  C   UNL     1       1.898  45.024  53.166  1.00  0.00     0.137 C 
BRANCH   3   4
ATOM      4  C   UNL     1       2.153  45.325  54.655  1.00  0.00     0.137 C 
BRANCH   4   5
ATOM      5  N   UNL     1       3.426  44.813  55.129  1.00  0.00    -0.355 N 
ATOM      6  C   UNL     1       4.542  45.610  55.196  1.00  0.00     0.216 C 
ATOM      7  C   UNL     1       5.782  44.903  55.675  1.00  0.00     0.114 C 
ATOM      8  O   UNL     1       4.545  46.795  54.880  1.00  0.00    -0.275 OA
ATOM      9  H   UNL     1       3.504  43.819  55.306  1.00  0.00     0.163 HD
ENDBRANCH   4   5
ENDBRANCH   3   4
ENDBRANCH   1   3
BRANCH   1  10
ATOM     10  C   UNL     1       3.793  45.301  51.695  1.00  0.00     0.226 A 
ATOM     11  N   UNL     1       4.918  46.027  51.563  1.00  0.00    -0.195 NA
ATOM     12  N   UNL     1       3.647  44.020  51.340  1.00  0.00    -0.193 NA
ATOM     13  C   UNL     1       6.036  45.472  51.034  1.00  0.00     0.147 A 
ATOM     14  C   UNL     1       4.762  43.494  50.811  1.00  0.00     0.165 A 
ATOM     15  C   UNL     1       5.972  44.137  50.629  1.00  0.00     0.082 A 
ATOM     16  N   UNL     1       4.935  42.221  50.342  1.00  0.00    -0.250 N 
ATOM     17  C   UNL     1       6.800  43.157  50.046  1.00  0.00     0.149 A 
ATOM     18  N   UNL     1       6.181  41.983  49.874  1.00  0.00    -0.179 NA
ATOM     19  C   UNL     1       3.952  41.167  50.309  1.00  0.00     0.176 C 
BRANCH  13  20
ATOM     20  N   UNL     1       7.165  46.320  50.952  1.00  0.00    -0.338 N 
ATOM     21  H   UNL     1       6.737  47.202  50.658  1.00  0.00     0.168 HD
BRANCH  20  22
ATOM     22  C   UNL     1       8.027  46.563  52.051  1.00  0.00     0.059 A 
ATOM     23  C   UNL     1       7.537  47.300  53.138  1.00  0.00     0.029 A 
ATOM     24  C   UNL     1       9.371  46.141  52.071  1.00  0.00     0.066 A 
ATOM     25  C   UNL     1       8.364  47.606  54.222  1.00  0.00     0.023 A 
ATOM     26  C   UNL     1      10.200  46.447  53.153  1.00  0.00     0.043 A 
ATOM     27  C   UNL     1       9.690  47.178  54.222  1.00  0.00     0.042 A 
ATOM     28  Cl  UNL     1      10.033  45.207  50.774  1.00  0.00    -0.082 Cl
ATOM     29  Cl  UNL     1      10.706  47.557  55.557  1.00  0.00    -0.084 Cl
ENDBRANCH  20  22
ENDBRANCH  13  20
ENDBRANCH   1  10
TORSDOF 6
ENDMDL
MODEL 2
REMARK VINA RESULT:    -8.607      2.458      5.489
REMARK INTER + INTRA:         -12.986
REMARK INTER:                 -12.068
REMARK INTRA:                  -0.918
REMARK UNBOUND:                -1.360
REMARK SMILES CC(=O)NCCNc1nc(Nc2ccc(Cl)cc2Cl)c2cnn(C)c2n1
REMARK SMILES IDX 7 1 6 3 5 4 4 5 2 6 1 7 3 8 8 10 9 11 26 12 10 13 25 14
REMARK SMILES IDX 20 15 23 16 21 17 22 18 24 19 11 20 12 22 13 23 18 24 14 25
REMARK SMILES IDX 17 26 15 27 19 28 16 29
REMARK H PARENT 7 2 4 9 11 21
ROOT
ATOM      1  N   UNL     1       5.008  46.996  54.948  1.00  0.00    -0.352 N 
ATOM      2  H   UNL     1       4.449  47.727  54.523  1.00  0.00     0.163 HD
ENDROOT
BRANCH   1   3
ATOM      3  C   UNL     1       4.267  45.811  55.366  1.00  0.00     0.137 C 
BRANCH   3   4
ATOM      4  C   UNL     1       2.744  46.033  55.364  1.00  0.00     0.137 C 
BRANCH   4   5
ATOM      5  N   UNL     1       2.082  45.426  54.222  1.00  0.00    -0.355 N 
ATOM      6  C   UNL     1       2.009  46.065  53.009  1.00  0.00     0.216 C 
ATOM      7  C   UNL     1       1.255  45.306  51.951  1.00  0.00     0.114 C 
ATOM      8  O   UNL     1       2.499  47.170  52.798  1.00  0.00    -0.275 OA
ATOM      9  H   UNL     1       1.574  44.563  54.369  1.00  0.00     0.163 HD
ENDBRANCH   4   5
ENDBRANCH   3   4
ENDBRANCH   1   3
BRANCH   1  10
ATOM     10  C   UNL     1       6.102  46.775  54.125  1.00  0.00     0.226 A 
ATOM     11  N   UNL     1       5.905  46.325  52.873  1.00  0.00    -0.195 NA
ATOM     12  N   UNL     1       7.287  47.079  54.666  1.00  0.00    -0.193 NA
ATOM     13  C   UNL     1       6.955  46.141  52.035  1.00  0.00     0.147 A 
ATOM     14  C   UNL     1       8.312  46.881  53.822  1.00  0.00     0.165 A 
ATOM     15  C   UNL     1       8.233  46.428  52.519  1.00  0.00     0.082 A 
ATOM     16  N   UNL     1       9.641  47.084  54.072  1.00  0.00    -0.250 N 
ATOM     17  C   UNL     1       9.572  46.397  52.081  1.00  0.00     0.149 A 
ATOM     18  N   UNL     1      10.438  46.803  53.017  1.00  0.00    -0.179 NA
ATOM     19  C   UNL     1      10.232  47.550  55.302  1.00  0.00     0.176 C 
BRANCH  13  20
ATOM     20  N   UNL     1       6.633  45.675  50.738  1.00  0.00    -0.338 N 
ATOM     21  H   UNL     1       7.558  45.638  50.300  1.00  0.00     0.168 HD
BRANCH  20  22
ATOM     22  C   UNL     1       5.956  44.452  50.506  1.00  0.00     0.059 A 
ATOM     23  C   UNL     1       4.701  44.256  51.099  1.00  0.00     0.029 A 
ATOM     24  C   UNL     1       6.517  43.405  49.748  1.00  0.00     0.066 A 
ATOM     25  C   UNL     1       4.019  43.048  50.937  1.00  0.00     0.023 A 
ATOM     26  C   UNL     1       5.837  42.195  49.587  1.00  0.00     0.043 A 
ATOM     27  C   UNL     1       4.591  42.025  50.184  1.00  0.00     0.042 A 
ATOM     28  Cl  UNL     1       8.051  43.589  48.968  1.00  0.00    -0.082 Cl
ATOM     29  Cl  UNL     1       3.749  40.538  49.988  1.00  0.00    -0.084 Cl
ENDBRANCH  20  22
ENDBRANCH  13  20
ENDBRANCH   1  10
TORSDOF 6
ENDMDL
MODEL 3
REMARK VINA RESULT:    -8.494      1.812      2.306
REMARK INTER + INTRA:         -12.833
REMARK INTER:                 -11.856
REMARK INTRA:                  -0.977
REMARK UNBOUND:                -1.360
REMARK SMILES CC(=O)NCCNc1nc(Nc2ccc(Cl)cc2Cl)c2cnn(C)c2n1
REMARK SMILES IDX 7 1 6 3 5 4 4 5 2 6 1 7 3 8 8 10 9 11 26 12 10 13 25 14
REMARK SMILES IDX 20 15 23 16 21 17 22 18 24 19 11 20 12 22 13 23 18 24 14 25
REMARK SMILES IDX 17 26 15 27 19 28 16 29
REMARK H PARENT 7 2 4 9 11 21
ROOT
ATOM      1  N   UNL     1       2.972  43.903  52.470  1.00  0.00    -0.352 N 
ATOM      2  H   UNL     1       3.185  43.936  53.461  1.00  0.00     0.163 HD
ENDROOT
BRANCH   1   3
ATOM      3  C   UNL     1       1.819  44.694  52.055  1.00  0.00     0.137 C 
BRANCH   3   4
ATOM      4  C   UNL     1       1.628  45.958  52.912  1.00  0.00     0.137 C 
BRANCH   4   5
ATOM      5  N   UNL     1       0.962  45.694  54.175  1.00  0.00    -0.355 N 
ATOM      6  C   UNL     1       1.664  45.327  55.297  1.00  0.00     0.216 C 
ATOM      7  C   UNL     1       0.808  45.057  56.504  1.00  0.00     0.114 C 
ATOM      8  O   UNL     1       2.884  45.209  55.320  1.00  0.00    -0.275 OA
ATOM      9  H   UNL     1      -0.051  45.678  54.185  1.00  0.00     0.163 HD
ENDBRANCH   4   5
ENDBRANCH   3   4
ENDBRANCH   1   3
BRANCH   1  10
ATOM     10  C   UNL     1       4.152  44.132  51.780  1.00  0.00     0.226 A 
ATOM     11  N   UNL     1       4.796  45.302  51.947  1.00  0.00    -0.195 NA
ATOM     12  N   UNL     1       4.570  43.116  51.017  1.00  0.00    -0.193 NA
ATOM     13  C   UNL     1       5.974  45.534  51.318  1.00  0.00     0.147 A 
ATOM     14  C   UNL     1       5.732  43.372  50.396  1.00  0.00     0.165 A 
ATOM     15  C   UNL     1       6.482  44.528  50.493  1.00  0.00     0.082 A 
ATOM     16  N   UNL     1       6.413  42.548  49.543  1.00  0.00    -0.250 N 
ATOM     17  C   UNL     1       7.593  44.291  49.659  1.00  0.00     0.149 A 
ATOM     18  N   UNL     1       7.565  43.084  49.081  1.00  0.00    -0.179 NA
ATOM     19  C   UNL     1       6.026  41.226  49.119  1.00  0.00     0.176 C 
BRANCH  13  20
ATOM     20  N   UNL     1       6.571  46.792  51.572  1.00  0.00    -0.338 N 
ATOM     21  H   UNL     1       5.753  47.363  51.800  1.00  0.00     0.168 HD
BRANCH  20  22
ATOM     22  C   UNL     1       7.566  46.985  52.563  1.00  0.00     0.059 A 
ATOM     23  C   UNL     1       8.912  46.971  52.174  1.00  0.00     0.029 A 
ATOM     24  C   UNL     1       7.258  47.136  53.929  1.00  0.00     0.066 A 
ATOM     25  C   UNL     1       9.928  47.110  53.122  1.00  0.00     0.023 A 
ATOM     26  C   UNL     1       8.273  47.273  54.880  1.00  0.00     0.043 A 
ATOM     27  C   UNL     1       9.603  47.258  54.469  1.00  0.00     0.042 A 
ATOM     28  Cl  UNL     1       5.617  47.187  54.475  1.00  0.00    -0.082 Cl
ATOM     29  Cl  UNL     1      10.857  47.427  55.634  1.00  0.00    -0.084 Cl
ENDBRANCH  20  22
ENDBRANCH  13  20
ENDBRANCH   1  10
TORSDOF 6
ENDMDL
MODEL 4
REMARK VINA RESULT:    -8.429      1.175      1.613
REMARK INTER + INTRA:         -12.745
REMARK INTER:                 -11.945
REMARK INTRA:                  -0.800
REMARK UNBOUND:                -1.360
REMARK SMILES CC(=O)NCCNc1nc(Nc2ccc(Cl)cc2Cl)c2cnn(C)c2n1
REMARK SMILES IDX 7 1 6 3 5 4 4 5 2 6 1 7 3 8 8 10 9 11 26 12 10 13 25 14
REMARK SMILES IDX 20 15 23 16 21 17 22 18 24 19 11 20 12 22 13 23 18 24 14 25
REMARK SMILES IDX 17 26 15 27 19 28 16 29
REMARK H PARENT 7 2 4 9 11 21
ROOT
ATOM      1  N   UNL     1       2.904  45.539  52.578  1.00  0.00    -0.352 N 
ATOM      2  H   UNL     1       2.293  44.759  52.795  1.00  0.00     0.163 HD
ENDROOT
BRANCH   1   3
ATOM      3  C   UNL     1       3.232  46.404  53.705  1.00  0.00     0.137 C 
BRANCH   3   4
ATOM      4  C   UNL     1       3.638  45.612  54.961  1.00  0.00     0.137 C 
BRANCH   4   5
ATOM      5  N   UNL     1       2.643  45.670  56.017  1.00  0.00    -0.355 N 
ATOM      6  C   UNL     1       1.443  45.009  55.912  1.00  0.00     0.216 C 
ATOM      7  C   UNL     1       0.519  45.211  57.082  1.00  0.00     0.114 C 
ATOM      8  O   UNL     1       1.134  44.323  54.944  1.00  0.00    -0.275 OA
ATOM      9  H   UNL     1       2.804  46.302  56.791  1.00  0.00     0.163 HD
ENDBRANCH   4   5
ENDBRANCH   3   4
ENDBRANCH   1   3
BRANCH   1  10
ATOM     10  C   UNL     1       3.977  45.041  51.855  1.00  0.00     0.226 A 
ATOM     11  N   UNL     1       5.080  45.798  51.708  1.00  0.00    -0.195 NA
ATOM     12  N   UNL     1       3.819  43.797  51.390  1.00  0.00    -0.193 NA
ATOM     13  C   UNL     1       6.159  45.319  51.042  1.00  0.00     0.147 A 
ATOM     14  C   UNL     1       4.896  43.347  50.727  1.00  0.00     0.165 A 
ATOM     15  C   UNL     1       6.080  44.028  50.516  1.00  0.00     0.082 A 
ATOM     16  N   UNL     1       5.047  42.129  50.125  1.00  0.00    -0.250 N 
ATOM     17  C   UNL     1       6.871  43.126  49.778  1.00  0.00     0.149 A 
ATOM     18  N   UNL     1       6.255  41.962  49.540  1.00  0.00    -0.179 NA
ATOM     19  C   UNL     1       4.078  41.063  50.066  1.00  0.00     0.176 C 
BRANCH  13  20
ATOM     20  N   UNL     1       7.268  46.194  50.956  1.00  0.00    -0.338 N 
ATOM     21  H   UNL     1       6.821  47.058  50.638  1.00  0.00     0.168 HD
BRANCH  20  22
ATOM     22  C   UNL     1       8.109  46.482  52.060  1.00  0.00     0.059 A 
ATOM     23  C   UNL     1       7.585  47.227  53.126  1.00  0.00     0.029 A 
ATOM     24  C   UNL     1       9.463  46.097  52.105  1.00  0.00     0.066 A 
ATOM     25  C   UNL     1       8.390  47.576  54.213  1.00  0.00     0.023 A 
ATOM     26  C   UNL     1      10.270  46.446  53.190  1.00  0.00     0.043 A 
ATOM     27  C   UNL     1       9.727  47.185  54.238  1.00  0.00     0.042 A 
ATOM     28  Cl  UNL     1      10.166  45.154  50.836  1.00  0.00    -0.082 Cl
ATOM     29  Cl  UNL     1      10.716  47.617  55.577  1.00  0.00    -0.084 Cl
ENDBRANCH  20  22
ENDBRANCH  13  20
ENDBRANCH   1  10
TORSDOF 6
ENDMDL
MODEL 5
REMARK VINA RESULT:    -8.326      2.415      5.564
REMARK INTER + INTRA:         -12.606
REMARK INTER:                 -12.101
REMARK INTRA:                  -0.505
REMARK UNBOUND:                -1.360
REMARK SMILES CC(=O)NCCNc1nc(Nc2ccc(Cl)cc2Cl)c2cnn(C)c2n1
REMARK SMILES IDX 7 1 6 3 5 4 4 5 2 6 1 7 3 8 8 10 9 11 26 12 10 13 25 14
REMARK SMILES IDX 20 15 23 16 21 17 22 18 24 19 11 20 12 22 13 23 18 24 14 25
REMARK SMILES IDX 17 26 15 27 19 28 16 29
REMARK H PARENT 7 2 4 9 11 21
ROOT
ATOM      1  N   UNL     1       4.443  45.526  55.730  1.00  0.00    -0.352 N 
ATOM      2  H   UNL     1       4.318  45.122  56.652  1.00  0.00     0.163 HD
ENDROOT
BRANCH   1   3
ATOM      3  C   UNL     1       5.772  45.363  55.154  1.00  0.00     0.137 C 
BRANCH   3   4
ATOM      4  C   UNL     1       6.344  46.681  54.601  1.00  0.00     0.137 C 
BRANCH   4   5
ATOM      5  N   UNL     1       7.592  46.502  53.880  1.00  0.00    -0.355 N 
ATOM      6  C   UNL     1       8.709  47.242  54.179  1.00  0.00     0.216 C 
ATOM      7  C   UNL     1       9.900  46.950  53.307  1.00  0.00     0.114 C 
ATOM      8  O   UNL     1       8.741  48.085  55.070  1.00  0.00    -0.275 OA
ATOM      9  H   UNL     1       7.592  45.893  53.071  1.00  0.00     0.163 HD
ENDBRANCH   4   5
ENDBRANCH   3   4
ENDBRANCH   1   3
BRANCH   1  10
ATOM     10  C   UNL     1       3.379  45.110  54.944  1.00  0.00     0.226 A 
ATOM     11  N   UNL     1       3.610  44.724  53.675  1.00  0.00    -0.195 NA
ATOM     12  N   UNL     1       2.191  45.097  55.558  1.00  0.00    -0.193 NA
ATOM     13  C   UNL     1       2.595  44.273  52.899  1.00  0.00     0.147 A 
ATOM     14  C   UNL     1       1.200  44.655  54.767  1.00  0.00     0.165 A 
ATOM     15  C   UNL     1       1.316  44.231  53.457  1.00  0.00     0.082 A 
ATOM     16  N   UNL     1      -0.123  44.534  55.090  1.00  0.00    -0.250 N 
ATOM     17  C   UNL     1       0.002  43.876  53.092  1.00  0.00     0.149 A 
ATOM     18  N   UNL     1      -0.882  44.050  54.081  1.00  0.00    -0.179 NA
ATOM     19  C   UNL     1      -0.743  44.860  56.350  1.00  0.00     0.176 C 
BRANCH  13  20
ATOM     20  N   UNL     1       2.950  43.883  51.586  1.00  0.00    -0.338 N 
ATOM     21  H   UNL     1       2.366  44.508  51.023  1.00  0.00     0.168 HD
BRANCH  20  22
ATOM     22  C   UNL     1       4.282  43.929  51.103  1.00  0.00     0.059 A 
ATOM     23  C   UNL     1       4.915  45.175  50.997  1.00  0.00     0.029 A 
ATOM     24  C   UNL     1       4.975  42.780  50.676  1.00  0.00     0.066 A 
ATOM     25  C   UNL     1       6.210  45.274  50.482  1.00  0.00     0.023 A 
ATOM     26  C   UNL     1       6.270  42.876  50.159  1.00  0.00     0.043 A 
ATOM     27  C   UNL     1       6.878  44.125  50.065  1.00  0.00     0.042 A 
ATOM     28  Cl  UNL     1       4.263  41.208  50.803  1.00  0.00    -0.082 Cl
ATOM     29  Cl  UNL     1       8.472  44.250  49.430  1.00  0.00    -0.084 Cl
ENDBRANCH  20  22
ENDBRANCH  13  20
ENDBRANCH   1  10
TORSDOF 6
ENDMDL
MODEL 6
REMARK VINA RESULT:    -8.293      2.735      5.185
REMARK INTER + INTRA:         -12.561
REMARK INTER:                 -11.797
REMARK INTRA:                  -0.765
REMARK UNBOUND:                -1.360
REMARK SMILES CC(=O)NCCNc1nc(Nc2ccc(Cl)cc2Cl)c2cnn(C)c2n1
REMARK SMILES IDX 7 1 6 3 5 4 4 5 2 6 1 7 3 8 8 10 9 11 26 12 10 13 25 14
REMARK SMILES IDX 20 15 23 16 21 17 22 18 24 19 11 20 12 22 13 23 18 24 14 25
REMARK SMILES IDX 17 26 15 27 19 28 16 29
REMARK H PARENT 7 2 4 9 11 21
ROOT
ATOM      1  N   UNL     1       5.169  42.178  50.634  1.00  0.00    -0.352 N 
ATOM      2  H   UNL     1       4.250  41.778  50.482  1.00  0.00     0.163 HD
ENDROOT
BRANCH   1   3
ATOM      3  C   UNL     1       6.118  41.989  49.543  1.00  0.00     0.137 C 
BRANCH   3   4
ATOM      4  C   UNL     1       5.527  41.174  48.378  1.00  0.00     0.137 C 
BRANCH   4   5
ATOM      5  N   UNL     1       5.763  41.782  47.081  1.00  0.00    -0.355 N 
ATOM      6  C   UNL     1       4.946  41.526  46.006  1.00  0.00     0.216 C 
ATOM      7  C   UNL     1       5.362  42.212  44.733  1.00  0.00     0.114 C 
ATOM      8  O   UNL     1       3.968  40.788  46.064  1.00  0.00    -0.275 OA
ATOM      9  H   UNL     1       6.612  42.317  46.953  1.00  0.00     0.163 HD
ENDBRANCH   4   5
ENDBRANCH   3   4
ENDBRANCH   1   3
BRANCH   1  10
ATOM     10  C   UNL     1       4.990  43.482  51.071  1.00  0.00     0.226 A 
ATOM     11  N   UNL     1       6.021  44.345  51.007  1.00  0.00    -0.195 NA
ATOM     12  N   UNL     1       3.756  43.773  51.494  1.00  0.00    -0.193 NA
ATOM     13  C   UNL     1       5.861  45.636  51.387  1.00  0.00     0.147 A 
ATOM     14  C   UNL     1       3.623  45.054  51.875  1.00  0.00     0.165 A 
ATOM     15  C   UNL     1       4.603  46.028  51.850  1.00  0.00     0.082 A 
ATOM     16  N   UNL     1       2.498  45.659  52.363  1.00  0.00    -0.250 N 
ATOM     17  C   UNL     1       3.958  47.179  52.344  1.00  0.00     0.149 A 
ATOM     18  N   UNL     1       2.673  46.968  52.653  1.00  0.00    -0.179 NA
ATOM     19  C   UNL     1       1.210  45.051  52.583  1.00  0.00     0.176 C 
BRANCH  13  20
ATOM     20  N   UNL     1       7.005  46.459  51.269  1.00  0.00    -0.338 N 
ATOM     21  H   UNL     1       6.585  47.356  51.009  1.00  0.00     0.168 HD
BRANCH  20  22
ATOM     22  C   UNL     1       7.921  46.663  52.332  1.00  0.00     0.059 A 
ATOM     23  C   UNL     1       7.475  47.323  53.485  1.00  0.00     0.029 A 
ATOM     24  C   UNL     1       9.273  46.277  52.254  1.00  0.00     0.066 A 
ATOM     25  C   UNL     1       8.354  47.588  54.538  1.00  0.00     0.023 A 
ATOM     26  C   UNL     1      10.154  46.542  53.305  1.00  0.00     0.043 A 
ATOM     27  C   UNL     1       9.687  47.198  54.441  1.00  0.00     0.042 A 
ATOM     28  Cl  UNL     1       9.884  45.435  50.870  1.00  0.00    -0.082 Cl
ATOM     29  Cl  UNL     1      10.767  47.527  55.739  1.00  0.00    -0.084 Cl
ENDBRANCH  20  22
ENDBRANCH  13  20
ENDBRANCH   1  10
TORSDOF 6
ENDMDL
MODEL 7
REMARK VINA RESULT:    -8.279      2.403      4.885
REMARK INTER + INTRA:         -12.543
REMARK INTER:                 -11.366
REMARK INTRA:                  -1.177
REMARK UNBOUND:                -1.360
REMARK SMILES CC(=O)NCCNc1nc(Nc2ccc(Cl)cc2Cl)c2cnn(C)c2n1
REMARK SMILES IDX 7 1 6 3 5 4 4 5 2 6 1 7 3 8 8 10 9 11 26 12 10 13 25 14
REMARK SMILES IDX 20 15 23 16 21 17 22 18 24 19 11 20 12 22 13 23 18 24 14 25
REMARK SMILES IDX 17 26 15 27 19 28 16 29
REMARK H PARENT 7 2 4 9 11 21
ROOT
ATOM      1  N   UNL     1       4.335  41.573  51.224  1.00  0.00    -0.352 N 
ATOM      2  H   UNL     1       4.345  40.900  51.982  1.00  0.00     0.163 HD
ENDROOT
BRANCH   1   3
ATOM      3  C   UNL     1       3.764  41.090  49.972  1.00  0.00     0.137 C 
BRANCH   3   4
ATOM      4  C   UNL     1       4.810  40.980  48.847  1.00  0.00     0.137 C 
BRANCH   4   5
ATOM      5  N   UNL     1       5.717  42.113  48.801  1.00  0.00    -0.355 N 
ATOM      6  C   UNL     1       6.904  42.114  49.492  1.00  0.00     0.216 C 
ATOM      7  C   UNL     1       7.699  43.385  49.359  1.00  0.00     0.114 C 
ATOM      8  O   UNL     1       7.286  41.172  50.178  1.00  0.00    -0.275 OA
ATOM      9  H   UNL     1       5.405  42.955  48.334  1.00  0.00     0.163 HD
ENDBRANCH   4   5
ENDBRANCH   3   4
ENDBRANCH   1   3
BRANCH   1  10
ATOM     10  C   UNL     1       3.808  42.755  51.721  1.00  0.00     0.226 A 
ATOM     11  N   UNL     1       4.471  43.908  51.518  1.00  0.00    -0.195 NA
ATOM     12  N   UNL     1       2.631  42.634  52.344  1.00  0.00    -0.193 NA
ATOM     13  C   UNL     1       3.957  45.083  51.956  1.00  0.00     0.147 A 
ATOM     14  C   UNL     1       2.146  43.808  52.777  1.00  0.00     0.165 A 
ATOM     15  C   UNL     1       2.732  45.049  52.625  1.00  0.00     0.082 A 
ATOM     16  N   UNL     1       0.978  44.020  53.456  1.00  0.00    -0.250 N 
ATOM     17  C   UNL     1       1.831  45.936  53.248  1.00  0.00     0.149 A 
ATOM     18  N   UNL     1       0.755  45.320  53.752  1.00  0.00    -0.179 NA
ATOM     19  C   UNL     1       0.015  43.026  53.861  1.00  0.00     0.176 C 
BRANCH  13  20
ATOM     20  N   UNL     1       4.731  46.235  51.680  1.00  0.00    -0.338 N 
ATOM     21  H   UNL     1       4.092  46.983  51.963  1.00  0.00     0.168 HD
BRANCH  20  22
ATOM     22  C   UNL     1       6.004  46.465  52.260  1.00  0.00     0.059 A 
ATOM     23  C   UNL     1       7.147  46.233  51.483  1.00  0.00     0.029 A 
ATOM     24  C   UNL     1       6.167  46.864  53.601  1.00  0.00     0.066 A 
ATOM     25  C   UNL     1       8.423  46.399  52.027  1.00  0.00     0.023 A 
ATOM     26  C   UNL     1       7.442  47.030  54.147  1.00  0.00     0.043 A 
ATOM     27  C   UNL     1       8.562  46.795  53.355  1.00  0.00     0.042 A 
ATOM     28  Cl  UNL     1       4.799  47.192  54.608  1.00  0.00    -0.082 Cl
ATOM     29  Cl  UNL     1      10.135  46.998  54.022  1.00  0.00    -0.084 Cl
ENDBRANCH  20  22
ENDBRANCH  13  20
ENDBRANCH   1  10
TORSDOF 6
ENDMDL
MODEL 8
REMARK VINA RESULT:    -8.242      1.451      2.021
REMARK INTER + INTRA:         -12.493
REMARK INTER:                 -11.674
REMARK INTRA:                  -0.819
REMARK UNBOUND:                -1.360
REMARK SMILES CC(=O)NCCNc1nc(Nc2ccc(Cl)cc2Cl)c2cnn(C)c2n1
REMARK SMILES IDX 7 1 6 3 5 4 4 5 2 6 1 7 3 8 8 10 9 11 26 12 10 13 25 14
REMARK SMILES IDX 20 15 23 16 21 17 22 18 24 19 11 20 12 22 13 23 18 24 14 25
REMARK SMILES IDX 17 26 15 27 19 28 16 29
REMARK H PARENT 7 2 4 9 11 21
ROOT
ATOM      1  N   UNL     1       2.856  45.714  52.604  1.00  0.00    -0.352 N 
ATOM      2  H   UNL     1       2.032  45.173  52.368  1.00  0.00     0.163 HD
ENDROOT
BRANCH   1   3
ATOM      3  C   UNL     1       3.062  45.943  54.030  1.00  0.00     0.137 C 
BRANCH   3   4
ATOM      4  C   UNL     1       2.199  45.019  54.909  1.00  0.00     0.137 C 
BRANCH   4   5
ATOM      5  N   UNL     1       1.786  43.806  54.225  1.00  0.00    -0.355 N 
ATOM      6  C   UNL     1       0.461  43.520  54.004  1.00  0.00     0.216 C 
ATOM      7  C   UNL     1       0.216  42.205  53.315  1.00  0.00     0.114 C 
ATOM      8  O   UNL     1      -0.455  44.259  54.349  1.00  0.00    -0.275 OA
ATOM      9  H   UNL     1       2.494  43.115  54.009  1.00  0.00     0.163 HD
ENDBRANCH   4   5
ENDBRANCH   3   4
ENDBRANCH   1   3
BRANCH   1  10
ATOM     10  C   UNL     1       3.927  45.171  51.910  1.00  0.00     0.226 A 
ATOM     11  N   UNL     1       5.049  45.898  51.757  1.00  0.00    -0.195 NA
ATOM     12  N   UNL     1       3.745  43.919  51.478  1.00  0.00    -0.193 NA
ATOM     13  C   UNL     1       6.125  45.374  51.120  1.00  0.00     0.147 A 
ATOM     14  C   UNL     1       4.819  43.425  50.842  1.00  0.00     0.165 A 
ATOM     15  C   UNL     1       6.021  44.072  50.628  1.00  0.00     0.082 A 
ATOM     16  N   UNL     1       4.948  42.187  50.276  1.00  0.00    -0.250 N 
ATOM     17  C   UNL     1       6.800  43.130  49.926  1.00  0.00     0.149 A 
ATOM     18  N   UNL     1       6.159  41.975  49.712  1.00  0.00    -0.179 NA
ATOM     19  C   UNL     1       3.954  41.143  50.233  1.00  0.00     0.176 C 
BRANCH  13  20
ATOM     20  N   UNL     1       7.256  46.220  51.025  1.00  0.00    -0.338 N 
ATOM     21  H   UNL     1       6.832  47.089  50.689  1.00  0.00     0.168 HD
BRANCH  20  22
ATOM     22  C   UNL     1       8.098  46.506  52.129  1.00  0.00     0.059 A 
ATOM     23  C   UNL     1       7.569  47.231  53.205  1.00  0.00     0.029 A 
ATOM     24  C   UNL     1       9.457  46.140  52.162  1.00  0.00     0.066 A 
ATOM     25  C   UNL     1       8.374  47.578  54.293  1.00  0.00     0.023 A 
ATOM     26  C   UNL     1      10.265  46.487  53.248  1.00  0.00     0.043 A 
ATOM     27  C   UNL     1       9.716  47.206  54.307  1.00  0.00     0.042 A 
ATOM     28  Cl  UNL     1      10.168  45.223  50.879  1.00  0.00    -0.082 Cl
ATOM     29  Cl  UNL     1      10.705  47.636  55.647  1.00  0.00    -0.084 Cl
ENDBRANCH  20  22
ENDBRANCH  13  20
ENDBRANCH   1  10
TORSDOF 6
ENDMDL
MODEL 9
REMARK VINA RESULT:    -8.130      2.822      5.508
REMARK INTER + INTRA:         -12.342
REMARK INTER:                 -11.487
REMARK INTRA:                  -0.854
REMARK UNBOUND:                -1.360
REMARK SMILES CC(=O)NCCNc1nc(Nc2ccc(Cl)cc2Cl)c2cnn(C)c2n1
REMARK SMILES IDX 7 1 6 3 5 4 4 5 2 6 1 7 3 8 8 10 9 11 26 12 10 13 25 14
REMARK SMILES IDX 20 15 23 16 21 17 22 18 24 19 11 20 12 22 13 23 18 24 14 25
REMARK SMILES IDX 17 26 15 27 19 28 16 29
REMARK H PARENT 7 2 4 9 11 21
ROOT
ATOM      1  N   UNL     1       7.915  46.057  50.426  1.00  0.00    -0.352 N 
ATOM      2  H   UNL     1       7.681  46.977  50.071  1.00  0.00     0.163 HD
ENDROOT
BRANCH   1   3
ATOM      3  C   UNL     1       8.956  46.030  51.446  1.00  0.00     0.137 C 
BRANCH   3   4
ATOM      4  C   UNL     1       8.976  47.307  52.306  1.00  0.00     0.137 C 
BRANCH   4   5
ATOM      5  N   UNL     1       9.913  47.232  53.414  1.00  0.00    -0.355 N 
ATOM      6  C   UNL     1       9.563  47.633  54.680  1.00  0.00     0.216 C 
ATOM      7  C   UNL     1      10.669  47.520  55.694  1.00  0.00     0.114 C 
ATOM      8  O   UNL     1       8.452  48.064  54.968  1.00  0.00    -0.275 OA
ATOM      9  H   UNL     1      10.872  46.980  53.211  1.00  0.00     0.163 HD
ENDBRANCH   4   5
ENDBRANCH   3   4
ENDBRANCH   1   3
BRANCH   1  10
ATOM     10  C   UNL     1       6.727  45.418  50.746  1.00  0.00     0.226 A 
ATOM     11  N   UNL     1       5.746  46.114  51.350  1.00  0.00    -0.195 NA
ATOM     12  N   UNL     1       6.657  44.134  50.376  1.00  0.00    -0.193 NA
ATOM     13  C   UNL     1       4.560  45.524  51.635  1.00  0.00     0.147 A 
ATOM     14  C   UNL     1       5.477  43.568  50.677  1.00  0.00     0.165 A 
ATOM     15  C   UNL     1       4.400  44.180  51.289  1.00  0.00     0.082 A 
ATOM     16  N   UNL     1       5.096  42.276  50.443  1.00  0.00    -0.250 N 
ATOM     17  C   UNL     1       3.427  43.165  51.373  1.00  0.00     0.149 A 
ATOM     18  N   UNL     1       3.837  42.002  50.853  1.00  0.00    -0.179 NA
ATOM     19  C   UNL     1       5.883  41.237  49.826  1.00  0.00     0.176 C 
BRANCH  13  20
ATOM     20  N   UNL     1       3.596  46.350  52.260  1.00  0.00    -0.338 N 
ATOM     21  H   UNL     1       2.904  46.457  51.512  1.00  0.00     0.168 HD
BRANCH  20  22
ATOM     22  C   UNL     1       2.933  45.988  53.460  1.00  0.00     0.059 A 
ATOM     23  C   UNL     1       1.585  45.610  53.394  1.00  0.00     0.029 A 
ATOM     24  C   UNL     1       3.559  46.045  54.720  1.00  0.00     0.066 A 
ATOM     25  C   UNL     1       0.878  45.292  54.556  1.00  0.00     0.023 A 
ATOM     26  C   UNL     1       2.854  45.729  55.884  1.00  0.00     0.043 A 
ATOM     27  C   UNL     1       1.516  45.354  55.793  1.00  0.00     0.042 A 
ATOM     28  Cl  UNL     1       5.227  46.479  54.870  1.00  0.00    -0.082 Cl
ATOM     29  Cl  UNL     1       0.643  44.963  57.222  1.00  0.00    -0.084 Cl
ENDBRANCH  20  22
ENDBRANCH  13  20
ENDBRANCH   1  10
TORSDOF 6
ENDMDL
MODEL 10
REMARK VINA RESULT:    -8.058      2.957      5.488
REMARK INTER + INTRA:         -12.244
REMARK INTER:                 -11.417
REMARK INTRA:                  -0.826
REMARK UNBOUND:                -1.360
REMARK SMILES CC(=O)NCCNc1nc(Nc2ccc(Cl)cc2Cl)c2cnn(C)c2n1
REMARK SMILES IDX 7 1 6 3 5 4 4 5 2 6 1 7 3 8 8 10 9 11 26 12 10 13 25 14
REMARK SMILES IDX 20 15 23 16 21 17 22 18 24 19 11 20 12 22 13 23 18 24 14 25
REMARK SMILES IDX 17 26 15 27 19 28 16 29
REMARK H PARENT 7 2 4 9 11 21
ROOT
ATOM      1  N   UNL     1       3.842  41.297  50.921  1.00  0.00    -0.352 N 
ATOM      2  H   UNL     1       2.946  40.824  50.888  1.00  0.00     0.163 HD
ENDROOT
BRANCH   1   3
ATOM      3  C   UNL     1       4.634  41.212  49.699  1.00  0.00     0.137 C 
BRANCH   3   4
ATOM      4  C   UNL     1       3.926  40.415  48.588  1.00  0.00     0.137 C 
BRANCH   4   5
ATOM      5  N   UNL     1       4.455  40.692  47.264  1.00  0.00    -0.355 N 
ATOM      6  C   UNL     1       3.648  40.695  46.153  1.00  0.00     0.216 C 
ATOM      7  C   UNL     1       4.371  40.965  44.861  1.00  0.00     0.114 C 
ATOM      8  O   UNL     1       2.441  40.481  46.196  1.00  0.00    -0.275 OA
ATOM      9  H   UNL     1       5.458  40.775  47.160  1.00  0.00     0.163 HD
ENDBRANCH   4   5
ENDBRANCH   3   4
ENDBRANCH   1   3
BRANCH   1  10
ATOM     10  C   UNL     1       3.626  42.571  51.423  1.00  0.00     0.226 A 
ATOM     11  N   UNL     1       4.449  43.571  51.060  1.00  0.00    -0.195 NA
ATOM     12  N   UNL     1       2.559  42.692  52.220  1.00  0.00    -0.193 NA
ATOM     13  C   UNL     1       4.235  44.834  51.503  1.00  0.00     0.147 A 
ATOM     14  C   UNL     1       2.371  43.948  52.654  1.00  0.00     0.165 A 
ATOM     15  C   UNL     1       3.144  45.051  52.347  1.00  0.00     0.082 A 
ATOM     16  N   UNL     1       1.383  44.397  53.486  1.00  0.00    -0.250 N 
ATOM     17  C   UNL     1       2.530  46.110  53.046  1.00  0.00     0.149 A 
ATOM     18  N   UNL     1       1.451  45.724  53.738  1.00  0.00    -0.179 NA
ATOM     19  C   UNL     1       0.330  43.616  54.085  1.00  0.00     0.176 C 
BRANCH  13  20
ATOM     20  N   UNL     1       5.154  45.809  51.050  1.00  0.00    -0.338 N 
ATOM     21  H   UNL     1       4.563  46.645  51.013  1.00  0.00     0.168 HD
BRANCH  20  22
ATOM     22  C   UNL     1       6.353  46.116  51.741  1.00  0.00     0.059 A 
ATOM     23  C   UNL     1       6.270  46.819  52.951  1.00  0.00     0.029 A 
ATOM     24  C   UNL     1       7.626  45.792  51.233  1.00  0.00     0.066 A 
ATOM     25  C   UNL     1       7.427  47.185  53.642  1.00  0.00     0.023 A 
ATOM     26  C   UNL     1       8.785  46.158  51.922  1.00  0.00     0.043 A 
ATOM     27  C   UNL     1       8.677  46.854  53.123  1.00  0.00     0.042 A 
ATOM     28  Cl  UNL     1       7.801  44.904  49.758  1.00  0.00    -0.082 Cl
ATOM     29  Cl  UNL     1      10.100  47.307  53.976  1.00  0.00    -0.084 Cl
ENDBRANCH  20  22
ENDBRANCH  13  20
ENDBRANCH   1  10
TORSDOF 6
ENDMDL
MODEL 11
REMARK VINA RESULT:    -8.052      3.492      6.528
REMARK INTER + INTRA:         -12.237
REMARK INTER:                 -11.277
REMARK INTRA:                  -0.960
REMARK UNBOUND:                -1.360
REMARK SMILES CC(=O)NCCNc1nc(Nc2ccc(Cl)cc2Cl)c2cnn(C)c2n1
REMARK SMILES IDX 7 1 6 3 5 4 4 5 2 6 1 7 3 8 8 10 9 11 26 12 10 13 25 14
REMARK SMILES IDX 20 15 23 16 21 17 22 18 24 19 11 20 12 22 13 23 18 24 14 25
REMARK SMILES IDX 17 26 15 27 19 28 16 29
REMARK H PARENT 7 2 4 9 11 21
ROOT
ATOM      1  N   UNL     1       6.848  46.302  51.731  1.00  0.00    -0.352 N 
ATOM      2  H   UNL     1       6.745  46.771  52.623  1.00  0.00     0.163 HD
ENDROOT
BRANCH   1   3
ATOM      3  C   UNL     1       8.223  46.078  51.301  1.00  0.00     0.137 C 
BRANCH   3   4
ATOM      4  C   UNL     1       9.137  47.283  51.589  1.00  0.00     0.137 C 
BRANCH   4   5
ATOM      5  N   UNL     1       9.891  47.144  52.823  1.00  0.00    -0.355 N 
ATOM      6  C   UNL     1       9.371  47.537  54.032  1.00  0.00     0.216 C 
ATOM      7  C   UNL     1      10.304  47.353  55.198  1.00  0.00     0.114 C 
ATOM      8  O   UNL     1       8.249  48.014  54.160  1.00  0.00    -0.275 OA
ATOM      9  H   UNL     1      10.858  46.851  52.761  1.00  0.00     0.163 HD
ENDBRANCH   4   5
ENDBRANCH   3   4
ENDBRANCH   1   3
BRANCH   1  10
ATOM     10  C   UNL     1       6.022  45.188  51.745  1.00  0.00     0.226 A 
ATOM     11  N   UNL     1       5.056  45.096  52.677  1.00  0.00    -0.195 NA
ATOM     12  N   UNL     1       6.252  44.299  50.773  1.00  0.00    -0.193 NA
ATOM     13  C   UNL     1       4.209  44.038  52.687  1.00  0.00     0.147 A 
ATOM     14  C   UNL     1       5.408  43.256  50.808  1.00  0.00     0.165 A 
ATOM     15  C   UNL     1       4.381  43.056  51.710  1.00  0.00     0.082 A 
ATOM     16  N   UNL     1       5.387  42.180  49.964  1.00  0.00    -0.250 N 
ATOM     17  C   UNL     1       3.808  41.831  51.315  1.00  0.00     0.149 A 
ATOM     18  N   UNL     1       4.409  41.291  50.248  1.00  0.00    -0.179 NA
ATOM     19  C   UNL     1       6.275  41.928  48.856  1.00  0.00     0.176 C 
BRANCH  13  20
ATOM     20  N   UNL     1       3.224  44.047  53.703  1.00  0.00    -0.338 N 
ATOM     21  H   UNL     1       3.464  44.903  54.212  1.00  0.00     0.168 HD
BRANCH  20  22
ATOM     22  C   UNL     1       1.833  44.043  53.428  1.00  0.00     0.059 A 
ATOM     23  C   UNL     1       1.102  42.876  53.689  1.00  0.00     0.029 A 
ATOM     24  C   UNL     1       1.169  45.143  52.852  1.00  0.00     0.066 A 
ATOM     25  C   UNL     1      -0.261  42.809  53.389  1.00  0.00     0.023 A 
ATOM     26  C   UNL     1      -0.193  45.078  52.549  1.00  0.00     0.043 A 
ATOM     27  C   UNL     1      -0.899  43.908  52.820  1.00  0.00     0.042 A 
ATOM     28  Cl  UNL     1       2.006  46.622  52.527  1.00  0.00    -0.082 Cl
ATOM     29  Cl  UNL     1      -2.577  43.822  52.450  1.00  0.00    -0.084 Cl
ENDBRANCH  20  22
ENDBRANCH  13  20
ENDBRANCH   1  10
TORSDOF 6
ENDMDL
MODEL 12
REMARK VINA RESULT:    -7.976      3.197      5.776
REMARK INTER + INTRA:         -12.133
REMARK INTER:                 -11.343
REMARK INTRA:                  -0.791
REMARK UNBOUND:                -1.360
REMARK SMILES CC(=O)NCCNc1nc(Nc2ccc(Cl)cc2Cl)c2cnn(C)c2n1
REMARK SMILES IDX 7 1 6 3 5 4 4 5 2 6 1 7 3 8 8 10 9 11 26 12 10 13 25 14
REMARK SMILES IDX 20 15 23 16 21 17 22 18 24 19 11 20 12 22 13 23 18 24 14 25
REMARK SMILES IDX 17 26 15 27 19 28 16 29
REMARK H PARENT 7 2 4 9 11 21
ROOT
ATOM      1  N   UNL     1       4.060  41.273  51.069  1.00  0.00    -0.352 N 
ATOM      2  H   UNL     1       3.329  40.588  51.222  1.00  0.00     0.163 HD
ENDROOT
BRANCH   1   3
ATOM      3  C   UNL     1       4.684  41.232  49.752  1.00  0.00     0.137 C 
BRANCH   3   4
ATOM      4  C   UNL     1       3.800  40.539  48.699  1.00  0.00     0.137 C 
BRANCH   4   5
ATOM      5  N   UNL     1       4.375  40.568  47.366  1.00  0.00    -0.355 N 
ATOM      6  C   UNL     1       3.590  40.688  46.245  1.00  0.00     0.216 C 
ATOM      7  C   UNL     1       4.351  40.663  44.947  1.00  0.00     0.114 C 
ATOM      8  O   UNL     1       2.368  40.791  46.286  1.00  0.00    -0.275 OA
ATOM      9  H   UNL     1       5.366  40.386  47.270  1.00  0.00     0.163 HD
ENDBRANCH   4   5
ENDBRANCH   3   4
ENDBRANCH   1   3
BRANCH   1  10
ATOM     10  C   UNL     1       3.571  42.505  51.477  1.00  0.00     0.226 A 
ATOM     11  N   UNL     1       4.219  43.625  51.109  1.00  0.00    -0.195 NA
ATOM     12  N   UNL     1       2.442  42.458  52.192  1.00  0.00    -0.193 NA
ATOM     13  C   UNL     1       3.739  44.843  51.459  1.00  0.00     0.147 A 
ATOM     14  C   UNL     1       1.990  43.674  52.535  1.00  0.00     0.165 A 
ATOM     15  C   UNL     1       2.565  44.889  52.213  1.00  0.00     0.082 A 
ATOM     16  N   UNL     1       0.874  43.965  53.270  1.00  0.00    -0.250 N 
ATOM     17  C   UNL     1       1.712  45.842  52.804  1.00  0.00     0.149 A 
ATOM     18  N   UNL     1       0.674  45.291  53.444  1.00  0.00    -0.179 NA
ATOM     19  C   UNL     1      -0.058  43.026  53.843  1.00  0.00     0.176 C 
BRANCH  13  20
ATOM     20  N   UNL     1       4.491  45.954  51.010  1.00  0.00    -0.338 N 
ATOM     21  H   UNL     1       3.875  46.733  51.260  1.00  0.00     0.168 HD
BRANCH  20  22
ATOM     22  C   UNL     1       5.804  46.231  51.469  1.00  0.00     0.059 A 
ATOM     23  C   UNL     1       6.890  45.716  50.747  1.00  0.00     0.029 A 
ATOM     24  C   UNL     1       6.059  46.955  52.649  1.00  0.00     0.066 A 
ATOM     25  C   UNL     1       8.199  45.922  51.188  1.00  0.00     0.023 A 
ATOM     26  C   UNL     1       7.367  47.162  53.093  1.00  0.00     0.043 A 
ATOM     27  C   UNL     1       8.429  46.642  52.358  1.00  0.00     0.042 A 
ATOM     28  Cl  UNL     1       4.767  47.640  53.574  1.00  0.00    -0.082 Cl
ATOM     29  Cl  UNL     1      10.043  46.893  52.899  1.00  0.00    -0.084 Cl
ENDBRANCH  20  22
ENDBRANCH  13  20
ENDBRANCH   1  10
TORSDOF 6
ENDMDL
MODEL 13
REMARK VINA RESULT:    -7.920      2.233      3.214
REMARK INTER + INTRA:         -12.058
REMARK INTER:                 -11.164
REMARK INTRA:                  -0.894
REMARK UNBOUND:                -1.360
REMARK SMILES CC(=O)NCCNc1nc(Nc2ccc(Cl)cc2Cl)c2cnn(C)c2n1
REMARK SMILES IDX 7 1 6 3 5 4 4 5 2 6 1 7 3 8 8 10 9 11 26 12 10 13 25 14
REMARK SMILES IDX 20 15 23 16 21 17 22 18 24 19 11 20 12 22 13 23 18 24 14 25
REMARK SMILES IDX 17 26 15 27 19 28 16 29
REMARK H PARENT 7 2 4 9 11 21
ROOT
ATOM      1  N   UNL     1       3.047  43.983  52.605  1.00  0.00    -0.352 N 
ATOM      2  H   UNL     1       2.498  44.834  52.555  1.00  0.00     0.163 HD
ENDROOT
BRANCH   1   3
ATOM      3  C   UNL     1       2.318  42.755  52.310  1.00  0.00     0.137 C 
BRANCH   3   4
ATOM      4  C   UNL     1       0.949  42.694  53.012  1.00  0.00     0.137 C 
BRANCH   4   5
ATOM      5  N   UNL     1      -0.152  43.077  52.146  1.00  0.00    -0.355 N 
ATOM      6  C   UNL     1      -0.448  44.395  51.898  1.00  0.00     0.216 C 
ATOM      7  C   UNL     1      -1.643  44.607  51.009  1.00  0.00     0.114 C 
ATOM      8  O   UNL     1       0.191  45.330  52.370  1.00  0.00    -0.275 OA
ATOM      9  H   UNL     1      -0.772  42.349  51.813  1.00  0.00     0.163 HD
ENDBRANCH   4   5
ENDBRANCH   3   4
ENDBRANCH   1   3
BRANCH   1  10
ATOM     10  C   UNL     1       4.211  44.193  51.882  1.00  0.00     0.226 A 
ATOM     11  N   UNL     1       4.876  45.354  52.027  1.00  0.00    -0.195 NA
ATOM     12  N   UNL     1       4.592  43.169  51.111  1.00  0.00    -0.193 NA
ATOM     13  C   UNL     1       6.039  45.567  51.364  1.00  0.00     0.147 A 
ATOM     14  C   UNL     1       5.740  43.406  50.458  1.00  0.00     0.165 A 
ATOM     15  C   UNL     1       6.509  44.552  50.530  1.00  0.00     0.082 A 
ATOM     16  N   UNL     1       6.385  42.570  49.589  1.00  0.00    -0.250 N 
ATOM     17  C   UNL     1       7.593  44.295  49.666  1.00  0.00     0.149 A 
ATOM     18  N   UNL     1       7.531  43.088  49.093  1.00  0.00    -0.179 NA
ATOM     19  C   UNL     1       5.968  41.252  49.180  1.00  0.00     0.176 C 
BRANCH  13  20
ATOM     20  N   UNL     1       6.661  46.817  51.598  1.00  0.00    -0.338 N 
ATOM     21  H   UNL     1       5.852  47.413  51.796  1.00  0.00     0.168 HD
BRANCH  20  22
ATOM     22  C   UNL     1       7.642  47.012  52.603  1.00  0.00     0.059 A 
ATOM     23  C   UNL     1       8.994  46.995  52.233  1.00  0.00     0.029 A 
ATOM     24  C   UNL     1       7.315  47.169  53.964  1.00  0.00     0.066 A 
ATOM     25  C   UNL     1       9.997  47.136  53.195  1.00  0.00     0.023 A 
ATOM     26  C   UNL     1       8.316  47.308  54.928  1.00  0.00     0.043 A 
ATOM     27  C   UNL     1       9.652  47.290  54.536  1.00  0.00     0.042 A 
ATOM     28  Cl  UNL     1       5.666  47.224  54.486  1.00  0.00    -0.082 Cl
ATOM     29  Cl  UNL     1      10.889  47.461  55.719  1.00  0.00    -0.084 Cl
ENDBRANCH  20  22
ENDBRANCH  13  20
ENDBRANCH   1  10
TORSDOF 6
ENDMDL
MODEL 14
REMARK VINA RESULT:    -7.893      2.945      5.209
REMARK INTER + INTRA:         -12.022
REMARK INTER:                 -10.796
REMARK INTRA:                  -1.226
REMARK UNBOUND:                -1.360
REMARK SMILES CC(=O)NCCNc1nc(Nc2ccc(Cl)cc2Cl)c2cnn(C)c2n1
REMARK SMILES IDX 7 1 6 3 5 4 4 5 2 6 1 7 3 8 8 10 9 11 26 12 10 13 25 14
REMARK SMILES IDX 20 15 23 16 21 17 22 18 24 19 11 20 12 22 13 23 18 24 14 25
REMARK SMILES IDX 17 26 15 27 19 28 16 29
REMARK H PARENT 7 2 4 9 11 21
ROOT
ATOM      1  N   UNL     1       3.536  41.534  50.433  1.00  0.00    -0.352 N 
ATOM      2  H   UNL     1       3.351  41.717  49.453  1.00  0.00     0.163 HD
ENDROOT
BRANCH   1   3
ATOM      3  C   UNL     1       4.943  41.376  50.782  1.00  0.00     0.137 C 
BRANCH   3   4
ATOM      4  C   UNL     1       5.884  42.048  49.765  1.00  0.00     0.137 C 
BRANCH   4   5
ATOM      5  N   UNL     1       6.219  43.416  50.118  1.00  0.00    -0.355 N 
ATOM      6  C   UNL     1       7.420  43.978  49.760  1.00  0.00     0.216 C 
ATOM      7  C   UNL     1       7.613  45.390  50.241  1.00  0.00     0.114 C 
ATOM      8  O   UNL     1       8.279  43.382  49.118  1.00  0.00    -0.275 OA
ATOM      9  H   UNL     1       5.591  43.917  50.733  1.00  0.00     0.163 HD
ENDBRANCH   4   5
ENDBRANCH   3   4
ENDBRANCH   1   3
BRANCH   1  10
ATOM     10  C   UNL     1       2.821  42.463  51.174  1.00  0.00     0.226 A 
ATOM     11  N   UNL     1       3.433  43.112  52.181  1.00  0.00    -0.195 NA
ATOM     12  N   UNL     1       1.560  42.656  50.776  1.00  0.00    -0.193 NA
ATOM     13  C   UNL     1       2.770  44.056  52.894  1.00  0.00     0.147 A 
ATOM     14  C   UNL     1       0.920  43.587  51.501  1.00  0.00     0.165 A 
ATOM     15  C   UNL     1       1.443  44.319  52.551  1.00  0.00     0.082 A 
ATOM     16  N   UNL     1      -0.374  44.005  51.355  1.00  0.00    -0.250 N 
ATOM     17  C   UNL     1       0.378  45.146  52.960  1.00  0.00     0.149 A 
ATOM     18  N   UNL     1      -0.732  44.968  52.233  1.00  0.00    -0.179 NA
ATOM     19  C   UNL     1      -1.336  43.530  50.392  1.00  0.00     0.176 C 
BRANCH  13  20
ATOM     20  N   UNL     1       3.511  44.684  53.923  1.00  0.00    -0.338 N 
ATOM     21  H   UNL     1       3.754  43.885  54.516  1.00  0.00     0.168 HD
BRANCH  20  22
ATOM     22  C   UNL     1       4.676  45.452  53.674  1.00  0.00     0.059 A 
ATOM     23  C   UNL     1       5.919  44.930  54.058  1.00  0.00     0.029 A 
ATOM     24  C   UNL     1       4.630  46.740  53.106  1.00  0.00     0.066 A 
ATOM     25  C   UNL     1       7.089  45.672  53.877  1.00  0.00     0.023 A 
ATOM     26  C   UNL     1       5.798  47.484  52.924  1.00  0.00     0.043 A 
ATOM     27  C   UNL     1       7.021  46.944  53.313  1.00  0.00     0.042 A 
ATOM     28  Cl  UNL     1       3.132  47.434  52.585  1.00  0.00    -0.082 Cl
ATOM     29  Cl  UNL     1       8.463  47.855  53.091  1.00  0.00    -0.084 Cl
ENDBRANCH  20  22
ENDBRANCH  13  20
ENDBRANCH   1  10
TORSDOF 6
ENDMDL
MODEL 15
REMARK VINA RESULT:    -7.869      3.725      6.433
REMARK INTER + INTRA:         -11.989
REMARK INTER:                 -11.144
REMARK INTRA:                  -0.845
REMARK UNBOUND:                -1.360
REMARK SMILES CC(=O)NCCNc1nc(Nc2ccc(Cl)cc2Cl)c2cnn(C)c2n1
REMARK SMILES IDX 7 1 6 3 5 4 4 5 2 6 1 7 3 8 8 10 9 11 26 12 10 13 25 14
REMARK SMILES IDX 20 15 23 16 21 17 22 18 24 19 11 20 12 22 13 23 18 24 14 25
REMARK SMILES IDX 17 26 15 27 19 28 16 29
REMARK H PARENT 7 2 4 9 11 21
ROOT
ATOM      1  N   UNL     1       5.358  46.736  52.343  1.00  0.00    -0.352 N 
ATOM      2  H   UNL     1       4.835  47.303  51.684  1.00  0.00     0.163 HD
ENDROOT
BRANCH   1   3
ATOM      3  C   UNL     1       5.192  47.100  53.745  1.00  0.00     0.137 C 
BRANCH   3   4
ATOM      4  C   UNL     1       6.385  46.665  54.615  1.00  0.00     0.137 C 
BRANCH   4   5
ATOM      5  N   UNL     1       7.625  46.555  53.867  1.00  0.00    -0.355 N 
ATOM      6  C   UNL     1       8.725  47.315  54.181  1.00  0.00     0.216 C 
ATOM      7  C   UNL     1       9.909  47.098  53.278  1.00  0.00     0.114 C 
ATOM      8  O   UNL     1       8.747  48.119  55.107  1.00  0.00    -0.275 OA
ATOM      9  H   UNL     1       7.629  45.982  53.032  1.00  0.00     0.163 HD
ENDBRANCH   4   5
ENDBRANCH   3   4
ENDBRANCH   1   3
BRANCH   1  10
ATOM     10  C   UNL     1       5.131  45.406  52.024  1.00  0.00     0.226 A 
ATOM     11  N   UNL     1       4.152  44.735  52.658  1.00  0.00    -0.195 NA
ATOM     12  N   UNL     1       5.911  44.914  51.055  1.00  0.00    -0.193 NA
ATOM     13  C   UNL     1       3.881  43.447  52.334  1.00  0.00     0.147 A 
ATOM     14  C   UNL     1       5.631  43.635  50.759  1.00  0.00     0.165 A 
ATOM     15  C   UNL     1       4.653  42.849  51.336  1.00  0.00     0.082 A 
ATOM     16  N   UNL     1       6.252  42.847  49.829  1.00  0.00    -0.250 N 
ATOM     17  C   UNL     1       4.773  41.609  50.678  1.00  0.00     0.149 A 
ATOM     18  N   UNL     1       5.740  41.598  49.753  1.00  0.00    -0.179 NA
ATOM     19  C   UNL     1       7.348  43.217  48.969  1.00  0.00     0.176 C 
BRANCH  13  20
ATOM     20  N   UNL     1       2.825  42.840  53.055  1.00  0.00    -0.338 N 
ATOM     21  H   UNL     1       3.121  42.998  54.022  1.00  0.00     0.168 HD
BRANCH  20  22
ATOM     22  C   UNL     1       1.470  43.233  52.911  1.00  0.00     0.059 A 
ATOM     23  C   UNL     1       0.774  42.833  51.762  1.00  0.00     0.029 A 
ATOM     24  C   UNL     1       0.813  44.052  53.849  1.00  0.00     0.066 A 
ATOM     25  C   UNL     1      -0.547  43.236  51.555  1.00  0.00     0.023 A 
ATOM     26  C   UNL     1      -0.508  44.458  53.643  1.00  0.00     0.043 A 
ATOM     27  C   UNL     1      -1.179  44.047  52.495  1.00  0.00     0.042 A 
ATOM     28  Cl  UNL     1       1.605  44.561  55.301  1.00  0.00    -0.082 Cl
ATOM     29  Cl  UNL     1      -2.806  44.542  52.236  1.00  0.00    -0.084 Cl
ENDBRANCH  20  22
ENDBRANCH  13  20
ENDBRANCH   1  10
TORSDOF 6
ENDMDL
MODEL 16
REMARK VINA RESULT:    -7.772      3.660      6.280
REMARK INTER + INTRA:         -11.859
REMARK INTER:                 -11.036
REMARK INTRA:                  -0.823
REMARK UNBOUND:                -1.360
REMARK SMILES CC(=O)NCCNc1nc(Nc2ccc(Cl)cc2Cl)c2cnn(C)c2n1
REMARK SMILES IDX 7 1 6 3 5 4 4 5 2 6 1 7 3 8 8 10 9 11 26 12 10 13 25 14
REMARK SMILES IDX 20 15 23 16 21 17 22 18 24 19 11 20 12 22 13 23 18 24 14 25
REMARK SMILES IDX 17 26 15 27 19 28 16 29
REMARK H PARENT 7 2 4 9 11 21
ROOT
ATOM      1  N   UNL     1       5.218  46.797  52.510  1.00  0.00    -0.352 N 
ATOM      2  H   UNL     1       4.533  47.344  52.003  1.00  0.00     0.163 HD
ENDROOT
BRANCH   1   3
ATOM      3  C   UNL     1       5.303  47.076  53.939  1.00  0.00     0.137 C 
BRANCH   3   4
ATOM      4  C   UNL     1       6.467  46.333  54.620  1.00  0.00     0.137 C 
BRANCH   4   5
ATOM      5  N   UNL     1       7.689  46.351  53.837  1.00  0.00    -0.355 N 
ATOM      6  C   UNL     1       8.721  47.208  54.132  1.00  0.00     0.216 C 
ATOM      7  C   UNL     1       9.893  47.115  53.193  1.00  0.00     0.114 C 
ATOM      8  O   UNL     1       8.693  47.999  55.068  1.00  0.00    -0.275 OA
ATOM      9  H   UNL     1       7.724  45.791  52.994  1.00  0.00     0.163 HD
ENDBRANCH   4   5
ENDBRANCH   3   4
ENDBRANCH   1   3
BRANCH   1  10
ATOM     10  C   UNL     1       5.039  45.468  52.156  1.00  0.00     0.226 A 
ATOM     11  N   UNL     1       4.037  44.766  52.717  1.00  0.00    -0.195 NA
ATOM     12  N   UNL     1       5.887  45.009  51.229  1.00  0.00    -0.193 NA
ATOM     13  C   UNL     1       3.814  43.479  52.356  1.00  0.00     0.147 A 
ATOM     14  C   UNL     1       5.653  43.731  50.894  1.00  0.00     0.165 A 
ATOM     15  C   UNL     1       4.658  42.915  51.398  1.00  0.00     0.082 A 
ATOM     16  N   UNL     1       6.345  42.972  49.992  1.00  0.00    -0.250 N 
ATOM     17  C   UNL     1       4.844  41.689  50.728  1.00  0.00     0.149 A 
ATOM     18  N   UNL     1       5.865  41.714  49.863  1.00  0.00    -0.179 NA
ATOM     19  C   UNL     1       7.484  43.379  49.207  1.00  0.00     0.176 C 
BRANCH  13  20
ATOM     20  N   UNL     1       2.729  42.838  53.000  1.00  0.00    -0.338 N 
ATOM     21  H   UNL     1       3.116  42.669  53.933  1.00  0.00     0.168 HD
BRANCH  20  22
ATOM     22  C   UNL     1       1.449  43.435  53.128  1.00  0.00     0.059 A 
ATOM     23  C   UNL     1       1.022  43.841  54.400  1.00  0.00     0.029 A 
ATOM     24  C   UNL     1       0.568  43.584  52.040  1.00  0.00     0.066 A 
ATOM     25  C   UNL     1      -0.250  44.390  54.582  1.00  0.00     0.023 A 
ATOM     26  C   UNL     1      -0.705  44.131  52.219  1.00  0.00     0.043 A 
ATOM     27  C   UNL     1      -1.105  44.529  53.492  1.00  0.00     0.042 A 
ATOM     28  Cl  UNL     1       1.040  43.127  50.439  1.00  0.00    -0.082 Cl
ATOM     29  Cl  UNL     1      -2.671  45.204  53.720  1.00  0.00    -0.084 Cl
ENDBRANCH  20  22
ENDBRANCH  13  20
ENDBRANCH   1  10
TORSDOF 6
ENDMDL
MODEL 17
REMARK VINA RESULT:    -7.747      3.332      5.732
REMARK INTER + INTRA:         -11.825
REMARK INTER:                 -11.513
REMARK INTRA:                  -0.312
REMARK UNBOUND:                -1.360
REMARK SMILES CC(=O)NCCNc1nc(Nc2ccc(Cl)cc2Cl)c2cnn(C)c2n1
REMARK SMILES IDX 7 1 6 3 5 4 4 5 2 6 1 7 3 8 8 10 9 11 26 12 10 13 25 14
REMARK SMILES IDX 20 15 23 16 21 17 22 18 24 19 11 20 12 22 13 23 18 24 14 25
REMARK SMILES IDX 17 26 15 27 19 28 16 29
REMARK H PARENT 7 2 4 9 11 21
ROOT
ATOM      1  N   UNL     1       6.456  41.812  49.026  1.00  0.00    -0.352 N 
ATOM      2  H   UNL     1       6.928  41.096  49.565  1.00  0.00     0.163 HD
ENDROOT
BRANCH   1   3
ATOM      3  C   UNL     1       5.464  41.323  48.076  1.00  0.00     0.137 C 
BRANCH   3   4
ATOM      4  C   UNL     1       5.645  41.923  46.669  1.00  0.00     0.137 C 
BRANCH   4   5
ATOM      5  N   UNL     1       5.497  40.942  45.609  1.00  0.00    -0.355 N 
ATOM      6  C   UNL     1       4.303  40.764  44.954  1.00  0.00     0.216 C 
ATOM      7  C   UNL     1       4.321  39.680  43.911  1.00  0.00     0.114 C 
ATOM      8  O   UNL     1       3.294  41.417  45.202  1.00  0.00    -0.275 OA
ATOM      9  H   UNL     1       6.267  40.308  45.434  1.00  0.00     0.163 HD
ENDBRANCH   4   5
ENDBRANCH   3   4
ENDBRANCH   1   3
BRANCH   1  10
ATOM     10  C   UNL     1       6.025  42.787  49.913  1.00  0.00     0.226 A 
ATOM     11  N   UNL     1       6.705  43.945  50.001  1.00  0.00    -0.195 NA
ATOM     12  N   UNL     1       4.913  42.484  50.591  1.00  0.00    -0.193 NA
ATOM     13  C   UNL     1       6.280  44.930  50.829  1.00  0.00     0.147 A 
ATOM     14  C   UNL     1       4.516  43.470  51.411  1.00  0.00     0.165 A 
ATOM     15  C   UNL     1       5.128  44.697  51.583  1.00  0.00     0.082 A 
ATOM     16  N   UNL     1       3.430  43.467  52.243  1.00  0.00    -0.250 N 
ATOM     17  C   UNL     1       4.326  45.352  52.539  1.00  0.00     0.149 A 
ATOM     18  N   UNL     1       3.285  44.615  52.943  1.00  0.00    -0.179 NA
ATOM     19  C   UNL     1       2.479  42.400  52.426  1.00  0.00     0.176 C 
BRANCH  13  20
ATOM     20  N   UNL     1       7.062  46.109  50.836  1.00  0.00    -0.338 N 
ATOM     21  H   UNL     1       6.345  46.831  50.720  1.00  0.00     0.168 HD
BRANCH  20  22
ATOM     22  C   UNL     1       7.911  46.463  51.915  1.00  0.00     0.059 A 
ATOM     23  C   UNL     1       9.246  46.035  51.887  1.00  0.00     0.029 A 
ATOM     24  C   UNL     1       7.454  47.180  53.037  1.00  0.00     0.066 A 
ATOM     25  C   UNL     1      10.106  46.319  52.950  1.00  0.00     0.023 A 
ATOM     26  C   UNL     1       8.313  47.464  54.103  1.00  0.00     0.043 A 
ATOM     27  C   UNL     1       9.634  47.030  54.051  1.00  0.00     0.042 A 
ATOM     28  Cl  UNL     1       5.826  47.760  53.126  1.00  0.00    -0.082 Cl
ATOM     29  Cl  UNL     1      10.697  47.377  55.359  1.00  0.00    -0.084 Cl
ENDBRANCH  20  22
ENDBRANCH  13  20
ENDBRANCH   1  10
TORSDOF 6
ENDMDL
MODEL 18
REMARK VINA RESULT:    -7.731      3.392      6.738
REMARK INTER + INTRA:         -11.803
REMARK INTER:                 -10.547
REMARK INTRA:                  -1.255
REMARK UNBOUND:                -1.360
REMARK SMILES CC(=O)NCCNc1nc(Nc2ccc(Cl)cc2Cl)c2cnn(C)c2n1
REMARK SMILES IDX 7 1 6 3 5 4 4 5 2 6 1 7 3 8 8 10 9 11 26 12 10 13 25 14
REMARK SMILES IDX 20 15 23 16 21 17 22 18 24 19 11 20 12 22 13 23 18 24 14 25
REMARK SMILES IDX 17 26 15 27 19 28 16 29
REMARK H PARENT 7 2 4 9 11 21
ROOT
ATOM      1  N   UNL     1       7.559  45.258  49.537  1.00  0.00    -0.352 N 
ATOM      2  H   UNL     1       8.149  45.944  49.080  1.00  0.00     0.163 HD
ENDROOT
BRANCH   1   3
ATOM      3  C   UNL     1       8.095  43.902  49.573  1.00  0.00     0.137 C 
BRANCH   3   4
ATOM      4  C   UNL     1       7.054  42.842  49.168  1.00  0.00     0.137 C 
BRANCH   4   5
ATOM      5  N   UNL     1       6.056  42.603  50.196  1.00  0.00    -0.355 N 
ATOM      6  C   UNL     1       5.034  41.705  50.012  1.00  0.00     0.216 C 
ATOM      7  C   UNL     1       4.073  41.613  51.166  1.00  0.00     0.114 C 
ATOM      8  O   UNL     1       4.897  41.039  48.991  1.00  0.00    -0.275 OA
ATOM      9  H   UNL     1       6.064  43.198  51.015  1.00  0.00     0.163 HD
ENDBRANCH   4   5
ENDBRANCH   3   4
ENDBRANCH   1   3
BRANCH   1  10
ATOM     10  C   UNL     1       7.161  45.791  50.754  1.00  0.00     0.226 A 
ATOM     11  N   UNL     1       5.853  46.006  50.982  1.00  0.00    -0.195 NA
ATOM     12  N   UNL     1       8.150  46.012  51.626  1.00  0.00    -0.193 NA
ATOM     13  C   UNL     1       5.434  46.487  52.179  1.00  0.00     0.147 A 
ATOM     14  C   UNL     1       7.714  46.496  52.799  1.00  0.00     0.165 A 
ATOM     15  C   UNL     1       6.402  46.753  53.149  1.00  0.00     0.082 A 
ATOM     16  N   UNL     1       8.470  46.834  53.888  1.00  0.00    -0.250 N 
ATOM     17  C   UNL     1       6.485  47.242  54.468  1.00  0.00     0.149 A 
ATOM     18  N   UNL     1       7.740  47.289  54.931  1.00  0.00    -0.179 NA
ATOM     19  C   UNL     1       9.904  46.751  54.009  1.00  0.00     0.176 C 
BRANCH  13  20
ATOM     20  N   UNL     1       4.037  46.665  52.316  1.00  0.00    -0.338 N 
ATOM     21  H   UNL     1       3.825  47.247  51.501  1.00  0.00     0.168 HD
BRANCH  20  22
ATOM     22  C   UNL     1       3.124  45.582  52.366  1.00  0.00     0.059 A 
ATOM     23  C   UNL     1       2.453  45.214  51.192  1.00  0.00     0.029 A 
ATOM     24  C   UNL     1       2.823  44.897  53.560  1.00  0.00     0.066 A 
ATOM     25  C   UNL     1       1.509  44.185  51.204  1.00  0.00     0.023 A 
ATOM     26  C   UNL     1       1.878  43.868  53.575  1.00  0.00     0.043 A 
ATOM     27  C   UNL     1       1.227  43.520  52.395  1.00  0.00     0.042 A 
ATOM     28  Cl  UNL     1       3.632  45.283  55.040  1.00  0.00    -0.082 Cl
ATOM     29  Cl  UNL     1       0.063  42.253  52.407  1.00  0.00    -0.084 Cl
ENDBRANCH  20  22
ENDBRANCH  13  20
ENDBRANCH   1  10
TORSDOF 6
ENDMDL
MODEL 19
REMARK VINA RESULT:    -7.670      2.478      3.474
REMARK INTER + INTRA:         -11.721
REMARK INTER:                 -10.475
REMARK INTRA:                  -1.245
REMARK UNBOUND:                -1.360
REMARK SMILES CC(=O)NCCNc1nc(Nc2ccc(Cl)cc2Cl)c2cnn(C)c2n1
REMARK SMILES IDX 7 1 6 3 5 4 4 5 2 6 1 7 3 8 8 10 9 11 26 12 10 13 25 14
REMARK SMILES IDX 20 15 23 16 21 17 22 18 24 19 11 20 12 22 13 23 18 24 14 25
REMARK SMILES IDX 17 26 15 27 19 28 16 29
REMARK H PARENT 7 2 4 9 11 21
ROOT
ATOM      1  N   UNL     1       0.580  42.637  51.921  1.00  0.00    -0.352 N 
ATOM      2  H   UNL     1       0.272  41.741  52.282  1.00  0.00     0.163 HD
ENDROOT
BRANCH   1   3
ATOM      3  C   UNL     1       0.171  43.797  52.705  1.00  0.00     0.137 C 
BRANCH   3   4
ATOM      4  C   UNL     1       0.341  45.121  51.937  1.00  0.00     0.137 C 
BRANCH   4   5
ATOM      5  N   UNL     1       1.267  46.036  52.580  1.00  0.00    -0.355 N 
ATOM      6  C   UNL     1       2.417  46.453  51.956  1.00  0.00     0.216 C 
ATOM      7  C   UNL     1       3.275  47.371  52.785  1.00  0.00     0.114 C 
ATOM      8  O   UNL     1       2.737  46.100  50.826  1.00  0.00    -0.275 OA
ATOM      9  H   UNL     1       1.102  46.278  53.549  1.00  0.00     0.163 HD
ENDBRANCH   4   5
ENDBRANCH   3   4
ENDBRANCH   1   3
BRANCH   1  10
ATOM     10  C   UNL     1       1.934  42.533  51.643  1.00  0.00     0.226 A 
ATOM     11  N   UNL     1       2.825  43.071  52.496  1.00  0.00    -0.195 NA
ATOM     12  N   UNL     1       2.234  41.851  50.532  1.00  0.00    -0.193 NA
ATOM     13  C   UNL     1       4.156  42.946  52.269  1.00  0.00     0.147 A 
ATOM     14  C   UNL     1       3.555  41.749  50.323  1.00  0.00     0.165 A 
ATOM     15  C   UNL     1       4.560  42.253  51.126  1.00  0.00     0.082 A 
ATOM     16  N   UNL     1       4.182  41.127  49.278  1.00  0.00    -0.250 N 
ATOM     17  C   UNL     1       5.749  41.877  50.471  1.00  0.00     0.149 A 
ATOM     18  N   UNL     1       5.531  41.184  49.347  1.00  0.00    -0.179 NA
ATOM     19  C   UNL     1       3.557  40.452  48.168  1.00  0.00     0.176 C 
BRANCH  13  20
ATOM     20  N   UNL     1       5.003  43.539  53.235  1.00  0.00    -0.338 N 
ATOM     21  H   UNL     1       5.680  42.789  53.400  1.00  0.00     0.168 HD
BRANCH  20  22
ATOM     22  C   UNL     1       5.698  44.754  53.007  1.00  0.00     0.059 A 
ATOM     23  C   UNL     1       6.023  45.104  51.690  1.00  0.00     0.029 A 
ATOM     24  C   UNL     1       6.121  45.594  54.055  1.00  0.00     0.066 A 
ATOM     25  C   UNL     1       6.748  46.267  51.421  1.00  0.00     0.023 A 
ATOM     26  C   UNL     1       6.848  46.757  53.789  1.00  0.00     0.043 A 
ATOM     27  C   UNL     1       7.157  47.085  52.472  1.00  0.00     0.042 A 
ATOM     28  Cl  UNL     1       5.732  45.234  55.702  1.00  0.00    -0.082 Cl
ATOM     29  Cl  UNL     1       8.051  48.516  52.139  1.00  0.00    -0.084 Cl
ENDBRANCH  20  22
ENDBRANCH  13  20
ENDBRANCH   1  10
TORSDOF 6
ENDMDL
MODEL 20
REMARK VINA RESULT:    -7.667      2.818      6.138
REMARK INTER + INTRA:         -11.716
REMARK INTER:                 -10.793
REMARK INTRA:                  -0.922
REMARK UNBOUND:                -1.360
REMARK SMILES CC(=O)NCCNc1nc(Nc2ccc(Cl)cc2Cl)c2cnn(C)c2n1
REMARK SMILES IDX 7 1 6 3 5 4 4 5 2 6 1 7 3 8 8 10 9 11 26 12 10 13 25 14
REMARK SMILES IDX 20 15 23 16 21 17 22 18 24 19 11 20 12 22 13 23 18 24 14 25
REMARK SMILES IDX 17 26 15 27 19 28 16 29
REMARK H PARENT 7 2 4 9 11 21
ROOT
ATOM      1  N   UNL     1       3.811  46.045  55.713  1.00  0.00    -0.352 N 
ATOM      2  H   UNL     1       4.263  45.292  56.219  1.00  0.00     0.163 HD
ENDROOT
BRANCH   1   3
ATOM      3  C   UNL     1       4.703  46.892  54.930  1.00  0.00     0.137 C 
BRANCH   3   4
ATOM      4  C   UNL     1       6.113  46.291  54.783  1.00  0.00     0.137 C 
BRANCH   4   5
ATOM      5  N   UNL     1       7.036  47.171  54.089  1.00  0.00    -0.355 N 
ATOM      6  C   UNL     1       7.642  46.798  52.914  1.00  0.00     0.216 C 
ATOM      7  C   UNL     1       8.596  47.819  52.355  1.00  0.00     0.114 C 
ATOM      8  O   UNL     1       7.442  45.719  52.366  1.00  0.00    -0.275 OA
ATOM      9  H   UNL     1       7.313  48.030  54.549  1.00  0.00     0.163 HD
ENDBRANCH   4   5
ENDBRANCH   3   4
ENDBRANCH   1   3
BRANCH   1  10
ATOM     10  C   UNL     1       2.730  45.503  55.035  1.00  0.00     0.226 A 
ATOM     11  N   UNL     1       2.858  45.193  53.732  1.00  0.00    -0.195 NA
ATOM     12  N   UNL     1       1.637  45.300  55.780  1.00  0.00    -0.193 NA
ATOM     13  C   UNL     1       1.830  44.622  53.057  1.00  0.00     0.147 A 
ATOM     14  C   UNL     1       0.630  44.743  55.089  1.00  0.00     0.165 A 
ATOM     15  C   UNL     1       0.646  44.380  53.756  1.00  0.00     0.082 A 
ATOM     16  N   UNL     1      -0.615  44.422  55.555  1.00  0.00    -0.250 N 
ATOM     17  C   UNL     1      -0.640  43.850  53.527  1.00  0.00     0.149 A 
ATOM     18  N   UNL     1      -1.414  43.864  54.618  1.00  0.00    -0.179 NA
ATOM     19  C   UNL     1      -1.118  44.617  56.892  1.00  0.00     0.176 C 
BRANCH  13  20
ATOM     20  N   UNL     1       2.076  44.328  51.695  1.00  0.00    -0.338 N 
ATOM     21  H   UNL     1       2.074  45.264  51.280  1.00  0.00     0.168 HD
BRANCH  20  22
ATOM     22  C   UNL     1       3.225  43.624  51.255  1.00  0.00     0.059 A 
ATOM     23  C   UNL     1       3.200  42.223  51.269  1.00  0.00     0.029 A 
ATOM     24  C   UNL     1       4.409  44.276  50.856  1.00  0.00     0.066 A 
ATOM     25  C   UNL     1       4.326  41.487  50.890  1.00  0.00     0.023 A 
ATOM     26  C   UNL     1       5.536  43.542  50.478  1.00  0.00     0.043 A 
ATOM     27  C   UNL     1       5.486  42.151  50.499  1.00  0.00     0.042 A 
ATOM     28  Cl  UNL     1       4.500  46.002  50.792  1.00  0.00    -0.082 Cl
ATOM     29  Cl  UNL     1       6.871  41.243  50.034  1.00  0.00    -0.084 Cl
ENDBRANCH  20  22
ENDBRANCH  13  20
ENDBRANCH   1  10
TORSDOF 6
ENDMDL
