MODEL 1
REMARK VINA RESULT:    -9.343      0.000      0.000
REMARK INTER + INTRA:         -14.007
REMARK INTER:                 -12.620
REMARK INTRA:                  -1.387
REMARK UNBOUND:                -1.387
REMARK SMILES CC(=O)NCCNc1nc(Nc2ccc(C)cc2C)c2cnn(C)c2n1
REMARK SMILES IDX 7 1 6 3 5 4 4 5 2 6 1 7 3 8 8 10 9 11 26 12 10 13 25 14
REMARK SMILES IDX 20 15 23 16 21 17 22 18 24 19 11 20 12 22 13 23 18 24 14 25
REMARK SMILES IDX 17 26 15 27 19 28 16 29
REMARK H PARENT 7 2 4 9 11 21
ROOT
ATOM      1  N   UNL     1       2.686  45.924  52.456  1.00  0.00    -0.352 N 
ATOM      2  H   UNL     1       2.199  46.431  51.724  1.00  0.00     0.163 HD
ENDROOT
BRANCH   1   3
ATOM      3  C   UNL     1       1.857  45.123  53.342  1.00  0.00     0.137 C 
BRANCH   3   4
ATOM      4  C   UNL     1       2.118  45.405  54.829  1.00  0.00     0.137 C 
BRANCH   4   5
ATOM      5  N   UNL     1       3.379  44.842  55.286  1.00  0.00    -0.355 N 
ATOM      6  C   UNL     1       4.525  45.608  55.291  1.00  0.00     0.216 C 
ATOM      7  C   UNL     1       5.771  44.845  55.652  1.00  0.00     0.114 C 
ATOM      8  O   UNL     1       4.549  46.803  55.017  1.00  0.00    -0.275 OA
ATOM      9  H   UNL     1       3.496  43.838  55.236  1.00  0.00     0.163 HD
ENDBRANCH   4   5
ENDBRANCH   3   4
ENDBRANCH   1   3
BRANCH   1  10
ATOM     10  C   UNL     1       3.749  45.275  51.846  1.00  0.00     0.226 A 
ATOM     11  N   UNL     1       4.857  46.026  51.714  1.00  0.00    -0.195 NA
ATOM     12  N   UNL     1       3.608  44.006  51.439  1.00  0.00    -0.193 NA
ATOM     13  C   UNL     1       5.969  45.505  51.135  1.00  0.00     0.147 A 
ATOM     14  C   UNL     1       4.713  43.520  50.856  1.00  0.00     0.165 A 
ATOM     15  C   UNL     1       5.907  44.189  50.670  1.00  0.00     0.082 A 
ATOM     16  N   UNL     1       4.893  42.274  50.323  1.00  0.00    -0.250 N 
ATOM     17  C   UNL     1       6.737  43.252  50.021  1.00  0.00     0.149 A 
ATOM     18  N   UNL     1       6.130  42.077  49.809  1.00  0.00    -0.179 NA
ATOM     19  C   UNL     1       3.926  41.208  50.264  1.00  0.00     0.176 C 
BRANCH  13  20
ATOM     20  N   UNL     1       7.090  46.348  51.037  1.00  0.00    -0.339 N 
ATOM     21  H   UNL     1       6.754  47.214  50.621  1.00  0.00     0.168 HD
BRANCH  20  22
ATOM     22  C   UNL     1       8.004  46.610  52.081  1.00  0.00     0.043 A 
ATOM     23  C   UNL     1       7.515  47.265  53.220  1.00  0.00     0.026 A 
ATOM     24  C   UNL     1       9.341  46.172  52.062  1.00  0.00    -0.027 A 
ATOM     25  C   UNL     1       8.349  47.549  54.301  1.00  0.00     0.005 A 
ATOM     26  C   UNL     1      10.176  46.479  53.153  1.00  0.00     0.009 A 
ATOM     27  C   UNL     1       9.693  47.175  54.268  1.00  0.00    -0.051 A 
ATOM     28  C   UNL     1       9.925  45.415  50.901  1.00  0.00     0.046 C 
ATOM     29  C   UNL     1      10.591  47.457  55.435  1.00  0.00     0.044 C 
ENDBRANCH  20  22
ENDBRANCH  13  20
ENDBRANCH   1  10
TORSDOF 6
ENDMDL
MODEL 2
REMARK VINA RESULT:    -9.080      1.827      5.481
REMARK INTER + INTRA:         -13.652
REMARK INTER:                 -12.574
REMARK INTRA:                  -1.077
REMARK UNBOUND:                -1.387
REMARK SMILES CC(=O)NCCNc1nc(Nc2ccc(C)cc2C)c2cnn(C)c2n1
REMARK SMILES IDX 7 1 6 3 5 4 4 5 2 6 1 7 3 8 8 10 9 11 26 12 10 13 25 14
REMARK SMILES IDX 20 15 23 16 21 17 22 18 24 19 11 20 12 22 13 23 18 24 14 25
REMARK SMILES IDX 17 26 15 27 19 28 16 29
REMARK H PARENT 7 2 4 9 11 21
ROOT
ATOM      1  N   UNL     1       4.970  46.962  54.977  1.00  0.00    -0.352 N 
ATOM      2  H   UNL     1       4.408  47.664  54.506  1.00  0.00     0.163 HD
ENDROOT
BRANCH   1   3
ATOM      3  C   UNL     1       4.277  45.745  55.370  1.00  0.00     0.137 C 
BRANCH   3   4
ATOM      4  C   UNL     1       2.747  45.886  55.338  1.00  0.00     0.137 C 
BRANCH   4   5
ATOM      5  N   UNL     1       2.163  45.296  54.143  1.00  0.00    -0.355 N 
ATOM      6  C   UNL     1       2.049  46.034  52.985  1.00  0.00     0.216 C 
ATOM      7  C   UNL     1       1.296  45.335  51.885  1.00  0.00     0.114 C 
ATOM      8  O   UNL     1       2.503  47.164  52.847  1.00  0.00    -0.275 OA
ATOM      9  H   UNL     1       1.523  44.520  54.261  1.00  0.00     0.163 HD
ENDBRANCH   4   5
ENDBRANCH   3   4
ENDBRANCH   1   3
BRANCH   1  10
ATOM     10  C   UNL     1       6.120  46.802  54.218  1.00  0.00     0.226 A 
ATOM     11  N   UNL     1       5.906  46.314  52.983  1.00  0.00    -0.195 NA
ATOM     12  N   UNL     1       7.311  47.119  54.742  1.00  0.00    -0.193 NA
ATOM     13  C   UNL     1       6.951  46.114  52.140  1.00  0.00     0.147 A 
ATOM     14  C   UNL     1       8.327  46.897  53.896  1.00  0.00     0.165 A 
ATOM     15  C   UNL     1       8.234  46.409  52.608  1.00  0.00     0.082 A 
ATOM     16  N   UNL     1       9.660  47.101  54.125  1.00  0.00    -0.250 N 
ATOM     17  C   UNL     1       9.568  46.363  52.152  1.00  0.00     0.149 A 
ATOM     18  N   UNL     1      10.446  46.788  53.069  1.00  0.00    -0.179 NA
ATOM     19  C   UNL     1      10.266  47.594  55.336  1.00  0.00     0.176 C 
BRANCH  13  20
ATOM     20  N   UNL     1       6.650  45.607  50.863  1.00  0.00    -0.339 N 
ATOM     21  H   UNL     1       7.505  45.694  50.318  1.00  0.00     0.168 HD
BRANCH  20  22
ATOM     22  C   UNL     1       6.011  44.374  50.608  1.00  0.00     0.043 A 
ATOM     23  C   UNL     1       4.731  44.185  51.148  1.00  0.00     0.026 A 
ATOM     24  C   UNL     1       6.561  43.378  49.779  1.00  0.00    -0.027 A 
ATOM     25  C   UNL     1       4.026  43.001  50.931  1.00  0.00     0.005 A 
ATOM     26  C   UNL     1       5.846  42.182  49.582  1.00  0.00     0.009 A 
ATOM     27  C   UNL     1       4.587  41.980  50.163  1.00  0.00    -0.051 A 
ATOM     28  C   UNL     1       7.904  43.530  49.119  1.00  0.00     0.046 C 
ATOM     29  C   UNL     1       3.827  40.713  49.907  1.00  0.00     0.044 C 
ENDBRANCH  20  22
ENDBRANCH  13  20
ENDBRANCH   1  10
TORSDOF 6
ENDMDL
MODEL 3
REMARK VINA RESULT:    -9.079      1.229      1.687
REMARK INTER + INTRA:         -13.650
REMARK INTER:                 -12.715
REMARK INTRA:                  -0.935
REMARK UNBOUND:                -1.387
REMARK SMILES CC(=O)NCCNc1nc(Nc2ccc(C)cc2C)c2cnn(C)c2n1
REMARK SMILES IDX 7 1 6 3 5 4 4 5 2 6 1 7 3 8 8 10 9 11 26 12 10 13 25 14
REMARK SMILES IDX 20 15 23 16 21 17 22 18 24 19 11 20 12 22 13 23 18 24 14 25
REMARK SMILES IDX 17 26 15 27 19 28 16 29
REMARK H PARENT 7 2 4 9 11 21
ROOT
ATOM      1  N   UNL     1       3.274  45.502  52.758  1.00  0.00    -0.352 N 
ATOM      2  H   UNL     1       2.773  44.667  53.044  1.00  0.00     0.163 HD
ENDROOT
BRANCH   1   3
ATOM      3  C   UNL     1       3.560  46.469  53.806  1.00  0.00     0.137 C 
BRANCH   3   4
ATOM      4  C   UNL     1       3.872  45.815  55.160  1.00  0.00     0.137 C 
BRANCH   4   5
ATOM      5  N   UNL     1       2.749  45.893  56.083  1.00  0.00    -0.355 N 
ATOM      6  C   UNL     1       1.628  45.118  55.885  1.00  0.00     0.216 C 
ATOM      7  C   UNL     1       0.500  45.416  56.837  1.00  0.00     0.114 C 
ATOM      8  O   UNL     1       1.532  44.265  55.009  1.00  0.00    -0.275 OA
ATOM      9  H   UNL     1       2.633  46.745  56.618  1.00  0.00     0.163 HD
ENDBRANCH   4   5
ENDBRANCH   3   4
ENDBRANCH   1   3
BRANCH   1  10
ATOM     10  C   UNL     1       4.354  45.074  52.000  1.00  0.00     0.226 A 
ATOM     11  N   UNL     1       5.383  45.939  51.962  1.00  0.00    -0.195 NA
ATOM     12  N   UNL     1       4.302  43.889  51.378  1.00  0.00    -0.193 NA
ATOM     13  C   UNL     1       6.502  45.636  51.255  1.00  0.00     0.147 A 
ATOM     14  C   UNL     1       5.411  43.620  50.675  1.00  0.00     0.165 A 
ATOM     15  C   UNL     1       6.530  44.422  50.565  1.00  0.00     0.082 A 
ATOM     16  N   UNL     1       5.669  42.509  49.920  1.00  0.00    -0.250 N 
ATOM     17  C   UNL     1       7.401  43.696  49.726  1.00  0.00     0.149 A 
ATOM     18  N   UNL     1       6.887  42.524  49.331  1.00  0.00    -0.179 NA
ATOM     19  C   UNL     1       4.796  41.383  49.709  1.00  0.00     0.176 C 
BRANCH  13  20
ATOM     20  N   UNL     1       7.538  46.587  51.266  1.00  0.00    -0.339 N 
ATOM     21  H   UNL     1       7.135  47.445  50.897  1.00  0.00     0.168 HD
BRANCH  20  22
ATOM     22  C   UNL     1       8.382  46.856  52.366  1.00  0.00     0.043 A 
ATOM     23  C   UNL     1       7.835  47.567  53.443  1.00  0.00     0.026 A 
ATOM     24  C   UNL     1       9.702  46.376  52.460  1.00  0.00    -0.027 A 
ATOM     25  C   UNL     1       8.598  47.862  54.572  1.00  0.00     0.005 A 
ATOM     26  C   UNL     1      10.465  46.695  53.598  1.00  0.00     0.009 A 
ATOM     27  C   UNL     1       9.927  47.446  54.651  1.00  0.00    -0.051 A 
ATOM     28  C   UNL     1      10.342  45.560  51.370  1.00  0.00     0.046 C 
ATOM     29  C   UNL     1      10.747  47.740  55.871  1.00  0.00     0.044 C 
ENDBRANCH  20  22
ENDBRANCH  13  20
ENDBRANCH   1  10
TORSDOF 6
ENDMDL
MODEL 4
REMARK VINA RESULT:    -9.028      2.003      5.480
REMARK INTER + INTRA:         -13.582
REMARK INTER:                 -12.643
REMARK INTRA:                  -0.939
REMARK UNBOUND:                -1.387
REMARK SMILES CC(=O)NCCNc1nc(Nc2ccc(C)cc2C)c2cnn(C)c2n1
REMARK SMILES IDX 7 1 6 3 5 4 4 5 2 6 1 7 3 8 8 10 9 11 26 12 10 13 25 14
REMARK SMILES IDX 20 15 23 16 21 17 22 18 24 19 11 20 12 22 13 23 18 24 14 25
REMARK SMILES IDX 17 26 15 27 19 28 16 29
REMARK H PARENT 7 2 4 9 11 21
ROOT
ATOM      1  N   UNL     1       4.963  47.151  54.971  1.00  0.00    -0.352 N 
ATOM      2  H   UNL     1       4.985  48.127  55.249  1.00  0.00     0.163 HD
ENDROOT
BRANCH   1   3
ATOM      3  C   UNL     1       3.708  46.671  54.416  1.00  0.00     0.137 C 
BRANCH   3   4
ATOM      4  C   UNL     1       3.106  45.502  55.210  1.00  0.00     0.137 C 
BRANCH   4   5
ATOM      5  N   UNL     1       2.748  44.379  54.355  1.00  0.00    -0.355 N 
ATOM      6  C   UNL     1       1.425  44.056  54.145  1.00  0.00     0.216 C 
ATOM      7  C   UNL     1       1.222  42.789  53.359  1.00  0.00     0.114 C 
ATOM      8  O   UNL     1       0.484  44.721  54.563  1.00  0.00    -0.275 OA
ATOM      9  H   UNL     1       3.429  43.640  54.234  1.00  0.00     0.163 HD
ENDBRANCH   4   5
ENDBRANCH   3   4
ENDBRANCH   1   3
BRANCH   1  10
ATOM     10  C   UNL     1       6.101  46.932  54.210  1.00  0.00     0.226 A 
ATOM     11  N   UNL     1       5.861  46.447  52.979  1.00  0.00    -0.195 NA
ATOM     12  N   UNL     1       7.308  47.195  54.728  1.00  0.00    -0.193 NA
ATOM     13  C   UNL     1       6.892  46.191  52.134  1.00  0.00     0.147 A 
ATOM     14  C   UNL     1       8.310  46.919  53.881  1.00  0.00     0.165 A 
ATOM     15  C   UNL     1       8.189  46.427  52.597  1.00  0.00     0.082 A 
ATOM     16  N   UNL     1       9.652  47.060  54.105  1.00  0.00    -0.250 N 
ATOM     17  C   UNL     1       9.518  46.314  52.137  1.00  0.00     0.149 A 
ATOM     18  N   UNL     1      10.418  46.704  53.048  1.00  0.00    -0.179 NA
ATOM     19  C   UNL     1      10.285  47.531  55.310  1.00  0.00     0.176 C 
BRANCH  13  20
ATOM     20  N   UNL     1       6.563  45.691  50.861  1.00  0.00    -0.339 N 
ATOM     21  H   UNL     1       7.396  45.809  50.290  1.00  0.00     0.168 HD
BRANCH  20  22
ATOM     22  C   UNL     1       5.951  44.443  50.612  1.00  0.00     0.043 A 
ATOM     23  C   UNL     1       4.657  44.245  51.114  1.00  0.00     0.026 A 
ATOM     24  C   UNL     1       6.543  43.439  49.823  1.00  0.00    -0.027 A 
ATOM     25  C   UNL     1       3.978  43.045  50.900  1.00  0.00     0.005 A 
ATOM     26  C   UNL     1       5.853  42.228  49.628  1.00  0.00     0.009 A 
ATOM     27  C   UNL     1       4.579  42.018  50.172  1.00  0.00    -0.051 A 
ATOM     28  C   UNL     1       7.904  43.598  49.204  1.00  0.00     0.046 C 
ATOM     29  C   UNL     1       3.847  40.734  49.919  1.00  0.00     0.044 C 
ENDBRANCH  20  22
ENDBRANCH  13  20
ENDBRANCH   1  10
TORSDOF 6
ENDMDL
MODEL 5
REMARK VINA RESULT:    -8.961      1.475      1.774
REMARK INTER + INTRA:         -13.491
REMARK INTER:                 -12.506
REMARK INTRA:                  -0.985
REMARK UNBOUND:                -1.387
REMARK SMILES CC(=O)NCCNc1nc(Nc2ccc(C)cc2C)c2cnn(C)c2n1
REMARK SMILES IDX 7 1 6 3 5 4 4 5 2 6 1 7 3 8 8 10 9 11 26 12 10 13 25 14
REMARK SMILES IDX 20 15 23 16 21 17 22 18 24 19 11 20 12 22 13 23 18 24 14 25
REMARK SMILES IDX 17 26 15 27 19 28 16 29
REMARK H PARENT 7 2 4 9 11 21
ROOT
ATOM      1  N   UNL     1       3.561  44.003  53.113  1.00  0.00    -0.352 N 
ATOM      2  H   UNL     1       3.877  44.536  53.917  1.00  0.00     0.163 HD
ENDROOT
BRANCH   1   3
ATOM      3  C   UNL     1       2.219  44.296  52.637  1.00  0.00     0.137 C 
BRANCH   3   4
ATOM      4  C   UNL     1       1.714  45.679  53.074  1.00  0.00     0.137 C 
BRANCH   4   5
ATOM      5  N   UNL     1       0.905  45.615  54.281  1.00  0.00    -0.355 N 
ATOM      6  C   UNL     1       1.503  45.518  55.519  1.00  0.00     0.216 C 
ATOM      7  C   UNL     1       0.536  45.317  56.654  1.00  0.00     0.114 C 
ATOM      8  O   UNL     1       2.715  45.576  55.698  1.00  0.00    -0.275 OA
ATOM      9  H   UNL     1      -0.044  45.271  54.199  1.00  0.00     0.163 HD
ENDBRANCH   4   5
ENDBRANCH   3   4
ENDBRANCH   1   3
BRANCH   1  10
ATOM     10  C   UNL     1       4.580  44.064  52.173  1.00  0.00     0.226 A 
ATOM     11  N   UNL     1       5.332  45.178  52.243  1.00  0.00    -0.195 NA
ATOM     12  N   UNL     1       4.735  43.066  51.295  1.00  0.00    -0.193 NA
ATOM     13  C   UNL     1       6.363  45.357  51.379  1.00  0.00     0.147 A 
ATOM     14  C   UNL     1       5.749  43.275  50.442  1.00  0.00     0.165 A 
ATOM     15  C   UNL     1       6.592  44.368  50.419  1.00  0.00     0.082 A 
ATOM     16  N   UNL     1       6.160  42.461  49.423  1.00  0.00    -0.250 N 
ATOM     17  C   UNL     1       7.475  44.109  49.351  1.00  0.00     0.149 A 
ATOM     18  N   UNL     1       7.223  42.944  48.739  1.00  0.00    -0.179 NA
ATOM     19  C   UNL     1       5.584  41.199  49.035  1.00  0.00     0.176 C 
BRANCH  13  20
ATOM     20  N   UNL     1       7.108  46.543  51.516  1.00  0.00    -0.339 N 
ATOM     21  H   UNL     1       6.439  47.305  51.435  1.00  0.00     0.168 HD
BRANCH  20  22
ATOM     22  C   UNL     1       8.046  46.799  52.539  1.00  0.00     0.043 A 
ATOM     23  C   UNL     1       7.565  47.353  53.734  1.00  0.00     0.026 A 
ATOM     24  C   UNL     1       9.407  46.449  52.443  1.00  0.00    -0.027 A 
ATOM     25  C   UNL     1       8.424  47.624  54.799  1.00  0.00     0.005 A 
ATOM     26  C   UNL     1      10.265  46.743  53.519  1.00  0.00     0.009 A 
ATOM     27  C   UNL     1       9.787  47.340  54.693  1.00  0.00    -0.051 A 
ATOM     28  C   UNL     1       9.987  45.801  51.216  1.00  0.00     0.046 C 
ATOM     29  C   UNL     1      10.713  47.607  55.841  1.00  0.00     0.044 C 
ENDBRANCH  20  22
ENDBRANCH  13  20
ENDBRANCH   1  10
TORSDOF 6
ENDMDL
MODEL 6
REMARK VINA RESULT:    -8.919      1.741      2.283
REMARK INTER + INTRA:         -13.435
REMARK INTER:                 -12.466
REMARK INTRA:                  -0.969
REMARK UNBOUND:                -1.387
REMARK SMILES CC(=O)NCCNc1nc(Nc2ccc(C)cc2C)c2cnn(C)c2n1
REMARK SMILES IDX 7 1 6 3 5 4 4 5 2 6 1 7 3 8 8 10 9 11 26 12 10 13 25 14
REMARK SMILES IDX 20 15 23 16 21 17 22 18 24 19 11 20 12 22 13 23 18 24 14 25
REMARK SMILES IDX 17 26 15 27 19 28 16 29
REMARK H PARENT 7 2 4 9 11 21
ROOT
ATOM      1  N   UNL     1       3.707  44.529  53.077  1.00  0.00    -0.352 N 
ATOM      2  H   UNL     1       4.023  44.035  53.906  1.00  0.00     0.163 HD
ENDROOT
BRANCH   1   3
ATOM      3  C   UNL     1       3.106  45.834  53.299  1.00  0.00     0.137 C 
BRANCH   3   4
ATOM      4  C   UNL     1       1.662  45.928  52.782  1.00  0.00     0.137 C 
BRANCH   4   5
ATOM      5  N   UNL     1       0.683  45.699  53.834  1.00  0.00    -0.355 N 
ATOM      6  C   UNL     1       0.326  44.416  54.187  1.00  0.00     0.216 C 
ATOM      7  C   UNL     1      -0.798  44.345  55.185  1.00  0.00     0.114 C 
ATOM      8  O   UNL     1       0.855  43.408  53.731  1.00  0.00    -0.275 OA
ATOM      9  H   UNL     1       0.015  46.434  54.029  1.00  0.00     0.163 HD
ENDBRANCH   4   5
ENDBRANCH   3   4
ENDBRANCH   1   3
BRANCH   1  10
ATOM     10  C   UNL     1       4.750  44.474  52.164  1.00  0.00     0.226 A 
ATOM     11  N   UNL     1       5.594  45.520  52.223  1.00  0.00    -0.195 NA
ATOM     12  N   UNL     1       4.840  43.440  51.318  1.00  0.00    -0.193 NA
ATOM     13  C   UNL     1       6.658  45.584  51.383  1.00  0.00     0.147 A 
ATOM     14  C   UNL     1       5.889  43.534  50.489  1.00  0.00     0.165 A 
ATOM     15  C   UNL     1       6.824  44.550  50.458  1.00  0.00     0.082 A 
ATOM     16  N   UNL     1       6.252  42.658  49.504  1.00  0.00    -0.250 N 
ATOM     17  C   UNL     1       7.707  44.183  49.422  1.00  0.00     0.149 A 
ATOM     18  N   UNL     1       7.371  43.026  48.836  1.00  0.00    -0.179 NA
ATOM     19  C   UNL     1       5.579  41.439  49.136  1.00  0.00     0.176 C 
BRANCH  13  20
ATOM     20  N   UNL     1       7.500  46.704  51.507  1.00  0.00    -0.339 N 
ATOM     21  H   UNL     1       6.914  47.516  51.328  1.00  0.00     0.168 HD
BRANCH  20  22
ATOM     22  C   UNL     1       8.381  46.943  52.584  1.00  0.00     0.043 A 
ATOM     23  C   UNL     1       7.863  47.597  53.710  1.00  0.00     0.026 A 
ATOM     24  C   UNL     1       9.712  46.485  52.607  1.00  0.00    -0.027 A 
ATOM     25  C   UNL     1       8.664  47.859  54.822  1.00  0.00     0.005 A 
ATOM     26  C   UNL     1      10.513  46.770  53.728  1.00  0.00     0.009 A 
ATOM     27  C   UNL     1      10.003  47.465  54.832  1.00  0.00    -0.051 A 
ATOM     28  C   UNL     1      10.324  45.728  51.460  1.00  0.00     0.046 C 
ATOM     29  C   UNL     1      10.864  47.723  56.032  1.00  0.00     0.044 C 
ENDBRANCH  20  22
ENDBRANCH  13  20
ENDBRANCH   1  10
TORSDOF 6
ENDMDL
MODEL 7
REMARK VINA RESULT:    -8.828      2.778      5.163
REMARK INTER + INTRA:         -13.311
REMARK INTER:                 -12.489
REMARK INTRA:                  -0.822
REMARK UNBOUND:                -1.387
REMARK SMILES CC(=O)NCCNc1nc(Nc2ccc(C)cc2C)c2cnn(C)c2n1
REMARK SMILES IDX 7 1 6 3 5 4 4 5 2 6 1 7 3 8 8 10 9 11 26 12 10 13 25 14
REMARK SMILES IDX 20 15 23 16 21 17 22 18 24 19 11 20 12 22 13 23 18 24 14 25
REMARK SMILES IDX 17 26 15 27 19 28 16 29
REMARK H PARENT 7 2 4 9 11 21
ROOT
ATOM      1  N   UNL     1       6.538  43.157  49.349  1.00  0.00    -0.352 N 
ATOM      2  H   UNL     1       7.496  43.397  49.117  1.00  0.00     0.163 HD
ENDROOT
BRANCH   1   3
ATOM      3  C   UNL     1       6.278  41.754  49.628  1.00  0.00     0.137 C 
BRANCH   3   4
ATOM      4  C   UNL     1       5.312  41.109  48.623  1.00  0.00     0.137 C 
BRANCH   4   5
ATOM      5  N   UNL     1       5.635  41.453  47.247  1.00  0.00    -0.355 N 
ATOM      6  C   UNL     1       4.748  41.173  46.231  1.00  0.00     0.216 C 
ATOM      7  C   UNL     1       5.284  41.456  44.853  1.00  0.00     0.114 C 
ATOM      8  O   UNL     1       3.623  40.720  46.411  1.00  0.00    -0.275 OA
ATOM      9  H   UNL     1       6.612  41.539  46.996  1.00  0.00     0.163 HD
ENDBRANCH   4   5
ENDBRANCH   3   4
ENDBRANCH   1   3
BRANCH   1  10
ATOM     10  C   UNL     1       6.125  44.066  50.312  1.00  0.00     0.226 A 
ATOM     11  N   UNL     1       6.984  45.079  50.524  1.00  0.00    -0.195 NA
ATOM     12  N   UNL     1       4.959  43.881  50.945  1.00  0.00    -0.193 NA
ATOM     13  C   UNL     1       6.695  46.038  51.440  1.00  0.00     0.147 A 
ATOM     14  C   UNL     1       4.704  44.832  51.856  1.00  0.00     0.165 A 
ATOM     15  C   UNL     1       5.501  45.918  52.156  1.00  0.00     0.082 A 
ATOM     16  N   UNL     1       3.614  44.926  52.676  1.00  0.00    -0.250 N 
ATOM     17  C   UNL     1       4.795  46.604  53.166  1.00  0.00     0.149 A 
ATOM     18  N   UNL     1       3.639  46.010  53.487  1.00  0.00    -0.179 NA
ATOM     19  C   UNL     1       2.500  44.016  52.746  1.00  0.00     0.176 C 
BRANCH  13  20
ATOM     20  N   UNL     1       7.638  47.069  51.602  1.00  0.00    -0.339 N 
ATOM     21  H   UNL     1       7.134  47.938  51.443  1.00  0.00     0.168 HD
BRANCH  20  22
ATOM     22  C   UNL     1       8.528  47.191  52.692  1.00  0.00     0.043 A 
ATOM     23  C   UNL     1       8.074  47.883  53.823  1.00  0.00     0.026 A 
ATOM     24  C   UNL     1       9.798  46.586  52.721  1.00  0.00    -0.027 A 
ATOM     25  C   UNL     1       8.886  48.037  54.947  1.00  0.00     0.005 A 
ATOM     26  C   UNL     1      10.613  46.763  53.854  1.00  0.00     0.009 A 
ATOM     27  C   UNL     1      10.172  47.495  54.964  1.00  0.00    -0.051 A 
ATOM     28  C   UNL     1      10.334  45.781  51.569  1.00  0.00     0.046 C 
ATOM     29  C   UNL     1      11.042  47.638  56.176  1.00  0.00     0.044 C 
ENDBRANCH  20  22
ENDBRANCH  13  20
ENDBRANCH   1  10
TORSDOF 6
ENDMDL
MODEL 8
REMARK VINA RESULT:    -8.659      1.965      5.560
REMARK INTER + INTRA:         -13.083
REMARK INTER:                 -12.436
REMARK INTRA:                  -0.647
REMARK UNBOUND:                -1.387
REMARK SMILES CC(=O)NCCNc1nc(Nc2ccc(C)cc2C)c2cnn(C)c2n1
REMARK SMILES IDX 7 1 6 3 5 4 4 5 2 6 1 7 3 8 8 10 9 11 26 12 10 13 25 14
REMARK SMILES IDX 20 15 23 16 21 17 22 18 24 19 11 20 12 22 13 23 18 24 14 25
REMARK SMILES IDX 17 26 15 27 19 28 16 29
REMARK H PARENT 7 2 4 9 11 21
ROOT
ATOM      1  N   UNL     1       4.492  45.492  55.752  1.00  0.00    -0.352 N 
ATOM      2  H   UNL     1       4.421  45.064  56.669  1.00  0.00     0.163 HD
ENDROOT
BRANCH   1   3
ATOM      3  C   UNL     1       5.767  45.342  55.070  1.00  0.00     0.137 C 
BRANCH   3   4
ATOM      4  C   UNL     1       6.361  46.679  54.603  1.00  0.00     0.137 C 
BRANCH   4   5
ATOM      5  N   UNL     1       7.603  46.504  53.864  1.00  0.00    -0.355 N 
ATOM      6  C   UNL     1       8.693  47.304  54.131  1.00  0.00     0.216 C 
ATOM      7  C   UNL     1       9.849  47.099  53.190  1.00  0.00     0.114 C 
ATOM      8  O   UNL     1       8.732  48.124  55.042  1.00  0.00    -0.275 OA
ATOM      9  H   UNL     1       7.552  46.086  52.944  1.00  0.00     0.163 HD
ENDBRANCH   4   5
ENDBRANCH   3   4
ENDBRANCH   1   3
BRANCH   1  10
ATOM     10  C   UNL     1       3.363  45.102  55.046  1.00  0.00     0.226 A 
ATOM     11  N   UNL     1       3.595  44.786  53.759  1.00  0.00    -0.195 NA
ATOM     12  N   UNL     1       2.172  45.075  55.659  1.00  0.00    -0.193 NA
ATOM     13  C   UNL     1       2.572  44.385  52.962  1.00  0.00     0.147 A 
ATOM     14  C   UNL     1       1.177  44.692  54.846  1.00  0.00     0.165 A 
ATOM     15  C   UNL     1       1.291  44.338  53.517  1.00  0.00     0.082 A 
ATOM     16  N   UNL     1      -0.150  44.575  55.154  1.00  0.00    -0.250 N 
ATOM     17  C   UNL     1      -0.026  44.021  53.123  1.00  0.00     0.149 A 
ATOM     18  N   UNL     1      -0.913  44.157  54.117  1.00  0.00    -0.179 NA
ATOM     19  C   UNL     1      -0.773  44.847  56.425  1.00  0.00     0.176 C 
BRANCH  13  20
ATOM     20  N   UNL     1       2.892  44.066  51.630  1.00  0.00    -0.339 N 
ATOM     21  H   UNL     1       2.274  44.630  51.050  1.00  0.00     0.168 HD
BRANCH  20  22
ATOM     22  C   UNL     1       4.198  44.031  51.094  1.00  0.00     0.043 A 
ATOM     23  C   UNL     1       4.874  45.252  50.957  1.00  0.00     0.026 A 
ATOM     24  C   UNL     1       4.868  42.835  50.775  1.00  0.00    -0.027 A 
ATOM     25  C   UNL     1       6.171  45.303  50.449  1.00  0.00     0.005 A 
ATOM     26  C   UNL     1       6.171  42.903  50.248  1.00  0.00     0.009 A 
ATOM     27  C   UNL     1       6.824  44.129  50.070  1.00  0.00    -0.051 A 
ATOM     28  C   UNL     1       4.231  41.484  50.946  1.00  0.00     0.046 C 
ATOM     29  C   UNL     1       8.228  44.174  49.544  1.00  0.00     0.044 C 
ENDBRANCH  20  22
ENDBRANCH  13  20
ENDBRANCH   1  10
TORSDOF 6
ENDMDL
MODEL 9
REMARK VINA RESULT:    -8.512      2.166      4.911
REMARK INTER + INTRA:         -12.884
REMARK INTER:                 -11.773
REMARK INTRA:                  -1.111
REMARK UNBOUND:                -1.387
REMARK SMILES CC(=O)NCCNc1nc(Nc2ccc(C)cc2C)c2cnn(C)c2n1
REMARK SMILES IDX 7 1 6 3 5 4 4 5 2 6 1 7 3 8 8 10 9 11 26 12 10 13 25 14
REMARK SMILES IDX 20 15 23 16 21 17 22 18 24 19 11 20 12 22 13 23 18 24 14 25
REMARK SMILES IDX 17 26 15 27 19 28 16 29
REMARK H PARENT 7 2 4 9 11 21
ROOT
ATOM      1  N   UNL     1       4.218  41.528  51.176  1.00  0.00    -0.352 N 
ATOM      2  H   UNL     1       4.241  40.846  51.927  1.00  0.00     0.163 HD
ENDROOT
BRANCH   1   3
ATOM      3  C   UNL     1       3.673  41.067  49.909  1.00  0.00     0.137 C 
BRANCH   3   4
ATOM      4  C   UNL     1       4.747  40.867  48.829  1.00  0.00     0.137 C 
BRANCH   4   5
ATOM      5  N   UNL     1       5.645  42.007  48.725  1.00  0.00    -0.355 N 
ATOM      6  C   UNL     1       6.810  42.047  49.461  1.00  0.00     0.216 C 
ATOM      7  C   UNL     1       7.557  43.350  49.354  1.00  0.00     0.114 C 
ATOM      8  O   UNL     1       7.212  41.121  50.156  1.00  0.00    -0.275 OA
ATOM      9  H   UNL     1       5.255  42.893  48.429  1.00  0.00     0.163 HD
ENDBRANCH   4   5
ENDBRANCH   3   4
ENDBRANCH   1   3
BRANCH   1  10
ATOM     10  C   UNL     1       3.661  42.682  51.707  1.00  0.00     0.226 A 
ATOM     11  N   UNL     1       4.393  43.793  51.509  1.00  0.00    -0.195 NA
ATOM     12  N   UNL     1       2.493  42.617  52.359  1.00  0.00    -0.193 NA
ATOM     13  C   UNL     1       3.955  44.989  51.979  1.00  0.00     0.147 A 
ATOM     14  C   UNL     1       2.091  43.807  52.827  1.00  0.00     0.165 A 
ATOM     15  C   UNL     1       2.748  45.013  52.682  1.00  0.00     0.082 A 
ATOM     16  N   UNL     1       0.958  44.080  53.543  1.00  0.00    -0.250 N 
ATOM     17  C   UNL     1       1.922  45.945  53.343  1.00  0.00     0.149 A 
ATOM     18  N   UNL     1       0.824  45.387  53.868  1.00  0.00    -0.179 NA
ATOM     19  C   UNL     1      -0.052  43.141  53.960  1.00  0.00     0.176 C 
BRANCH  13  20
ATOM     20  N   UNL     1       4.770  46.107  51.728  1.00  0.00    -0.339 N 
ATOM     21  H   UNL     1       4.179  46.923  51.870  1.00  0.00     0.168 HD
BRANCH  20  22
ATOM     22  C   UNL     1       6.056  46.314  52.274  1.00  0.00     0.043 A 
ATOM     23  C   UNL     1       7.158  46.111  51.431  1.00  0.00     0.026 A 
ATOM     24  C   UNL     1       6.271  46.788  53.582  1.00  0.00    -0.027 A 
ATOM     25  C   UNL     1       8.460  46.306  51.888  1.00  0.00     0.005 A 
ATOM     26  C   UNL     1       7.591  46.966  54.035  1.00  0.00     0.009 A 
ATOM     27  C   UNL     1       8.689  46.716  53.203  1.00  0.00    -0.051 A 
ATOM     28  C   UNL     1       5.140  47.082  54.528  1.00  0.00     0.046 C 
ATOM     29  C   UNL     1      10.086  46.950  53.696  1.00  0.00     0.044 C 
ENDBRANCH  20  22
ENDBRANCH  13  20
ENDBRANCH   1  10
TORSDOF 6
ENDMDL
MODEL 10
REMARK VINA RESULT:    -8.499      2.056      2.852
REMARK INTER + INTRA:         -12.867
REMARK INTER:                 -12.201
REMARK INTRA:                  -0.665
REMARK UNBOUND:                -1.387
REMARK SMILES CC(=O)NCCNc1nc(Nc2ccc(C)cc2C)c2cnn(C)c2n1
REMARK SMILES IDX 7 1 6 3 5 4 4 5 2 6 1 7 3 8 8 10 9 11 26 12 10 13 25 14
REMARK SMILES IDX 20 15 23 16 21 17 22 18 24 19 11 20 12 22 13 23 18 24 14 25
REMARK SMILES IDX 17 26 15 27 19 28 16 29
REMARK H PARENT 7 2 4 9 11 21
ROOT
ATOM      1  N   UNL     1       3.622  45.390  52.232  1.00  0.00    -0.352 N 
ATOM      2  H   UNL     1       2.920  45.476  51.505  1.00  0.00     0.163 HD
ENDROOT
BRANCH   1   3
ATOM      3  C   UNL     1       3.323  44.456  53.306  1.00  0.00     0.137 C 
BRANCH   3   4
ATOM      4  C   UNL     1       2.361  43.337  52.879  1.00  0.00     0.137 C 
BRANCH   4   5
ATOM      5  N   UNL     1       3.020  42.319  52.074  1.00  0.00    -0.355 N 
ATOM      6  C   UNL     1       2.574  42.041  50.800  1.00  0.00     0.216 C 
ATOM      7  C   UNL     1       3.263  40.870  50.152  1.00  0.00     0.114 C 
ATOM      8  O   UNL     1       1.689  42.670  50.232  1.00  0.00    -0.275 OA
ATOM      9  H   UNL     1       3.526  41.587  52.556  1.00  0.00     0.163 HD
ENDBRANCH   4   5
ENDBRANCH   3   4
ENDBRANCH   1   3
BRANCH   1  10
ATOM     10  C   UNL     1       4.839  45.225  51.589  1.00  0.00     0.226 A 
ATOM     11  N   UNL     1       5.727  46.209  51.819  1.00  0.00    -0.195 NA
ATOM     12  N   UNL     1       5.040  44.154  50.810  1.00  0.00    -0.193 NA
ATOM     13  C   UNL     1       6.958  46.164  51.248  1.00  0.00     0.147 A 
ATOM     14  C   UNL     1       6.256  44.141  50.245  1.00  0.00     0.165 A 
ATOM     15  C   UNL     1       7.250  45.084  50.410  1.00  0.00     0.082 A 
ATOM     16  N   UNL     1       6.766  43.202  49.392  1.00  0.00    -0.250 N 
ATOM     17  C   UNL     1       8.316  44.614  49.617  1.00  0.00     0.149 A 
ATOM     18  N   UNL     1       8.034  43.463  48.995  1.00  0.00    -0.179 NA
ATOM     19  C   UNL     1       6.102  42.020  48.905  1.00  0.00     0.176 C 
BRANCH  13  20
ATOM     20  N   UNL     1       7.834  47.225  51.540  1.00  0.00    -0.339 N 
ATOM     21  H   UNL     1       7.297  48.078  51.400  1.00  0.00     0.168 HD
BRANCH  20  22
ATOM     22  C   UNL     1       8.641  47.318  52.694  1.00  0.00     0.043 A 
ATOM     23  C   UNL     1       8.099  47.965  53.813  1.00  0.00     0.026 A 
ATOM     24  C   UNL     1       9.914  46.724  52.795  1.00  0.00    -0.027 A 
ATOM     25  C   UNL     1       8.826  48.088  54.997  1.00  0.00     0.005 A 
ATOM     26  C   UNL     1      10.642  46.869  53.989  1.00  0.00     0.009 A 
ATOM     27  C   UNL     1      10.114  47.558  55.089  1.00  0.00    -0.051 A 
ATOM     28  C   UNL     1      10.541  45.966  51.657  1.00  0.00     0.046 C 
ATOM     29  C   UNL     1      10.893  47.666  56.365  1.00  0.00     0.044 C 
ENDBRANCH  20  22
ENDBRANCH  13  20
ENDBRANCH   1  10
TORSDOF 6
ENDMDL
MODEL 11
REMARK VINA RESULT:    -8.447      2.933      5.550
REMARK INTER + INTRA:         -12.797
REMARK INTER:                 -11.921
REMARK INTRA:                  -0.876
REMARK UNBOUND:                -1.387
REMARK SMILES CC(=O)NCCNc1nc(Nc2ccc(C)cc2C)c2cnn(C)c2n1
REMARK SMILES IDX 7 1 6 3 5 4 4 5 2 6 1 7 3 8 8 10 9 11 26 12 10 13 25 14
REMARK SMILES IDX 20 15 23 16 21 17 22 18 24 19 11 20 12 22 13 23 18 24 14 25
REMARK SMILES IDX 17 26 15 27 19 28 16 29
REMARK H PARENT 7 2 4 9 11 21
ROOT
ATOM      1  N   UNL     1       3.789  41.234  50.894  1.00  0.00    -0.352 N 
ATOM      2  H   UNL     1       2.903  40.740  50.879  1.00  0.00     0.163 HD
ENDROOT
BRANCH   1   3
ATOM      3  C   UNL     1       4.587  41.156  49.681  1.00  0.00     0.137 C 
BRANCH   3   4
ATOM      4  C   UNL     1       3.903  40.359  48.560  1.00  0.00     0.137 C 
BRANCH   4   5
ATOM      5  N   UNL     1       4.439  40.682  47.246  1.00  0.00    -0.355 N 
ATOM      6  C   UNL     1       3.619  40.683  46.139  1.00  0.00     0.216 C 
ATOM      7  C   UNL     1       4.347  40.892  44.838  1.00  0.00     0.114 C 
ATOM      8  O   UNL     1       2.406  40.516  46.186  1.00  0.00    -0.275 OA
ATOM      9  H   UNL     1       5.428  40.534  47.088  1.00  0.00     0.163 HD
ENDBRANCH   4   5
ENDBRANCH   3   4
ENDBRANCH   1   3
BRANCH   1  10
ATOM     10  C   UNL     1       3.524  42.505  51.381  1.00  0.00     0.226 A 
ATOM     11  N   UNL     1       4.357  43.458  50.925  1.00  0.00    -0.195 NA
ATOM     12  N   UNL     1       2.512  42.691  52.238  1.00  0.00    -0.193 NA
ATOM     13  C   UNL     1       4.202  44.746  51.325  1.00  0.00     0.147 A 
ATOM     14  C   UNL     1       2.390  43.968  52.631  1.00  0.00     0.165 A 
ATOM     15  C   UNL     1       3.175  45.030  52.229  1.00  0.00     0.082 A 
ATOM     16  N   UNL     1       1.475  44.485  53.505  1.00  0.00    -0.250 N 
ATOM     17  C   UNL     1       2.643  46.140  52.918  1.00  0.00     0.149 A 
ATOM     18  N   UNL     1       1.601  45.819  53.695  1.00  0.00    -0.179 NA
ATOM     19  C   UNL     1       0.441  43.766  54.205  1.00  0.00     0.176 C 
BRANCH  13  20
ATOM     20  N   UNL     1       5.106  45.688  50.803  1.00  0.00    -0.339 N 
ATOM     21  H   UNL     1       4.552  46.507  50.565  1.00  0.00     0.168 HD
BRANCH  20  22
ATOM     22  C   UNL     1       6.328  46.061  51.404  1.00  0.00     0.043 A 
ATOM     23  C   UNL     1       6.266  46.869  52.548  1.00  0.00     0.026 A 
ATOM     24  C   UNL     1       7.580  45.594  50.959  1.00  0.00    -0.027 A 
ATOM     25  C   UNL     1       7.427  47.270  53.209  1.00  0.00     0.005 A 
ATOM     26  C   UNL     1       8.743  46.020  51.626  1.00  0.00     0.009 A 
ATOM     27  C   UNL     1       8.678  46.865  52.741  1.00  0.00    -0.051 A 
ATOM     28  C   UNL     1       7.724  44.681  49.773  1.00  0.00     0.046 C 
ATOM     29  C   UNL     1       9.929  47.274  53.460  1.00  0.00     0.044 C 
ENDBRANCH  20  22
ENDBRANCH  13  20
ENDBRANCH   1  10
TORSDOF 6
ENDMDL
MODEL 12
REMARK VINA RESULT:    -8.347      1.549      2.495
REMARK INTER + INTRA:         -12.661
REMARK INTER:                 -11.892
REMARK INTRA:                  -0.769
REMARK UNBOUND:                -1.387
REMARK SMILES CC(=O)NCCNc1nc(Nc2ccc(C)cc2C)c2cnn(C)c2n1
REMARK SMILES IDX 7 1 6 3 5 4 4 5 2 6 1 7 3 8 8 10 9 11 26 12 10 13 25 14
REMARK SMILES IDX 20 15 23 16 21 17 22 18 24 19 11 20 12 22 13 23 18 24 14 25
REMARK SMILES IDX 17 26 15 27 19 28 16 29
REMARK H PARENT 7 2 4 9 11 21
ROOT
ATOM      1  N   UNL     1       2.852  44.007  52.304  1.00  0.00    -0.352 N 
ATOM      2  H   UNL     1       2.560  43.040  52.208  1.00  0.00     0.163 HD
ENDROOT
BRANCH   1   3
ATOM      3  C   UNL     1       2.778  44.569  53.643  1.00  0.00     0.137 C 
BRANCH   3   4
ATOM      4  C   UNL     1       1.785  45.736  53.752  1.00  0.00     0.137 C 
BRANCH   4   5
ATOM      5  N   UNL     1       0.605  45.386  54.527  1.00  0.00    -0.355 N 
ATOM      6  C   UNL     1       0.632  45.443  55.904  1.00  0.00     0.216 C 
ATOM      7  C   UNL     1      -0.613  44.916  56.564  1.00  0.00     0.114 C 
ATOM      8  O   UNL     1       1.581  45.870  56.552  1.00  0.00    -0.275 OA
ATOM      9  H   UNL     1      -0.074  44.766  54.105  1.00  0.00     0.163 HD
ENDBRANCH   4   5
ENDBRANCH   3   4
ENDBRANCH   1   3
BRANCH   1  10
ATOM     10  C   UNL     1       4.072  44.116  51.653  1.00  0.00     0.226 A 
ATOM     11  N   UNL     1       4.732  45.262  51.900  1.00  0.00    -0.195 NA
ATOM     12  N   UNL     1       4.490  43.128  50.852  1.00  0.00    -0.193 NA
ATOM     13  C   UNL     1       5.940  45.490  51.324  1.00  0.00     0.147 A 
ATOM     14  C   UNL     1       5.676  43.384  50.283  1.00  0.00     0.165 A 
ATOM     15  C   UNL     1       6.448  44.514  50.463  1.00  0.00     0.082 A 
ATOM     16  N   UNL     1       6.368  42.592  49.409  1.00  0.00    -0.250 N 
ATOM     17  C   UNL     1       7.584  44.297  49.657  1.00  0.00     0.149 A 
ATOM     18  N   UNL     1       7.548  43.124  49.013  1.00  0.00    -0.179 NA
ATOM     19  C   UNL     1       5.966  41.305  48.900  1.00  0.00     0.176 C 
BRANCH  13  20
ATOM     20  N   UNL     1       6.573  46.708  51.634  1.00  0.00    -0.339 N 
ATOM     21  H   UNL     1       5.828  47.394  51.731  1.00  0.00     0.168 HD
BRANCH  20  22
ATOM     22  C   UNL     1       7.554  46.882  52.634  1.00  0.00     0.043 A 
ATOM     23  C   UNL     1       8.894  46.932  52.223  1.00  0.00     0.026 A 
ATOM     24  C   UNL     1       7.244  47.088  53.991  1.00  0.00    -0.027 A 
ATOM     25  C   UNL     1       9.923  47.115  53.147  1.00  0.00     0.005 A 
ATOM     26  C   UNL     1       8.293  47.255  54.914  1.00  0.00     0.009 A 
ATOM     27  C   UNL     1       9.632  47.258  54.504  1.00  0.00    -0.051 A 
ATOM     28  C   UNL     1       5.829  47.103  54.500  1.00  0.00     0.046 C 
ATOM     29  C   UNL     1      10.731  47.477  55.500  1.00  0.00     0.044 C 
ENDBRANCH  20  22
ENDBRANCH  13  20
ENDBRANCH   1  10
TORSDOF 6
ENDMDL
MODEL 13
REMARK VINA RESULT:    -8.320      2.113      4.378
REMARK INTER + INTRA:         -12.626
REMARK INTER:                 -11.845
REMARK INTRA:                  -0.781
REMARK UNBOUND:                -1.387
REMARK SMILES CC(=O)NCCNc1nc(Nc2ccc(C)cc2C)c2cnn(C)c2n1
REMARK SMILES IDX 7 1 6 3 5 4 4 5 2 6 1 7 3 8 8 10 9 11 26 12 10 13 25 14
REMARK SMILES IDX 20 15 23 16 21 17 22 18 24 19 11 20 12 22 13 23 18 24 14 25
REMARK SMILES IDX 17 26 15 27 19 28 16 29
REMARK H PARENT 7 2 4 9 11 21
ROOT
ATOM      1  N   UNL     1       4.303  41.868  51.365  1.00  0.00    -0.352 N 
ATOM      2  H   UNL     1       4.018  41.425  52.232  1.00  0.00     0.163 HD
ENDROOT
BRANCH   1   3
ATOM      3  C   UNL     1       3.675  41.367  50.153  1.00  0.00     0.137 C 
BRANCH   3   4
ATOM      4  C   UNL     1       4.688  40.857  49.117  1.00  0.00     0.137 C 
BRANCH   4   5
ATOM      5  N   UNL     1       5.635  41.887  48.717  1.00  0.00    -0.355 N 
ATOM      6  C   UNL     1       6.862  41.984  49.336  1.00  0.00     0.216 C 
ATOM      7  C   UNL     1       7.669  43.183  48.915  1.00  0.00     0.114 C 
ATOM      8  O   UNL     1       7.274  41.182  50.168  1.00  0.00    -0.275 OA
ATOM      9  H   UNL     1       5.270  42.725  48.283  1.00  0.00     0.163 HD
ENDBRANCH   4   5
ENDBRANCH   3   4
ENDBRANCH   1   3
BRANCH   1  10
ATOM     10  C   UNL     1       4.233  43.236  51.579  1.00  0.00     0.226 A 
ATOM     11  N   UNL     1       5.380  43.896  51.334  1.00  0.00    -0.195 NA
ATOM     12  N   UNL     1       3.088  43.785  52.004  1.00  0.00    -0.193 NA
ATOM     13  C   UNL     1       5.441  45.241  51.503  1.00  0.00     0.147 A 
ATOM     14  C   UNL     1       3.179  45.111  52.179  1.00  0.00     0.165 A 
ATOM     15  C   UNL     1       4.293  45.896  51.956  1.00  0.00     0.082 A 
ATOM     16  N   UNL     1       2.201  45.962  52.615  1.00  0.00    -0.250 N 
ATOM     17  C   UNL     1       3.874  47.202  52.283  1.00  0.00     0.149 A 
ATOM     18  N   UNL     1       2.597  47.254  52.681  1.00  0.00    -0.179 NA
ATOM     19  C   UNL     1       0.854  45.615  52.990  1.00  0.00     0.176 C 
BRANCH  13  20
ATOM     20  N   UNL     1       6.672  45.862  51.222  1.00  0.00    -0.339 N 
ATOM     21  H   UNL     1       6.462  46.622  50.580  1.00  0.00     0.168 HD
BRANCH  20  22
ATOM     22  C   UNL     1       7.618  46.264  52.190  1.00  0.00     0.043 A 
ATOM     23  C   UNL     1       7.129  46.766  53.404  1.00  0.00     0.026 A 
ATOM     24  C   UNL     1       9.007  46.106  52.021  1.00  0.00    -0.027 A 
ATOM     25  C   UNL     1       7.998  47.172  54.417  1.00  0.00     0.005 A 
ATOM     26  C   UNL     1       9.872  46.535  53.045  1.00  0.00     0.009 A 
ATOM     27  C   UNL     1       9.379  47.079  54.238  1.00  0.00    -0.051 A 
ATOM     28  C   UNL     1       9.605  45.525  50.770  1.00  0.00     0.046 C 
ATOM     29  C   UNL     1      10.319  47.492  55.330  1.00  0.00     0.044 C 
ENDBRANCH  20  22
ENDBRANCH  13  20
ENDBRANCH   1  10
TORSDOF 6
ENDMDL
MODEL 14
REMARK VINA RESULT:    -8.299      1.762      2.611
REMARK INTER + INTRA:         -12.597
REMARK INTER:                 -11.724
REMARK INTRA:                  -0.873
REMARK UNBOUND:                -1.387
REMARK SMILES CC(=O)NCCNc1nc(Nc2ccc(C)cc2C)c2cnn(C)c2n1
REMARK SMILES IDX 7 1 6 3 5 4 4 5 2 6 1 7 3 8 8 10 9 11 26 12 10 13 25 14
REMARK SMILES IDX 20 15 23 16 21 17 22 18 24 19 11 20 12 22 13 23 18 24 14 25
REMARK SMILES IDX 17 26 15 27 19 28 16 29
REMARK H PARENT 7 2 4 9 11 21
ROOT
ATOM      1  N   UNL     1       1.405  44.464  52.973  1.00  0.00    -0.352 N 
ATOM      2  H   UNL     1       1.061  43.529  53.164  1.00  0.00     0.163 HD
ENDROOT
BRANCH   1   3
ATOM      3  C   UNL     1       1.414  45.386  54.097  1.00  0.00     0.137 C 
BRANCH   3   4
ATOM      4  C   UNL     1       1.992  44.768  55.378  1.00  0.00     0.137 C 
BRANCH   4   5
ATOM      5  N   UNL     1       1.939  45.685  56.507  1.00  0.00    -0.355 N 
ATOM      6  C   UNL     1       0.831  45.721  57.325  1.00  0.00     0.216 C 
ATOM      7  C   UNL     1       0.865  46.816  58.356  1.00  0.00     0.114 C 
ATOM      8  O   UNL     1      -0.115  44.947  57.229  1.00  0.00    -0.275 OA
ATOM      9  H   UNL     1       2.511  46.519  56.469  1.00  0.00     0.163 HD
ENDBRANCH   4   5
ENDBRANCH   3   4
ENDBRANCH   1   3
BRANCH   1  10
ATOM     10  C   UNL     1       2.602  44.311  52.287  1.00  0.00     0.226 A 
ATOM     11  N   UNL     1       3.398  45.395  52.313  1.00  0.00    -0.195 NA
ATOM     12  N   UNL     1       2.869  43.156  51.666  1.00  0.00    -0.193 NA
ATOM     13  C   UNL     1       4.599  45.373  51.682  1.00  0.00     0.147 A 
ATOM     14  C   UNL     1       4.053  43.165  51.036  1.00  0.00     0.165 A 
ATOM     15  C   UNL     1       4.956  44.208  50.997  1.00  0.00     0.082 A 
ATOM     16  N   UNL     1       4.612  42.156  50.301  1.00  0.00    -0.250 N 
ATOM     17  C   UNL     1       6.025  43.720  50.218  1.00  0.00     0.149 A 
ATOM     18  N   UNL     1       5.828  42.465  49.793  1.00  0.00    -0.179 NA
ATOM     19  C   UNL     1       4.044  40.858  50.037  1.00  0.00     0.176 C 
BRANCH  13  20
ATOM     20  N   UNL     1       5.380  46.541  51.757  1.00  0.00    -0.339 N 
ATOM     21  H   UNL     1       4.729  47.301  51.939  1.00  0.00     0.168 HD
BRANCH  20  22
ATOM     22  C   UNL     1       6.554  46.684  52.528  1.00  0.00     0.043 A 
ATOM     23  C   UNL     1       7.781  46.653  51.850  1.00  0.00     0.026 A 
ATOM     24  C   UNL     1       6.541  46.937  53.913  1.00  0.00    -0.027 A 
ATOM     25  C   UNL     1       8.986  46.802  52.535  1.00  0.00     0.005 A 
ATOM     26  C   UNL     1       7.765  47.069  54.594  1.00  0.00     0.009 A 
ATOM     27  C   UNL     1       8.989  46.990  53.918  1.00  0.00    -0.051 A 
ATOM     28  C   UNL     1       5.264  47.039  54.701  1.00  0.00     0.046 C 
ATOM     29  C   UNL     1      10.280  47.172  54.659  1.00  0.00     0.044 C 
ENDBRANCH  20  22
ENDBRANCH  13  20
ENDBRANCH   1  10
TORSDOF 6
ENDMDL
MODEL 15
REMARK VINA RESULT:    -8.259      3.064      5.608
REMARK INTER + INTRA:         -12.543
REMARK INTER:                 -11.702
REMARK INTRA:                  -0.841
REMARK UNBOUND:                -1.387
REMARK SMILES CC(=O)NCCNc1nc(Nc2ccc(C)cc2C)c2cnn(C)c2n1
REMARK SMILES IDX 7 1 6 3 5 4 4 5 2 6 1 7 3 8 8 10 9 11 26 12 10 13 25 14
REMARK SMILES IDX 20 15 23 16 21 17 22 18 24 19 11 20 12 22 13 23 18 24 14 25
REMARK SMILES IDX 17 26 15 27 19 28 16 29
REMARK H PARENT 7 2 4 9 11 21
ROOT
ATOM      1  N   UNL     1       5.505  41.524  50.516  1.00  0.00    -0.352 N 
ATOM      2  H   UNL     1       4.966  40.700  50.761  1.00  0.00     0.163 HD
ENDROOT
BRANCH   1   3
ATOM      3  C   UNL     1       6.070  41.547  49.176  1.00  0.00     0.137 C 
BRANCH   3   4
ATOM      4  C   UNL     1       5.054  41.167  48.088  1.00  0.00     0.137 C 
BRANCH   4   5
ATOM      5  N   UNL     1       5.584  41.358  46.747  1.00  0.00    -0.355 N 
ATOM      6  C   UNL     1       4.777  41.172  45.645  1.00  0.00     0.216 C 
ATOM      7  C   UNL     1       5.504  41.266  44.330  1.00  0.00     0.114 C 
ATOM      8  O   UNL     1       3.576  40.937  45.709  1.00  0.00    -0.275 OA
ATOM      9  H   UNL     1       6.581  41.255  46.611  1.00  0.00     0.163 HD
ENDBRANCH   4   5
ENDBRANCH   3   4
ENDBRANCH   1   3
BRANCH   1  10
ATOM     10  C   UNL     1       4.738  42.620  50.883  1.00  0.00     0.226 A 
ATOM     11  N   UNL     1       5.406  43.788  50.886  1.00  0.00    -0.195 NA
ATOM     12  N   UNL     1       3.449  42.452  51.205  1.00  0.00    -0.193 NA
ATOM     13  C   UNL     1       4.767  44.937  51.225  1.00  0.00     0.147 A 
ATOM     14  C   UNL     1       2.845  43.598  51.552  1.00  0.00     0.165 A 
ATOM     15  C   UNL     1       3.420  44.853  51.587  1.00  0.00     0.082 A 
ATOM     16  N   UNL     1       1.547  43.767  51.946  1.00  0.00    -0.250 N 
ATOM     17  C   UNL     1       2.378  45.705  52.008  1.00  0.00     0.149 A 
ATOM     18  N   UNL     1       1.229  45.053  52.225  1.00  0.00    -0.179 NA
ATOM     19  C   UNL     1       0.541  42.745  52.081  1.00  0.00     0.176 C 
BRANCH  13  20
ATOM     20  N   UNL     1       5.527  46.120  51.199  1.00  0.00    -0.339 N 
ATOM     21  H   UNL     1       4.858  46.885  51.238  1.00  0.00     0.168 HD
BRANCH  20  22
ATOM     22  C   UNL     1       6.645  46.384  52.020  1.00  0.00     0.043 A 
ATOM     23  C   UNL     1       7.917  46.259  51.443  1.00  0.00     0.026 A 
ATOM     24  C   UNL     1       6.536  46.843  53.347  1.00  0.00    -0.027 A 
ATOM     25  C   UNL     1       9.071  46.516  52.181  1.00  0.00     0.005 A 
ATOM     26  C   UNL     1       7.709  47.083  54.085  1.00  0.00     0.009 A 
ATOM     27  C   UNL     1       8.978  46.911  53.517  1.00  0.00    -0.051 A 
ATOM     28  C   UNL     1       5.207  47.055  54.019  1.00  0.00     0.046 C 
ATOM     29  C   UNL     1      10.214  47.210  54.311  1.00  0.00     0.044 C 
ENDBRANCH  20  22
ENDBRANCH  13  20
ENDBRANCH   1  10
TORSDOF 6
ENDMDL
MODEL 16
REMARK VINA RESULT:    -8.093      1.681      2.843
REMARK INTER + INTRA:         -12.319
REMARK INTER:                 -11.819
REMARK INTRA:                  -0.500
REMARK UNBOUND:                -1.387
REMARK SMILES CC(=O)NCCNc1nc(Nc2ccc(C)cc2C)c2cnn(C)c2n1
REMARK SMILES IDX 7 1 6 3 5 4 4 5 2 6 1 7 3 8 8 10 9 11 26 12 10 13 25 14
REMARK SMILES IDX 20 15 23 16 21 17 22 18 24 19 11 20 12 22 13 23 18 24 14 25
REMARK SMILES IDX 17 26 15 27 19 28 16 29
REMARK H PARENT 7 2 4 9 11 21
ROOT
ATOM      1  N   UNL     1       3.418  44.101  53.413  1.00  0.00    -0.352 N 
ATOM      2  H   UNL     1       3.739  43.476  54.145  1.00  0.00     0.163 HD
ENDROOT
BRANCH   1   3
ATOM      3  C   UNL     1       3.109  45.462  53.822  1.00  0.00     0.137 C 
BRANCH   3   4
ATOM      4  C   UNL     1       2.277  46.228  52.783  1.00  0.00     0.137 C 
BRANCH   4   5
ATOM      5  N   UNL     1       0.864  45.883  52.844  1.00  0.00    -0.355 N 
ATOM      6  C   UNL     1       0.333  44.963  51.966  1.00  0.00     0.216 C 
ATOM      7  C   UNL     1      -1.163  44.820  52.059  1.00  0.00     0.114 C 
ATOM      8  O   UNL     1       0.999  44.317  51.165  1.00  0.00    -0.275 OA
ATOM      9  H   UNL     1       0.227  46.559  53.246  1.00  0.00     0.163 HD
ENDBRANCH   4   5
ENDBRANCH   3   4
ENDBRANCH   1   3
BRANCH   1  10
ATOM     10  C   UNL     1       4.305  43.958  52.356  1.00  0.00     0.226 A 
ATOM     11  N   UNL     1       5.208  44.949  52.251  1.00  0.00    -0.195 NA
ATOM     12  N   UNL     1       4.203  42.900  51.541  1.00  0.00    -0.193 NA
ATOM     13  C   UNL     1       6.134  44.925  51.259  1.00  0.00     0.147 A 
ATOM     14  C   UNL     1       5.117  42.908  50.560  1.00  0.00     0.165 A 
ATOM     15  C   UNL     1       6.095  43.861  50.355  1.00  0.00     0.082 A 
ATOM     16  N   UNL     1       5.274  41.986  49.562  1.00  0.00    -0.250 N 
ATOM     17  C   UNL     1       6.787  43.413  49.210  1.00  0.00     0.149 A 
ATOM     18  N   UNL     1       6.297  42.267  48.722  1.00  0.00    -0.179 NA
ATOM     19  C   UNL     1       4.482  40.804  49.341  1.00  0.00     0.176 C 
BRANCH  13  20
ATOM     20  N   UNL     1       7.049  45.992  51.217  1.00  0.00    -0.339 N 
ATOM     21  H   UNL     1       6.539  46.784  50.831  1.00  0.00     0.168 HD
BRANCH  20  22
ATOM     22  C   UNL     1       7.876  46.396  52.288  1.00  0.00     0.043 A 
ATOM     23  C   UNL     1       9.234  46.056  52.220  1.00  0.00     0.026 A 
ATOM     24  C   UNL     1       7.418  47.185  53.360  1.00  0.00    -0.027 A 
ATOM     25  C   UNL     1      10.121  46.430  53.230  1.00  0.00     0.005 A 
ATOM     26  C   UNL     1       8.319  47.541  54.380  1.00  0.00     0.009 A 
ATOM     27  C   UNL     1       9.666  47.158  54.330  1.00  0.00    -0.051 A 
ATOM     28  C   UNL     1       5.988  47.636  53.474  1.00  0.00     0.046 C 
ATOM     29  C   UNL     1      10.617  47.582  55.409  1.00  0.00     0.044 C 
ENDBRANCH  20  22
ENDBRANCH  13  20
ENDBRANCH   1  10
TORSDOF 6
ENDMDL
MODEL 17
REMARK VINA RESULT:    -8.092      1.705      5.649
REMARK INTER + INTRA:         -12.317
REMARK INTER:                 -11.378
REMARK INTRA:                  -0.939
REMARK UNBOUND:                -1.387
REMARK SMILES CC(=O)NCCNc1nc(Nc2ccc(C)cc2C)c2cnn(C)c2n1
REMARK SMILES IDX 7 1 6 3 5 4 4 5 2 6 1 7 3 8 8 10 9 11 26 12 10 13 25 14
REMARK SMILES IDX 20 15 23 16 21 17 22 18 24 19 11 20 12 22 13 23 18 24 14 25
REMARK SMILES IDX 17 26 15 27 19 28 16 29
REMARK H PARENT 7 2 4 9 11 21
ROOT
ATOM      1  N   UNL     1       8.051  46.303  50.675  1.00  0.00    -0.352 N 
ATOM      2  H   UNL     1       7.734  47.244  50.468  1.00  0.00     0.163 HD
ENDROOT
BRANCH   1   3
ATOM      3  C   UNL     1       9.052  46.180  51.724  1.00  0.00     0.137 C 
BRANCH   3   4
ATOM      4  C   UNL     1       8.951  47.286  52.785  1.00  0.00     0.137 C 
BRANCH   4   5
ATOM      5  N   UNL     1       9.890  47.089  53.879  1.00  0.00    -0.355 N 
ATOM      6  C   UNL     1       9.741  47.784  55.060  1.00  0.00     0.216 C 
ATOM      7  C   UNL     1      10.868  47.581  56.036  1.00  0.00     0.114 C 
ATOM      8  O   UNL     1       8.790  48.518  55.306  1.00  0.00    -0.275 OA
ATOM      9  H   UNL     1      10.818  46.756  53.653  1.00  0.00     0.163 HD
ENDBRANCH   4   5
ENDBRANCH   3   4
ENDBRANCH   1   3
BRANCH   1  10
ATOM     10  C   UNL     1       6.912  45.523  50.812  1.00  0.00     0.226 A 
ATOM     11  N   UNL     1       5.854  46.172  51.331  1.00  0.00    -0.195 NA
ATOM     12  N   UNL     1       6.940  44.236  50.445  1.00  0.00    -0.193 NA
ATOM     13  C   UNL     1       4.678  45.521  51.513  1.00  0.00     0.147 A 
ATOM     14  C   UNL     1       5.772  43.610  50.650  1.00  0.00     0.165 A 
ATOM     15  C   UNL     1       4.619  44.168  51.167  1.00  0.00     0.082 A 
ATOM     16  N   UNL     1       5.474  42.300  50.397  1.00  0.00    -0.250 N 
ATOM     17  C   UNL     1       3.690  43.109  51.177  1.00  0.00     0.149 A 
ATOM     18  N   UNL     1       4.199  41.964  50.704  1.00  0.00    -0.179 NA
ATOM     19  C   UNL     1       6.359  41.298  49.860  1.00  0.00     0.176 C 
BRANCH  13  20
ATOM     20  N   UNL     1       3.615  46.266  52.056  1.00  0.00    -0.339 N 
ATOM     21  H   UNL     1       2.977  46.447  51.284  1.00  0.00     0.168 HD
BRANCH  20  22
ATOM     22  C   UNL     1       2.906  45.933  53.231  1.00  0.00     0.043 A 
ATOM     23  C   UNL     1       3.545  46.160  54.458  1.00  0.00     0.026 A 
ATOM     24  C   UNL     1       1.577  45.471  53.223  1.00  0.00    -0.027 A 
ATOM     25  C   UNL     1       2.908  45.871  55.665  1.00  0.00     0.005 A 
ATOM     26  C   UNL     1       0.952  45.169  54.448  1.00  0.00     0.009 A 
ATOM     27  C   UNL     1       1.613  45.353  55.669  1.00  0.00    -0.051 A 
ATOM     28  C   UNL     1       0.806  45.256  51.950  1.00  0.00     0.046 C 
ATOM     29  C   UNL     1       0.913  45.061  56.963  1.00  0.00     0.044 C 
ENDBRANCH  20  22
ENDBRANCH  13  20
ENDBRANCH   1  10
TORSDOF 6
ENDMDL
MODEL 18
REMARK VINA RESULT:    -7.998      2.572      5.217
REMARK INTER + INTRA:         -12.190
REMARK INTER:                 -10.928
REMARK INTRA:                  -1.262
REMARK UNBOUND:                -1.387
REMARK SMILES CC(=O)NCCNc1nc(Nc2ccc(C)cc2C)c2cnn(C)c2n1
REMARK SMILES IDX 7 1 6 3 5 4 4 5 2 6 1 7 3 8 8 10 9 11 26 12 10 13 25 14
REMARK SMILES IDX 20 15 23 16 21 17 22 18 24 19 11 20 12 22 13 23 18 24 14 25
REMARK SMILES IDX 17 26 15 27 19 28 16 29
REMARK H PARENT 7 2 4 9 11 21
ROOT
ATOM      1  N   UNL     1       3.502  41.482  50.535  1.00  0.00    -0.352 N 
ATOM      2  H   UNL     1       3.286  41.557  49.546  1.00  0.00     0.163 HD
ENDROOT
BRANCH   1   3
ATOM      3  C   UNL     1       4.914  41.432  50.880  1.00  0.00     0.137 C 
BRANCH   3   4
ATOM      4  C   UNL     1       5.818  42.059  49.808  1.00  0.00     0.137 C 
BRANCH   4   5
ATOM      5  N   UNL     1       6.164  43.439  50.115  1.00  0.00    -0.355 N 
ATOM      6  C   UNL     1       7.359  43.972  49.681  1.00  0.00     0.216 C 
ATOM      7  C   UNL     1       7.635  45.357  50.199  1.00  0.00     0.114 C 
ATOM      8  O   UNL     1       8.145  43.381  48.950  1.00  0.00    -0.275 OA
ATOM      9  H   UNL     1       5.736  43.866  50.927  1.00  0.00     0.163 HD
ENDBRANCH   4   5
ENDBRANCH   3   4
ENDBRANCH   1   3
BRANCH   1  10
ATOM     10  C   UNL     1       2.740  42.445  51.180  1.00  0.00     0.226 A 
ATOM     11  N   UNL     1       3.385  43.093  52.167  1.00  0.00    -0.195 NA
ATOM     12  N   UNL     1       1.472  42.651  50.804  1.00  0.00    -0.193 NA
ATOM     13  C   UNL     1       2.749  44.061  52.875  1.00  0.00     0.147 A 
ATOM     14  C   UNL     1       0.861  43.600  51.528  1.00  0.00     0.165 A 
ATOM     15  C   UNL     1       1.417  44.335  52.556  1.00  0.00     0.082 A 
ATOM     16  N   UNL     1      -0.429  44.036  51.408  1.00  0.00    -0.250 N 
ATOM     17  C   UNL     1       0.377  45.188  52.980  1.00  0.00     0.149 A 
ATOM     18  N   UNL     1      -0.753  45.017  52.283  1.00  0.00    -0.179 NA
ATOM     19  C   UNL     1      -1.422  43.563  50.477  1.00  0.00     0.176 C 
BRANCH  13  20
ATOM     20  N   UNL     1       3.489  44.698  53.887  1.00  0.00    -0.339 N 
ATOM     21  H   UNL     1       3.661  43.989  54.597  1.00  0.00     0.168 HD
BRANCH  20  22
ATOM     22  C   UNL     1       4.637  45.493  53.677  1.00  0.00     0.043 A 
ATOM     23  C   UNL     1       5.879  44.937  54.011  1.00  0.00     0.026 A 
ATOM     24  C   UNL     1       4.593  46.767  53.079  1.00  0.00    -0.027 A 
ATOM     25  C   UNL     1       7.062  45.651  53.821  1.00  0.00     0.005 A 
ATOM     26  C   UNL     1       5.792  47.482  52.908  1.00  0.00     0.009 A 
ATOM     27  C   UNL     1       7.027  46.939  53.287  1.00  0.00    -0.051 A 
ATOM     28  C   UNL     1       3.304  47.408  52.643  1.00  0.00     0.046 C 
ATOM     29  C   UNL     1       8.296  47.705  53.059  1.00  0.00     0.044 C 
ENDBRANCH  20  22
ENDBRANCH  13  20
ENDBRANCH   1  10
TORSDOF 6
ENDMDL
MODEL 19
REMARK VINA RESULT:    -7.893      2.197      6.379
REMARK INTER + INTRA:         -12.048
REMARK INTER:                 -11.188
REMARK INTRA:                  -0.861
REMARK UNBOUND:                -1.387
REMARK SMILES CC(=O)NCCNc1nc(Nc2ccc(C)cc2C)c2cnn(C)c2n1
REMARK SMILES IDX 7 1 6 3 5 4 4 5 2 6 1 7 3 8 8 10 9 11 26 12 10 13 25 14
REMARK SMILES IDX 20 15 23 16 21 17 22 18 24 19 11 20 12 22 13 23 18 24 14 25
REMARK SMILES IDX 17 26 15 27 19 28 16 29
REMARK H PARENT 7 2 4 9 11 21
ROOT
ATOM      1  N   UNL     1       5.489  46.688  52.271  1.00  0.00    -0.352 N 
ATOM      2  H   UNL     1       5.068  47.283  51.565  1.00  0.00     0.163 HD
ENDROOT
BRANCH   1   3
ATOM      3  C   UNL     1       5.176  47.014  53.654  1.00  0.00     0.137 C 
BRANCH   3   4
ATOM      4  C   UNL     1       6.355  46.780  54.609  1.00  0.00     0.137 C 
BRANCH   4   5
ATOM      5  N   UNL     1       7.612  46.591  53.900  1.00  0.00    -0.355 N 
ATOM      6  C   UNL     1       8.714  47.354  54.219  1.00  0.00     0.216 C 
ATOM      7  C   UNL     1       9.891  47.144  53.305  1.00  0.00     0.114 C 
ATOM      8  O   UNL     1       8.750  48.148  55.153  1.00  0.00    -0.275 OA
ATOM      9  H   UNL     1       7.577  46.199  52.968  1.00  0.00     0.163 HD
ENDBRANCH   4   5
ENDBRANCH   3   4
ENDBRANCH   1   3
BRANCH   1  10
ATOM     10  C   UNL     1       5.255  45.379  51.876  1.00  0.00     0.226 A 
ATOM     11  N   UNL     1       4.294  44.751  52.577  1.00  0.00    -0.195 NA
ATOM     12  N   UNL     1       5.971  44.849  50.876  1.00  0.00    -0.193 NA
ATOM     13  C   UNL     1       3.969  43.466  52.285  1.00  0.00     0.147 A 
ATOM     14  C   UNL     1       5.642  43.575  50.618  1.00  0.00     0.165 A 
ATOM     15  C   UNL     1       4.674  42.829  51.261  1.00  0.00     0.082 A 
ATOM     16  N   UNL     1       6.190  42.748  49.676  1.00  0.00    -0.250 N 
ATOM     17  C   UNL     1       4.719  41.572  50.625  1.00  0.00     0.149 A 
ATOM     18  N   UNL     1       5.637  41.513  49.652  1.00  0.00    -0.179 NA
ATOM     19  C   UNL     1       7.251  43.066  48.756  1.00  0.00     0.176 C 
BRANCH  13  20
ATOM     20  N   UNL     1       2.951  42.877  53.058  1.00  0.00    -0.339 N 
ATOM     21  H   UNL     1       3.286  42.888  54.018  1.00  0.00     0.168 HD
BRANCH  20  22
ATOM     22  C   UNL     1       1.583  43.218  52.995  1.00  0.00     0.043 A 
ATOM     23  C   UNL     1       0.826  42.671  51.949  1.00  0.00     0.026 A 
ATOM     24  C   UNL     1       0.939  44.003  53.970  1.00  0.00    -0.027 A 
ATOM     25  C   UNL     1      -0.535  42.948  51.824  1.00  0.00     0.005 A 
ATOM     26  C   UNL     1      -0.431  44.287  53.823  1.00  0.00     0.009 A 
ATOM     27  C   UNL     1      -1.172  43.776  52.749  1.00  0.00    -0.051 A 
ATOM     28  C   UNL     1       1.670  44.580  55.151  1.00  0.00     0.046 C 
ATOM     29  C   UNL     1      -2.639  44.060  52.634  1.00  0.00     0.044 C 
ENDBRANCH  20  22
ENDBRANCH  13  20
ENDBRANCH   1  10
TORSDOF 6
ENDMDL
MODEL 20
REMARK VINA RESULT:    -7.866      2.268      6.224
REMARK INTER + INTRA:         -12.012
REMARK INTER:                 -10.744
REMARK INTRA:                  -1.268
REMARK UNBOUND:                -1.387
REMARK SMILES CC(=O)NCCNc1nc(Nc2ccc(C)cc2C)c2cnn(C)c2n1
REMARK SMILES IDX 7 1 6 3 5 4 4 5 2 6 1 7 3 8 8 10 9 11 26 12 10 13 25 14
REMARK SMILES IDX 20 15 23 16 21 17 22 18 24 19 11 20 12 22 13 23 18 24 14 25
REMARK SMILES IDX 17 26 15 27 19 28 16 29
REMARK H PARENT 7 2 4 9 11 21
ROOT
ATOM      1  N   UNL     1       6.125  44.024  49.548  1.00  0.00    -0.352 N 
ATOM      2  H   UNL     1       6.159  44.496  48.651  1.00  0.00     0.163 HD
ENDROOT
BRANCH   1   3
ATOM      3  C   UNL     1       6.762  42.718  49.610  1.00  0.00     0.137 C 
BRANCH   3   4
ATOM      4  C   UNL     1       5.869  41.643  50.248  1.00  0.00     0.137 C 
BRANCH   4   5
ATOM      5  N   UNL     1       4.693  42.211  50.889  1.00  0.00    -0.355 N 
ATOM      6  C   UNL     1       3.430  41.797  50.523  1.00  0.00     0.216 C 
ATOM      7  C   UNL     1       2.318  42.577  51.171  1.00  0.00     0.114 C 
ATOM      8  O   UNL     1       3.212  40.886  49.733  1.00  0.00    -0.275 OA
ATOM      9  H   UNL     1       4.775  43.131  51.302  1.00  0.00     0.163 HD
ENDBRANCH   4   5
ENDBRANCH   3   4
ENDBRANCH   1   3
BRANCH   1  10
ATOM     10  C   UNL     1       6.525  44.953  50.498  1.00  0.00     0.226 A 
ATOM     11  N   UNL     1       5.511  45.564  51.137  1.00  0.00    -0.195 NA
ATOM     12  N   UNL     1       7.829  45.178  50.700  1.00  0.00    -0.193 NA
ATOM     13  C   UNL     1       5.770  46.493  52.092  1.00  0.00     0.147 A 
ATOM     14  C   UNL     1       8.058  46.111  51.636  1.00  0.00     0.165 A 
ATOM     15  C   UNL     1       7.106  46.799  52.362  1.00  0.00     0.082 A 
ATOM     16  N   UNL     1       9.269  46.579  52.065  1.00  0.00    -0.250 N 
ATOM     17  C   UNL     1       7.852  47.651  53.202  1.00  0.00     0.149 A 
ATOM     18  N   UNL     1       9.174  47.521  53.033  1.00  0.00    -0.179 NA
ATOM     19  C   UNL     1      10.570  46.175  51.597  1.00  0.00     0.176 C 
BRANCH  13  20
ATOM     20  N   UNL     1       4.659  47.085  52.722  1.00  0.00    -0.339 N 
ATOM     21  H   UNL     1       4.395  47.875  52.138  1.00  0.00     0.168 HD
BRANCH  20  22
ATOM     22  C   UNL     1       3.519  46.390  53.179  1.00  0.00     0.043 A 
ATOM     23  C   UNL     1       2.364  46.447  52.386  1.00  0.00     0.026 A 
ATOM     24  C   UNL     1       3.518  45.586  54.335  1.00  0.00    -0.027 A 
ATOM     25  C   UNL     1       1.200  45.777  52.760  1.00  0.00     0.005 A 
ATOM     26  C   UNL     1       2.332  44.929  54.709  1.00  0.00     0.009 A 
ATOM     27  C   UNL     1       1.168  45.028  53.937  1.00  0.00    -0.051 A 
ATOM     28  C   UNL     1       4.733  45.430  55.208  1.00  0.00     0.046 C 
ATOM     29  C   UNL     1      -0.074  44.287  54.334  1.00  0.00     0.044 C 
ENDBRANCH  20  22
ENDBRANCH  13  20
ENDBRANCH   1  10
TORSDOF 6
ENDMDL
