MODEL 1
REMARK VINA RESULT:    -9.094      0.000      0.000
REMARK INTER + INTRA:         -13.659
REMARK INTER:                 -12.284
REMARK INTRA:                  -1.375
REMARK UNBOUND:                -1.375
REMARK SMILES CC(=O)NCCNc1nc(Nc2ccc(Cl)cc2C)c2cnn(C)c2n1
REMARK SMILES IDX 7 1 6 3 5 4 4 5 2 6 1 7 3 8 8 10 9 11 26 12 10 13 25 14
REMARK SMILES IDX 20 15 23 16 21 17 22 18 24 19 11 20 12 22 13 23 18 24 14 25
REMARK SMILES IDX 17 26 15 27 19 28 16 29
REMARK H PARENT 7 2 4 9 11 21
ROOT
ATOM      1  N   UNL     1       2.784  45.852  52.311  1.00  0.00    -0.352 N 
ATOM      2  H   UNL     1       3.140  46.686  52.764  1.00  0.00     0.163 HD
ENDROOT
BRANCH   1   3
ATOM      3  C   UNL     1       1.933  45.028  53.167  1.00  0.00     0.137 C 
BRANCH   3   4
ATOM      4  C   UNL     1       2.149  45.313  54.665  1.00  0.00     0.137 C 
BRANCH   4   5
ATOM      5  N   UNL     1       3.418  44.803  55.165  1.00  0.00    -0.355 N 
ATOM      6  C   UNL     1       4.531  45.607  55.235  1.00  0.00     0.216 C 
ATOM      7  C   UNL     1       5.777  44.898  55.691  1.00  0.00     0.114 C 
ATOM      8  O   UNL     1       4.524  46.796  54.937  1.00  0.00    -0.275 OA
ATOM      9  H   UNL     1       3.522  43.800  55.243  1.00  0.00     0.163 HD
ENDBRANCH   4   5
ENDBRANCH   3   4
ENDBRANCH   1   3
BRANCH   1  10
ATOM     10  C   UNL     1       3.860  45.213  51.716  1.00  0.00     0.226 A 
ATOM     11  N   UNL     1       4.975  45.961  51.625  1.00  0.00    -0.195 NA
ATOM     12  N   UNL     1       3.736  43.938  51.322  1.00  0.00    -0.193 NA
ATOM     13  C   UNL     1       6.096  45.444  51.062  1.00  0.00     0.147 A 
ATOM     14  C   UNL     1       4.853  43.456  50.758  1.00  0.00     0.165 A 
ATOM     15  C   UNL     1       6.047  44.130  50.594  1.00  0.00     0.082 A 
ATOM     16  N   UNL     1       5.047  42.211  50.226  1.00  0.00    -0.250 N 
ATOM     17  C   UNL     1       6.891  43.199  49.955  1.00  0.00     0.149 A 
ATOM     18  N   UNL     1       6.294  42.021  49.737  1.00  0.00    -0.179 NA
ATOM     19  C   UNL     1       4.084  41.142  50.145  1.00  0.00     0.176 C 
BRANCH  13  20
ATOM     20  N   UNL     1       7.217  46.287  50.982  1.00  0.00    -0.339 N 
ATOM     21  H   UNL     1       6.927  47.124  50.480  1.00  0.00     0.168 HD
BRANCH  20  22
ATOM     22  C   UNL     1       8.106  46.592  52.034  1.00  0.00     0.043 A 
ATOM     23  C   UNL     1       7.572  47.250  53.153  1.00  0.00     0.028 A 
ATOM     24  C   UNL     1       9.450  46.167  52.063  1.00  0.00    -0.026 A 
ATOM     25  C   UNL     1       8.368  47.559  54.257  1.00  0.00     0.022 A 
ATOM     26  C   UNL     1      10.248  46.498  53.175  1.00  0.00     0.026 A 
ATOM     27  C   UNL     1       9.707  47.188  54.258  1.00  0.00     0.041 A 
ATOM     28  C   UNL     1      10.080  45.391  50.940  1.00  0.00     0.046 C 
ATOM     29  Cl  UNL     1      10.698  47.571  55.610  1.00  0.00    -0.084 Cl
ENDBRANCH  20  22
ENDBRANCH  13  20
ENDBRANCH   1  10
TORSDOF 6
ENDMDL
MODEL 2
REMARK VINA RESULT:    -8.928      2.905      5.530
REMARK INTER + INTRA:         -13.435
REMARK INTER:                 -12.337
REMARK INTRA:                  -1.098
REMARK UNBOUND:                -1.375
REMARK SMILES CC(=O)NCCNc1nc(Nc2ccc(Cl)cc2C)c2cnn(C)c2n1
REMARK SMILES IDX 7 1 6 3 5 4 4 5 2 6 1 7 3 8 8 10 9 11 26 12 10 13 25 14
REMARK SMILES IDX 20 15 23 16 21 17 22 18 24 19 11 20 12 22 13 23 18 24 14 25
REMARK SMILES IDX 17 26 15 27 19 28 16 29
REMARK H PARENT 7 2 4 9 11 21
ROOT
ATOM      1  N   UNL     1       4.940  46.976  54.974  1.00  0.00    -0.352 N 
ATOM      2  H   UNL     1       5.183  47.580  55.751  1.00  0.00     0.163 HD
ENDROOT
BRANCH   1   3
ATOM      3  C   UNL     1       4.231  45.760  55.365  1.00  0.00     0.137 C 
BRANCH   3   4
ATOM      4  C   UNL     1       2.700  45.923  55.305  1.00  0.00     0.137 C 
BRANCH   4   5
ATOM      5  N   UNL     1       2.111  45.335  54.110  1.00  0.00    -0.355 N 
ATOM      6  C   UNL     1       2.030  46.041  52.934  1.00  0.00     0.216 C 
ATOM      7  C   UNL     1       1.315  45.317  51.826  1.00  0.00     0.114 C 
ATOM      8  O   UNL     1       2.481  47.173  52.794  1.00  0.00    -0.275 OA
ATOM      9  H   UNL     1       1.565  44.491  54.223  1.00  0.00     0.163 HD
ENDBRANCH   4   5
ENDBRANCH   3   4
ENDBRANCH   1   3
BRANCH   1  10
ATOM     10  C   UNL     1       6.083  46.803  54.211  1.00  0.00     0.226 A 
ATOM     11  N   UNL     1       5.862  46.323  52.973  1.00  0.00    -0.195 NA
ATOM     12  N   UNL     1       7.275  47.144  54.719  1.00  0.00    -0.193 NA
ATOM     13  C   UNL     1       6.904  46.112  52.130  1.00  0.00     0.147 A 
ATOM     14  C   UNL     1       8.288  46.914  53.871  1.00  0.00     0.165 A 
ATOM     15  C   UNL     1       8.188  46.410  52.589  1.00  0.00     0.082 A 
ATOM     16  N   UNL     1       9.622  47.120  54.092  1.00  0.00    -0.250 N 
ATOM     17  C   UNL     1       9.519  46.355  52.128  1.00  0.00     0.149 A 
ATOM     18  N   UNL     1      10.400  46.798  53.033  1.00  0.00    -0.179 NA
ATOM     19  C   UNL     1      10.236  47.622  55.295  1.00  0.00     0.176 C 
BRANCH  13  20
ATOM     20  N   UNL     1       6.602  45.591  50.860  1.00  0.00    -0.339 N 
ATOM     21  H   UNL     1       7.416  45.753  50.270  1.00  0.00     0.168 HD
BRANCH  20  22
ATOM     22  C   UNL     1       6.004  44.343  50.594  1.00  0.00     0.043 A 
ATOM     23  C   UNL     1       4.722  44.121  51.121  1.00  0.00     0.028 A 
ATOM     24  C   UNL     1       6.572  43.376  49.738  1.00  0.00    -0.026 A 
ATOM     25  C   UNL     1       4.038  42.930  50.878  1.00  0.00     0.022 A 
ATOM     26  C   UNL     1       5.880  42.172  49.512  1.00  0.00     0.026 A 
ATOM     27  C   UNL     1       4.625  41.955  50.080  1.00  0.00     0.041 A 
ATOM     28  C   UNL     1       7.906  43.568  49.071  1.00  0.00     0.046 C 
ATOM     29  Cl  UNL     1       3.793  40.480  49.781  1.00  0.00    -0.084 Cl
ENDBRANCH  20  22
ENDBRANCH  13  20
ENDBRANCH   1  10
TORSDOF 6
ENDMDL
MODEL 3
REMARK VINA RESULT:    -8.868      3.019      5.539
REMARK INTER + INTRA:         -13.354
REMARK INTER:                 -12.457
REMARK INTRA:                  -0.897
REMARK UNBOUND:                -1.375
REMARK SMILES CC(=O)NCCNc1nc(Nc2ccc(Cl)cc2C)c2cnn(C)c2n1
REMARK SMILES IDX 7 1 6 3 5 4 4 5 2 6 1 7 3 8 8 10 9 11 26 12 10 13 25 14
REMARK SMILES IDX 20 15 23 16 21 17 22 18 24 19 11 20 12 22 13 23 18 24 14 25
REMARK SMILES IDX 17 26 15 27 19 28 16 29
REMARK H PARENT 7 2 4 9 11 21
ROOT
ATOM      1  N   UNL     1       4.928  47.165  54.995  1.00  0.00    -0.352 N 
ATOM      2  H   UNL     1       5.142  46.904  55.951  1.00  0.00     0.163 HD
ENDROOT
BRANCH   1   3
ATOM      3  C   UNL     1       3.678  46.600  54.490  1.00  0.00     0.137 C 
BRANCH   3   4
ATOM      4  C   UNL     1       3.241  45.344  55.266  1.00  0.00     0.137 C 
BRANCH   4   5
ATOM      5  N   UNL     1       2.766  44.275  54.399  1.00  0.00    -0.355 N 
ATOM      6  C   UNL     1       1.422  44.035  54.234  1.00  0.00     0.216 C 
ATOM      7  C   UNL     1       1.109  42.840  53.375  1.00  0.00     0.114 C 
ATOM      8  O   UNL     1       0.546  44.717  54.754  1.00  0.00    -0.275 OA
ATOM      9  H   UNL     1       3.437  43.578  54.103  1.00  0.00     0.163 HD
ENDBRANCH   4   5
ENDBRANCH   3   4
ENDBRANCH   1   3
BRANCH   1  10
ATOM     10  C   UNL     1       6.062  46.924  54.237  1.00  0.00     0.226 A 
ATOM     11  N   UNL     1       5.819  46.440  53.004  1.00  0.00    -0.195 NA
ATOM     12  N   UNL     1       7.270  47.211  54.743  1.00  0.00    -0.193 NA
ATOM     13  C   UNL     1       6.850  46.165  52.166  1.00  0.00     0.147 A 
ATOM     14  C   UNL     1       8.270  46.918  53.900  1.00  0.00     0.165 A 
ATOM     15  C   UNL     1       8.147  46.404  52.625  1.00  0.00     0.082 A 
ATOM     16  N   UNL     1       9.613  47.060  54.121  1.00  0.00    -0.250 N 
ATOM     17  C   UNL     1       9.474  46.276  52.168  1.00  0.00     0.149 A 
ATOM     18  N   UNL     1      10.376  46.685  53.068  1.00  0.00    -0.179 NA
ATOM     19  C   UNL     1      10.249  47.546  55.319  1.00  0.00     0.176 C 
BRANCH  13  20
ATOM     20  N   UNL     1       6.525  45.644  50.903  1.00  0.00    -0.339 N 
ATOM     21  H   UNL     1       7.329  45.801  50.299  1.00  0.00     0.168 HD
BRANCH  20  22
ATOM     22  C   UNL     1       5.917  44.397  50.649  1.00  0.00     0.043 A 
ATOM     23  C   UNL     1       4.633  44.191  51.177  1.00  0.00     0.028 A 
ATOM     24  C   UNL     1       6.478  43.417  49.804  1.00  0.00    -0.026 A 
ATOM     25  C   UNL     1       3.939  43.003  50.946  1.00  0.00     0.022 A 
ATOM     26  C   UNL     1       5.776  42.216  49.590  1.00  0.00     0.026 A 
ATOM     27  C   UNL     1       4.520  42.015  50.159  1.00  0.00     0.041 A 
ATOM     28  C   UNL     1       7.814  43.591  49.136  1.00  0.00     0.046 C 
ATOM     29  Cl  UNL     1       3.676  40.543  49.874  1.00  0.00    -0.084 Cl
ENDBRANCH  20  22
ENDBRANCH  13  20
ENDBRANCH   1  10
TORSDOF 6
ENDMDL
MODEL 4
REMARK VINA RESULT:    -8.797      1.268      1.705
REMARK INTER + INTRA:         -13.259
REMARK INTER:                 -12.324
REMARK INTRA:                  -0.934
REMARK UNBOUND:                -1.375
REMARK SMILES CC(=O)NCCNc1nc(Nc2ccc(Cl)cc2C)c2cnn(C)c2n1
REMARK SMILES IDX 7 1 6 3 5 4 4 5 2 6 1 7 3 8 8 10 9 11 26 12 10 13 25 14
REMARK SMILES IDX 20 15 23 16 21 17 22 18 24 19 11 20 12 22 13 23 18 24 14 25
REMARK SMILES IDX 17 26 15 27 19 28 16 29
REMARK H PARENT 7 2 4 9 11 21
ROOT
ATOM      1  N   UNL     1       3.225  45.257  52.644  1.00  0.00    -0.352 N 
ATOM      2  H   UNL     1       2.483  45.506  52.001  1.00  0.00     0.163 HD
ENDROOT
BRANCH   1   3
ATOM      3  C   UNL     1       3.440  46.233  53.711  1.00  0.00     0.137 C 
BRANCH   3   4
ATOM      4  C   UNL     1       3.738  45.570  55.068  1.00  0.00     0.137 C 
BRANCH   4   5
ATOM      5  N   UNL     1       2.638  45.689  56.015  1.00  0.00    -0.355 N 
ATOM      6  C   UNL     1       1.474  44.977  55.849  1.00  0.00     0.216 C 
ATOM      7  C   UNL     1       0.411  45.285  56.867  1.00  0.00     0.114 C 
ATOM      8  O   UNL     1       1.299  44.172  54.941  1.00  0.00    -0.275 OA
ATOM      9  H   UNL     1       2.659  46.466  56.663  1.00  0.00     0.163 HD
ENDBRANCH   4   5
ENDBRANCH   3   4
ENDBRANCH   1   3
BRANCH   1  10
ATOM     10  C   UNL     1       4.335  44.921  51.886  1.00  0.00     0.226 A 
ATOM     11  N   UNL     1       5.327  45.831  51.913  1.00  0.00    -0.195 NA
ATOM     12  N   UNL     1       4.362  43.750  51.236  1.00  0.00    -0.193 NA
ATOM     13  C   UNL     1       6.467  45.613  51.210  1.00  0.00     0.147 A 
ATOM     14  C   UNL     1       5.493  43.566  50.540  1.00  0.00     0.165 A 
ATOM     15  C   UNL     1       6.568  44.430  50.476  1.00  0.00     0.082 A 
ATOM     16  N   UNL     1       5.820  42.498  49.749  1.00  0.00    -0.250 N 
ATOM     17  C   UNL     1       7.486  43.786  49.622  1.00  0.00     0.149 A 
ATOM     18  N   UNL     1       7.044  42.601  49.183  1.00  0.00    -0.179 NA
ATOM     19  C   UNL     1       5.010  41.337  49.480  1.00  0.00     0.176 C 
BRANCH  13  20
ATOM     20  N   UNL     1       7.453  46.613  51.268  1.00  0.00    -0.339 N 
ATOM     21  H   UNL     1       7.035  47.465  50.902  1.00  0.00     0.168 HD
BRANCH  20  22
ATOM     22  C   UNL     1       8.308  46.876  52.357  1.00  0.00     0.043 A 
ATOM     23  C   UNL     1       7.749  47.531  53.466  1.00  0.00     0.028 A 
ATOM     24  C   UNL     1       9.638  46.413  52.431  1.00  0.00    -0.026 A 
ATOM     25  C   UNL     1       8.510  47.800  54.604  1.00  0.00     0.022 A 
ATOM     26  C   UNL     1      10.401  46.705  53.577  1.00  0.00     0.026 A 
ATOM     27  C   UNL     1       9.838  47.393  54.651  1.00  0.00     0.041 A 
ATOM     28  C   UNL     1      10.290  45.638  51.319  1.00  0.00     0.046 C 
ATOM     29  Cl  UNL     1      10.787  47.727  56.046  1.00  0.00    -0.084 Cl
ENDBRANCH  20  22
ENDBRANCH  13  20
ENDBRANCH   1  10
TORSDOF 6
ENDMDL
MODEL 5
REMARK VINA RESULT:    -8.795      1.573      1.905
REMARK INTER + INTRA:         -13.255
REMARK INTER:                 -12.287
REMARK INTRA:                  -0.968
REMARK UNBOUND:                -1.375
REMARK SMILES CC(=O)NCCNc1nc(Nc2ccc(Cl)cc2C)c2cnn(C)c2n1
REMARK SMILES IDX 7 1 6 3 5 4 4 5 2 6 1 7 3 8 8 10 9 11 26 12 10 13 25 14
REMARK SMILES IDX 20 15 23 16 21 17 22 18 24 19 11 20 12 22 13 23 18 24 14 25
REMARK SMILES IDX 17 26 15 27 19 28 16 29
REMARK H PARENT 7 2 4 9 11 21
ROOT
ATOM      1  N   UNL     1       3.693  44.382  52.871  1.00  0.00    -0.352 N 
ATOM      2  H   UNL     1       3.696  43.487  53.347  1.00  0.00     0.163 HD
ENDROOT
BRANCH   1   3
ATOM      3  C   UNL     1       2.392  44.758  52.321  1.00  0.00     0.137 C 
BRANCH   3   4
ATOM      4  C   UNL     1       1.808  46.015  52.993  1.00  0.00     0.137 C 
BRANCH   4   5
ATOM      5  N   UNL     1       0.788  45.707  53.986  1.00  0.00    -0.355 N 
ATOM      6  C   UNL     1       1.127  45.358  55.272  1.00  0.00     0.216 C 
ATOM      7  C   UNL     1      -0.044  44.988  56.141  1.00  0.00     0.114 C 
ATOM      8  O   UNL     1       2.282  45.328  55.680  1.00  0.00    -0.275 OA
ATOM      9  H   UNL     1      -0.153  45.537  53.656  1.00  0.00     0.163 HD
ENDBRANCH   4   5
ENDBRANCH   3   4
ENDBRANCH   1   3
BRANCH   1  10
ATOM     10  C   UNL     1       4.758  44.383  51.985  1.00  0.00     0.226 A 
ATOM     11  N   UNL     1       5.580  45.443  52.099  1.00  0.00    -0.195 NA
ATOM     12  N   UNL     1       4.915  43.356  51.138  1.00  0.00    -0.193 NA
ATOM     13  C   UNL     1       6.661  45.555  51.287  1.00  0.00     0.147 A 
ATOM     14  C   UNL     1       5.982  43.498  50.339  1.00  0.00     0.165 A 
ATOM     15  C   UNL     1       6.883  44.544  50.350  1.00  0.00     0.082 A 
ATOM     16  N   UNL     1       6.400  42.651  49.350  1.00  0.00    -0.250 N 
ATOM     17  C   UNL     1       7.802  44.227  49.330  1.00  0.00     0.149 A 
ATOM     18  N   UNL     1       7.524  43.068  48.722  1.00  0.00    -0.179 NA
ATOM     19  C   UNL     1       5.775  41.419  48.940  1.00  0.00     0.176 C 
BRANCH  13  20
ATOM     20  N   UNL     1       7.464  46.697  51.447  1.00  0.00    -0.339 N 
ATOM     21  H   UNL     1       6.889  47.502  51.210  1.00  0.00     0.168 HD
BRANCH  20  22
ATOM     22  C   UNL     1       8.317  46.968  52.537  1.00  0.00     0.043 A 
ATOM     23  C   UNL     1       7.758  47.641  53.635  1.00  0.00     0.028 A 
ATOM     24  C   UNL     1       9.642  46.495  52.623  1.00  0.00    -0.026 A 
ATOM     25  C   UNL     1       8.516  47.919  54.773  1.00  0.00     0.022 A 
ATOM     26  C   UNL     1      10.403  46.795  53.768  1.00  0.00     0.026 A 
ATOM     27  C   UNL     1       9.841  47.502  54.830  1.00  0.00     0.041 A 
ATOM     28  C   UNL     1      10.292  45.700  51.524  1.00  0.00     0.046 C 
ATOM     29  Cl  UNL     1      10.786  47.847  56.225  1.00  0.00    -0.084 Cl
ENDBRANCH  20  22
ENDBRANCH  13  20
ENDBRANCH   1  10
TORSDOF 6
ENDMDL
MODEL 6
REMARK VINA RESULT:    -8.716      2.783      5.167
REMARK INTER + INTRA:         -13.148
REMARK INTER:                 -12.347
REMARK INTRA:                  -0.802
REMARK UNBOUND:                -1.375
REMARK SMILES CC(=O)NCCNc1nc(Nc2ccc(Cl)cc2C)c2cnn(C)c2n1
REMARK SMILES IDX 7 1 6 3 5 4 4 5 2 6 1 7 3 8 8 10 9 11 26 12 10 13 25 14
REMARK SMILES IDX 20 15 23 16 21 17 22 18 24 19 11 20 12 22 13 23 18 24 14 25
REMARK SMILES IDX 17 26 15 27 19 28 16 29
REMARK H PARENT 7 2 4 9 11 21
ROOT
ATOM      1  N   UNL     1       6.673  42.966  49.252  1.00  0.00    -0.352 N 
ATOM      2  H   UNL     1       6.417  43.325  48.339  1.00  0.00     0.163 HD
ENDROOT
BRANCH   1   3
ATOM      3  C   UNL     1       6.319  41.564  49.461  1.00  0.00     0.137 C 
BRANCH   3   4
ATOM      4  C   UNL     1       5.286  41.056  48.439  1.00  0.00     0.137 C 
BRANCH   4   5
ATOM      5  N   UNL     1       5.627  41.398  47.065  1.00  0.00    -0.355 N 
ATOM      6  C   UNL     1       4.737  41.196  46.037  1.00  0.00     0.216 C 
ATOM      7  C   UNL     1       5.284  41.521  44.674  1.00  0.00     0.114 C 
ATOM      8  O   UNL     1       3.600  40.769  46.204  1.00  0.00    -0.275 OA
ATOM      9  H   UNL     1       6.602  41.573  46.853  1.00  0.00     0.163 HD
ENDBRANCH   4   5
ENDBRANCH   3   4
ENDBRANCH   1   3
BRANCH   1  10
ATOM     10  C   UNL     1       6.206  43.866  50.196  1.00  0.00     0.226 A 
ATOM     11  N   UNL     1       7.005  44.930  50.399  1.00  0.00    -0.195 NA
ATOM     12  N   UNL     1       5.025  43.647  50.791  1.00  0.00    -0.193 NA
ATOM     13  C   UNL     1       6.653  45.882  51.299  1.00  0.00     0.147 A 
ATOM     14  C   UNL     1       4.708  44.595  51.684  1.00  0.00     0.165 A 
ATOM     15  C   UNL     1       5.451  45.718  51.990  1.00  0.00     0.082 A 
ATOM     16  N   UNL     1       3.596  44.651  52.479  1.00  0.00    -0.250 N 
ATOM     17  C   UNL     1       4.696  46.380  52.978  1.00  0.00     0.149 A 
ATOM     18  N   UNL     1       3.556  45.745  53.275  1.00  0.00    -0.179 NA
ATOM     19  C   UNL     1       2.522  43.692  52.538  1.00  0.00     0.176 C 
BRANCH  13  20
ATOM     20  N   UNL     1       7.543  46.955  51.475  1.00  0.00    -0.339 N 
ATOM     21  H   UNL     1       7.027  47.808  51.271  1.00  0.00     0.168 HD
BRANCH  20  22
ATOM     22  C   UNL     1       8.433  47.130  52.554  1.00  0.00     0.043 A 
ATOM     23  C   UNL     1       7.944  47.802  53.685  1.00  0.00     0.028 A 
ATOM     24  C   UNL     1       9.724  46.563  52.596  1.00  0.00    -0.026 A 
ATOM     25  C   UNL     1       8.741  47.988  54.815  1.00  0.00     0.022 A 
ATOM     26  C   UNL     1      10.525  46.771  53.735  1.00  0.00     0.026 A 
ATOM     27  C   UNL     1      10.034  47.479  54.831  1.00  0.00     0.041 A 
ATOM     28  C   UNL     1      10.296  45.763  51.459  1.00  0.00     0.046 C 
ATOM     29  Cl  UNL     1      11.028  47.709  56.216  1.00  0.00    -0.084 Cl
ENDBRANCH  20  22
ENDBRANCH  13  20
ENDBRANCH   1  10
TORSDOF 6
ENDMDL
MODEL 7
REMARK VINA RESULT:    -8.596      1.611      2.278
REMARK INTER + INTRA:         -12.986
REMARK INTER:                 -12.252
REMARK INTRA:                  -0.734
REMARK UNBOUND:                -1.375
REMARK SMILES CC(=O)NCCNc1nc(Nc2ccc(Cl)cc2C)c2cnn(C)c2n1
REMARK SMILES IDX 7 1 6 3 5 4 4 5 2 6 1 7 3 8 8 10 9 11 26 12 10 13 25 14
REMARK SMILES IDX 20 15 23 16 21 17 22 18 24 19 11 20 12 22 13 23 18 24 14 25
REMARK SMILES IDX 17 26 15 27 19 28 16 29
REMARK H PARENT 7 2 4 9 11 21
ROOT
ATOM      1  N   UNL     1       3.414  44.791  53.736  1.00  0.00    -0.352 N 
ATOM      2  H   UNL     1       2.899  43.948  53.960  1.00  0.00     0.163 HD
ENDROOT
BRANCH   1   3
ATOM      3  C   UNL     1       2.572  45.971  53.551  1.00  0.00     0.137 C 
BRANCH   3   4
ATOM      4  C   UNL     1       1.314  45.674  52.713  1.00  0.00     0.137 C 
BRANCH   4   5
ATOM      5  N   UNL     1       0.155  45.337  53.526  1.00  0.00    -0.355 N 
ATOM      6  C   UNL     1      -0.028  44.066  54.015  1.00  0.00     0.216 C 
ATOM      7  C   UNL     1      -1.321  43.870  54.760  1.00  0.00     0.114 C 
ATOM      8  O   UNL     1       0.778  43.157  53.849  1.00  0.00    -0.275 OA
ATOM      9  H   UNL     1      -0.619  45.989  53.533  1.00  0.00     0.163 HD
ENDBRANCH   4   5
ENDBRANCH   3   4
ENDBRANCH   1   3
BRANCH   1  10
ATOM     10  C   UNL     1       4.278  44.484  52.698  1.00  0.00     0.226 A 
ATOM     11  N   UNL     1       5.283  45.364  52.527  1.00  0.00    -0.195 NA
ATOM     12  N   UNL     1       4.088  43.362  51.989  1.00  0.00    -0.193 NA
ATOM     13  C   UNL     1       6.196  45.169  51.542  1.00  0.00     0.147 A 
ATOM     14  C   UNL     1       4.996  43.201  51.015  1.00  0.00     0.165 A 
ATOM     15  C   UNL     1       6.056  44.040  50.733  1.00  0.00     0.082 A 
ATOM     16  N   UNL     1       5.065  42.186  50.100  1.00  0.00    -0.250 N 
ATOM     17  C   UNL     1       6.697  43.438  49.632  1.00  0.00     0.149 A 
ATOM     18  N   UNL     1       6.108  42.300  49.246  1.00  0.00    -0.179 NA
ATOM     19  C   UNL     1       4.164  41.068  49.975  1.00  0.00     0.176 C 
BRANCH  13  20
ATOM     20  N   UNL     1       7.206  46.137  51.408  1.00  0.00    -0.339 N 
ATOM     21  H   UNL     1       6.796  46.930  50.919  1.00  0.00     0.168 HD
BRANCH  20  22
ATOM     22  C   UNL     1       8.101  46.551  52.416  1.00  0.00     0.043 A 
ATOM     23  C   UNL     1       7.545  47.135  53.566  1.00  0.00     0.028 A 
ATOM     24  C   UNL     1       9.487  46.299  52.375  1.00  0.00    -0.026 A 
ATOM     25  C   UNL     1       8.351  47.540  54.630  1.00  0.00     0.022 A 
ATOM     26  C   UNL     1      10.292  46.727  53.447  1.00  0.00     0.026 A 
ATOM     27  C   UNL     1       9.724  47.343  54.561  1.00  0.00     0.041 A 
ATOM     28  C   UNL     1      10.152  45.610  51.215  1.00  0.00     0.046 C 
ATOM     29  Cl  UNL     1      10.727  47.847  55.865  1.00  0.00    -0.084 Cl
ENDBRANCH  20  22
ENDBRANCH  13  20
ENDBRANCH   1  10
TORSDOF 6
ENDMDL
MODEL 8
REMARK VINA RESULT:    -8.518      2.432      5.641
REMARK INTER + INTRA:         -12.881
REMARK INTER:                 -12.251
REMARK INTRA:                  -0.630
REMARK UNBOUND:                -1.375
REMARK SMILES CC(=O)NCCNc1nc(Nc2ccc(Cl)cc2C)c2cnn(C)c2n1
REMARK SMILES IDX 7 1 6 3 5 4 4 5 2 6 1 7 3 8 8 10 9 11 26 12 10 13 25 14
REMARK SMILES IDX 20 15 23 16 21 17 22 18 24 19 11 20 12 22 13 23 18 24 14 25
REMARK SMILES IDX 17 26 15 27 19 28 16 29
REMARK H PARENT 7 2 4 9 11 21
ROOT
ATOM      1  N   UNL     1       4.484  45.475  55.774  1.00  0.00    -0.352 N 
ATOM      2  H   UNL     1       4.321  46.413  56.121  1.00  0.00     0.163 HD
ENDROOT
BRANCH   1   3
ATOM      3  C   UNL     1       5.773  45.303  55.107  1.00  0.00     0.137 C 
BRANCH   3   4
ATOM      4  C   UNL     1       6.370  46.637  54.621  1.00  0.00     0.137 C 
BRANCH   4   5
ATOM      5  N   UNL     1       7.618  46.470  53.890  1.00  0.00    -0.355 N 
ATOM      6  C   UNL     1       8.719  47.241  54.175  1.00  0.00     0.216 C 
ATOM      7  C   UNL     1       9.894  46.999  53.267  1.00  0.00     0.114 C 
ATOM      8  O   UNL     1       8.747  48.071  55.077  1.00  0.00    -0.275 OA
ATOM      9  H   UNL     1       7.589  45.941  53.028  1.00  0.00     0.163 HD
ENDBRANCH   4   5
ENDBRANCH   3   4
ENDBRANCH   1   3
BRANCH   1  10
ATOM     10  C   UNL     1       3.363  45.100  55.051  1.00  0.00     0.226 A 
ATOM     11  N   UNL     1       3.609  44.767  53.770  1.00  0.00    -0.195 NA
ATOM     12  N   UNL     1       2.168  45.060  55.657  1.00  0.00    -0.193 NA
ATOM     13  C   UNL     1       2.590  44.380  52.961  1.00  0.00     0.147 A 
ATOM     14  C   UNL     1       1.178  44.688  54.833  1.00  0.00     0.165 A 
ATOM     15  C   UNL     1       1.304  44.341  53.502  1.00  0.00     0.082 A 
ATOM     16  N   UNL     1      -0.153  44.578  55.127  1.00  0.00    -0.250 N 
ATOM     17  C   UNL     1      -0.010  44.039  53.093  1.00  0.00     0.149 A 
ATOM     18  N   UNL     1      -0.905  44.169  54.080  1.00  0.00    -0.179 NA
ATOM     19  C   UNL     1      -0.788  44.852  56.392  1.00  0.00     0.176 C 
BRANCH  13  20
ATOM     20  N   UNL     1       2.915  44.066  51.631  1.00  0.00    -0.339 N 
ATOM     21  H   UNL     1       2.262  44.571  51.037  1.00  0.00     0.168 HD
BRANCH  20  22
ATOM     22  C   UNL     1       4.211  44.038  51.076  1.00  0.00     0.043 A 
ATOM     23  C   UNL     1       4.892  45.262  50.976  1.00  0.00     0.028 A 
ATOM     24  C   UNL     1       4.886  42.847  50.738  1.00  0.00    -0.026 A 
ATOM     25  C   UNL     1       6.192  45.326  50.474  1.00  0.00     0.022 A 
ATOM     26  C   UNL     1       6.191  42.925  50.217  1.00  0.00     0.026 A 
ATOM     27  C   UNL     1       6.833  44.155  50.087  1.00  0.00     0.041 A 
ATOM     28  C   UNL     1       4.257  41.489  50.886  1.00  0.00     0.046 C 
ATOM     29  Cl  UNL     1       8.433  44.224  49.460  1.00  0.00    -0.084 Cl
ENDBRANCH  20  22
ENDBRANCH  13  20
ENDBRANCH   1  10
TORSDOF 6
ENDMDL
MODEL 9
REMARK VINA RESULT:    -8.351      2.202      4.930
REMARK INTER + INTRA:         -12.655
REMARK INTER:                 -11.462
REMARK INTRA:                  -1.193
REMARK UNBOUND:                -1.375
REMARK SMILES CC(=O)NCCNc1nc(Nc2ccc(Cl)cc2C)c2cnn(C)c2n1
REMARK SMILES IDX 7 1 6 3 5 4 4 5 2 6 1 7 3 8 8 10 9 11 26 12 10 13 25 14
REMARK SMILES IDX 20 15 23 16 21 17 22 18 24 19 11 20 12 22 13 23 18 24 14 25
REMARK SMILES IDX 17 26 15 27 19 28 16 29
REMARK H PARENT 7 2 4 9 11 21
ROOT
ATOM      1  N   UNL     1       4.241  41.533  51.212  1.00  0.00    -0.352 N 
ATOM      2  H   UNL     1       5.246  41.671  51.212  1.00  0.00     0.163 HD
ENDROOT
BRANCH   1   3
ATOM      3  C   UNL     1       3.707  41.055  49.939  1.00  0.00     0.137 C 
BRANCH   3   4
ATOM      4  C   UNL     1       4.789  40.941  48.849  1.00  0.00     0.137 C 
BRANCH   4   5
ATOM      5  N   UNL     1       5.666  42.101  48.793  1.00  0.00    -0.355 N 
ATOM      6  C   UNL     1       6.850  42.135  49.491  1.00  0.00     0.216 C 
ATOM      7  C   UNL     1       7.589  43.441  49.392  1.00  0.00     0.114 C 
ATOM      8  O   UNL     1       7.267  41.193  50.156  1.00  0.00    -0.275 OA
ATOM      9  H   UNL     1       5.285  42.961  48.418  1.00  0.00     0.163 HD
ENDBRANCH   4   5
ENDBRANCH   3   4
ENDBRANCH   1   3
BRANCH   1  10
ATOM     10  C   UNL     1       3.666  42.683  51.727  1.00  0.00     0.226 A 
ATOM     11  N   UNL     1       4.398  43.800  51.556  1.00  0.00    -0.195 NA
ATOM     12  N   UNL     1       2.457  42.618  52.301  1.00  0.00    -0.193 NA
ATOM     13  C   UNL     1       3.938  44.991  52.016  1.00  0.00     0.147 A 
ATOM     14  C   UNL     1       2.032  43.805  52.758  1.00  0.00     0.165 A 
ATOM     15  C   UNL     1       2.699  45.010  52.658  1.00  0.00     0.082 A 
ATOM     16  N   UNL     1       0.865  44.074  53.418  1.00  0.00    -0.250 N 
ATOM     17  C   UNL     1       1.845  45.937  53.288  1.00  0.00     0.149 A 
ATOM     18  N   UNL     1       0.717  45.378  53.745  1.00  0.00    -0.179 NA
ATOM     19  C   UNL     1      -0.165  43.132  53.779  1.00  0.00     0.176 C 
BRANCH  13  20
ATOM     20  N   UNL     1       4.763  46.112  51.822  1.00  0.00    -0.339 N 
ATOM     21  H   UNL     1       4.163  46.934  51.860  1.00  0.00     0.168 HD
BRANCH  20  22
ATOM     22  C   UNL     1       6.009  46.346  52.439  1.00  0.00     0.043 A 
ATOM     23  C   UNL     1       7.155  46.201  51.642  1.00  0.00     0.028 A 
ATOM     24  C   UNL     1       6.144  46.828  53.757  1.00  0.00    -0.026 A 
ATOM     25  C   UNL     1       8.428  46.448  52.157  1.00  0.00     0.022 A 
ATOM     26  C   UNL     1       7.434  47.058  54.272  1.00  0.00     0.026 A 
ATOM     27  C   UNL     1       8.562  46.868  53.475  1.00  0.00     0.041 A 
ATOM     28  C   UNL     1       4.963  47.083  54.653  1.00  0.00     0.046 C 
ATOM     29  Cl  UNL     1      10.127  47.167  54.122  1.00  0.00    -0.084 Cl
ENDBRANCH  20  22
ENDBRANCH  13  20
ENDBRANCH   1  10
TORSDOF 6
ENDMDL
MODEL 10
REMARK VINA RESULT:    -8.314      1.525      2.489
REMARK INTER + INTRA:         -12.606
REMARK INTER:                 -11.633
REMARK INTRA:                  -0.973
REMARK UNBOUND:                -1.375
REMARK SMILES CC(=O)NCCNc1nc(Nc2ccc(Cl)cc2C)c2cnn(C)c2n1
REMARK SMILES IDX 7 1 6 3 5 4 4 5 2 6 1 7 3 8 8 10 9 11 26 12 10 13 25 14
REMARK SMILES IDX 20 15 23 16 21 17 22 18 24 19 11 20 12 22 13 23 18 24 14 25
REMARK SMILES IDX 17 26 15 27 19 28 16 29
REMARK H PARENT 7 2 4 9 11 21
ROOT
ATOM      1  N   UNL     1       2.918  43.956  52.278  1.00  0.00    -0.352 N 
ATOM      2  H   UNL     1       2.697  42.968  52.314  1.00  0.00     0.163 HD
ENDROOT
BRANCH   1   3
ATOM      3  C   UNL     1       1.828  44.792  51.779  1.00  0.00     0.137 C 
BRANCH   3   4
ATOM      4  C   UNL     1       1.518  45.978  52.711  1.00  0.00     0.137 C 
BRANCH   4   5
ATOM      5  N   UNL     1       0.506  45.668  53.711  1.00  0.00    -0.355 N 
ATOM      6  C   UNL     1       0.845  45.108  54.920  1.00  0.00     0.216 C 
ATOM      7  C   UNL     1      -0.330  44.772  55.797  1.00  0.00     0.114 C 
ATOM      8  O   UNL     1       2.001  44.881  55.257  1.00  0.00    -0.275 OA
ATOM      9  H   UNL     1      -0.462  45.661  53.413  1.00  0.00     0.163 HD
ENDBRANCH   4   5
ENDBRANCH   3   4
ENDBRANCH   1   3
BRANCH   1  10
ATOM     10  C   UNL     1       4.136  44.085  51.631  1.00  0.00     0.226 A 
ATOM     11  N   UNL     1       4.807  45.216  51.919  1.00  0.00    -0.195 NA
ATOM     12  N   UNL     1       4.565  43.102  50.826  1.00  0.00    -0.193 NA
ATOM     13  C   UNL     1       6.014  45.454  51.348  1.00  0.00     0.147 A 
ATOM     14  C   UNL     1       5.753  43.368  50.265  1.00  0.00     0.165 A 
ATOM     15  C   UNL     1       6.523  44.496  50.469  1.00  0.00     0.082 A 
ATOM     16  N   UNL     1       6.447  42.593  49.378  1.00  0.00    -0.250 N 
ATOM     17  C   UNL     1       7.659  44.297  49.659  1.00  0.00     0.149 A 
ATOM     18  N   UNL     1       7.628  43.133  48.998  1.00  0.00    -0.179 NA
ATOM     19  C   UNL     1       6.045  41.318  48.839  1.00  0.00     0.176 C 
BRANCH  13  20
ATOM     20  N   UNL     1       6.649  46.663  51.678  1.00  0.00    -0.339 N 
ATOM     21  H   UNL     1       5.927  47.379  51.716  1.00  0.00     0.168 HD
BRANCH  20  22
ATOM     22  C   UNL     1       7.618  46.846  52.687  1.00  0.00     0.043 A 
ATOM     23  C   UNL     1       8.961  46.902  52.281  1.00  0.00     0.028 A 
ATOM     24  C   UNL     1       7.297  47.092  54.037  1.00  0.00    -0.026 A 
ATOM     25  C   UNL     1       9.985  47.118  53.205  1.00  0.00     0.022 A 
ATOM     26  C   UNL     1       8.338  47.292  54.962  1.00  0.00     0.026 A 
ATOM     27  C   UNL     1       9.668  47.303  54.545  1.00  0.00     0.041 A 
ATOM     28  C   UNL     1       5.880  47.126  54.541  1.00  0.00     0.046 C 
ATOM     29  Cl  UNL     1      10.924  47.561  55.692  1.00  0.00    -0.084 Cl
ENDBRANCH  20  22
ENDBRANCH  13  20
ENDBRANCH   1  10
TORSDOF 6
ENDMDL
MODEL 11
REMARK VINA RESULT:    -8.253      2.907      5.533
REMARK INTER + INTRA:         -12.523
REMARK INTER:                 -11.644
REMARK INTRA:                  -0.879
REMARK UNBOUND:                -1.375
REMARK SMILES CC(=O)NCCNc1nc(Nc2ccc(Cl)cc2C)c2cnn(C)c2n1
REMARK SMILES IDX 7 1 6 3 5 4 4 5 2 6 1 7 3 8 8 10 9 11 26 12 10 13 25 14
REMARK SMILES IDX 20 15 23 16 21 17 22 18 24 19 11 20 12 22 13 23 18 24 14 25
REMARK SMILES IDX 17 26 15 27 19 28 16 29
REMARK H PARENT 7 2 4 9 11 21
ROOT
ATOM      1  N   UNL     1       3.804  41.259  50.962  1.00  0.00    -0.352 N 
ATOM      2  H   UNL     1       4.163  40.718  51.741  1.00  0.00     0.163 HD
ENDROOT
BRANCH   1   3
ATOM      3  C   UNL     1       4.614  41.165  49.750  1.00  0.00     0.137 C 
BRANCH   3   4
ATOM      4  C   UNL     1       3.908  40.384  48.626  1.00  0.00     0.137 C 
BRANCH   4   5
ATOM      5  N   UNL     1       4.450  40.670  47.305  1.00  0.00    -0.355 N 
ATOM      6  C   UNL     1       3.639  40.719  46.196  1.00  0.00     0.216 C 
ATOM      7  C   UNL     1       4.374  40.939  44.902  1.00  0.00     0.114 C 
ATOM      8  O   UNL     1       2.422  40.578  46.244  1.00  0.00    -0.275 OA
ATOM      9  H   UNL     1       5.453  40.608  47.186  1.00  0.00     0.163 HD
ENDBRANCH   4   5
ENDBRANCH   3   4
ENDBRANCH   1   3
BRANCH   1  10
ATOM     10  C   UNL     1       3.544  42.537  51.431  1.00  0.00     0.226 A 
ATOM     11  N   UNL     1       4.374  43.485  50.958  1.00  0.00    -0.195 NA
ATOM     12  N   UNL     1       2.508  42.741  52.255  1.00  0.00    -0.193 NA
ATOM     13  C   UNL     1       4.219  44.777  51.344  1.00  0.00     0.147 A 
ATOM     14  C   UNL     1       2.385  44.022  52.630  1.00  0.00     0.165 A 
ATOM     15  C   UNL     1       3.182  45.076  52.229  1.00  0.00     0.082 A 
ATOM     16  N   UNL     1       1.458  44.554  53.485  1.00  0.00    -0.250 N 
ATOM     17  C   UNL     1       2.648  46.195  52.899  1.00  0.00     0.149 A 
ATOM     18  N   UNL     1       1.588  45.890  53.658  1.00  0.00    -0.179 NA
ATOM     19  C   UNL     1       0.413  43.848  54.181  1.00  0.00     0.176 C 
BRANCH  13  20
ATOM     20  N   UNL     1       5.133  45.711  50.828  1.00  0.00    -0.339 N 
ATOM     21  H   UNL     1       4.595  46.524  50.533  1.00  0.00     0.168 HD
BRANCH  20  22
ATOM     22  C   UNL     1       6.361  46.083  51.412  1.00  0.00     0.043 A 
ATOM     23  C   UNL     1       6.306  46.860  52.580  1.00  0.00     0.028 A 
ATOM     24  C   UNL     1       7.611  45.617  50.956  1.00  0.00    -0.026 A 
ATOM     25  C   UNL     1       7.470  47.243  53.248  1.00  0.00     0.022 A 
ATOM     26  C   UNL     1       8.780  46.023  51.627  1.00  0.00     0.026 A 
ATOM     27  C   UNL     1       8.704  46.830  52.762  1.00  0.00     0.041 A 
ATOM     28  C   UNL     1       7.754  44.719  49.758  1.00  0.00     0.046 C 
ATOM     29  Cl  UNL     1      10.145  47.304  53.573  1.00  0.00    -0.084 Cl
ENDBRANCH  20  22
ENDBRANCH  13  20
ENDBRANCH   1  10
TORSDOF 6
ENDMDL
MODEL 12
REMARK VINA RESULT:    -8.208      2.687      5.804
REMARK INTER + INTRA:         -12.463
REMARK INTER:                 -11.527
REMARK INTRA:                  -0.935
REMARK UNBOUND:                -1.375
REMARK SMILES CC(=O)NCCNc1nc(Nc2ccc(Cl)cc2C)c2cnn(C)c2n1
REMARK SMILES IDX 7 1 6 3 5 4 4 5 2 6 1 7 3 8 8 10 9 11 26 12 10 13 25 14
REMARK SMILES IDX 20 15 23 16 21 17 22 18 24 19 11 20 12 22 13 23 18 24 14 25
REMARK SMILES IDX 17 26 15 27 19 28 16 29
REMARK H PARENT 7 2 4 9 11 21
ROOT
ATOM      1  N   UNL     1       7.848  46.471  50.921  1.00  0.00    -0.352 N 
ATOM      2  H   UNL     1       8.177  46.440  49.963  1.00  0.00     0.163 HD
ENDROOT
BRANCH   1   3
ATOM      3  C   UNL     1       8.897  46.261  51.917  1.00  0.00     0.137 C 
BRANCH   3   4
ATOM      4  C   UNL     1       9.140  47.505  52.791  1.00  0.00     0.137 C 
BRANCH   4   5
ATOM      5  N   UNL     1      10.060  47.257  53.892  1.00  0.00    -0.355 N 
ATOM      6  C   UNL     1       9.854  47.811  55.133  1.00  0.00     0.216 C 
ATOM      7  C   UNL     1      10.946  47.523  56.127  1.00  0.00     0.114 C 
ATOM      8  O   UNL     1       8.877  48.497  55.411  1.00  0.00    -0.275 OA
ATOM      9  H   UNL     1      10.964  46.860  53.668  1.00  0.00     0.163 HD
ENDBRANCH   4   5
ENDBRANCH   3   4
ENDBRANCH   1   3
BRANCH   1  10
ATOM     10  C   UNL     1       6.743  45.640  51.007  1.00  0.00     0.226 A 
ATOM     11  N   UNL     1       5.634  46.232  51.487  1.00  0.00    -0.195 NA
ATOM     12  N   UNL     1       6.837  44.370  50.589  1.00  0.00    -0.193 NA
ATOM     13  C   UNL     1       4.486  45.520  51.616  1.00  0.00     0.147 A 
ATOM     14  C   UNL     1       5.694  43.686  50.739  1.00  0.00     0.165 A 
ATOM     15  C   UNL     1       4.502  44.177  51.234  1.00  0.00     0.082 A 
ATOM     16  N   UNL     1       5.465  42.370  50.443  1.00  0.00    -0.250 N 
ATOM     17  C   UNL     1       3.624  43.076  51.192  1.00  0.00     0.149 A 
ATOM     18  N   UNL     1       4.198  41.972  50.699  1.00  0.00    -0.179 NA
ATOM     19  C   UNL     1       6.413  41.423  49.913  1.00  0.00     0.176 C 
BRANCH  13  20
ATOM     20  N   UNL     1       3.372  46.195  52.143  1.00  0.00    -0.339 N 
ATOM     21  H   UNL     1       2.740  46.380  51.366  1.00  0.00     0.168 HD
BRANCH  20  22
ATOM     22  C   UNL     1       2.670  45.852  53.316  1.00  0.00     0.043 A 
ATOM     23  C   UNL     1       3.322  46.071  54.540  1.00  0.00     0.028 A 
ATOM     24  C   UNL     1       1.326  45.424  53.321  1.00  0.00    -0.026 A 
ATOM     25  C   UNL     1       2.690  45.797  55.754  1.00  0.00     0.022 A 
ATOM     26  C   UNL     1       0.705  45.134  54.550  1.00  0.00     0.026 A 
ATOM     27  C   UNL     1       1.385  45.320  55.753  1.00  0.00     0.041 A 
ATOM     28  C   UNL     1       0.530  45.237  52.059  1.00  0.00     0.046 C 
ATOM     29  Cl  UNL     1       0.601  44.971  57.243  1.00  0.00    -0.084 Cl
ENDBRANCH  20  22
ENDBRANCH  13  20
ENDBRANCH   1  10
TORSDOF 6
ENDMDL
MODEL 13
REMARK VINA RESULT:    -8.152      2.592      5.502
REMARK INTER + INTRA:         -12.387
REMARK INTER:                 -11.542
REMARK INTRA:                  -0.845
REMARK UNBOUND:                -1.375
REMARK SMILES CC(=O)NCCNc1nc(Nc2ccc(Cl)cc2C)c2cnn(C)c2n1
REMARK SMILES IDX 7 1 6 3 5 4 4 5 2 6 1 7 3 8 8 10 9 11 26 12 10 13 25 14
REMARK SMILES IDX 20 15 23 16 21 17 22 18 24 19 11 20 12 22 13 23 18 24 14 25
REMARK SMILES IDX 17 26 15 27 19 28 16 29
REMARK H PARENT 7 2 4 9 11 21
ROOT
ATOM      1  N   UNL     1       7.991  46.087  50.498  1.00  0.00    -0.352 N 
ATOM      2  H   UNL     1       8.342  45.822  49.585  1.00  0.00     0.163 HD
ENDROOT
BRANCH   1   3
ATOM      3  C   UNL     1       8.991  46.022  51.562  1.00  0.00     0.137 C 
BRANCH   3   4
ATOM      4  C   UNL     1       9.157  47.364  52.300  1.00  0.00     0.137 C 
BRANCH   4   5
ATOM      5  N   UNL     1      10.038  47.273  53.455  1.00  0.00    -0.355 N 
ATOM      6  C   UNL     1       9.591  47.577  54.719  1.00  0.00     0.216 C 
ATOM      7  C   UNL     1      10.654  47.516  55.782  1.00  0.00     0.114 C 
ATOM      8  O   UNL     1       8.433  47.891  54.967  1.00  0.00    -0.275 OA
ATOM      9  H   UNL     1      11.033  47.204  53.282  1.00  0.00     0.163 HD
ENDBRANCH   4   5
ENDBRANCH   3   4
ENDBRANCH   1   3
BRANCH   1  10
ATOM     10  C   UNL     1       6.819  45.381  50.712  1.00  0.00     0.226 A 
ATOM     11  N   UNL     1       5.831  46.096  51.283  1.00  0.00    -0.195 NA
ATOM     12  N   UNL     1       6.736  44.102  50.320  1.00  0.00    -0.193 NA
ATOM     13  C   UNL     1       4.633  45.513  51.542  1.00  0.00     0.147 A 
ATOM     14  C   UNL     1       5.548  43.548  50.598  1.00  0.00     0.165 A 
ATOM     15  C   UNL     1       4.469  44.171  51.195  1.00  0.00     0.082 A 
ATOM     16  N   UNL     1       5.153  42.259  50.360  1.00  0.00    -0.250 N 
ATOM     17  C   UNL     1       3.480  43.170  51.266  1.00  0.00     0.149 A 
ATOM     18  N   UNL     1       3.883  42.004  50.748  1.00  0.00    -0.179 NA
ATOM     19  C   UNL     1       5.938  41.208  49.764  1.00  0.00     0.176 C 
BRANCH  13  20
ATOM     20  N   UNL     1       3.655  46.312  52.157  1.00  0.00    -0.339 N 
ATOM     21  H   UNL     1       3.002  46.597  51.431  1.00  0.00     0.168 HD
BRANCH  20  22
ATOM     22  C   UNL     1       2.995  46.031  53.371  1.00  0.00     0.043 A 
ATOM     23  C   UNL     1       1.653  45.624  53.291  1.00  0.00     0.028 A 
ATOM     24  C   UNL     1       3.642  46.022  54.624  1.00  0.00    -0.026 A 
ATOM     25  C   UNL     1       0.931  45.290  54.437  1.00  0.00     0.022 A 
ATOM     26  C   UNL     1       2.899  45.699  55.775  1.00  0.00     0.026 A 
ATOM     27  C   UNL     1       1.557  45.338  55.677  1.00  0.00     0.041 A 
ATOM     28  C   UNL     1       5.096  46.371  54.788  1.00  0.00     0.046 C 
ATOM     29  Cl  UNL     1       0.673  44.935  57.097  1.00  0.00    -0.084 Cl
ENDBRANCH  20  22
ENDBRANCH  13  20
ENDBRANCH   1  10
TORSDOF 6
ENDMDL
MODEL 14
REMARK VINA RESULT:    -8.091      1.455      2.221
REMARK INTER + INTRA:         -12.304
REMARK INTER:                 -11.166
REMARK INTRA:                  -1.138
REMARK UNBOUND:                -1.375
REMARK SMILES CC(=O)NCCNc1nc(Nc2ccc(Cl)cc2C)c2cnn(C)c2n1
REMARK SMILES IDX 7 1 6 3 5 4 4 5 2 6 1 7 3 8 8 10 9 11 26 12 10 13 25 14
REMARK SMILES IDX 20 15 23 16 21 17 22 18 24 19 11 20 12 22 13 23 18 24 14 25
REMARK SMILES IDX 17 26 15 27 19 28 16 29
REMARK H PARENT 7 2 4 9 11 21
ROOT
ATOM      1  N   UNL     1       2.663  44.277  51.524  1.00  0.00    -0.352 N 
ATOM      2  H   UNL     1       2.510  45.064  52.143  1.00  0.00     0.163 HD
ENDROOT
BRANCH   1   3
ATOM      3  C   UNL     1       2.184  43.002  52.053  1.00  0.00     0.137 C 
BRANCH   3   4
ATOM      4  C   UNL     1       1.202  43.180  53.226  1.00  0.00     0.137 C 
BRANCH   4   5
ATOM      5  N   UNL     1       1.819  43.784  54.399  1.00  0.00    -0.355 N 
ATOM      6  C   UNL     1       1.909  45.149  54.535  1.00  0.00     0.216 C 
ATOM      7  C   UNL     1       2.652  45.600  55.762  1.00  0.00     0.114 C 
ATOM      8  O   UNL     1       1.443  45.939  53.721  1.00  0.00    -0.275 OA
ATOM      9  H   UNL     1       2.376  43.186  54.996  1.00  0.00     0.163 HD
ENDBRANCH   4   5
ENDBRANCH   3   4
ENDBRANCH   1   3
BRANCH   1  10
ATOM     10  C   UNL     1       3.989  44.317  51.123  1.00  0.00     0.226 A 
ATOM     11  N   UNL     1       4.652  45.428  51.494  1.00  0.00    -0.195 NA
ATOM     12  N   UNL     1       4.510  43.278  50.455  1.00  0.00    -0.193 NA
ATOM     13  C   UNL     1       5.958  45.582  51.161  1.00  0.00     0.147 A 
ATOM     14  C   UNL     1       5.797  43.462  50.128  1.00  0.00     0.165 A 
ATOM     15  C   UNL     1       6.574  44.561  50.436  1.00  0.00     0.082 A 
ATOM     16  N   UNL     1       6.606  42.614  49.423  1.00  0.00    -0.250 N 
ATOM     17  C   UNL     1       7.832  44.271  49.871  1.00  0.00     0.149 A 
ATOM     18  N   UNL     1       7.865  43.080  49.261  1.00  0.00    -0.179 NA
ATOM     19  C   UNL     1       6.246  41.335  48.864  1.00  0.00     0.176 C 
BRANCH  13  20
ATOM     20  N   UNL     1       6.583  46.775  51.564  1.00  0.00    -0.339 N 
ATOM     21  H   UNL     1       5.853  47.479  51.652  1.00  0.00     0.168 HD
BRANCH  20  22
ATOM     22  C   UNL     1       7.557  46.904  52.575  1.00  0.00     0.043 A 
ATOM     23  C   UNL     1       8.895  47.019  52.164  1.00  0.00     0.028 A 
ATOM     24  C   UNL     1       7.244  47.043  53.942  1.00  0.00    -0.026 A 
ATOM     25  C   UNL     1       9.923  47.188  53.092  1.00  0.00     0.022 A 
ATOM     26  C   UNL     1       8.290  47.197  54.871  1.00  0.00     0.026 A 
ATOM     27  C   UNL     1       9.616  47.267  54.445  1.00  0.00     0.041 A 
ATOM     28  C   UNL     1       5.832  47.009  54.459  1.00  0.00     0.046 C 
ATOM     29  Cl  UNL     1      10.876  47.467  55.598  1.00  0.00    -0.084 Cl
ENDBRANCH  20  22
ENDBRANCH  13  20
ENDBRANCH   1  10
TORSDOF 6
ENDMDL
MODEL 15
REMARK VINA RESULT:    -8.081      2.068      2.714
REMARK INTER + INTRA:         -12.291
REMARK INTER:                 -11.496
REMARK INTRA:                  -0.796
REMARK UNBOUND:                -1.375
REMARK SMILES CC(=O)NCCNc1nc(Nc2ccc(Cl)cc2C)c2cnn(C)c2n1
REMARK SMILES IDX 7 1 6 3 5 4 4 5 2 6 1 7 3 8 8 10 9 11 26 12 10 13 25 14
REMARK SMILES IDX 20 15 23 16 21 17 22 18 24 19 11 20 12 22 13 23 18 24 14 25
REMARK SMILES IDX 17 26 15 27 19 28 16 29
REMARK H PARENT 7 2 4 9 11 21
ROOT
ATOM      1  N   UNL     1       3.740  45.437  52.241  1.00  0.00    -0.352 N 
ATOM      2  H   UNL     1       3.673  44.701  52.935  1.00  0.00     0.163 HD
ENDROOT
BRANCH   1   3
ATOM      3  C   UNL     1       2.549  45.576  51.406  1.00  0.00     0.137 C 
BRANCH   3   4
ATOM      4  C   UNL     1       1.585  44.384  51.547  1.00  0.00     0.137 C 
BRANCH   4   5
ATOM      5  N   UNL     1       2.000  43.221  50.775  1.00  0.00    -0.355 N 
ATOM      6  C   UNL     1       2.798  42.247  51.327  1.00  0.00     0.216 C 
ATOM      7  C   UNL     1       3.204  41.163  50.366  1.00  0.00     0.114 C 
ATOM      8  O   UNL     1       3.169  42.260  52.495  1.00  0.00    -0.275 OA
ATOM      9  H   UNL     1       1.880  43.257  49.771  1.00  0.00     0.163 HD
ENDBRANCH   4   5
ENDBRANCH   3   4
ENDBRANCH   1   3
BRANCH   1  10
ATOM     10  C   UNL     1       4.943  45.270  51.574  1.00  0.00     0.226 A 
ATOM     11  N   UNL     1       5.857  46.226  51.822  1.00  0.00    -0.195 NA
ATOM     12  N   UNL     1       5.121  44.197  50.791  1.00  0.00    -0.193 NA
ATOM     13  C   UNL     1       7.076  46.170  51.228  1.00  0.00     0.147 A 
ATOM     14  C   UNL     1       6.328  44.173  50.207  1.00  0.00     0.165 A 
ATOM     15  C   UNL     1       7.338  45.101  50.369  1.00  0.00     0.082 A 
ATOM     16  N   UNL     1       6.811  43.240  49.331  1.00  0.00    -0.250 N 
ATOM     17  C   UNL     1       8.382  44.630  49.549  1.00  0.00     0.149 A 
ATOM     18  N   UNL     1       8.076  43.489  48.921  1.00  0.00    -0.179 NA
ATOM     19  C   UNL     1       6.120  42.077  48.833  1.00  0.00     0.176 C 
BRANCH  13  20
ATOM     20  N   UNL     1       7.975  47.211  51.517  1.00  0.00    -0.339 N 
ATOM     21  H   UNL     1       7.505  48.084  51.284  1.00  0.00     0.168 HD
BRANCH  20  22
ATOM     22  C   UNL     1       8.758  47.335  52.682  1.00  0.00     0.043 A 
ATOM     23  C   UNL     1       8.199  48.042  53.758  1.00  0.00     0.028 A 
ATOM     24  C   UNL     1      10.000  46.689  52.856  1.00  0.00    -0.026 A 
ATOM     25  C   UNL     1       8.885  48.184  54.964  1.00  0.00     0.022 A 
ATOM     26  C   UNL     1      10.691  46.852  54.071  1.00  0.00     0.026 A 
ATOM     27  C   UNL     1      10.135  47.594  55.112  1.00  0.00     0.041 A 
ATOM     28  C   UNL     1      10.634  45.849  51.782  1.00  0.00     0.046 C 
ATOM     29  Cl  UNL     1      10.993  47.769  56.592  1.00  0.00    -0.084 Cl
ENDBRANCH  20  22
ENDBRANCH  13  20
ENDBRANCH   1  10
TORSDOF 6
ENDMDL
MODEL 16
REMARK VINA RESULT:    -8.042      2.933      5.553
REMARK INTER + INTRA:         -12.238
REMARK INTER:                 -11.420
REMARK INTRA:                  -0.818
REMARK UNBOUND:                -1.375
REMARK SMILES CC(=O)NCCNc1nc(Nc2ccc(Cl)cc2C)c2cnn(C)c2n1
REMARK SMILES IDX 7 1 6 3 5 4 4 5 2 6 1 7 3 8 8 10 9 11 26 12 10 13 25 14
REMARK SMILES IDX 20 15 23 16 21 17 22 18 24 19 11 20 12 22 13 23 18 24 14 25
REMARK SMILES IDX 17 26 15 27 19 28 16 29
REMARK H PARENT 7 2 4 9 11 21
ROOT
ATOM      1  N   UNL     1       5.344  41.857  50.553  1.00  0.00    -0.352 N 
ATOM      2  H   UNL     1       5.941  41.600  51.331  1.00  0.00     0.163 HD
ENDROOT
BRANCH   1   3
ATOM      3  C   UNL     1       6.043  41.953  49.273  1.00  0.00     0.137 C 
BRANCH   3   4
ATOM      4  C   UNL     1       5.366  41.123  48.166  1.00  0.00     0.137 C 
BRANCH   4   5
ATOM      5  N   UNL     1       5.702  41.580  46.825  1.00  0.00    -0.355 N 
ATOM      6  C   UNL     1       4.818  41.442  45.782  1.00  0.00     0.216 C 
ATOM      7  C   UNL     1       5.358  41.886  44.450  1.00  0.00     0.114 C 
ATOM      8  O   UNL     1       3.689  40.980  45.912  1.00  0.00    -0.275 OA
ATOM      9  H   UNL     1       6.673  41.791  46.631  1.00  0.00     0.163 HD
ENDBRANCH   4   5
ENDBRANCH   3   4
ENDBRANCH   1   3
BRANCH   1  10
ATOM     10  C   UNL     1       4.616  42.970  50.941  1.00  0.00     0.226 A 
ATOM     11  N   UNL     1       5.331  44.108  51.016  1.00  0.00    -0.195 NA
ATOM     12  N   UNL     1       3.300  42.853  51.168  1.00  0.00    -0.193 NA
ATOM     13  C   UNL     1       4.727  45.266  51.384  1.00  0.00     0.147 A 
ATOM     14  C   UNL     1       2.731  44.008  51.542  1.00  0.00     0.165 A 
ATOM     15  C   UNL     1       3.361  45.230  51.671  1.00  0.00     0.082 A 
ATOM     16  N   UNL     1       1.422  44.222  51.876  1.00  0.00    -0.250 N 
ATOM     17  C   UNL     1       2.341  46.108  52.087  1.00  0.00     0.149 A 
ATOM     18  N   UNL     1       1.151  45.506  52.203  1.00  0.00    -0.179 NA
ATOM     19  C   UNL     1       0.364  43.243  51.911  1.00  0.00     0.176 C 
BRANCH  13  20
ATOM     20  N   UNL     1       5.537  46.411  51.462  1.00  0.00    -0.339 N 
ATOM     21  H   UNL     1       4.915  47.217  51.474  1.00  0.00     0.168 HD
BRANCH  20  22
ATOM     22  C   UNL     1       6.641  46.593  52.319  1.00  0.00     0.043 A 
ATOM     23  C   UNL     1       7.919  46.524  51.741  1.00  0.00     0.028 A 
ATOM     24  C   UNL     1       6.520  46.955  53.677  1.00  0.00    -0.026 A 
ATOM     25  C   UNL     1       9.069  46.728  52.505  1.00  0.00     0.022 A 
ATOM     26  C   UNL     1       7.687  47.142  54.441  1.00  0.00     0.026 A 
ATOM     27  C   UNL     1       8.947  47.028  53.856  1.00  0.00     0.041 A 
ATOM     28  C   UNL     1       5.188  47.125  54.355  1.00  0.00     0.046 C 
ATOM     29  Cl  UNL     1      10.358  47.274  54.808  1.00  0.00    -0.084 Cl
ENDBRANCH  20  22
ENDBRANCH  13  20
ENDBRANCH   1  10
TORSDOF 6
ENDMDL
MODEL 17
REMARK VINA RESULT:    -7.937      3.669      6.951
REMARK INTER + INTRA:         -12.096
REMARK INTER:                 -11.361
REMARK INTRA:                  -0.735
REMARK UNBOUND:                -1.375
REMARK SMILES CC(=O)NCCNc1nc(Nc2ccc(Cl)cc2C)c2cnn(C)c2n1
REMARK SMILES IDX 7 1 6 3 5 4 4 5 2 6 1 7 3 8 8 10 9 11 26 12 10 13 25 14
REMARK SMILES IDX 20 15 23 16 21 17 22 18 24 19 11 20 12 22 13 23 18 24 14 25
REMARK SMILES IDX 17 26 15 27 19 28 16 29
REMARK H PARENT 7 2 4 9 11 21
ROOT
ATOM      1  N   UNL     1       7.650  46.067  50.551  1.00  0.00    -0.352 N 
ATOM      2  H   UNL     1       7.905  45.961  49.576  1.00  0.00     0.163 HD
ENDROOT
BRANCH   1   3
ATOM      3  C   UNL     1       8.787  46.047  51.468  1.00  0.00     0.137 C 
BRANCH   3   4
ATOM      4  C   UNL     1       8.949  47.371  52.238  1.00  0.00     0.137 C 
BRANCH   4   5
ATOM      5  N   UNL     1       9.878  47.270  53.355  1.00  0.00    -0.355 N 
ATOM      6  C   UNL     1       9.475  47.532  54.643  1.00  0.00     0.216 C 
ATOM      7  C   UNL     1      10.580  47.467  55.662  1.00  0.00     0.114 C 
ATOM      8  O   UNL     1       8.320  47.814  54.945  1.00  0.00    -0.275 OA
ATOM      9  H   UNL     1      10.866  47.227  53.142  1.00  0.00     0.163 HD
ENDBRANCH   4   5
ENDBRANCH   3   4
ENDBRANCH   1   3
BRANCH   1  10
ATOM     10  C   UNL     1       6.632  45.165  50.814  1.00  0.00     0.226 A 
ATOM     11  N   UNL     1       6.733  43.999  50.148  1.00  0.00    -0.195 NA
ATOM     12  N   UNL     1       5.679  45.482  51.701  1.00  0.00    -0.193 NA
ATOM     13  C   UNL     1       5.796  43.034  50.323  1.00  0.00     0.147 A 
ATOM     14  C   UNL     1       4.760  44.517  51.846  1.00  0.00     0.165 A 
ATOM     15  C   UNL     1       4.747  43.293  51.208  1.00  0.00     0.082 A 
ATOM     16  N   UNL     1       3.649  44.538  52.643  1.00  0.00    -0.250 N 
ATOM     17  C   UNL     1       3.587  42.656  51.693  1.00  0.00     0.149 A 
ATOM     18  N   UNL     1       2.916  43.403  52.579  1.00  0.00    -0.179 NA
ATOM     19  C   UNL     1       3.214  45.615  53.498  1.00  0.00     0.176 C 
BRANCH  13  20
ATOM     20  N   UNL     1       5.951  41.850  49.582  1.00  0.00    -0.339 N 
ATOM     21  H   UNL     1       5.911  41.077  50.242  1.00  0.00     0.168 HD
BRANCH  20  22
ATOM     22  C   UNL     1       5.303  41.536  48.370  1.00  0.00     0.043 A 
ATOM     23  C   UNL     1       5.920  41.965  47.184  1.00  0.00     0.028 A 
ATOM     24  C   UNL     1       4.154  40.723  48.292  1.00  0.00    -0.026 A 
ATOM     25  C   UNL     1       5.370  41.668  45.936  1.00  0.00     0.022 A 
ATOM     26  C   UNL     1       3.599  40.443  47.029  1.00  0.00     0.026 A 
ATOM     27  C   UNL     1       4.205  40.914  45.865  1.00  0.00     0.041 A 
ATOM     28  C   UNL     1       3.475  40.159  49.509  1.00  0.00     0.046 C 
ATOM     29  Cl  UNL     1       3.515  40.549  44.332  1.00  0.00    -0.084 Cl
ENDBRANCH  20  22
ENDBRANCH  13  20
ENDBRANCH   1  10
TORSDOF 6
ENDMDL
MODEL 18
REMARK VINA RESULT:    -7.851      3.093      6.195
REMARK INTER + INTRA:         -11.980
REMARK INTER:                 -10.726
REMARK INTRA:                  -1.254
REMARK UNBOUND:                -1.375
REMARK SMILES CC(=O)NCCNc1nc(Nc2ccc(Cl)cc2C)c2cnn(C)c2n1
REMARK SMILES IDX 7 1 6 3 5 4 4 5 2 6 1 7 3 8 8 10 9 11 26 12 10 13 25 14
REMARK SMILES IDX 20 15 23 16 21 17 22 18 24 19 11 20 12 22 13 23 18 24 14 25
REMARK SMILES IDX 17 26 15 27 19 28 16 29
REMARK H PARENT 7 2 4 9 11 21
ROOT
ATOM      1  N   UNL     1       6.162  44.050  49.517  1.00  0.00    -0.352 N 
ATOM      2  H   UNL     1       5.150  44.015  49.541  1.00  0.00     0.163 HD
ENDROOT
BRANCH   1   3
ATOM      3  C   UNL     1       6.804  42.738  49.568  1.00  0.00     0.137 C 
BRANCH   3   4
ATOM      4  C   UNL     1       5.879  41.650  50.146  1.00  0.00     0.137 C 
BRANCH   4   5
ATOM      5  N   UNL     1       4.763  42.195  50.905  1.00  0.00    -0.355 N 
ATOM      6  C   UNL     1       3.465  41.847  50.614  1.00  0.00     0.216 C 
ATOM      7  C   UNL     1       2.432  42.569  51.436  1.00  0.00     0.114 C 
ATOM      8  O   UNL     1       3.163  41.033  49.749  1.00  0.00    -0.275 OA
ATOM      9  H   UNL     1       4.943  43.000  51.492  1.00  0.00     0.163 HD
ENDBRANCH   4   5
ENDBRANCH   3   4
ENDBRANCH   1   3
BRANCH   1  10
ATOM     10  C   UNL     1       6.568  44.970  50.470  1.00  0.00     0.226 A 
ATOM     11  N   UNL     1       5.561  45.570  51.132  1.00  0.00    -0.195 NA
ATOM     12  N   UNL     1       7.876  45.165  50.687  1.00  0.00    -0.193 NA
ATOM     13  C   UNL     1       5.833  46.490  52.092  1.00  0.00     0.147 A 
ATOM     14  C   UNL     1       8.116  46.086  51.630  1.00  0.00     0.165 A 
ATOM     15  C   UNL     1       7.171  46.779  52.362  1.00  0.00     0.082 A 
ATOM     16  N   UNL     1       9.333  46.538  52.063  1.00  0.00    -0.250 N 
ATOM     17  C   UNL     1       7.926  47.619  53.205  1.00  0.00     0.149 A 
ATOM     18  N   UNL     1       9.246  47.470  53.039  1.00  0.00    -0.179 NA
ATOM     19  C   UNL     1      10.630  46.127  51.588  1.00  0.00     0.176 C 
BRANCH  13  20
ATOM     20  N   UNL     1       4.734  47.091  52.729  1.00  0.00    -0.339 N 
ATOM     21  H   UNL     1       4.489  47.916  52.185  1.00  0.00     0.168 HD
BRANCH  20  22
ATOM     22  C   UNL     1       3.589  46.428  53.215  1.00  0.00     0.043 A 
ATOM     23  C   UNL     1       2.431  46.483  52.422  1.00  0.00     0.028 A 
ATOM     24  C   UNL     1       3.589  45.628  54.376  1.00  0.00    -0.026 A 
ATOM     25  C   UNL     1       1.262  45.826  52.805  1.00  0.00     0.022 A 
ATOM     26  C   UNL     1       2.399  44.982  54.761  1.00  0.00     0.026 A 
ATOM     27  C   UNL     1       1.249  45.084  53.981  1.00  0.00     0.041 A 
ATOM     28  C   UNL     1       4.807  45.453  55.240  1.00  0.00     0.046 C 
ATOM     29  Cl  UNL     1      -0.190  44.276  54.466  1.00  0.00    -0.084 Cl
ENDBRANCH  20  22
ENDBRANCH  13  20
ENDBRANCH   1  10
TORSDOF 6
ENDMDL
MODEL 19
REMARK VINA RESULT:    -7.829      2.432      4.891
REMARK INTER + INTRA:         -11.951
REMARK INTER:                 -10.808
REMARK INTRA:                  -1.142
REMARK UNBOUND:                -1.375
REMARK SMILES CC(=O)NCCNc1nc(Nc2ccc(Cl)cc2C)c2cnn(C)c2n1
REMARK SMILES IDX 7 1 6 3 5 4 4 5 2 6 1 7 3 8 8 10 9 11 26 12 10 13 25 14
REMARK SMILES IDX 20 15 23 16 21 17 22 18 24 19 11 20 12 22 13 23 18 24 14 25
REMARK SMILES IDX 17 26 15 27 19 28 16 29
REMARK H PARENT 7 2 4 9 11 21
ROOT
ATOM      1  N   UNL     1       4.177  41.678  51.491  1.00  0.00    -0.352 N 
ATOM      2  H   UNL     1       4.985  41.760  52.098  1.00  0.00     0.163 HD
ENDROOT
BRANCH   1   3
ATOM      3  C   UNL     1       4.508  41.465  50.084  1.00  0.00     0.137 C 
BRANCH   3   4
ATOM      4  C   UNL     1       5.966  41.836  49.757  1.00  0.00     0.137 C 
BRANCH   4   5
ATOM      5  N   UNL     1       6.259  43.245  49.977  1.00  0.00    -0.355 N 
ATOM      6  C   UNL     1       7.495  43.771  49.685  1.00  0.00     0.216 C 
ATOM      7  C   UNL     1       7.653  45.221  50.055  1.00  0.00     0.114 C 
ATOM      8  O   UNL     1       8.404  43.119  49.182  1.00  0.00    -0.275 OA
ATOM      9  H   UNL     1       5.617  43.773  50.554  1.00  0.00     0.163 HD
ENDBRANCH   4   5
ENDBRANCH   3   4
ENDBRANCH   1   3
BRANCH   1  10
ATOM     10  C   UNL     1       3.341  42.747  51.771  1.00  0.00     0.226 A 
ATOM     11  N   UNL     1       3.920  43.744  52.466  1.00  0.00    -0.195 NA
ATOM     12  N   UNL     1       2.079  42.735  51.320  1.00  0.00    -0.193 NA
ATOM     13  C   UNL     1       3.202  44.846  52.799  1.00  0.00     0.147 A 
ATOM     14  C   UNL     1       1.389  43.829  51.673  1.00  0.00     0.165 A 
ATOM     15  C   UNL     1       1.867  44.904  52.396  1.00  0.00     0.082 A 
ATOM     16  N   UNL     1       0.078  44.110  51.402  1.00  0.00    -0.250 N 
ATOM     17  C   UNL     1       0.764  45.774  52.502  1.00  0.00     0.149 A 
ATOM     18  N   UNL     1      -0.329  45.305  51.888  1.00  0.00    -0.179 NA
ATOM     19  C   UNL     1      -0.857  43.282  50.683  1.00  0.00     0.176 C 
BRANCH  13  20
ATOM     20  N   UNL     1       3.864  45.839  53.541  1.00  0.00    -0.339 N 
ATOM     21  H   UNL     1       3.532  45.765  54.500  1.00  0.00     0.168 HD
BRANCH  20  22
ATOM     22  C   UNL     1       5.241  46.139  53.488  1.00  0.00     0.043 A 
ATOM     23  C   UNL     1       5.645  47.131  52.580  1.00  0.00     0.028 A 
ATOM     24  C   UNL     1       6.191  45.588  54.371  1.00  0.00    -0.026 A 
ATOM     25  C   UNL     1       6.981  47.521  52.485  1.00  0.00     0.022 A 
ATOM     26  C   UNL     1       7.539  45.976  54.255  1.00  0.00     0.026 A 
ATOM     27  C   UNL     1       7.925  46.933  53.318  1.00  0.00     0.041 A 
ATOM     28  C   UNL     1       5.829  44.576  55.424  1.00  0.00     0.046 C 
ATOM     29  Cl  UNL     1       9.577  47.400  53.203  1.00  0.00    -0.084 Cl
ENDBRANCH  20  22
ENDBRANCH  13  20
ENDBRANCH   1  10
TORSDOF 6
ENDMDL
MODEL 20
REMARK VINA RESULT:    -7.816      3.493      6.603
REMARK INTER + INTRA:         -11.933
REMARK INTER:                 -11.027
REMARK INTRA:                  -0.906
REMARK UNBOUND:                -1.375
REMARK SMILES CC(=O)NCCNc1nc(Nc2ccc(Cl)cc2C)c2cnn(C)c2n1
REMARK SMILES IDX 7 1 6 3 5 4 4 5 2 6 1 7 3 8 8 10 9 11 26 12 10 13 25 14
REMARK SMILES IDX 20 15 23 16 21 17 22 18 24 19 11 20 12 22 13 23 18 24 14 25
REMARK SMILES IDX 17 26 15 27 19 28 16 29
REMARK H PARENT 7 2 4 9 11 21
ROOT
ATOM      1  N   UNL     1       5.591  46.577  52.596  1.00  0.00    -0.352 N 
ATOM      2  H   UNL     1       6.294  46.980  51.989  1.00  0.00     0.163 HD
ENDROOT
BRANCH   1   3
ATOM      3  C   UNL     1       5.896  46.694  54.020  1.00  0.00     0.137 C 
BRANCH   3   4
ATOM      4  C   UNL     1       7.403  46.862  54.290  1.00  0.00     0.137 C 
BRANCH   4   5
ATOM      5  N   UNL     1       8.232  46.463  53.161  1.00  0.00    -0.355 N 
ATOM      6  C   UNL     1       9.586  46.701  53.151  1.00  0.00     0.216 C 
ATOM      7  C   UNL     1      10.274  46.304  51.873  1.00  0.00     0.114 C 
ATOM      8  O   UNL     1      10.188  47.211  54.089  1.00  0.00    -0.275 OA
ATOM      9  H   UNL     1       7.763  46.215  52.299  1.00  0.00     0.163 HD
ENDBRANCH   4   5
ENDBRANCH   3   4
ENDBRANCH   1   3
BRANCH   1  10
ATOM     10  C   UNL     1       5.323  45.301  52.128  1.00  0.00     0.226 A 
ATOM     11  N   UNL     1       4.313  44.673  52.760  1.00  0.00    -0.195 NA
ATOM     12  N   UNL     1       6.029  44.811  51.099  1.00  0.00    -0.193 NA
ATOM     13  C   UNL     1       3.955  43.418  52.389  1.00  0.00     0.147 A 
ATOM     14  C   UNL     1       5.664  43.566  50.762  1.00  0.00     0.165 A 
ATOM     15  C   UNL     1       4.660  42.818  51.345  1.00  0.00     0.082 A 
ATOM     16  N   UNL     1       6.203  42.776  49.784  1.00  0.00    -0.250 N 
ATOM     17  C   UNL     1       4.680  41.596  50.642  1.00  0.00     0.149 A 
ATOM     18  N   UNL     1       5.609  41.565  49.680  1.00  0.00    -0.179 NA
ATOM     19  C   UNL     1       7.296  43.108  48.905  1.00  0.00     0.176 C 
BRANCH  13  20
ATOM     20  N   UNL     1       2.906  42.816  53.105  1.00  0.00    -0.339 N 
ATOM     21  H   UNL     1       3.236  42.676  54.057  1.00  0.00     0.168 HD
BRANCH  20  22
ATOM     22  C   UNL     1       1.550  43.200  53.074  1.00  0.00     0.043 A 
ATOM     23  C   UNL     1       0.750  42.645  52.062  1.00  0.00     0.028 A 
ATOM     24  C   UNL     1       0.947  44.001  54.065  1.00  0.00    -0.026 A 
ATOM     25  C   UNL     1      -0.611  42.938  51.976  1.00  0.00     0.022 A 
ATOM     26  C   UNL     1      -0.424  44.304  53.959  1.00  0.00     0.026 A 
ATOM     27  C   UNL     1      -1.191  43.776  52.922  1.00  0.00     0.041 A 
ATOM     28  C   UNL     1       1.715  44.573  55.225  1.00  0.00     0.046 C 
ATOM     29  Cl  UNL     1      -2.867  44.150  52.820  1.00  0.00    -0.084 Cl
ENDBRANCH  20  22
ENDBRANCH  13  20
ENDBRANCH   1  10
TORSDOF 6
ENDMDL
