MODEL 1
REMARK VINA RESULT:    -8.573      0.000      0.000
REMARK INTER + INTRA:         -13.786
REMARK INTER:                 -12.834
REMARK INTRA:                  -0.952
REMARK UNBOUND:                -0.952
REMARK SMILES OCCCNc1nc(NCCc2cccs2)nc2ccccc12
REMARK SMILES IDX 5 1 4 3 3 4 2 5 1 6 6 8 7 9 23 10 8 11 22 12 18 13 17 14
REMARK SMILES IDX 21 15 19 16 20 17 9 18 10 20 11 21 12 22 13 23 16 24 14 25
REMARK SMILES IDX 15 26
REMARK H PARENT 5 2 1 7 9 19
ROOT
ATOM      1  N   UNL     1       6.843  45.289  50.380  1.00  0.00    -0.369 N 
ATOM      2  H   UNL     1       6.647  45.895  49.587  1.00  0.00     0.162 HD
ENDROOT
BRANCH   1   3
ATOM      3  C   UNL     1       6.051  44.058  50.306  1.00  0.00     0.117 C 
BRANCH   3   4
ATOM      4  C   UNL     1       6.734  43.024  49.407  1.00  0.00     0.049 C 
BRANCH   4   5
ATOM      5  C   UNL     1       6.263  41.613  49.725  1.00  0.00     0.158 C 
BRANCH   5   6
ATOM      6  O   UNL     1       7.358  40.791  50.107  1.00  0.00    -0.396 OA
ATOM      7  H   UNL     1       7.754  41.190  50.901  1.00  0.00     0.210 HD
ENDBRANCH   5   6
ENDBRANCH   4   5
ENDBRANCH   3   4
ENDBRANCH   1   3
BRANCH   1   8
ATOM      8  C   UNL     1       6.692  46.063  51.557  1.00  0.00     0.139 A 
ATOM      9  N   UNL     1       5.456  46.413  51.952  1.00  0.00    -0.195 NA
ATOM     10  C   UNL     1       7.835  46.429  52.286  1.00  0.00     0.043 A 
ATOM     11  C   UNL     1       5.335  47.146  53.062  1.00  0.00     0.225 A 
ATOM     12  C   UNL     1       9.168  46.066  51.959  1.00  0.00     0.014 A 
ATOM     13  C   UNL     1       7.592  47.205  53.421  1.00  0.00     0.078 A 
ATOM     14  N   UNL     1       6.364  47.566  53.801  1.00  0.00    -0.213 NA
ATOM     15  C   UNL     1      10.237  46.488  52.745  1.00  0.00     0.001 A 
ATOM     16  C   UNL     1       8.675  47.616  54.191  1.00  0.00     0.029 A 
ATOM     17  C   UNL     1       9.989  47.270  53.865  1.00  0.00     0.002 A 
BRANCH  11  18
ATOM     18  N   UNL     1       4.035  47.468  53.418  1.00  0.00    -0.354 N 
ATOM     19  H   UNL     1       3.889  47.081  54.343  1.00  0.00     0.163 HD
BRANCH  18  20
ATOM     20  C   UNL     1       3.000  47.157  52.439  1.00  0.00     0.121 C 
BRANCH  20  21
ATOM     21  C   UNL     1       2.009  46.101  52.950  1.00  0.00     0.068 C 
BRANCH  21  22
ATOM     22  C   UNL     1       2.322  44.720  52.435  1.00  0.00     0.006 A 
ATOM     23  C   UNL     1       3.253  43.824  52.921  1.00  0.00     0.015 A 
ATOM     24  S   UNL     1       1.476  44.081  51.091  1.00  0.00    -0.149 S 
ATOM     25  C   UNL     1       3.272  42.607  52.182  1.00  0.00     0.012 A 
ATOM     26  C   UNL     1       2.352  42.613  51.158  1.00  0.00     0.065 A 
ENDBRANCH  21  22
ENDBRANCH  20  21
ENDBRANCH  18  20
ENDBRANCH  11  18
ENDBRANCH   1   8
TORSDOF 9
ENDMDL
MODEL 2
REMARK VINA RESULT:    -8.361      1.066      1.155
REMARK INTER + INTRA:         -13.468
REMARK INTER:                 -12.506
REMARK INTRA:                  -0.962
REMARK UNBOUND:                -0.952
REMARK SMILES OCCCNc1nc(NCCc2cccs2)nc2ccccc12
REMARK SMILES IDX 5 1 4 3 3 4 2 5 1 6 6 8 7 9 23 10 8 11 22 12 18 13 17 14
REMARK SMILES IDX 21 15 19 16 20 17 9 18 10 20 11 21 12 22 13 23 16 24 14 25
REMARK SMILES IDX 15 26
REMARK H PARENT 5 2 1 7 9 19
ROOT
ATOM      1  N   UNL     1       6.329  45.366  50.538  1.00  0.00    -0.369 N 
ATOM      2  H   UNL     1       5.798  45.986  49.931  1.00  0.00     0.162 HD
ENDROOT
BRANCH   1   3
ATOM      3  C   UNL     1       5.786  44.006  50.499  1.00  0.00     0.117 C 
BRANCH   3   4
ATOM      4  C   UNL     1       6.655  43.095  49.627  1.00  0.00     0.049 C 
BRANCH   4   5
ATOM      5  C   UNL     1       6.211  41.644  49.723  1.00  0.00     0.158 C 
BRANCH   5   6
ATOM      6  O   UNL     1       7.305  40.805  50.074  1.00  0.00    -0.396 OA
ATOM      7  H   UNL     1       7.660  40.435  49.248  1.00  0.00     0.210 HD
ENDBRANCH   5   6
ENDBRANCH   4   5
ENDBRANCH   3   4
ENDBRANCH   1   3
BRANCH   1   8
ATOM      8  C   UNL     1       6.403  45.976  51.814  1.00  0.00     0.139 A 
ATOM      9  N   UNL     1       5.271  46.169  52.511  1.00  0.00    -0.195 NA
ATOM     10  C   UNL     1       7.659  46.348  52.321  1.00  0.00     0.043 A 
ATOM     11  C   UNL     1       5.362  46.749  53.710  1.00  0.00     0.225 A 
ATOM     12  C   UNL     1       8.903  46.143  51.667  1.00  0.00     0.014 A 
ATOM     13  C   UNL     1       7.635  46.958  53.578  1.00  0.00     0.078 A 
ATOM     14  N   UNL     1       6.506  47.164  54.259  1.00  0.00    -0.213 NA
ATOM     15  C   UNL     1      10.096  46.557  52.254  1.00  0.00     0.001 A 
ATOM     16  C   UNL     1       8.838  47.364  54.143  1.00  0.00     0.029 A 
ATOM     17  C   UNL     1      10.062  47.174  53.497  1.00  0.00     0.002 A 
BRANCH  11  18
ATOM     18  N   UNL     1       4.159  46.914  54.380  1.00  0.00    -0.354 N 
ATOM     19  H   UNL     1       4.199  47.828  54.814  1.00  0.00     0.163 HD
BRANCH  18  20
ATOM     20  C   UNL     1       3.752  45.821  55.256  1.00  0.00     0.121 C 
BRANCH  20  21
ATOM     21  C   UNL     1       2.329  45.329  54.957  1.00  0.00     0.068 C 
BRANCH  21  22
ATOM     22  C   UNL     1       2.188  44.790  53.557  1.00  0.00     0.006 A 
ATOM     23  C   UNL     1       2.686  43.608  53.048  1.00  0.00     0.015 A 
ATOM     24  S   UNL     1       1.319  45.668  52.371  1.00  0.00    -0.149 S 
ATOM     25  C   UNL     1       2.353  43.424  51.676  1.00  0.00     0.012 A 
ATOM     26  C   UNL     1       1.608  44.472  51.183  1.00  0.00     0.065 A 
ENDBRANCH  21  22
ENDBRANCH  20  21
ENDBRANCH  18  20
ENDBRANCH  11  18
ENDBRANCH   1   8
TORSDOF 9
ENDMDL
MODEL 3
REMARK VINA RESULT:    -8.128      1.929      2.369
REMARK INTER + INTRA:         -13.120
REMARK INTER:                 -12.521
REMARK INTRA:                  -0.599
REMARK UNBOUND:                -0.952
REMARK SMILES OCCCNc1nc(NCCc2cccs2)nc2ccccc12
REMARK SMILES IDX 5 1 4 3 3 4 2 5 1 6 6 8 7 9 23 10 8 11 22 12 18 13 17 14
REMARK SMILES IDX 21 15 19 16 20 17 9 18 10 20 11 21 12 22 13 23 16 24 14 25
REMARK SMILES IDX 15 26
REMARK H PARENT 5 2 1 7 9 19
ROOT
ATOM      1  N   UNL     1       6.404  45.331  50.474  1.00  0.00    -0.369 N 
ATOM      2  H   UNL     1       5.910  45.920  49.808  1.00  0.00     0.162 HD
ENDROOT
BRANCH   1   3
ATOM      3  C   UNL     1       5.837  43.980  50.498  1.00  0.00     0.117 C 
BRANCH   3   4
ATOM      4  C   UNL     1       6.617  43.045  49.570  1.00  0.00     0.049 C 
BRANCH   4   5
ATOM      5  C   UNL     1       6.238  41.590  49.800  1.00  0.00     0.158 C 
BRANCH   5   6
ATOM      6  O   UNL     1       7.390  40.810  50.092  1.00  0.00    -0.396 OA
ATOM      7  H   UNL     1       7.854  41.247  50.827  1.00  0.00     0.210 HD
ENDBRANCH   5   6
ENDBRANCH   4   5
ENDBRANCH   3   4
ENDBRANCH   1   3
BRANCH   1   8
ATOM      8  C   UNL     1       6.438  46.020  51.711  1.00  0.00     0.139 A 
ATOM      9  N   UNL     1       5.280  46.303  52.332  1.00  0.00    -0.195 NA
ATOM     10  C   UNL     1       7.680  46.373  52.262  1.00  0.00     0.043 A 
ATOM     11  C   UNL     1       5.333  46.956  53.495  1.00  0.00     0.225 A 
ATOM     12  C   UNL     1       8.946  46.077  51.692  1.00  0.00     0.014 A 
ATOM     13  C   UNL     1       7.617  47.064  53.475  1.00  0.00     0.078 A 
ATOM     14  N   UNL     1       6.464  47.359  54.079  1.00  0.00    -0.213 NA
ATOM     15  C   UNL     1      10.124  46.480  52.316  1.00  0.00     0.001 A 
ATOM     16  C   UNL     1       8.806  47.458  54.079  1.00  0.00     0.029 A 
ATOM     17  C   UNL     1      10.052  47.177  53.514  1.00  0.00     0.002 A 
BRANCH  11  18
ATOM     18  N   UNL     1       4.106  47.211  54.086  1.00  0.00    -0.354 N 
ATOM     19  H   UNL     1       4.300  47.468  55.046  1.00  0.00     0.163 HD
BRANCH  18  20
ATOM     20  C   UNL     1       3.077  46.193  53.907  1.00  0.00     0.121 C 
BRANCH  20  21
ATOM     21  C   UNL     1       2.920  45.295  55.142  1.00  0.00     0.068 C 
BRANCH  21  22
ATOM     22  C   UNL     1       1.477  45.062  55.506  1.00  0.00     0.006 A 
ATOM     23  C   UNL     1       0.847  45.340  56.702  1.00  0.00     0.015 A 
ATOM     24  S   UNL     1       0.394  44.377  54.370  1.00  0.00    -0.149 S 
ATOM     25  C   UNL     1      -0.532  44.987  56.685  1.00  0.00     0.012 A 
ATOM     26  C   UNL     1      -0.910  44.453  55.473  1.00  0.00     0.065 A 
ENDBRANCH  21  22
ENDBRANCH  20  21
ENDBRANCH  18  20
ENDBRANCH  11  18
ENDBRANCH   1   8
TORSDOF 9
ENDMDL
MODEL 4
REMARK VINA RESULT:    -7.983      1.447      1.588
REMARK INTER + INTRA:         -12.902
REMARK INTER:                 -12.063
REMARK INTRA:                  -0.839
REMARK UNBOUND:                -0.952
REMARK SMILES OCCCNc1nc(NCCc2cccs2)nc2ccccc12
REMARK SMILES IDX 5 1 4 3 3 4 2 5 1 6 6 8 7 9 23 10 8 11 22 12 18 13 17 14
REMARK SMILES IDX 21 15 19 16 20 17 9 18 10 20 11 21 12 22 13 23 16 24 14 25
REMARK SMILES IDX 15 26
REMARK H PARENT 5 2 1 7 9 19
ROOT
ATOM      1  N   UNL     1       5.902  45.186  50.870  1.00  0.00    -0.369 N 
ATOM      2  H   UNL     1       5.252  45.866  50.483  1.00  0.00     0.162 HD
ENDROOT
BRANCH   1   3
ATOM      3  C   UNL     1       5.408  43.821  50.674  1.00  0.00     0.117 C 
BRANCH   3   4
ATOM      4  C   UNL     1       6.344  43.026  49.760  1.00  0.00     0.049 C 
BRANCH   4   5
ATOM      5  C   UNL     1       6.108  41.529  49.887  1.00  0.00     0.158 C 
BRANCH   5   6
ATOM      6  O   UNL     1       7.339  40.839  50.063  1.00  0.00    -0.396 OA
ATOM      7  H   UNL     1       7.246  39.971  49.634  1.00  0.00     0.210 HD
ENDBRANCH   5   6
ENDBRANCH   4   5
ENDBRANCH   3   4
ENDBRANCH   1   3
BRANCH   1   8
ATOM      8  C   UNL     1       6.177  45.569  52.206  1.00  0.00     0.139 A 
ATOM      9  N   UNL     1       5.235  45.378  53.145  1.00  0.00    -0.195 NA
ATOM     10  C   UNL     1       7.430  46.123  52.514  1.00  0.00     0.043 A 
ATOM     11  C   UNL     1       5.512  45.749  54.398  1.00  0.00     0.225 A 
ATOM     12  C   UNL     1       8.490  46.320  51.590  1.00  0.00     0.014 A 
ATOM     13  C   UNL     1       7.607  46.486  53.851  1.00  0.00     0.078 A 
ATOM     14  N   UNL     1       6.662  46.311  54.778  1.00  0.00    -0.213 NA
ATOM     15  C   UNL     1       9.696  46.886  51.996  1.00  0.00     0.001 A 
ATOM     16  C   UNL     1       8.818  47.051  54.233  1.00  0.00     0.029 A 
ATOM     17  C   UNL     1       9.859  47.257  53.323  1.00  0.00     0.002 A 
BRANCH  11  18
ATOM     18  N   UNL     1       4.502  45.519  55.319  1.00  0.00    -0.354 N 
ATOM     19  H   UNL     1       4.579  44.546  55.588  1.00  0.00     0.163 HD
BRANCH  18  20
ATOM     20  C   UNL     1       3.166  45.960  54.936  1.00  0.00     0.121 C 
BRANCH  20  21
ATOM     21  C   UNL     1       2.136  44.823  54.990  1.00  0.00     0.068 C 
BRANCH  21  22
ATOM     22  C   UNL     1       1.760  44.320  53.621  1.00  0.00     0.006 A 
ATOM     23  C   UNL     1       1.911  44.964  52.409  1.00  0.00     0.015 A 
ATOM     24  S   UNL     1       1.056  42.771  53.426  1.00  0.00    -0.149 S 
ATOM     25  C   UNL     1       1.444  44.180  51.316  1.00  0.00     0.012 A 
ATOM     26  C   UNL     1       0.954  42.961  51.730  1.00  0.00     0.065 A 
ENDBRANCH  21  22
ENDBRANCH  20  21
ENDBRANCH  18  20
ENDBRANCH  11  18
ENDBRANCH   1   8
TORSDOF 9
ENDMDL
MODEL 5
REMARK VINA RESULT:    -7.833      2.247      4.109
REMARK INTER + INTRA:         -12.678
REMARK INTER:                 -11.839
REMARK INTRA:                  -0.839
REMARK UNBOUND:                -0.952
REMARK SMILES OCCCNc1nc(NCCc2cccs2)nc2ccccc12
REMARK SMILES IDX 5 1 4 3 3 4 2 5 1 6 6 8 7 9 23 10 8 11 22 12 18 13 17 14
REMARK SMILES IDX 21 15 19 16 20 17 9 18 10 20 11 21 12 22 13 23 16 24 14 25
REMARK SMILES IDX 15 26
REMARK H PARENT 5 2 1 7 9 19
ROOT
ATOM      1  N   UNL     1       8.784  47.311  51.444  1.00  0.00    -0.369 N 
ATOM      2  H   UNL     1       8.997  47.423  50.455  1.00  0.00     0.162 HD
ENDROOT
BRANCH   1   3
ATOM      3  C   UNL     1       9.919  46.721  52.159  1.00  0.00     0.117 C 
BRANCH   3   4
ATOM      4  C   UNL     1       9.536  46.374  53.600  1.00  0.00     0.049 C 
BRANCH   4   5
ATOM      5  C   UNL     1       9.546  47.608  54.490  1.00  0.00     0.158 C 
BRANCH   5   6
ATOM      6  O   UNL     1       8.230  47.921  54.929  1.00  0.00    -0.396 OA
ATOM      7  H   UNL     1       7.943  48.709  54.435  1.00  0.00     0.210 HD
ENDBRANCH   5   6
ENDBRANCH   4   5
ENDBRANCH   3   4
ENDBRANCH   1   3
BRANCH   1   8
ATOM      8  C   UNL     1       7.553  46.618  51.540  1.00  0.00     0.139 A 
ATOM      9  N   UNL     1       6.585  47.114  52.330  1.00  0.00    -0.195 NA
ATOM     10  C   UNL     1       7.371  45.442  50.794  1.00  0.00     0.043 A 
ATOM     11  C   UNL     1       5.433  46.444  52.409  1.00  0.00     0.225 A 
ATOM     12  C   UNL     1       8.325  44.875  49.908  1.00  0.00     0.014 A 
ATOM     13  C   UNL     1       6.133  44.817  50.962  1.00  0.00     0.078 A 
ATOM     14  N   UNL     1       5.182  45.303  51.763  1.00  0.00    -0.213 NA
ATOM     15  C   UNL     1       8.050  43.697  49.219  1.00  0.00     0.001 A 
ATOM     16  C   UNL     1       5.881  43.641  50.265  1.00  0.00     0.029 A 
ATOM     17  C   UNL     1       6.822  43.076  49.401  1.00  0.00     0.002 A 
BRANCH  11  18
ATOM     18  N   UNL     1       4.475  47.011  53.235  1.00  0.00    -0.354 N 
ATOM     19  H   UNL     1       4.575  46.560  54.136  1.00  0.00     0.163 HD
BRANCH  18  20
ATOM     20  C   UNL     1       3.117  47.064  52.709  1.00  0.00     0.121 C 
BRANCH  20  21
ATOM     21  C   UNL     1       2.151  46.159  53.487  1.00  0.00     0.068 C 
BRANCH  21  22
ATOM     22  C   UNL     1       1.703  44.967  52.682  1.00  0.00     0.006 A 
ATOM     23  C   UNL     1       1.697  44.823  51.309  1.00  0.00     0.015 A 
ATOM     24  S   UNL     1       1.115  43.562  53.464  1.00  0.00    -0.149 S 
ATOM     25  C   UNL     1       1.205  43.552  50.899  1.00  0.00     0.012 A 
ATOM     26  C   UNL     1       0.854  42.765  51.973  1.00  0.00     0.065 A 
ENDBRANCH  21  22
ENDBRANCH  20  21
ENDBRANCH  18  20
ENDBRANCH  11  18
ENDBRANCH   1   8
TORSDOF 9
ENDMDL
MODEL 6
REMARK VINA RESULT:    -7.802      2.827      6.055
REMARK INTER + INTRA:         -12.631
REMARK INTER:                 -11.732
REMARK INTRA:                  -0.899
REMARK UNBOUND:                -0.952
REMARK SMILES OCCCNc1nc(NCCc2cccs2)nc2ccccc12
REMARK SMILES IDX 5 1 4 3 3 4 2 5 1 6 6 8 7 9 23 10 8 11 22 12 18 13 17 14
REMARK SMILES IDX 21 15 19 16 20 17 9 18 10 20 11 21 12 22 13 23 16 24 14 25
REMARK SMILES IDX 15 26
REMARK H PARENT 5 2 1 7 9 19
ROOT
ATOM      1  N   UNL     1       2.302  42.297  52.858  1.00  0.00    -0.369 N 
ATOM      2  H   UNL     1       2.153  41.659  52.080  1.00  0.00     0.162 HD
ENDROOT
BRANCH   1   3
ATOM      3  C   UNL     1       1.031  42.848  53.334  1.00  0.00     0.117 C 
BRANCH   3   4
ATOM      4  C   UNL     1      -0.145  42.272  52.541  1.00  0.00     0.049 C 
BRANCH   4   5
ATOM      5  C   UNL     1      -0.508  43.159  51.360  1.00  0.00     0.158 C 
BRANCH   5   6
ATOM      6  O   UNL     1       0.539  43.169  50.398  1.00  0.00    -0.396 OA
ATOM      7  H   UNL     1       1.026  42.333  50.494  1.00  0.00     0.210 HD
ENDBRANCH   5   6
ENDBRANCH   4   5
ENDBRANCH   3   4
ENDBRANCH   1   3
BRANCH   1   8
ATOM      8  C   UNL     1       3.284  43.236  52.458  1.00  0.00     0.139 A 
ATOM      9  N   UNL     1       3.306  44.446  53.043  1.00  0.00    -0.195 NA
ATOM     10  C   UNL     1       4.217  42.872  51.473  1.00  0.00     0.043 A 
ATOM     11  C   UNL     1       4.236  45.318  52.650  1.00  0.00     0.225 A 
ATOM     12  C   UNL     1       4.287  41.605  50.837  1.00  0.00     0.014 A 
ATOM     13  C   UNL     1       5.136  43.866  51.130  1.00  0.00     0.078 A 
ATOM     14  N   UNL     1       5.143  45.073  51.700  1.00  0.00    -0.213 NA
ATOM     15  C   UNL     1       5.248  41.345  49.864  1.00  0.00     0.001 A 
ATOM     16  C   UNL     1       6.086  43.585  50.154  1.00  0.00     0.029 A 
ATOM     17  C   UNL     1       6.150  42.342  49.519  1.00  0.00     0.002 A 
BRANCH  11  18
ATOM     18  N   UNL     1       4.208  46.544  53.295  1.00  0.00    -0.354 N 
ATOM     19  H   UNL     1       3.384  47.026  52.956  1.00  0.00     0.163 HD
BRANCH  18  20
ATOM     20  C   UNL     1       5.443  47.320  53.265  1.00  0.00     0.121 C 
BRANCH  20  21
ATOM     21  C   UNL     1       6.458  46.849  54.315  1.00  0.00     0.068 C 
BRANCH  21  22
ATOM     22  C   UNL     1       7.875  46.888  53.805  1.00  0.00     0.006 A 
ATOM     23  C   UNL     1       9.021  47.202  54.507  1.00  0.00     0.015 A 
ATOM     24  S   UNL     1       8.222  46.511  52.171  1.00  0.00    -0.149 S 
ATOM     25  C   UNL     1      10.190  47.133  53.696  1.00  0.00     0.012 A 
ATOM     26  C   UNL     1       9.897  46.766  52.402  1.00  0.00     0.065 A 
ENDBRANCH  21  22
ENDBRANCH  20  21
ENDBRANCH  18  20
ENDBRANCH  11  18
ENDBRANCH   1   8
TORSDOF 9
ENDMDL
MODEL 7
REMARK VINA RESULT:    -7.704      2.771      4.612
REMARK INTER + INTRA:         -12.484
REMARK INTER:                 -11.751
REMARK INTRA:                  -0.732
REMARK UNBOUND:                -0.952
REMARK SMILES OCCCNc1nc(NCCc2cccs2)nc2ccccc12
REMARK SMILES IDX 5 1 4 3 3 4 2 5 1 6 6 8 7 9 23 10 8 11 22 12 18 13 17 14
REMARK SMILES IDX 21 15 19 16 20 17 9 18 10 20 11 21 12 22 13 23 16 24 14 25
REMARK SMILES IDX 15 26
REMARK H PARENT 5 2 1 7 9 19
ROOT
ATOM      1  N   UNL     1       8.371  47.235  51.529  1.00  0.00    -0.369 N 
ATOM      2  H   UNL     1       9.093  46.614  51.172  1.00  0.00     0.162 HD
ENDROOT
BRANCH   1   3
ATOM      3  C   UNL     1       8.797  47.869  52.779  1.00  0.00     0.117 C 
BRANCH   3   4
ATOM      4  C   UNL     1       9.510  46.862  53.685  1.00  0.00     0.049 C 
BRANCH   4   5
ATOM      5  C   UNL     1      10.030  47.524  54.952  1.00  0.00     0.158 C 
BRANCH   5   6
ATOM      6  O   UNL     1       9.082  48.455  55.459  1.00  0.00    -0.396 OA
ATOM      7  H   UNL     1       8.558  48.772  54.703  1.00  0.00     0.210 HD
ENDBRANCH   5   6
ENDBRANCH   4   5
ENDBRANCH   3   4
ENDBRANCH   1   3
BRANCH   1   8
ATOM      8  C   UNL     1       7.161  46.499  51.577  1.00  0.00     0.139 A 
ATOM      9  N   UNL     1       6.148  46.959  52.331  1.00  0.00    -0.195 NA
ATOM     10  C   UNL     1       7.049  45.319  50.824  1.00  0.00     0.043 A 
ATOM     11  C   UNL     1       5.018  46.249  52.367  1.00  0.00     0.225 A 
ATOM     12  C   UNL     1       8.055  44.789  49.974  1.00  0.00     0.014 A 
ATOM     13  C   UNL     1       5.829  44.650  50.946  1.00  0.00     0.078 A 
ATOM     14  N   UNL     1       4.832  45.101  51.710  1.00  0.00    -0.213 NA
ATOM     15  C   UNL     1       7.847  43.603  49.274  1.00  0.00     0.001 A 
ATOM     16  C   UNL     1       5.644  43.468  50.239  1.00  0.00     0.029 A 
ATOM     17  C   UNL     1       6.637  42.938  49.410  1.00  0.00     0.002 A 
BRANCH  11  18
ATOM     18  N   UNL     1       4.011  46.779  53.157  1.00  0.00    -0.354 N 
ATOM     19  H   UNL     1       3.807  47.697  52.780  1.00  0.00     0.163 HD
BRANCH  18  20
ATOM     20  C   UNL     1       4.226  46.730  54.599  1.00  0.00     0.121 C 
BRANCH  20  21
ATOM     21  C   UNL     1       3.883  45.358  55.196  1.00  0.00     0.068 C 
BRANCH  21  22
ATOM     22  C   UNL     1       2.467  44.939  54.901  1.00  0.00     0.006 A 
ATOM     23  C   UNL     1       2.002  44.216  53.820  1.00  0.00     0.015 A 
ATOM     24  S   UNL     1       1.197  45.351  55.974  1.00  0.00    -0.149 S 
ATOM     25  C   UNL     1       0.595  44.003  53.874  1.00  0.00     0.012 A 
ATOM     26  C   UNL     1       0.032  44.568  54.997  1.00  0.00     0.065 A 
ENDBRANCH  21  22
ENDBRANCH  20  21
ENDBRANCH  18  20
ENDBRANCH  11  18
ENDBRANCH   1   8
TORSDOF 9
ENDMDL
MODEL 8
REMARK VINA RESULT:    -7.698      2.798      5.635
REMARK INTER + INTRA:         -12.476
REMARK INTER:                 -11.688
REMARK INTRA:                  -0.788
REMARK UNBOUND:                -0.952
REMARK SMILES OCCCNc1nc(NCCc2cccs2)nc2ccccc12
REMARK SMILES IDX 5 1 4 3 3 4 2 5 1 6 6 8 7 9 23 10 8 11 22 12 18 13 17 14
REMARK SMILES IDX 21 15 19 16 20 17 9 18 10 20 11 21 12 22 13 23 16 24 14 25
REMARK SMILES IDX 15 26
REMARK H PARENT 5 2 1 7 9 19
ROOT
ATOM      1  N   UNL     1       7.738  47.188  53.505  1.00  0.00    -0.369 N 
ATOM      2  H   UNL     1       7.126  47.945  53.801  1.00  0.00     0.162 HD
ENDROOT
BRANCH   1   3
ATOM      3  C   UNL     1       9.098  47.678  53.266  1.00  0.00     0.117 C 
BRANCH   3   4
ATOM      4  C   UNL     1      10.099  46.987  54.196  1.00  0.00     0.049 C 
BRANCH   4   5
ATOM      5  C   UNL     1      10.179  47.684  55.545  1.00  0.00     0.158 C 
BRANCH   5   6
ATOM      6  O   UNL     1       9.167  48.677  55.660  1.00  0.00    -0.396 OA
ATOM      7  H   UNL     1       8.978  48.999  54.762  1.00  0.00     0.210 HD
ENDBRANCH   5   6
ENDBRANCH   4   5
ENDBRANCH   3   4
ENDBRANCH   1   3
BRANCH   1   8
ATOM      8  C   UNL     1       7.108  46.531  52.420  1.00  0.00     0.139 A 
ATOM      9  N   UNL     1       7.867  45.872  51.527  1.00  0.00    -0.195 NA
ATOM     10  C   UNL     1       5.708  46.571  52.317  1.00  0.00     0.043 A 
ATOM     11  C   UNL     1       7.254  45.262  50.509  1.00  0.00     0.225 A 
ATOM     12  C   UNL     1       4.835  47.208  53.237  1.00  0.00     0.014 A 
ATOM     13  C   UNL     1       5.175  45.910  51.207  1.00  0.00     0.078 A 
ATOM     14  N   UNL     1       5.934  45.273  50.312  1.00  0.00    -0.213 NA
ATOM     15  C   UNL     1       3.457  47.197  53.039  1.00  0.00     0.001 A 
ATOM     16  C   UNL     1       3.796  45.914  51.029  1.00  0.00     0.029 A 
ATOM     17  C   UNL     1       2.935  46.550  51.928  1.00  0.00     0.002 A 
BRANCH  11  18
ATOM     18  N   UNL     1       8.092  44.597  49.628  1.00  0.00    -0.354 N 
ATOM     19  H   UNL     1       8.485  45.306  49.020  1.00  0.00     0.163 HD
BRANCH  18  20
ATOM     20  C   UNL     1       7.528  43.435  48.952  1.00  0.00     0.121 C 
BRANCH  20  21
ATOM     21  C   UNL     1       7.143  42.316  49.930  1.00  0.00     0.068 C 
BRANCH  21  22
ATOM     22  C   UNL     1       5.810  41.697  49.601  1.00  0.00     0.006 A 
ATOM     23  C   UNL     1       5.387  41.184  48.391  1.00  0.00     0.015 A 
ATOM     24  S   UNL     1       4.596  41.557  50.801  1.00  0.00    -0.149 S 
ATOM     25  C   UNL     1       4.058  40.675  48.452  1.00  0.00     0.012 A 
ATOM     26  C   UNL     1       3.511  40.814  49.708  1.00  0.00     0.065 A 
ENDBRANCH  21  22
ENDBRANCH  20  21
ENDBRANCH  18  20
ENDBRANCH  11  18
ENDBRANCH   1   8
TORSDOF 9
ENDMDL
MODEL 9
REMARK VINA RESULT:    -7.681      2.316      4.295
REMARK INTER + INTRA:         -12.450
REMARK INTER:                 -11.282
REMARK INTRA:                  -1.168
REMARK UNBOUND:                -0.952
REMARK SMILES OCCCNc1nc(NCCc2cccs2)nc2ccccc12
REMARK SMILES IDX 5 1 4 3 3 4 2 5 1 6 6 8 7 9 23 10 8 11 22 12 18 13 17 14
REMARK SMILES IDX 21 15 19 16 20 17 9 18 10 20 11 21 12 22 13 23 16 24 14 25
REMARK SMILES IDX 15 26
REMARK H PARENT 5 2 1 7 9 19
ROOT
ATOM      1  N   UNL     1       8.256  46.993  51.204  1.00  0.00    -0.369 N 
ATOM      2  H   UNL     1       8.990  46.369  50.875  1.00  0.00     0.162 HD
ENDROOT
BRANCH   1   3
ATOM      3  C   UNL     1       8.763  47.893  52.244  1.00  0.00     0.117 C 
BRANCH   3   4
ATOM      4  C   UNL     1       9.733  47.161  53.174  1.00  0.00     0.049 C 
BRANCH   4   5
ATOM      5  C   UNL     1       9.517  47.558  54.627  1.00  0.00     0.158 C 
BRANCH   5   6
ATOM      6  O   UNL     1       8.131  47.573  54.944  1.00  0.00    -0.396 OA
ATOM      7  H   UNL     1       7.759  48.388  54.564  1.00  0.00     0.210 HD
ENDBRANCH   5   6
ENDBRANCH   4   5
ENDBRANCH   3   4
ENDBRANCH   1   3
BRANCH   1   8
ATOM      8  C   UNL     1       7.142  46.192  51.555  1.00  0.00     0.139 A 
ATOM      9  N   UNL     1       6.338  46.595  52.554  1.00  0.00    -0.195 NA
ATOM     10  C   UNL     1       6.899  45.008  50.840  1.00  0.00     0.043 A 
ATOM     11  C   UNL     1       5.295  45.824  52.871  1.00  0.00     0.225 A 
ATOM     12  C   UNL     1       7.675  44.533  49.750  1.00  0.00     0.014 A 
ATOM     13  C   UNL     1       5.790  44.273  51.265  1.00  0.00     0.078 A 
ATOM     14  N   UNL     1       5.004  44.669  52.270  1.00  0.00    -0.213 NA
ATOM     15  C   UNL     1       7.355  43.339  49.110  1.00  0.00     0.001 A 
ATOM     16  C   UNL     1       5.490  43.083  50.613  1.00  0.00     0.029 A 
ATOM     17  C   UNL     1       6.258  42.609  49.547  1.00  0.00     0.002 A 
BRANCH  11  18
ATOM     18  N   UNL     1       4.502  46.299  53.905  1.00  0.00    -0.354 N 
ATOM     19  H   UNL     1       5.008  47.072  54.319  1.00  0.00     0.163 HD
BRANCH  18  20
ATOM     20  C   UNL     1       4.002  45.304  54.845  1.00  0.00     0.121 C 
BRANCH  20  21
ATOM     21  C   UNL     1       2.468  45.281  54.915  1.00  0.00     0.068 C 
BRANCH  21  22
ATOM     22  C   UNL     1       1.846  44.662  53.691  1.00  0.00     0.006 A 
ATOM     23  C   UNL     1       1.651  43.322  53.422  1.00  0.00     0.015 A 
ATOM     24  S   UNL     1       1.269  45.648  52.415  1.00  0.00    -0.149 S 
ATOM     25  C   UNL     1       1.027  43.106  52.160  1.00  0.00     0.012 A 
ATOM     26  C   UNL     1       0.762  44.290  51.509  1.00  0.00     0.065 A 
ENDBRANCH  21  22
ENDBRANCH  20  21
ENDBRANCH  18  20
ENDBRANCH  11  18
ENDBRANCH   1   8
TORSDOF 9
ENDMDL
MODEL 10
REMARK VINA RESULT:    -7.354      2.163      5.794
REMARK INTER + INTRA:         -11.960
REMARK INTER:                 -11.130
REMARK INTRA:                  -0.830
REMARK UNBOUND:                -0.952
REMARK SMILES OCCCNc1nc(NCCc2cccs2)nc2ccccc12
REMARK SMILES IDX 5 1 4 3 3 4 2 5 1 6 6 8 7 9 23 10 8 11 22 12 18 13 17 14
REMARK SMILES IDX 21 15 19 16 20 17 9 18 10 20 11 21 12 22 13 23 16 24 14 25
REMARK SMILES IDX 15 26
REMARK H PARENT 5 2 1 7 9 19
ROOT
ATOM      1  N   UNL     1       4.899  43.079  50.910  1.00  0.00    -0.369 N 
ATOM      2  H   UNL     1       5.255  42.163  51.172  1.00  0.00     0.162 HD
ENDROOT
BRANCH   1   3
ATOM      3  C   UNL     1       5.914  43.848  50.184  1.00  0.00     0.117 C 
BRANCH   3   4
ATOM      4  C   UNL     1       6.739  42.937  49.272  1.00  0.00     0.049 C 
BRANCH   4   5
ATOM      5  C   UNL     1       6.303  41.485  49.393  1.00  0.00     0.158 C 
BRANCH   5   6
ATOM      6  O   UNL     1       7.236  40.743  50.168  1.00  0.00    -0.396 OA
ATOM      7  H   UNL     1       8.123  40.949  49.826  1.00  0.00     0.210 HD
ENDBRANCH   5   6
ENDBRANCH   4   5
ENDBRANCH   3   4
ENDBRANCH   1   3
BRANCH   1   8
ATOM      8  C   UNL     1       4.371  43.682  52.078  1.00  0.00     0.139 A 
ATOM      9  N   UNL     1       5.197  44.363  52.890  1.00  0.00    -0.195 NA
ATOM     10  C   UNL     1       2.998  43.564  52.347  1.00  0.00     0.043 A 
ATOM     11  C   UNL     1       4.681  44.921  53.988  1.00  0.00     0.225 A 
ATOM     12  C   UNL     1       2.053  42.898  51.522  1.00  0.00     0.014 A 
ATOM     13  C   UNL     1       2.569  44.174  53.528  1.00  0.00     0.078 A 
ATOM     14  N   UNL     1       3.396  44.835  54.341  1.00  0.00    -0.213 NA
ATOM     15  C   UNL     1       0.710  42.831  51.883  1.00  0.00     0.001 A 
ATOM     16  C   UNL     1       1.224  44.093  53.869  1.00  0.00     0.029 A 
ATOM     17  C   UNL     1       0.295  43.428  53.064  1.00  0.00     0.002 A 
BRANCH  11  18
ATOM     18  N   UNL     1       5.584  45.613  54.780  1.00  0.00    -0.354 N 
ATOM     19  H   UNL     1       5.425  45.302  55.730  1.00  0.00     0.163 HD
BRANCH  18  20
ATOM     20  C   UNL     1       5.631  47.059  54.594  1.00  0.00     0.121 C 
BRANCH  20  21
ATOM     21  C   UNL     1       6.216  47.456  53.232  1.00  0.00     0.068 C 
BRANCH  21  22
ATOM     22  C   UNL     1       7.699  47.204  53.146  1.00  0.00     0.006 A 
ATOM     23  C   UNL     1       8.666  47.501  54.085  1.00  0.00     0.015 A 
ATOM     24  S   UNL     1       8.376  46.459  51.761  1.00  0.00    -0.149 S 
ATOM     25  C   UNL     1       9.970  47.115  53.663  1.00  0.00     0.012 A 
ATOM     26  C   UNL     1       9.954  46.533  52.414  1.00  0.00     0.065 A 
ENDBRANCH  21  22
ENDBRANCH  20  21
ENDBRANCH  18  20
ENDBRANCH  11  18
ENDBRANCH   1   8
TORSDOF 9
ENDMDL
MODEL 11
REMARK VINA RESULT:    -7.324      2.204      4.490
REMARK INTER + INTRA:         -11.916
REMARK INTER:                 -10.869
REMARK INTRA:                  -1.047
REMARK UNBOUND:                -0.952
REMARK SMILES OCCCNc1nc(NCCc2cccs2)nc2ccccc12
REMARK SMILES IDX 5 1 4 3 3 4 2 5 1 6 6 8 7 9 23 10 8 11 22 12 18 13 17 14
REMARK SMILES IDX 21 15 19 16 20 17 9 18 10 20 11 21 12 22 13 23 16 24 14 25
REMARK SMILES IDX 15 26
REMARK H PARENT 5 2 1 7 9 19
ROOT
ATOM      1  N   UNL     1       5.208  46.640  53.673  1.00  0.00    -0.369 N 
ATOM      2  H   UNL     1       5.098  45.879  54.339  1.00  0.00     0.162 HD
ENDROOT
BRANCH   1   3
ATOM      3  C   UNL     1       3.923  46.989  53.061  1.00  0.00     0.117 C 
BRANCH   3   4
ATOM      4  C   UNL     1       2.769  46.282  53.775  1.00  0.00     0.049 C 
BRANCH   4   5
ATOM      5  C   UNL     1       3.188  45.778  55.147  1.00  0.00     0.158 C 
BRANCH   5   6
ATOM      6  O   UNL     1       3.850  44.524  55.041  1.00  0.00    -0.396 OA
ATOM      7  H   UNL     1       4.753  44.701  54.726  1.00  0.00     0.210 HD
ENDBRANCH   5   6
ENDBRANCH   4   5
ENDBRANCH   3   4
ENDBRANCH   1   3
BRANCH   1   8
ATOM      8  C   UNL     1       6.251  46.282  52.783  1.00  0.00     0.139 A 
ATOM      9  N   UNL     1       5.942  45.649  51.638  1.00  0.00    -0.195 NA
ATOM     10  C   UNL     1       7.575  46.612  53.115  1.00  0.00     0.043 A 
ATOM     11  C   UNL     1       6.939  45.317  50.815  1.00  0.00     0.225 A 
ATOM     12  C   UNL     1       7.979  47.313  54.281  1.00  0.00     0.014 A 
ATOM     13  C   UNL     1       8.538  46.205  52.188  1.00  0.00     0.078 A 
ATOM     14  N   UNL     1       8.229  45.560  51.061  1.00  0.00    -0.213 NA
ATOM     15  C   UNL     1       9.323  47.584  54.522  1.00  0.00     0.001 A 
ATOM     16  C   UNL     1       9.874  46.486  52.450  1.00  0.00     0.029 A 
ATOM     17  C   UNL     1      10.275  47.166  53.603  1.00  0.00     0.002 A 
BRANCH  11  18
ATOM     18  N   UNL     1       6.554  44.672  49.650  1.00  0.00    -0.354 N 
ATOM     19  H   UNL     1       5.576  44.435  49.767  1.00  0.00     0.163 HD
BRANCH  18  20
ATOM     20  C   UNL     1       7.413  43.583  49.199  1.00  0.00     0.121 C 
BRANCH  20  21
ATOM     21  C   UNL     1       7.141  42.273  49.951  1.00  0.00     0.068 C 
BRANCH  21  22
ATOM     22  C   UNL     1       5.798  41.681  49.612  1.00  0.00     0.006 A 
ATOM     23  C   UNL     1       5.370  41.188  48.395  1.00  0.00     0.015 A 
ATOM     24  S   UNL     1       4.579  41.550  50.807  1.00  0.00    -0.149 S 
ATOM     25  C   UNL     1       4.033  40.703  48.446  1.00  0.00     0.012 A 
ATOM     26  C   UNL     1       3.484  40.838  49.702  1.00  0.00     0.065 A 
ENDBRANCH  21  22
ENDBRANCH  20  21
ENDBRANCH  18  20
ENDBRANCH  11  18
ENDBRANCH   1   8
TORSDOF 9
ENDMDL
MODEL 12
REMARK VINA RESULT:    -7.263      2.769      4.606
REMARK INTER + INTRA:         -11.825
REMARK INTER:                 -11.080
REMARK INTRA:                  -0.745
REMARK UNBOUND:                -0.952
REMARK SMILES OCCCNc1nc(NCCc2cccs2)nc2ccccc12
REMARK SMILES IDX 5 1 4 3 3 4 2 5 1 6 6 8 7 9 23 10 8 11 22 12 18 13 17 14
REMARK SMILES IDX 21 15 19 16 20 17 9 18 10 20 11 21 12 22 13 23 16 24 14 25
REMARK SMILES IDX 15 26
REMARK H PARENT 5 2 1 7 9 19
ROOT
ATOM      1  N   UNL     1       7.922  47.077  51.419  1.00  0.00    -0.369 N 
ATOM      2  H   UNL     1       8.725  46.531  51.116  1.00  0.00     0.162 HD
ENDROOT
BRANCH   1   3
ATOM      3  C   UNL     1       8.253  47.885  52.596  1.00  0.00     0.117 C 
BRANCH   3   4
ATOM      4  C   UNL     1       9.593  47.452  53.196  1.00  0.00     0.049 C 
BRANCH   4   5
ATOM      5  C   UNL     1       9.996  46.066  52.716  1.00  0.00     0.158 C 
BRANCH   5   6
ATOM      6  O   UNL     1      10.741  46.149  51.508  1.00  0.00    -0.396 OA
ATOM      7  H   UNL     1      11.448  45.483  51.560  1.00  0.00     0.210 HD
ENDBRANCH   5   6
ENDBRANCH   4   5
ENDBRANCH   3   4
ENDBRANCH   1   3
BRANCH   1   8
ATOM      8  C   UNL     1       6.827  46.189  51.554  1.00  0.00     0.139 A 
ATOM      9  N   UNL     1       5.833  46.504  52.402  1.00  0.00    -0.195 NA
ATOM     10  C   UNL     1       6.803  45.013  50.787  1.00  0.00     0.043 A 
ATOM     11  C   UNL     1       4.811  45.652  52.517  1.00  0.00     0.225 A 
ATOM     12  C   UNL     1       7.791  44.628  49.843  1.00  0.00     0.014 A 
ATOM     13  C   UNL     1       5.695  44.189  50.998  1.00  0.00     0.078 A 
ATOM     14  N   UNL     1       4.718  44.497  51.854  1.00  0.00    -0.213 NA
ATOM     15  C   UNL     1       7.678  43.433  49.137  1.00  0.00     0.001 A 
ATOM     16  C   UNL     1       5.604  43.000  50.283  1.00  0.00     0.029 A 
ATOM     17  C   UNL     1       6.580  42.614  49.361  1.00  0.00     0.002 A 
BRANCH  11  18
ATOM     18  N   UNL     1       3.817  46.038  53.402  1.00  0.00    -0.354 N 
ATOM     19  H   UNL     1       4.273  46.590  54.119  1.00  0.00     0.163 HD
BRANCH  18  20
ATOM     20  C   UNL     1       2.940  44.980  53.891  1.00  0.00     0.121 C 
BRANCH  20  21
ATOM     21  C   UNL     1       2.432  45.250  55.314  1.00  0.00     0.068 C 
BRANCH  21  22
ATOM     22  C   UNL     1       0.978  44.893  55.484  1.00  0.00     0.006 A 
ATOM     23  C   UNL     1       0.162  44.212  54.602  1.00  0.00     0.015 A 
ATOM     24  S   UNL     1       0.136  45.330  56.909  1.00  0.00    -0.149 S 
ATOM     25  C   UNL     1      -1.162  44.052  55.101  1.00  0.00     0.012 A 
ATOM     26  C   UNL     1      -1.312  44.614  56.350  1.00  0.00     0.065 A 
ENDBRANCH  21  22
ENDBRANCH  20  21
ENDBRANCH  18  20
ENDBRANCH  11  18
ENDBRANCH   1   8
TORSDOF 9
ENDMDL
MODEL 13
REMARK VINA RESULT:    -7.261      2.190      2.656
REMARK INTER + INTRA:         -11.821
REMARK INTER:                 -10.637
REMARK INTRA:                  -1.184
REMARK UNBOUND:                -0.952
REMARK SMILES OCCCNc1nc(NCCc2cccs2)nc2ccccc12
REMARK SMILES IDX 5 1 4 3 3 4 2 5 1 6 6 8 7 9 23 10 8 11 22 12 18 13 17 14
REMARK SMILES IDX 21 15 19 16 20 17 9 18 10 20 11 21 12 22 13 23 16 24 14 25
REMARK SMILES IDX 15 26
REMARK H PARENT 5 2 1 7 9 19
ROOT
ATOM      1  N   UNL     1       6.036  43.481  49.985  1.00  0.00    -0.369 N 
ATOM      2  H   UNL     1       5.334  43.730  49.292  1.00  0.00     0.162 HD
ENDROOT
BRANCH   1   3
ATOM      3  C   UNL     1       6.150  42.026  50.115  1.00  0.00     0.117 C 
BRANCH   3   4
ATOM      4  C   UNL     1       5.256  41.316  49.095  1.00  0.00     0.049 C 
BRANCH   4   5
ATOM      5  C   UNL     1       3.923  40.914  49.708  1.00  0.00     0.158 C 
BRANCH   5   6
ATOM      6  O   UNL     1       3.933  41.120  51.115  1.00  0.00    -0.396 OA
ATOM      7  H   UNL     1       3.510  40.344  51.522  1.00  0.00     0.210 HD
ENDBRANCH   5   6
ENDBRANCH   4   5
ENDBRANCH   3   4
ENDBRANCH   1   3
BRANCH   1   8
ATOM      8  C   UNL     1       5.738  44.196  51.171  1.00  0.00     0.139 A 
ATOM      9  N   UNL     1       4.709  43.791  51.935  1.00  0.00    -0.195 NA
ATOM     10  C   UNL     1       6.535  45.297  51.523  1.00  0.00     0.043 A 
ATOM     11  C   UNL     1       4.442  44.480  53.047  1.00  0.00     0.225 A 
ATOM     12  C   UNL     1       7.661  45.763  50.795  1.00  0.00     0.014 A 
ATOM     13  C   UNL     1       6.158  45.951  52.698  1.00  0.00     0.078 A 
ATOM     14  N   UNL     1       5.124  45.557  53.445  1.00  0.00    -0.213 NA
ATOM     15  C   UNL     1       8.383  46.872  51.226  1.00  0.00     0.001 A 
ATOM     16  C   UNL     1       6.893  47.058  53.109  1.00  0.00     0.029 A 
ATOM     17  C   UNL     1       7.994  47.525  52.387  1.00  0.00     0.002 A 
BRANCH  11  18
ATOM     18  N   UNL     1       3.374  44.008  53.793  1.00  0.00    -0.354 N 
ATOM     19  H   UNL     1       2.871  43.365  53.193  1.00  0.00     0.163 HD
BRANCH  18  20
ATOM     20  C   UNL     1       2.554  45.015  54.457  1.00  0.00     0.121 C 
BRANCH  20  21
ATOM     21  C   UNL     1       1.176  44.474  54.863  1.00  0.00     0.068 C 
BRANCH  21  22
ATOM     22  C   UNL     1       0.454  43.817  53.717  1.00  0.00     0.006 A 
ATOM     23  C   UNL     1       0.049  42.501  53.611  1.00  0.00     0.015 A 
ATOM     24  S   UNL     1       0.029  44.719  52.325  1.00  0.00    -0.149 S 
ATOM     25  C   UNL     1      -0.612  42.234  52.378  1.00  0.00     0.012 A 
ATOM     26  C   UNL     1      -0.693  43.357  51.584  1.00  0.00     0.065 A 
ENDBRANCH  21  22
ENDBRANCH  20  21
ENDBRANCH  18  20
ENDBRANCH  11  18
ENDBRANCH   1   8
TORSDOF 9
ENDMDL
MODEL 14
REMARK VINA RESULT:    -7.233      2.778      4.834
REMARK INTER + INTRA:         -11.779
REMARK INTER:                 -10.474
REMARK INTRA:                  -1.304
REMARK UNBOUND:                -0.952
REMARK SMILES OCCCNc1nc(NCCc2cccs2)nc2ccccc12
REMARK SMILES IDX 5 1 4 3 3 4 2 5 1 6 6 8 7 9 23 10 8 11 22 12 18 13 17 14
REMARK SMILES IDX 21 15 19 16 20 17 9 18 10 20 11 21 12 22 13 23 16 24 14 25
REMARK SMILES IDX 15 26
REMARK H PARENT 5 2 1 7 9 19
ROOT
ATOM      1  N   UNL     1       4.819  46.418  52.023  1.00  0.00    -0.369 N 
ATOM      2  H   UNL     1       5.783  46.737  51.957  1.00  0.00     0.162 HD
ENDROOT
BRANCH   1   3
ATOM      3  C   UNL     1       4.272  46.676  53.357  1.00  0.00     0.117 C 
BRANCH   3   4
ATOM      4  C   UNL     1       5.341  46.477  54.434  1.00  0.00     0.049 C 
BRANCH   4   5
ATOM      5  C   UNL     1       4.956  45.369  55.403  1.00  0.00     0.158 C 
BRANCH   5   6
ATOM      6  O   UNL     1       5.075  44.095  54.784  1.00  0.00    -0.396 OA
ATOM      7  H   UNL     1       5.808  43.630  55.223  1.00  0.00     0.210 HD
ENDBRANCH   5   6
ENDBRANCH   4   5
ENDBRANCH   3   4
ENDBRANCH   1   3
BRANCH   1   8
ATOM      8  C   UNL     1       4.785  45.072  51.580  1.00  0.00     0.139 A 
ATOM      9  N   UNL     1       3.725  44.309  51.895  1.00  0.00    -0.195 NA
ATOM     10  C   UNL     1       5.851  44.580  50.810  1.00  0.00     0.043 A 
ATOM     11  C   UNL     1       3.713  43.043  51.471  1.00  0.00     0.225 A 
ATOM     12  C   UNL     1       6.984  45.330  50.401  1.00  0.00     0.014 A 
ATOM     13  C   UNL     1       5.741  43.239  50.432  1.00  0.00     0.078 A 
ATOM     14  N   UNL     1       4.694  42.479  50.762  1.00  0.00    -0.213 NA
ATOM     15  C   UNL     1       7.995  44.744  49.643  1.00  0.00     0.001 A 
ATOM     16  C   UNL     1       6.762  42.675  49.676  1.00  0.00     0.029 A 
ATOM     17  C   UNL     1       7.884  43.408  49.282  1.00  0.00     0.002 A 
BRANCH  11  18
ATOM     18  N   UNL     1       2.590  42.312  51.824  1.00  0.00    -0.354 N 
ATOM     19  H   UNL     1       2.581  41.497  51.223  1.00  0.00     0.163 HD
BRANCH  18  20
ATOM     20  C   UNL     1       1.334  43.050  51.897  1.00  0.00     0.121 C 
BRANCH  20  21
ATOM     21  C   UNL     1       0.483  42.640  53.108  1.00  0.00     0.068 C 
BRANCH  21  22
ATOM     22  C   UNL     1       0.461  43.697  54.180  1.00  0.00     0.006 A 
ATOM     23  C   UNL     1       1.531  44.389  54.714  1.00  0.00     0.015 A 
ATOM     24  S   UNL     1      -1.019  44.183  54.893  1.00  0.00    -0.149 S 
ATOM     25  C   UNL     1       1.131  45.320  55.714  1.00  0.00     0.012 A 
ATOM     26  C   UNL     1      -0.232  45.311  55.909  1.00  0.00     0.065 A 
ENDBRANCH  21  22
ENDBRANCH  20  21
ENDBRANCH  18  20
ENDBRANCH  11  18
ENDBRANCH   1   8
TORSDOF 9
ENDMDL
MODEL 15
REMARK VINA RESULT:    -7.216      2.418      4.213
REMARK INTER + INTRA:         -11.754
REMARK INTER:                 -10.922
REMARK INTRA:                  -0.832
REMARK UNBOUND:                -0.952
REMARK SMILES OCCCNc1nc(NCCc2cccs2)nc2ccccc12
REMARK SMILES IDX 5 1 4 3 3 4 2 5 1 6 6 8 7 9 23 10 8 11 22 12 18 13 17 14
REMARK SMILES IDX 21 15 19 16 20 17 9 18 10 20 11 21 12 22 13 23 16 24 14 25
REMARK SMILES IDX 15 26
REMARK H PARENT 5 2 1 7 9 19
ROOT
ATOM      1  N   UNL     1       7.366  47.028  52.645  1.00  0.00    -0.369 N 
ATOM      2  H   UNL     1       7.916  46.904  51.798  1.00  0.00     0.162 HD
ENDROOT
BRANCH   1   3
ATOM      3  C   UNL     1       8.235  47.158  53.818  1.00  0.00     0.117 C 
BRANCH   3   4
ATOM      4  C   UNL     1       9.686  46.827  53.462  1.00  0.00     0.049 C 
BRANCH   4   5
ATOM      5  C   UNL     1       9.903  46.821  51.957  1.00  0.00     0.158 C 
BRANCH   5   6
ATOM      6  O   UNL     1      10.681  45.698  51.564  1.00  0.00    -0.396 OA
ATOM      7  H   UNL     1      11.378  46.025  50.969  1.00  0.00     0.210 HD
ENDBRANCH   5   6
ENDBRANCH   4   5
ENDBRANCH   3   4
ENDBRANCH   1   3
BRANCH   1   8
ATOM      8  C   UNL     1       6.405  45.989  52.687  1.00  0.00     0.139 A 
ATOM      9  N   UNL     1       5.552  45.931  53.724  1.00  0.00    -0.195 NA
ATOM     10  C   UNL     1       6.360  45.058  51.637  1.00  0.00     0.043 A 
ATOM     11  C   UNL     1       4.656  44.941  53.746  1.00  0.00     0.225 A 
ATOM     12  C   UNL     1       7.197  45.072  50.490  1.00  0.00     0.014 A 
ATOM     13  C   UNL     1       5.393  44.058  51.770  1.00  0.00     0.078 A 
ATOM     14  N   UNL     1       4.559  43.994  52.810  1.00  0.00    -0.213 NA
ATOM     15  C   UNL     1       7.078  44.095  49.505  1.00  0.00     0.001 A 
ATOM     16  C   UNL     1       5.293  43.092  50.775  1.00  0.00     0.029 A 
ATOM     17  C   UNL     1       6.123  43.098  49.651  1.00  0.00     0.002 A 
BRANCH  11  18
ATOM     18  N   UNL     1       3.802  44.942  54.838  1.00  0.00    -0.354 N 
ATOM     19  H   UNL     1       3.774  43.988  55.176  1.00  0.00     0.163 HD
BRANCH  18  20
ATOM     20  C   UNL     1       2.503  45.575  54.643  1.00  0.00     0.121 C 
BRANCH  20  21
ATOM     21  C   UNL     1       1.355  44.759  55.253  1.00  0.00     0.068 C 
BRANCH  21  22
ATOM     22  C   UNL     1       0.624  43.936  54.224  1.00  0.00     0.006 A 
ATOM     23  C   UNL     1       1.114  42.888  53.471  1.00  0.00     0.015 A 
ATOM     24  S   UNL     1      -1.022  44.250  53.870  1.00  0.00    -0.149 S 
ATOM     25  C   UNL     1       0.131  42.342  52.597  1.00  0.00     0.012 A 
ATOM     26  C   UNL     1      -1.079  42.990  52.714  1.00  0.00     0.065 A 
ENDBRANCH  21  22
ENDBRANCH  20  21
ENDBRANCH  18  20
ENDBRANCH  11  18
ENDBRANCH   1   8
TORSDOF 9
ENDMDL
MODEL 16
REMARK VINA RESULT:    -7.161      2.920      4.419
REMARK INTER + INTRA:         -11.671
REMARK INTER:                 -10.867
REMARK INTRA:                  -0.804
REMARK UNBOUND:                -0.952
REMARK SMILES OCCCNc1nc(NCCc2cccs2)nc2ccccc12
REMARK SMILES IDX 5 1 4 3 3 4 2 5 1 6 6 8 7 9 23 10 8 11 22 12 18 13 17 14
REMARK SMILES IDX 21 15 19 16 20 17 9 18 10 20 11 21 12 22 13 23 16 24 14 25
REMARK SMILES IDX 15 26
REMARK H PARENT 5 2 1 7 9 19
ROOT
ATOM      1  N   UNL     1       5.929  41.122  48.542  1.00  0.00    -0.369 N 
ATOM      2  H   UNL     1       6.848  41.407  48.210  1.00  0.00     0.162 HD
ENDROOT
BRANCH   1   3
ATOM      3  C   UNL     1       4.984  41.003  47.428  1.00  0.00     0.117 C 
BRANCH   3   4
ATOM      4  C   UNL     1       5.463  41.808  46.218  1.00  0.00     0.049 C 
BRANCH   4   5
ATOM      5  C   UNL     1       4.679  41.449  44.965  1.00  0.00     0.158 C 
BRANCH   5   6
ATOM      6  O   UNL     1       5.492  41.585  43.806  1.00  0.00    -0.396 OA
ATOM      7  H   UNL     1       5.729  42.526  43.731  1.00  0.00     0.210 HD
ENDBRANCH   5   6
ENDBRANCH   4   5
ENDBRANCH   3   4
ENDBRANCH   1   3
BRANCH   1   8
ATOM      8  C   UNL     1       5.561  42.005  49.587  1.00  0.00     0.139 A 
ATOM      9  N   UNL     1       4.467  41.730  50.318  1.00  0.00    -0.195 NA
ATOM     10  C   UNL     1       6.357  43.134  49.839  1.00  0.00     0.043 A 
ATOM     11  C   UNL     1       4.135  42.576  51.296  1.00  0.00     0.225 A 
ATOM     12  C   UNL     1       7.546  43.474  49.142  1.00  0.00     0.014 A 
ATOM     13  C   UNL     1       5.909  43.957  50.876  1.00  0.00     0.078 A 
ATOM     14  N   UNL     1       4.812  43.689  51.588  1.00  0.00    -0.213 NA
ATOM     15  C   UNL     1       8.261  44.624  49.465  1.00  0.00     0.001 A 
ATOM     16  C   UNL     1       6.638  45.101  51.180  1.00  0.00     0.029 A 
ATOM     17  C   UNL     1       7.803  45.443  50.487  1.00  0.00     0.002 A 
BRANCH  11  18
ATOM     18  N   UNL     1       3.002  42.232  52.015  1.00  0.00    -0.354 N 
ATOM     19  H   UNL     1       2.726  41.314  51.689  1.00  0.00     0.163 HD
BRANCH  18  20
ATOM     20  C   UNL     1       1.936  43.227  52.058  1.00  0.00     0.121 C 
BRANCH  20  21
ATOM     21  C   UNL     1       1.796  43.877  53.442  1.00  0.00     0.068 C 
BRANCH  21  22
ATOM     22  C   UNL     1       2.627  45.126  53.579  1.00  0.00     0.006 A 
ATOM     23  C   UNL     1       3.523  45.445  54.580  1.00  0.00     0.015 A 
ATOM     24  S   UNL     1       2.531  46.367  52.403  1.00  0.00    -0.149 S 
ATOM     25  C   UNL     1       4.131  46.716  54.379  1.00  0.00     0.012 A 
ATOM     26  C   UNL     1       3.681  47.325  53.228  1.00  0.00     0.065 A 
ENDBRANCH  21  22
ENDBRANCH  20  21
ENDBRANCH  18  20
ENDBRANCH  11  18
ENDBRANCH   1   8
TORSDOF 9
ENDMDL
MODEL 17
REMARK VINA RESULT:    -7.160      2.422      6.027
REMARK INTER + INTRA:         -11.670
REMARK INTER:                 -11.007
REMARK INTRA:                  -0.663
REMARK UNBOUND:                -0.952
REMARK SMILES OCCCNc1nc(NCCc2cccs2)nc2ccccc12
REMARK SMILES IDX 5 1 4 3 3 4 2 5 1 6 6 8 7 9 23 10 8 11 22 12 18 13 17 14
REMARK SMILES IDX 21 15 19 16 20 17 9 18 10 20 11 21 12 22 13 23 16 24 14 25
REMARK SMILES IDX 15 26
REMARK H PARENT 5 2 1 7 9 19
ROOT
ATOM      1  N   UNL     1       3.532  43.060  51.722  1.00  0.00    -0.369 N 
ATOM      2  H   UNL     1       3.119  42.154  51.932  1.00  0.00     0.162 HD
ENDROOT
BRANCH   1   3
ATOM      3  C   UNL     1       4.854  42.904  51.111  1.00  0.00     0.117 C 
BRANCH   3   4
ATOM      4  C   UNL     1       4.970  41.555  50.397  1.00  0.00     0.049 C 
BRANCH   4   5
ATOM      5  C   UNL     1       6.167  41.522  49.460  1.00  0.00     0.158 C 
BRANCH   5   6
ATOM      6  O   UNL     1       7.263  40.848  50.065  1.00  0.00    -0.396 OA
ATOM      7  H   UNL     1       8.042  41.003  49.504  1.00  0.00     0.210 HD
ENDBRANCH   5   6
ENDBRANCH   4   5
ENDBRANCH   3   4
ENDBRANCH   1   3
BRANCH   1   8
ATOM      8  C   UNL     1       3.473  43.839  52.904  1.00  0.00     0.139 A 
ATOM      9  N   UNL     1       4.608  44.364  53.396  1.00  0.00    -0.195 NA
ATOM     10  C   UNL     1       2.229  44.055  53.518  1.00  0.00     0.043 A 
ATOM     11  C   UNL     1       4.532  45.092  54.512  1.00  0.00     0.225 A 
ATOM     12  C   UNL     1       0.982  43.572  53.041  1.00  0.00     0.014 A 
ATOM     13  C   UNL     1       2.268  44.820  54.686  1.00  0.00     0.078 A 
ATOM     14  N   UNL     1       3.401  45.324  55.182  1.00  0.00    -0.213 NA
ATOM     15  C   UNL     1      -0.198  43.835  53.731  1.00  0.00     0.001 A 
ATOM     16  C   UNL     1       1.078  45.070  55.359  1.00  0.00     0.029 A 
ATOM     17  C   UNL     1      -0.149  44.585  54.898  1.00  0.00     0.002 A 
BRANCH  11  18
ATOM     18  N   UNL     1       5.736  45.609  54.963  1.00  0.00    -0.354 N 
ATOM     19  H   UNL     1       5.692  45.592  55.975  1.00  0.00     0.163 HD
BRANCH  18  20
ATOM     20  C   UNL     1       6.157  46.876  54.377  1.00  0.00     0.121 C 
BRANCH  20  21
ATOM     21  C   UNL     1       7.655  47.146  54.576  1.00  0.00     0.068 C 
BRANCH  21  22
ATOM     22  C   UNL     1       8.474  46.763  53.371  1.00  0.00     0.006 A 
ATOM     23  C   UNL     1       9.848  46.760  53.244  1.00  0.00     0.015 A 
ATOM     24  S   UNL     1       7.709  46.249  51.928  1.00  0.00    -0.149 S 
ATOM     25  C   UNL     1      10.274  46.334  51.954  1.00  0.00     0.012 A 
ATOM     26  C   UNL     1       9.209  46.023  51.138  1.00  0.00     0.065 A 
ENDBRANCH  21  22
ENDBRANCH  20  21
ENDBRANCH  18  20
ENDBRANCH  11  18
ENDBRANCH   1   8
TORSDOF 9
ENDMDL
MODEL 18
REMARK VINA RESULT:    -7.082      2.557      3.962
REMARK INTER + INTRA:         -11.553
REMARK INTER:                 -10.763
REMARK INTRA:                  -0.791
REMARK UNBOUND:                -0.952
REMARK SMILES OCCCNc1nc(NCCc2cccs2)nc2ccccc12
REMARK SMILES IDX 5 1 4 3 3 4 2 5 1 6 6 8 7 9 23 10 8 11 22 12 18 13 17 14
REMARK SMILES IDX 21 15 19 16 20 17 9 18 10 20 11 21 12 22 13 23 16 24 14 25
REMARK SMILES IDX 15 26
REMARK H PARENT 5 2 1 7 9 19
ROOT
ATOM      1  N   UNL     1       5.695  46.849  54.810  1.00  0.00    -0.369 N 
ATOM      2  H   UNL     1       6.086  46.197  55.485  1.00  0.00     0.162 HD
ENDROOT
BRANCH   1   3
ATOM      3  C   UNL     1       4.235  46.908  54.924  1.00  0.00     0.117 C 
BRANCH   3   4
ATOM      4  C   UNL     1       3.672  45.572  55.417  1.00  0.00     0.049 C 
BRANCH   4   5
ATOM      5  C   UNL     1       2.157  45.617  55.539  1.00  0.00     0.158 C 
BRANCH   5   6
ATOM      6  O   UNL     1       1.690  44.582  56.395  1.00  0.00    -0.396 OA
ATOM      7  H   UNL     1       1.652  44.949  57.295  1.00  0.00     0.210 HD
ENDBRANCH   5   6
ENDBRANCH   4   5
ENDBRANCH   3   4
ENDBRANCH   1   3
BRANCH   1   8
ATOM      8  C   UNL     1       6.212  46.507  53.536  1.00  0.00     0.139 A 
ATOM      9  N   UNL     1       5.365  46.091  52.579  1.00  0.00    -0.195 NA
ATOM     10  C   UNL     1       7.592  46.628  53.305  1.00  0.00     0.043 A 
ATOM     11  C   UNL     1       5.873  45.770  51.387  1.00  0.00     0.225 A 
ATOM     12  C   UNL     1       8.545  47.097  54.246  1.00  0.00     0.014 A 
ATOM     13  C   UNL     1       8.014  46.253  52.027  1.00  0.00     0.078 A 
ATOM     14  N   UNL     1       7.172  45.823  51.085  1.00  0.00    -0.213 NA
ATOM     15  C   UNL     1       9.896  47.171  53.920  1.00  0.00     0.001 A 
ATOM     16  C   UNL     1       9.369  46.334  51.723  1.00  0.00     0.029 A 
ATOM     17  C   UNL     1      10.310  46.785  52.653  1.00  0.00     0.002 A 
BRANCH  11  18
ATOM     18  N   UNL     1       4.947  45.354  50.443  1.00  0.00    -0.354 N 
ATOM     19  H   UNL     1       4.589  46.195  50.006  1.00  0.00     0.163 HD
BRANCH  18  20
ATOM     20  C   UNL     1       3.936  44.408  50.901  1.00  0.00     0.121 C 
BRANCH  20  21
ATOM     21  C   UNL     1       2.567  45.069  51.110  1.00  0.00     0.068 C 
BRANCH  21  22
ATOM     22  C   UNL     1       1.686  44.285  52.047  1.00  0.00     0.006 A 
ATOM     23  C   UNL     1       1.993  43.125  52.730  1.00  0.00     0.015 A 
ATOM     24  S   UNL     1       0.090  44.809  52.383  1.00  0.00    -0.149 S 
ATOM     25  C   UNL     1       0.909  42.664  53.532  1.00  0.00     0.012 A 
ATOM     26  C   UNL     1      -0.188  43.490  53.436  1.00  0.00     0.065 A 
ENDBRANCH  21  22
ENDBRANCH  20  21
ENDBRANCH  18  20
ENDBRANCH  11  18
ENDBRANCH   1   8
TORSDOF 9
ENDMDL
MODEL 19
REMARK VINA RESULT:    -7.073      2.833      3.751
REMARK INTER + INTRA:         -11.540
REMARK INTER:                 -10.629
REMARK INTRA:                  -0.911
REMARK UNBOUND:                -0.952
REMARK SMILES OCCCNc1nc(NCCc2cccs2)nc2ccccc12
REMARK SMILES IDX 5 1 4 3 3 4 2 5 1 6 6 8 7 9 23 10 8 11 22 12 18 13 17 14
REMARK SMILES IDX 21 15 19 16 20 17 9 18 10 20 11 21 12 22 13 23 16 24 14 25
REMARK SMILES IDX 15 26
REMARK H PARENT 5 2 1 7 9 19
ROOT
ATOM      1  N   UNL     1       6.156  43.231  49.756  1.00  0.00    -0.369 N 
ATOM      2  H   UNL     1       5.616  43.558  48.958  1.00  0.00     0.162 HD
ENDROOT
BRANCH   1   3
ATOM      3  C   UNL     1       6.139  41.768  49.835  1.00  0.00     0.117 C 
BRANCH   3   4
ATOM      4  C   UNL     1       5.248  41.172  48.743  1.00  0.00     0.049 C 
BRANCH   4   5
ATOM      5  C   UNL     1       3.902  40.735  49.298  1.00  0.00     0.158 C 
BRANCH   5   6
ATOM      6  O   UNL     1       3.882  40.847  50.716  1.00  0.00    -0.396 OA
ATOM      7  H   UNL     1       3.448  40.047  51.061  1.00  0.00     0.210 HD
ENDBRANCH   5   6
ENDBRANCH   4   5
ENDBRANCH   3   4
ENDBRANCH   1   3
BRANCH   1   8
ATOM      8  C   UNL     1       5.692  43.928  50.899  1.00  0.00     0.139 A 
ATOM      9  N   UNL     1       4.623  43.455  51.561  1.00  0.00    -0.195 NA
ATOM     10  C   UNL     1       6.372  45.083  51.317  1.00  0.00     0.043 A 
ATOM     11  C   UNL     1       4.199  44.128  52.634  1.00  0.00     0.225 A 
ATOM     12  C   UNL     1       7.530  45.624  50.698  1.00  0.00     0.014 A 
ATOM     13  C   UNL     1       5.835  45.714  52.441  1.00  0.00     0.078 A 
ATOM     14  N   UNL     1       4.762  45.251  53.086  1.00  0.00    -0.213 NA
ATOM     15  C   UNL     1       8.127  46.783  51.187  1.00  0.00     0.001 A 
ATOM     16  C   UNL     1       6.447  46.871  52.911  1.00  0.00     0.029 A 
ATOM     17  C   UNL     1       7.580  47.412  52.297  1.00  0.00     0.002 A 
BRANCH  11  18
ATOM     18  N   UNL     1       3.097  43.585  53.275  1.00  0.00    -0.354 N 
ATOM     19  H   UNL     1       2.656  42.965  52.606  1.00  0.00     0.163 HD
BRANCH  18  20
ATOM     20  C   UNL     1       2.203  44.529  53.935  1.00  0.00     0.121 C 
BRANCH  20  21
ATOM     21  C   UNL     1       0.807  43.941  54.183  1.00  0.00     0.068 C 
BRANCH  21  22
ATOM     22  C   UNL     1       0.040  44.700  55.234  1.00  0.00     0.006 A 
ATOM     23  C   UNL     1      -1.326  44.871  55.330  1.00  0.00     0.015 A 
ATOM     24  S   UNL     1       0.863  45.481  56.516  1.00  0.00    -0.149 S 
ATOM     25  C   UNL     1      -1.698  45.651  56.462  1.00  0.00     0.012 A 
ATOM     26  C   UNL     1      -0.601  46.046  57.196  1.00  0.00     0.065 A 
ENDBRANCH  21  22
ENDBRANCH  20  21
ENDBRANCH  18  20
ENDBRANCH  11  18
ENDBRANCH   1   8
TORSDOF 9
ENDMDL
MODEL 20
REMARK VINA RESULT:    -7.056      2.481      6.141
REMARK INTER + INTRA:         -11.514
REMARK INTER:                 -10.515
REMARK INTRA:                  -0.998
REMARK UNBOUND:                -0.952
REMARK SMILES OCCCNc1nc(NCCc2cccs2)nc2ccccc12
REMARK SMILES IDX 5 1 4 3 3 4 2 5 1 6 6 8 7 9 23 10 8 11 22 12 18 13 17 14
REMARK SMILES IDX 21 15 19 16 20 17 9 18 10 20 11 21 12 22 13 23 16 24 14 25
REMARK SMILES IDX 15 26
REMARK H PARENT 5 2 1 7 9 19
ROOT
ATOM      1  N   UNL     1       3.938  43.554  51.132  1.00  0.00    -0.369 N 
ATOM      2  H   UNL     1       3.513  42.642  50.985  1.00  0.00     0.162 HD
ENDROOT
BRANCH   1   3
ATOM      3  C   UNL     1       5.389  43.494  50.935  1.00  0.00     0.117 C 
BRANCH   3   4
ATOM      4  C   UNL     1       5.798  42.164  50.297  1.00  0.00     0.049 C 
BRANCH   4   5
ATOM      5  C   UNL     1       4.592  41.411  49.757  1.00  0.00     0.158 C 
BRANCH   5   6
ATOM      6  O   UNL     1       3.887  40.768  50.811  1.00  0.00    -0.396 OA
ATOM      7  H   UNL     1       2.951  40.728  50.547  1.00  0.00     0.210 HD
ENDBRANCH   5   6
ENDBRANCH   4   5
ENDBRANCH   3   4
ENDBRANCH   1   3
BRANCH   1   8
ATOM      8  C   UNL     1       3.494  44.033  52.389  1.00  0.00     0.139 A 
ATOM      9  N   UNL     1       4.321  44.796  53.125  1.00  0.00    -0.195 NA
ATOM     10  C   UNL     1       2.198  43.712  52.824  1.00  0.00     0.043 A 
ATOM     11  C   UNL     1       3.885  45.235  54.308  1.00  0.00     0.225 A 
ATOM     12  C   UNL     1       1.252  42.948  52.091  1.00  0.00     0.014 A 
ATOM     13  C   UNL     1       1.852  44.212  54.081  1.00  0.00     0.078 A 
ATOM     14  N   UNL     1       2.683  44.954  54.817  1.00  0.00    -0.213 NA
ATOM     15  C   UNL     1      -0.009  42.677  52.616  1.00  0.00     0.001 A 
ATOM     16  C   UNL     1       0.588  43.928  54.586  1.00  0.00     0.029 A 
ATOM     17  C   UNL     1      -0.341  43.167  53.871  1.00  0.00     0.002 A 
BRANCH  11  18
ATOM     18  N   UNL     1       4.782  46.020  55.014  1.00  0.00    -0.354 N 
ATOM     19  H   UNL     1       4.502  46.981  54.859  1.00  0.00     0.163 HD
BRANCH  18  20
ATOM     20  C   UNL     1       6.197  45.738  54.800  1.00  0.00     0.121 C 
BRANCH  20  21
ATOM     21  C   UNL     1       7.011  47.007  54.511  1.00  0.00     0.068 C 
BRANCH  21  22
ATOM     22  C   UNL     1       8.116  46.769  53.515  1.00  0.00     0.006 A 
ATOM     23  C   UNL     1       9.478  46.848  53.723  1.00  0.00     0.015 A 
ATOM     24  S   UNL     1       7.751  46.337  51.899  1.00  0.00    -0.149 S 
ATOM     25  C   UNL     1      10.225  46.554  52.547  1.00  0.00     0.012 A 
ATOM     26  C   UNL     1       9.407  46.256  51.480  1.00  0.00     0.065 A 
ENDBRANCH  21  22
ENDBRANCH  20  21
ENDBRANCH  18  20
ENDBRANCH  11  18
ENDBRANCH   1   8
TORSDOF 9
ENDMDL
