MODEL 1
REMARK VINA RESULT:    -9.223      0.000      0.000
REMARK INTER + INTRA:         -13.867
REMARK INTER:                 -12.727
REMARK INTRA:                  -1.140
REMARK UNBOUND:                -1.140
REMARK SMILES CC(=O)NCCNc1nc(Nc2ccc(O)cc2C)c2cnn(C)c2n1
REMARK SMILES IDX 8 1 9 2 10 3 20 4 21 5 22 6 23 7 24 8 25 9 26 10 7 11 6 13
REMARK SMILES IDX 5 14 4 15 2 16 1 17 3 18 11 20 12 22 13 23 18 24 14 25 17 26
REMARK SMILES IDX 15 27 19 28 16 29
REMARK H PARENT 7 12 4 19 11 21 16 30
ROOT
ATOM      1  C   UNL     1       5.756  46.713  54.282  1.00  0.00     0.226 A 
ATOM      2  N   UNL     1       5.549  46.035  53.141  1.00  0.00    -0.195 NA
ATOM      3  C   UNL     1       6.575  45.772  52.287  1.00  0.00     0.147 A 
ATOM      4  C   UNL     1       7.842  46.237  52.665  1.00  0.00     0.082 A 
ATOM      5  C   UNL     1       9.163  46.224  52.168  1.00  0.00     0.149 A 
ATOM      6  N   UNL     1      10.029  46.850  52.971  1.00  0.00    -0.179 NA
ATOM      7  N   UNL     1       9.251  47.269  53.997  1.00  0.00    -0.250 N 
ATOM      8  C   UNL     1       9.848  47.994  55.089  1.00  0.00     0.176 C 
ATOM      9  C   UNL     1       7.934  46.929  53.856  1.00  0.00     0.165 A 
ATOM     10  N   UNL     1       6.929  47.202  54.701  1.00  0.00    -0.193 NA
ENDROOT
BRANCH   1  11
ATOM     11  N   UNL     1       4.614  46.890  55.058  1.00  0.00    -0.352 N 
ATOM     12  H   UNL     1       4.940  47.393  55.879  1.00  0.00     0.163 HD
BRANCH  11  13
ATOM     13  C   UNL     1       3.897  45.650  55.348  1.00  0.00     0.137 C 
BRANCH  13  14
ATOM     14  C   UNL     1       2.386  45.902  55.284  1.00  0.00     0.137 C 
BRANCH  14  15
ATOM     15  N   UNL     1       1.809  45.361  54.066  1.00  0.00    -0.355 N 
ATOM     16  C   UNL     1       1.892  46.043  52.878  1.00  0.00     0.216 C 
ATOM     17  C   UNL     1       1.380  45.276  51.688  1.00  0.00     0.114 C 
ATOM     18  O   UNL     1       2.346  47.178  52.778  1.00  0.00    -0.275 OA
ATOM     19  H   UNL     1       1.668  44.356  54.053  1.00  0.00     0.163 HD
ENDBRANCH  14  15
ENDBRANCH  13  14
ENDBRANCH  11  13
ENDBRANCH   1  11
BRANCH   3  20
ATOM     20  N   UNL     1       6.390  45.042  51.103  1.00  0.00    -0.339 N 
ATOM     21  H   UNL     1       6.790  45.489  50.291  1.00  0.00     0.168 HD
BRANCH  20  22
ATOM     22  C   UNL     1       5.682  43.857  50.817  1.00  0.00     0.043 A 
ATOM     23  C   UNL     1       4.480  43.529  51.463  1.00  0.00     0.030 A 
ATOM     24  C   UNL     1       6.212  42.923  49.892  1.00  0.00    -0.024 A 
ATOM     25  C   UNL     1       3.802  42.337  51.190  1.00  0.00     0.048 A 
ATOM     26  C   UNL     1       5.521  41.726  49.620  1.00  0.00     0.051 A 
ATOM     27  C   UNL     1       4.326  41.446  50.270  1.00  0.00     0.115 A 
ATOM     28  C   UNL     1       7.515  43.172  49.175  1.00  0.00     0.047 C 
BRANCH  27  29
ATOM     29  O   UNL     1       3.635  40.297  50.031  1.00  0.00    -0.508 OA
ATOM     30  H   UNL     1       4.183  39.713  49.482  1.00  0.00     0.293 HD
ENDBRANCH  27  29
ENDBRANCH  20  22
ENDBRANCH   3  20
TORSDOF 7
ENDMDL
MODEL 2
REMARK VINA RESULT:    -9.129      1.129      1.157
REMARK INTER + INTRA:         -13.738
REMARK INTER:                 -12.713
REMARK INTRA:                  -1.025
REMARK UNBOUND:                -1.140
REMARK SMILES CC(=O)NCCNc1nc(Nc2ccc(O)cc2C)c2cnn(C)c2n1
REMARK SMILES IDX 8 1 9 2 10 3 20 4 21 5 22 6 23 7 24 8 25 9 26 10 7 11 6 13
REMARK SMILES IDX 5 14 4 15 2 16 1 17 3 18 11 20 12 22 13 23 18 24 14 25 17 26
REMARK SMILES IDX 15 27 19 28 16 29
REMARK H PARENT 7 12 4 19 11 21 16 30
ROOT
ATOM      1  C   UNL     1       5.896  46.928  54.220  1.00  0.00     0.226 A 
ATOM      2  N   UNL     1       5.585  46.290  53.079  1.00  0.00    -0.195 NA
ATOM      3  C   UNL     1       6.556  45.889  52.214  1.00  0.00     0.147 A 
ATOM      4  C   UNL     1       7.879  46.168  52.581  1.00  0.00     0.082 A 
ATOM      5  C   UNL     1       9.180  45.970  52.072  1.00  0.00     0.149 A 
ATOM      6  N   UNL     1      10.134  46.463  52.868  1.00  0.00    -0.179 NA
ATOM      7  N   UNL     1       9.432  46.983  53.904  1.00  0.00    -0.250 N 
ATOM      8  C   UNL     1      10.136  47.611  54.993  1.00  0.00     0.176 C 
ATOM      9  C   UNL     1       8.079  46.834  53.774  1.00  0.00     0.165 A 
ATOM     10  N   UNL     1       7.130  47.243  54.630  1.00  0.00    -0.193 NA
ENDROOT
BRANCH   1  11
ATOM     11  N   UNL     1       4.798  47.260  55.008  1.00  0.00    -0.352 N 
ATOM     12  H   UNL     1       5.057  46.962  55.945  1.00  0.00     0.163 HD
BRANCH  11  13
ATOM     13  C   UNL     1       3.533  46.713  54.522  1.00  0.00     0.137 C 
BRANCH  13  14
ATOM     14  C   UNL     1       3.048  45.616  55.477  1.00  0.00     0.137 C 
BRANCH  14  15
ATOM     15  N   UNL     1       2.612  44.436  54.750  1.00  0.00    -0.355 N 
ATOM     16  C   UNL     1       1.280  44.207  54.505  1.00  0.00     0.216 C 
ATOM     17  C   UNL     1       1.012  43.025  53.613  1.00  0.00     0.114 C 
ATOM     18  O   UNL     1       0.378  44.900  54.962  1.00  0.00    -0.275 OA
ATOM     19  H   UNL     1       3.308  44.000  54.155  1.00  0.00     0.163 HD
ENDBRANCH  14  15
ENDBRANCH  13  14
ENDBRANCH  11  13
ENDBRANCH   1  11
BRANCH   3  20
ATOM     20  N   UNL     1       6.259  45.199  51.029  1.00  0.00    -0.339 N 
ATOM     21  H   UNL     1       6.524  45.701  50.196  1.00  0.00     0.168 HD
BRANCH  20  22
ATOM     22  C   UNL     1       5.585  43.985  50.779  1.00  0.00     0.043 A 
ATOM     23  C   UNL     1       4.362  43.669  51.390  1.00  0.00     0.030 A 
ATOM     24  C   UNL     1       6.173  43.014  49.930  1.00  0.00    -0.024 A 
ATOM     25  C   UNL     1       3.719  42.450  51.153  1.00  0.00     0.048 A 
ATOM     26  C   UNL     1       5.516  41.790  49.695  1.00  0.00     0.051 A 
ATOM     27  C   UNL     1       4.299  41.522  50.307  1.00  0.00     0.115 A 
ATOM     28  C   UNL     1       7.501  43.250  49.257  1.00  0.00     0.047 C 
BRANCH  27  29
ATOM     29  O   UNL     1       3.639  40.347  50.102  1.00  0.00    -0.508 OA
ATOM     30  H   UNL     1       3.720  40.105  49.166  1.00  0.00     0.293 HD
ENDBRANCH  27  29
ENDBRANCH  20  22
ENDBRANCH   3  20
TORSDOF 7
ENDMDL
MODEL 3
REMARK VINA RESULT:    -8.746      2.450      5.870
REMARK INTER + INTRA:         -13.210
REMARK INTER:                 -12.516
REMARK INTRA:                  -0.694
REMARK UNBOUND:                -1.140
REMARK SMILES CC(=O)NCCNc1nc(Nc2ccc(O)cc2C)c2cnn(C)c2n1
REMARK SMILES IDX 8 1 9 2 10 3 20 4 21 5 22 6 23 7 24 8 25 9 26 10 7 11 6 13
REMARK SMILES IDX 5 14 4 15 2 16 1 17 3 18 11 20 12 22 13 23 18 24 14 25 17 26
REMARK SMILES IDX 15 27 19 28 16 29
REMARK H PARENT 7 12 4 19 11 21 16 30
ROOT
ATOM      1  C   UNL     1       3.513  45.018  54.869  1.00  0.00     0.226 A 
ATOM      2  N   UNL     1       3.955  44.657  53.652  1.00  0.00    -0.195 NA
ATOM      3  C   UNL     1       3.101  44.160  52.716  1.00  0.00     0.147 A 
ATOM      4  C   UNL     1       1.754  44.055  53.088  1.00  0.00     0.082 A 
ATOM      5  C   UNL     1       0.533  43.635  52.520  1.00  0.00     0.149 A 
ATOM      6  N   UNL     1      -0.501  43.752  53.359  1.00  0.00    -0.179 NA
ATOM      7  N   UNL     1       0.067  44.256  54.480  1.00  0.00    -0.250 N 
ATOM      8  C   UNL     1      -0.756  44.530  55.631  1.00  0.00     0.176 C 
ATOM      9  C   UNL     1       1.416  44.451  54.367  1.00  0.00     0.165 A 
ATOM     10  N   UNL     1       2.249  44.933  55.301  1.00  0.00    -0.193 NA
ENDROOT
BRANCH   1  11
ATOM     11  N   UNL     1       4.500  45.523  55.711  1.00  0.00    -0.352 N 
ATOM     12  H   UNL     1       4.199  46.472  55.916  1.00  0.00     0.163 HD
BRANCH  11  13
ATOM     13  C   UNL     1       5.853  45.416  55.168  1.00  0.00     0.137 C 
BRANCH  13  14
ATOM     14  C   UNL     1       6.314  46.789  54.663  1.00  0.00     0.137 C 
BRANCH  14  15
ATOM     15  N   UNL     1       7.529  46.684  53.875  1.00  0.00    -0.355 N 
ATOM     16  C   UNL     1       8.665  47.369  54.229  1.00  0.00     0.216 C 
ATOM     17  C   UNL     1       9.874  47.032  53.398  1.00  0.00     0.114 C 
ATOM     18  O   UNL     1       8.708  48.183  55.145  1.00  0.00    -0.275 OA
ATOM     19  H   UNL     1       7.610  45.855  53.294  1.00  0.00     0.163 HD
ENDBRANCH  14  15
ENDBRANCH  13  14
ENDBRANCH  11  13
ENDBRANCH   1  11
BRANCH   3  20
ATOM     20  N   UNL     1       3.533  43.801  51.431  1.00  0.00    -0.339 N 
ATOM     21  H   UNL     1       2.786  43.485  50.831  1.00  0.00     0.168 HD
BRANCH  20  22
ATOM     22  C   UNL     1       4.815  43.714  50.848  1.00  0.00     0.043 A 
ATOM     23  C   UNL     1       5.666  44.824  50.744  1.00  0.00     0.030 A 
ATOM     24  C   UNL     1       5.254  42.487  50.291  1.00  0.00    -0.024 A 
ATOM     25  C   UNL     1       6.923  44.729  50.139  1.00  0.00     0.048 A 
ATOM     26  C   UNL     1       6.524  42.399  49.687  1.00  0.00     0.051 A 
ATOM     27  C   UNL     1       7.343  43.519  49.617  1.00  0.00     0.115 A 
ATOM     28  C   UNL     1       4.395  41.249  50.324  1.00  0.00     0.047 C 
BRANCH  27  29
ATOM     29  O   UNL     1       8.575  43.468  49.037  1.00  0.00    -0.508 OA
ATOM     30  H   UNL     1       8.464  43.443  48.073  1.00  0.00     0.293 HD
ENDBRANCH  27  29
ENDBRANCH  20  22
ENDBRANCH   3  20
TORSDOF 7
ENDMDL
MODEL 4
REMARK VINA RESULT:    -8.697      2.388      5.702
REMARK INTER + INTRA:         -13.141
REMARK INTER:                 -12.072
REMARK INTRA:                  -1.070
REMARK UNBOUND:                -1.140
REMARK SMILES CC(=O)NCCNc1nc(Nc2ccc(O)cc2C)c2cnn(C)c2n1
REMARK SMILES IDX 8 1 9 2 10 3 20 4 21 5 22 6 23 7 24 8 25 9 26 10 7 11 6 13
REMARK SMILES IDX 5 14 4 15 2 16 1 17 3 18 11 20 12 22 13 23 18 24 14 25 17 26
REMARK SMILES IDX 15 27 19 28 16 29
REMARK H PARENT 7 12 4 19 11 21 16 30
ROOT
ATOM      1  C   UNL     1       4.524  44.185  51.744  1.00  0.00     0.226 A 
ATOM      2  N   UNL     1       5.375  45.191  52.006  1.00  0.00    -0.195 NA
ATOM      3  C   UNL     1       6.536  45.325  51.310  1.00  0.00     0.147 A 
ATOM      4  C   UNL     1       6.786  44.370  50.315  1.00  0.00     0.082 A 
ATOM      5  C   UNL     1       7.781  44.078  49.358  1.00  0.00     0.149 A 
ATOM      6  N   UNL     1       7.502  42.993  48.629  1.00  0.00    -0.179 NA
ATOM      7  N   UNL     1       6.309  42.586  49.125  1.00  0.00    -0.250 N 
ATOM      8  C   UNL     1       5.671  41.420  48.570  1.00  0.00     0.176 C 
ATOM      9  C   UNL     1       5.843  43.377  50.138  1.00  0.00     0.165 A 
ATOM     10  N   UNL     1       4.699  43.230  50.824  1.00  0.00    -0.193 NA
ENDROOT
BRANCH   1  11
ATOM     11  N   UNL     1       3.372  44.191  52.526  1.00  0.00    -0.352 N 
ATOM     12  H   UNL     1       3.174  43.208  52.694  1.00  0.00     0.163 HD
BRANCH  11  13
ATOM     13  C   UNL     1       2.264  44.945  51.943  1.00  0.00     0.137 C 
BRANCH  13  14
ATOM     14  C   UNL     1       1.914  46.129  52.853  1.00  0.00     0.137 C 
BRANCH  14  15
ATOM     15  N   UNL     1       1.030  45.725  53.933  1.00  0.00    -0.355 N 
ATOM     16  C   UNL     1       1.529  45.366  55.161  1.00  0.00     0.216 C 
ATOM     17  C   UNL     1       0.476  45.124  56.208  1.00  0.00     0.114 C 
ATOM     18  O   UNL     1       2.727  45.254  55.399  1.00  0.00    -0.275 OA
ATOM     19  H   UNL     1       0.070  46.046  53.862  1.00  0.00     0.163 HD
ENDBRANCH  14  15
ENDBRANCH  13  14
ENDBRANCH  11  13
ENDBRANCH   1  11
BRANCH   3  20
ATOM     20  N   UNL     1       7.429  46.381  51.546  1.00  0.00    -0.339 N 
ATOM     21  H   UNL     1       7.608  46.944  50.729  1.00  0.00     0.168 HD
BRANCH  20  22
ATOM     22  C   UNL     1       8.186  46.752  52.677  1.00  0.00     0.043 A 
ATOM     23  C   UNL     1       7.608  47.382  53.790  1.00  0.00     0.030 A 
ATOM     24  C   UNL     1       9.587  46.541  52.688  1.00  0.00    -0.024 A 
ATOM     25  C   UNL     1       8.375  47.768  54.893  1.00  0.00     0.048 A 
ATOM     26  C   UNL     1      10.352  46.931  53.805  1.00  0.00     0.051 A 
ATOM     27  C   UNL     1       9.740  47.539  54.893  1.00  0.00     0.115 A 
ATOM     28  C   UNL     1      10.302  45.903  51.524  1.00  0.00     0.047 C 
BRANCH  27  29
ATOM     29  O   UNL     1      10.452  47.929  55.988  1.00  0.00    -0.508 OA
ATOM     30  H   UNL     1      11.078  48.620  55.721  1.00  0.00     0.293 HD
ENDBRANCH  27  29
ENDBRANCH  20  22
ENDBRANCH   3  20
TORSDOF 7
ENDMDL
MODEL 5
REMARK VINA RESULT:    -8.618      2.204      5.795
REMARK INTER + INTRA:         -13.033
REMARK INTER:                 -12.260
REMARK INTRA:                  -0.773
REMARK UNBOUND:                -1.140
REMARK SMILES CC(=O)NCCNc1nc(Nc2ccc(O)cc2C)c2cnn(C)c2n1
REMARK SMILES IDX 8 1 9 2 10 3 20 4 21 5 22 6 23 7 24 8 25 9 26 10 7 11 6 13
REMARK SMILES IDX 5 14 4 15 2 16 1 17 3 18 11 20 12 22 13 23 18 24 14 25 17 26
REMARK SMILES IDX 15 27 19 28 16 29
REMARK H PARENT 7 12 4 19 11 21 16 30
ROOT
ATOM      1  C   UNL     1       3.374  45.325  55.144  1.00  0.00     0.226 A 
ATOM      2  N   UNL     1       3.652  44.941  53.886  1.00  0.00    -0.195 NA
ATOM      3  C   UNL     1       2.663  44.536  53.043  1.00  0.00     0.147 A 
ATOM      4  C   UNL     1       1.358  44.549  53.553  1.00  0.00     0.082 A 
ATOM      5  C   UNL     1       0.051  44.249  53.115  1.00  0.00     0.149 A 
ATOM      6  N   UNL     1      -0.875  44.448  54.059  1.00  0.00    -0.179 NA
ATOM      7  N   UNL     1      -0.149  44.884  55.116  1.00  0.00    -0.250 N 
ATOM      8  C   UNL     1      -0.819  45.217  56.347  1.00  0.00     0.176 C 
ATOM      9  C   UNL     1       1.193  44.957  54.862  1.00  0.00     0.165 A 
ATOM     10  N   UNL     1       2.160  45.349  55.705  1.00  0.00    -0.193 NA
ENDROOT
BRANCH   1  11
ATOM     11  N   UNL     1       4.485  45.727  55.879  1.00  0.00    -0.352 N 
ATOM     12  H   UNL     1       4.296  46.697  56.116  1.00  0.00     0.163 HD
BRANCH  11  13
ATOM     13  C   UNL     1       5.759  45.503  55.198  1.00  0.00     0.137 C 
BRANCH  13  14
ATOM     14  C   UNL     1       6.288  46.832  54.647  1.00  0.00     0.137 C 
BRANCH  14  15
ATOM     15  N   UNL     1       7.525  46.646  53.908  1.00  0.00    -0.355 N 
ATOM     16  C   UNL     1       8.666  47.327  54.254  1.00  0.00     0.216 C 
ATOM     17  C   UNL     1       9.891  46.907  53.488  1.00  0.00     0.114 C 
ATOM     18  O   UNL     1       8.699  48.200  55.114  1.00  0.00    -0.275 OA
ATOM     19  H   UNL     1       7.603  45.779  53.387  1.00  0.00     0.163 HD
ENDBRANCH  14  15
ENDBRANCH  13  14
ENDBRANCH  11  13
ENDBRANCH   1  11
BRANCH   3  20
ATOM     20  N   UNL     1       2.924  44.155  51.718  1.00  0.00    -0.339 N 
ATOM     21  H   UNL     1       2.215  44.457  51.068  1.00  0.00     0.168 HD
BRANCH  20  22
ATOM     22  C   UNL     1       3.936  43.361  51.139  1.00  0.00     0.043 A 
ATOM     23  C   UNL     1       3.818  41.968  51.020  1.00  0.00     0.030 A 
ATOM     24  C   UNL     1       5.144  43.963  50.708  1.00  0.00    -0.024 A 
ATOM     25  C   UNL     1       4.840  41.191  50.468  1.00  0.00     0.048 A 
ATOM     26  C   UNL     1       6.168  43.172  50.149  1.00  0.00     0.051 A 
ATOM     27  C   UNL     1       6.006  41.798  50.036  1.00  0.00     0.115 A 
ATOM     28  C   UNL     1       5.377  45.447  50.827  1.00  0.00     0.047 C 
BRANCH  27  29
ATOM     29  O   UNL     1       6.977  41.005  49.502  1.00  0.00    -0.508 OA
ATOM     30  H   UNL     1       6.555  40.312  48.970  1.00  0.00     0.293 HD
ENDBRANCH  27  29
ENDBRANCH  20  22
ENDBRANCH   3  20
TORSDOF 7
ENDMDL
MODEL 6
REMARK VINA RESULT:    -8.591      2.391      5.632
REMARK INTER + INTRA:         -12.996
REMARK INTER:                 -11.725
REMARK INTRA:                  -1.271
REMARK UNBOUND:                -1.140
REMARK SMILES CC(=O)NCCNc1nc(Nc2ccc(O)cc2C)c2cnn(C)c2n1
REMARK SMILES IDX 8 1 9 2 10 3 20 4 21 5 22 6 23 7 24 8 25 9 26 10 7 11 6 13
REMARK SMILES IDX 5 14 4 15 2 16 1 17 3 18 11 20 12 22 13 23 18 24 14 25 17 26
REMARK SMILES IDX 15 27 19 28 16 29
REMARK H PARENT 7 12 4 19 11 21 16 30
ROOT
ATOM      1  C   UNL     1       3.486  45.230  51.645  1.00  0.00     0.226 A 
ATOM      2  N   UNL     1       4.605  45.969  51.721  1.00  0.00    -0.195 NA
ATOM      3  C   UNL     1       5.807  45.460  51.338  1.00  0.00     0.147 A 
ATOM      4  C   UNL     1       5.809  44.142  50.860  1.00  0.00     0.082 A 
ATOM      5  C   UNL     1       6.734  43.202  50.359  1.00  0.00     0.149 A 
ATOM      6  N   UNL     1       6.169  42.035  50.036  1.00  0.00    -0.179 NA
ATOM      7  N   UNL     1       4.862  42.232  50.333  1.00  0.00    -0.250 N 
ATOM      8  C   UNL     1       3.916  41.169  50.105  1.00  0.00     0.176 C 
ATOM      9  C   UNL     1       4.599  43.477  50.833  1.00  0.00     0.165 A 
ATOM     10  N   UNL     1       3.410  43.964  51.217  1.00  0.00    -0.193 NA
ENDROOT
BRANCH   1  11
ATOM     11  N   UNL     1       2.332  45.892  52.057  1.00  0.00    -0.352 N 
ATOM     12  H   UNL     1       2.668  46.767  52.451  1.00  0.00     0.163 HD
BRANCH  11  13
ATOM     13  C   UNL     1       1.486  45.105  52.952  1.00  0.00     0.137 C 
BRANCH  13  14
ATOM     14  C   UNL     1       1.963  45.282  54.398  1.00  0.00     0.137 C 
BRANCH  14  15
ATOM     15  N   UNL     1       3.274  44.689  54.601  1.00  0.00    -0.355 N 
ATOM     16  C   UNL     1       4.331  45.442  55.050  1.00  0.00     0.216 C 
ATOM     17  C   UNL     1       5.572  44.646  55.351  1.00  0.00     0.114 C 
ATOM     18  O   UNL     1       4.281  46.658  55.201  1.00  0.00    -0.275 OA
ATOM     19  H   UNL     1       3.288  43.683  54.736  1.00  0.00     0.163 HD
ENDBRANCH  14  15
ENDBRANCH  13  14
ENDBRANCH  11  13
ENDBRANCH   1  11
BRANCH   3  20
ATOM     20  N   UNL     1       6.986  46.220  51.384  1.00  0.00    -0.339 N 
ATOM     21  H   UNL     1       7.295  46.533  50.476  1.00  0.00     0.168 HD
BRANCH  20  22
ATOM     22  C   UNL     1       7.863  46.553  52.437  1.00  0.00     0.043 A 
ATOM     23  C   UNL     1       7.422  47.204  53.600  1.00  0.00     0.030 A 
ATOM     24  C   UNL     1       9.248  46.282  52.314  1.00  0.00    -0.024 A 
ATOM     25  C   UNL     1       8.307  47.552  54.624  1.00  0.00     0.048 A 
ATOM     26  C   UNL     1      10.133  46.633  53.353  1.00  0.00     0.051 A 
ATOM     27  C   UNL     1       9.654  47.263  54.495  1.00  0.00     0.115 A 
ATOM     28  C   UNL     1       9.820  45.617  51.088  1.00  0.00     0.047 C 
BRANCH  27  29
ATOM     29  O   UNL     1      10.483  47.618  55.516  1.00  0.00    -0.508 OA
ATOM     30  H   UNL     1       9.943  47.879  56.279  1.00  0.00     0.293 HD
ENDBRANCH  27  29
ENDBRANCH  20  22
ENDBRANCH   3  20
TORSDOF 7
ENDMDL
MODEL 7
REMARK VINA RESULT:    -8.519      2.934      7.011
REMARK INTER + INTRA:         -12.896
REMARK INTER:                 -12.117
REMARK INTRA:                  -0.779
REMARK UNBOUND:                -1.140
REMARK SMILES CC(=O)NCCNc1nc(Nc2ccc(O)cc2C)c2cnn(C)c2n1
REMARK SMILES IDX 8 1 9 2 10 3 20 4 21 5 22 6 23 7 24 8 25 9 26 10 7 11 6 13
REMARK SMILES IDX 5 14 4 15 2 16 1 17 3 18 11 20 12 22 13 23 18 24 14 25 17 26
REMARK SMILES IDX 15 27 19 28 16 29
REMARK H PARENT 7 12 4 19 11 21 16 30
ROOT
ATOM      1  C   UNL     1       5.068  43.083  50.853  1.00  0.00     0.226 A 
ATOM      2  N   UNL     1       6.133  43.900  50.916  1.00  0.00    -0.195 NA
ATOM      3  C   UNL     1       5.998  45.199  51.299  1.00  0.00     0.147 A 
ATOM      4  C   UNL     1       4.703  45.625  51.626  1.00  0.00     0.082 A 
ATOM      5  C   UNL     1       4.059  46.802  52.064  1.00  0.00     0.149 A 
ATOM      6  N   UNL     1       2.741  46.646  52.227  1.00  0.00    -0.179 NA
ATOM      7  N   UNL     1       2.540  45.350  51.889  1.00  0.00    -0.250 N 
ATOM      8  C   UNL     1       1.209  44.800  51.949  1.00  0.00     0.176 C 
ATOM      9  C   UNL     1       3.684  44.700  51.519  1.00  0.00     0.165 A 
ATOM     10  N   UNL     1       3.804  43.421  51.133  1.00  0.00    -0.193 NA
ENDROOT
BRANCH   1  11
ATOM     11  N   UNL     1       5.367  41.781  50.461  1.00  0.00    -0.352 N 
ATOM     12  H   UNL     1       5.814  41.366  51.274  1.00  0.00     0.163 HD
BRANCH  11  13
ATOM     13  C   UNL     1       6.147  41.699  49.227  1.00  0.00     0.137 C 
BRANCH  13  14
ATOM     14  C   UNL     1       5.281  41.105  48.110  1.00  0.00     0.137 C 
BRANCH  14  15
ATOM     15  N   UNL     1       5.700  41.582  46.804  1.00  0.00    -0.355 N 
ATOM     16  C   UNL     1       4.849  41.536  45.727  1.00  0.00     0.216 C 
ATOM     17  C   UNL     1       5.383  42.206  44.489  1.00  0.00     0.114 C 
ATOM     18  O   UNL     1       3.745  41.003  45.757  1.00  0.00    -0.275 OA
ATOM     19  H   UNL     1       6.471  42.242  46.799  1.00  0.00     0.163 HD
ENDBRANCH  14  15
ENDBRANCH  13  14
ENDBRANCH  11  13
ENDBRANCH   1  11
BRANCH   3  20
ATOM     20  N   UNL     1       7.097  46.065  51.398  1.00  0.00    -0.339 N 
ATOM     21  H   UNL     1       7.425  46.399  50.504  1.00  0.00     0.168 HD
BRANCH  20  22
ATOM     22  C   UNL     1       7.882  46.485  52.492  1.00  0.00     0.043 A 
ATOM     23  C   UNL     1       7.319  47.082  53.630  1.00  0.00     0.030 A 
ATOM     24  C   UNL     1       9.292  46.362  52.437  1.00  0.00    -0.024 A 
ATOM     25  C   UNL     1       8.111  47.518  54.696  1.00  0.00     0.048 A 
ATOM     26  C   UNL     1      10.083  46.801  53.517  1.00  0.00     0.051 A 
ATOM     27  C   UNL     1       9.486  47.373  54.632  1.00  0.00     0.115 A 
ATOM     28  C   UNL     1       9.990  45.766  51.240  1.00  0.00     0.047 C 
BRANCH  27  29
ATOM     29  O   UNL     1      10.222  47.810  55.693  1.00  0.00    -0.508 OA
ATOM     30  H   UNL     1      10.051  48.756  55.821  1.00  0.00     0.293 HD
ENDBRANCH  27  29
ENDBRANCH  20  22
ENDBRANCH   3  20
TORSDOF 7
ENDMDL
MODEL 8
REMARK VINA RESULT:    -8.381      2.468      5.644
REMARK INTER + INTRA:         -12.706
REMARK INTER:                 -11.720
REMARK INTRA:                  -0.986
REMARK UNBOUND:                -1.140
REMARK SMILES CC(=O)NCCNc1nc(Nc2ccc(O)cc2C)c2cnn(C)c2n1
REMARK SMILES IDX 8 1 9 2 10 3 20 4 21 5 22 6 23 7 24 8 25 9 26 10 7 11 6 13
REMARK SMILES IDX 5 14 4 15 2 16 1 17 3 18 11 20 12 22 13 23 18 24 14 25 17 26
REMARK SMILES IDX 15 27 19 28 16 29
REMARK H PARENT 7 12 4 19 11 21 16 30
ROOT
ATOM      1  C   UNL     1       4.528  43.849  52.147  1.00  0.00     0.226 A 
ATOM      2  N   UNL     1       5.387  44.868  52.322  1.00  0.00    -0.195 NA
ATOM      3  C   UNL     1       6.450  45.038  51.490  1.00  0.00     0.147 A 
ATOM      4  C   UNL     1       6.591  44.106  50.452  1.00  0.00     0.082 A 
ATOM      5  C   UNL     1       7.465  43.852  49.374  1.00  0.00     0.149 A 
ATOM      6  N   UNL     1       7.118  42.774  48.663  1.00  0.00    -0.179 NA
ATOM      7  N   UNL     1       6.003  42.334  49.295  1.00  0.00    -0.250 N 
ATOM      8  C   UNL     1       5.322  41.165  48.800  1.00  0.00     0.176 C 
ATOM      9  C   UNL     1       5.652  43.097  50.374  1.00  0.00     0.165 A 
ATOM     10  N   UNL     1       4.606  42.914  51.194  1.00  0.00    -0.193 NA
ENDROOT
BRANCH   1  11
ATOM     11  N   UNL     1       3.483  43.816  53.066  1.00  0.00    -0.352 N 
ATOM     12  H   UNL     1       2.677  43.514  52.525  1.00  0.00     0.163 HD
BRANCH  11  13
ATOM     13  C   UNL     1       3.294  45.071  53.792  1.00  0.00     0.137 C 
BRANCH  13  14
ATOM     14  C   UNL     1       1.926  45.062  54.485  1.00  0.00     0.137 C 
BRANCH  14  15
ATOM     15  N   UNL     1       0.874  45.508  53.589  1.00  0.00    -0.355 N 
ATOM     16  C   UNL     1       0.131  44.609  52.864  1.00  0.00     0.216 C 
ATOM     17  C   UNL     1      -1.014  45.223  52.105  1.00  0.00     0.114 C 
ATOM     18  O   UNL     1       0.366  43.405  52.834  1.00  0.00    -0.275 OA
ATOM     19  H   UNL     1       0.491  46.428  53.780  1.00  0.00     0.163 HD
ENDBRANCH  14  15
ENDBRANCH  13  14
ENDBRANCH  11  13
ENDBRANCH   1  11
BRANCH   3  20
ATOM     20  N   UNL     1       7.345  46.108  51.635  1.00  0.00    -0.339 N 
ATOM     21  H   UNL     1       7.575  46.559  50.762  1.00  0.00     0.168 HD
BRANCH  20  22
ATOM     22  C   UNL     1       8.049  46.615  52.748  1.00  0.00     0.043 A 
ATOM     23  C   UNL     1       7.399  47.251  53.817  1.00  0.00     0.030 A 
ATOM     24  C   UNL     1       9.464  46.543  52.780  1.00  0.00    -0.024 A 
ATOM     25  C   UNL     1       8.111  47.773  54.900  1.00  0.00     0.048 A 
ATOM     26  C   UNL     1      10.173  47.069  53.878  1.00  0.00     0.051 A 
ATOM     27  C   UNL     1       9.492  47.677  54.924  1.00  0.00     0.115 A 
ATOM     28  C   UNL     1      10.251  45.910  51.661  1.00  0.00     0.047 C 
BRANCH  27  29
ATOM     29  O   UNL     1      10.149  48.197  55.999  1.00  0.00    -0.508 OA
ATOM     30  H   UNL     1      11.081  48.323  55.761  1.00  0.00     0.293 HD
ENDBRANCH  27  29
ENDBRANCH  20  22
ENDBRANCH   3  20
TORSDOF 7
ENDMDL
MODEL 9
REMARK VINA RESULT:    -8.305      2.409      5.749
REMARK INTER + INTRA:         -12.601
REMARK INTER:                 -11.441
REMARK INTRA:                  -1.160
REMARK UNBOUND:                -1.140
REMARK SMILES CC(=O)NCCNc1nc(Nc2ccc(O)cc2C)c2cnn(C)c2n1
REMARK SMILES IDX 8 1 9 2 10 3 20 4 21 5 22 6 23 7 24 8 25 9 26 10 7 11 6 13
REMARK SMILES IDX 5 14 4 15 2 16 1 17 3 18 11 20 12 22 13 23 18 24 14 25 17 26
REMARK SMILES IDX 15 27 19 28 16 29
REMARK H PARENT 7 12 4 19 11 21 16 30
ROOT
ATOM      1  C   UNL     1       4.216  43.398  52.107  1.00  0.00     0.226 A 
ATOM      2  N   UNL     1       4.846  44.557  52.361  1.00  0.00    -0.195 NA
ATOM      3  C   UNL     1       5.880  44.977  51.582  1.00  0.00     0.147 A 
ATOM      4  C   UNL     1       6.239  44.146  50.512  1.00  0.00     0.082 A 
ATOM      5  C   UNL     1       7.180  44.125  49.461  1.00  0.00     0.149 A 
ATOM      6  N   UNL     1       7.079  43.038  48.691  1.00  0.00    -0.179 NA
ATOM      7  N   UNL     1       6.056  42.353  49.256  1.00  0.00    -0.250 N 
ATOM      8  C   UNL     1       5.640  41.098  48.683  1.00  0.00     0.176 C 
ATOM      9  C   UNL     1       5.524  42.975  50.351  1.00  0.00     0.165 A 
ATOM     10  N   UNL     1       4.511  42.546  51.118  1.00  0.00    -0.193 NA
ENDROOT
BRANCH   1  11
ATOM     11  N   UNL     1       3.170  43.111  52.979  1.00  0.00    -0.352 N 
ATOM     12  H   UNL     1       3.442  42.239  53.425  1.00  0.00     0.163 HD
BRANCH  11  13
ATOM     13  C   UNL     1       1.856  43.087  52.340  1.00  0.00     0.137 C 
BRANCH  13  14
ATOM     14  C   UNL     1       1.033  44.292  52.810  1.00  0.00     0.137 C 
BRANCH  14  15
ATOM     15  N   UNL     1       1.585  45.539  52.312  1.00  0.00    -0.355 N 
ATOM     16  C   UNL     1       2.351  46.347  53.116  1.00  0.00     0.216 C 
ATOM     17  C   UNL     1       2.970  47.519  52.403  1.00  0.00     0.114 C 
ATOM     18  O   UNL     1       2.528  46.140  54.312  1.00  0.00    -0.275 OA
ATOM     19  H   UNL     1       1.680  45.609  51.304  1.00  0.00     0.163 HD
ENDBRANCH  14  15
ENDBRANCH  13  14
ENDBRANCH  11  13
ENDBRANCH   1  11
BRANCH   3  20
ATOM     20  N   UNL     1       6.537  46.196  51.810  1.00  0.00    -0.339 N 
ATOM     21  H   UNL     1       6.210  46.944  51.217  1.00  0.00     0.168 HD
BRANCH  20  22
ATOM     22  C   UNL     1       7.619  46.552  52.641  1.00  0.00     0.043 A 
ATOM     23  C   UNL     1       8.953  46.448  52.218  1.00  0.00     0.030 A 
ATOM     24  C   UNL     1       7.377  46.975  53.972  1.00  0.00    -0.024 A 
ATOM     25  C   UNL     1      10.017  46.779  53.062  1.00  0.00     0.048 A 
ATOM     26  C   UNL     1       8.456  47.309  54.815  1.00  0.00     0.051 A 
ATOM     27  C   UNL     1       9.761  47.208  54.352  1.00  0.00     0.115 A 
ATOM     28  C   UNL     1       5.980  47.084  54.527  1.00  0.00     0.047 C 
BRANCH  27  29
ATOM     29  O   UNL     1      10.826  47.521  55.143  1.00  0.00    -0.508 OA
ATOM     30  H   UNL     1      10.647  48.368  55.582  1.00  0.00     0.293 HD
ENDBRANCH  27  29
ENDBRANCH  20  22
ENDBRANCH   3  20
TORSDOF 7
ENDMDL
MODEL 10
REMARK VINA RESULT:    -8.299      2.707      6.884
REMARK INTER + INTRA:         -12.593
REMARK INTER:                 -11.321
REMARK INTRA:                  -1.272
REMARK UNBOUND:                -1.140
REMARK SMILES CC(=O)NCCNc1nc(Nc2ccc(O)cc2C)c2cnn(C)c2n1
REMARK SMILES IDX 8 1 9 2 10 3 20 4 21 5 22 6 23 7 24 8 25 9 26 10 7 11 6 13
REMARK SMILES IDX 5 14 4 15 2 16 1 17 3 18 11 20 12 22 13 23 18 24 14 25 17 26
REMARK SMILES IDX 15 27 19 28 16 29
REMARK H PARENT 7 12 4 19 11 21 16 30
ROOT
ATOM      1  C   UNL     1       3.711  42.670  51.753  1.00  0.00     0.226 A 
ATOM      2  N   UNL     1       4.506  43.734  51.551  1.00  0.00    -0.195 NA
ATOM      3  C   UNL     1       4.158  44.966  52.012  1.00  0.00     0.147 A 
ATOM      4  C   UNL     1       2.944  45.057  52.706  1.00  0.00     0.082 A 
ATOM      5  C   UNL     1       2.172  46.042  53.358  1.00  0.00     0.149 A 
ATOM      6  N   UNL     1       1.037  45.559  53.875  1.00  0.00    -0.179 NA
ATOM      7  N   UNL     1       1.086  44.245  53.551  1.00  0.00    -0.250 N 
ATOM      8  C   UNL     1       0.011  43.375  53.957  1.00  0.00     0.176 C 
ATOM      9  C   UNL     1       2.206  43.898  52.848  1.00  0.00     0.165 A 
ATOM     10  N   UNL     1       2.534  42.681  52.389  1.00  0.00    -0.193 NA
ENDROOT
BRANCH   1  11
ATOM     11  N   UNL     1       4.208  41.477  51.236  1.00  0.00    -0.352 N 
ATOM     12  H   UNL     1       5.218  41.596  51.247  1.00  0.00     0.163 HD
BRANCH  11  13
ATOM     13  C   UNL     1       3.650  41.117  49.934  1.00  0.00     0.137 C 
BRANCH  13  14
ATOM     14  C   UNL     1       4.786  40.944  48.919  1.00  0.00     0.137 C 
BRANCH  14  15
ATOM     15  N   UNL     1       5.656  42.107  48.892  1.00  0.00    -0.355 N 
ATOM     16  C   UNL     1       6.888  42.085  49.497  1.00  0.00     0.216 C 
ATOM     17  C   UNL     1       7.721  43.313  49.246  1.00  0.00     0.114 C 
ATOM     18  O   UNL     1       7.289  41.150  50.182  1.00  0.00    -0.275 OA
ATOM     19  H   UNL     1       5.481  42.773  48.146  1.00  0.00     0.163 HD
ENDBRANCH  14  15
ENDBRANCH  13  14
ENDBRANCH  11  13
ENDBRANCH   1  11
BRANCH   3  20
ATOM     20  N   UNL     1       4.983  46.087  51.837  1.00  0.00    -0.339 N 
ATOM     21  H   UNL     1       4.572  46.799  51.252  1.00  0.00     0.168 HD
BRANCH  20  22
ATOM     22  C   UNL     1       6.302  46.371  52.248  1.00  0.00     0.043 A 
ATOM     23  C   UNL     1       7.408  46.160  51.410  1.00  0.00     0.030 A 
ATOM     24  C   UNL     1       6.547  46.830  53.566  1.00  0.00    -0.024 A 
ATOM     25  C   UNL     1       8.713  46.419  51.840  1.00  0.00     0.048 A 
ATOM     26  C   UNL     1       7.865  47.092  53.989  1.00  0.00     0.051 A 
ATOM     27  C   UNL     1       8.931  46.885  53.124  1.00  0.00     0.115 A 
ATOM     28  C   UNL     1       5.427  47.053  54.549  1.00  0.00     0.047 C 
BRANCH  27  29
ATOM     29  O   UNL     1      10.218  47.127  53.504  1.00  0.00    -0.508 OA
ATOM     30  H   UNL     1      10.253  47.168  54.473  1.00  0.00     0.293 HD
ENDBRANCH  27  29
ENDBRANCH  20  22
ENDBRANCH   3  20
TORSDOF 7
ENDMDL
MODEL 11
REMARK VINA RESULT:    -8.244      2.514      6.611
REMARK INTER + INTRA:         -12.517
REMARK INTER:                 -11.590
REMARK INTRA:                  -0.927
REMARK UNBOUND:                -1.140
REMARK SMILES CC(=O)NCCNc1nc(Nc2ccc(O)cc2C)c2cnn(C)c2n1
REMARK SMILES IDX 8 1 9 2 10 3 20 4 21 5 22 6 23 7 24 8 25 9 26 10 7 11 6 13
REMARK SMILES IDX 5 14 4 15 2 16 1 17 3 18 11 20 12 22 13 23 18 24 14 25 17 26
REMARK SMILES IDX 15 27 19 28 16 29
REMARK H PARENT 7 12 4 19 11 21 16 30
ROOT
ATOM      1  C   UNL     1       6.877  45.623  50.947  1.00  0.00     0.226 A 
ATOM      2  N   UNL     1       5.843  46.245  51.539  1.00  0.00    -0.195 NA
ATOM      3  C   UNL     1       4.663  45.599  51.746  1.00  0.00     0.147 A 
ATOM      4  C   UNL     1       4.593  44.267  51.318  1.00  0.00     0.082 A 
ATOM      5  C   UNL     1       3.657  43.211  51.305  1.00  0.00     0.149 A 
ATOM      6  N   UNL     1       4.136  42.095  50.746  1.00  0.00    -0.179 NA
ATOM      7  N   UNL     1       5.398  42.442  50.398  1.00  0.00    -0.250 N 
ATOM      8  C   UNL     1       6.250  41.471  49.759  1.00  0.00     0.176 C 
ATOM      9  C   UNL     1       5.716  43.733  50.717  1.00  0.00     0.165 A 
ATOM     10  N   UNL     1       6.880  44.362  50.499  1.00  0.00    -0.193 NA
ENDROOT
BRANCH   1  11
ATOM     11  N   UNL     1       8.020  46.406  50.819  1.00  0.00    -0.352 N 
ATOM     12  H   UNL     1       8.357  46.215  49.879  1.00  0.00     0.163 HD
BRANCH  11  13
ATOM     13  C   UNL     1       9.007  46.190  51.876  1.00  0.00     0.137 C 
BRANCH  13  14
ATOM     14  C   UNL     1       8.906  47.317  52.911  1.00  0.00     0.137 C 
BRANCH  14  15
ATOM     15  N   UNL     1       9.953  47.213  53.913  1.00  0.00    -0.355 N 
ATOM     16  C   UNL     1       9.830  47.831  55.133  1.00  0.00     0.216 C 
ATOM     17  C   UNL     1      10.928  47.498  56.107  1.00  0.00     0.114 C 
ATOM     18  O   UNL     1       8.908  48.587  55.420  1.00  0.00    -0.275 OA
ATOM     19  H   UNL     1      10.577  46.418  53.820  1.00  0.00     0.163 HD
ENDBRANCH  14  15
ENDBRANCH  13  14
ENDBRANCH  11  13
ENDBRANCH   1  11
BRANCH   3  20
ATOM     20  N   UNL     1       3.578  46.218  52.385  1.00  0.00    -0.339 N 
ATOM     21  H   UNL     1       3.258  47.051  51.914  1.00  0.00     0.168 HD
BRANCH  20  22
ATOM     22  C   UNL     1       2.911  45.951  53.598  1.00  0.00     0.043 A 
ATOM     23  C   UNL     1       3.561  46.019  54.840  1.00  0.00     0.030 A 
ATOM     24  C   UNL     1       1.554  45.543  53.582  1.00  0.00    -0.024 A 
ATOM     25  C   UNL     1       2.894  45.725  56.033  1.00  0.00     0.048 A 
ATOM     26  C   UNL     1       0.888  45.252  54.789  1.00  0.00     0.051 A 
ATOM     27  C   UNL     1       1.564  45.345  55.999  1.00  0.00     0.115 A 
ATOM     28  C   UNL     1       0.782  45.407  52.294  1.00  0.00     0.047 C 
BRANCH  27  29
ATOM     29  O   UNL     1       0.949  45.069  57.183  1.00  0.00    -0.508 OA
ATOM     30  H   UNL     1       0.143  45.605  57.248  1.00  0.00     0.293 HD
ENDBRANCH  27  29
ENDBRANCH  20  22
ENDBRANCH   3  20
TORSDOF 7
ENDMDL
MODEL 12
REMARK VINA RESULT:    -8.212      2.879      5.970
REMARK INTER + INTRA:         -12.472
REMARK INTER:                 -11.754
REMARK INTRA:                  -0.718
REMARK UNBOUND:                -1.140
REMARK SMILES CC(=O)NCCNc1nc(Nc2ccc(O)cc2C)c2cnn(C)c2n1
REMARK SMILES IDX 8 1 9 2 10 3 20 4 21 5 22 6 23 7 24 8 25 9 26 10 7 11 6 13
REMARK SMILES IDX 5 14 4 15 2 16 1 17 3 18 11 20 12 22 13 23 18 24 14 25 17 26
REMARK SMILES IDX 15 27 19 28 16 29
REMARK H PARENT 7 12 4 19 11 21 16 30
ROOT
ATOM      1  C   UNL     1       6.775  44.742  50.534  1.00  0.00     0.226 A 
ATOM      2  N   UNL     1       6.799  43.690  49.698  1.00  0.00    -0.195 NA
ATOM      3  C   UNL     1       5.902  42.674  49.826  1.00  0.00     0.147 A 
ATOM      4  C   UNL     1       4.964  42.791  50.860  1.00  0.00     0.082 A 
ATOM      5  C   UNL     1       3.877  42.061  51.387  1.00  0.00     0.149 A 
ATOM      6  N   UNL     1       3.303  42.662  52.434  1.00  0.00    -0.179 NA
ATOM      7  N   UNL     1       4.031  43.794  52.578  1.00  0.00    -0.250 N 
ATOM      8  C   UNL     1       3.697  44.724  53.626  1.00  0.00     0.176 C 
ATOM      9  C   UNL     1       5.039  43.913  51.662  1.00  0.00     0.165 A 
ATOM     10  N   UNL     1       5.924  44.916  51.551  1.00  0.00    -0.193 NA
ENDROOT
BRANCH   1  11
ATOM     11  N   UNL     1       7.743  45.707  50.268  1.00  0.00    -0.352 N 
ATOM     12  H   UNL     1       8.087  45.474  49.340  1.00  0.00     0.163 HD
BRANCH  11  13
ATOM     13  C   UNL     1       8.778  45.806  51.295  1.00  0.00     0.137 C 
BRANCH  13  14
ATOM     14  C   UNL     1       8.638  47.140  52.038  1.00  0.00     0.137 C 
BRANCH  14  15
ATOM     15  N   UNL     1       9.643  47.277  53.078  1.00  0.00    -0.355 N 
ATOM     16  C   UNL     1       9.286  47.506  54.383  1.00  0.00     0.216 C 
ATOM     17  C   UNL     1      10.435  47.470  55.354  1.00  0.00     0.114 C 
ATOM     18  O   UNL     1       8.132  47.718  54.743  1.00  0.00    -0.275 OA
ATOM     19  H   UNL     1      10.547  46.862  52.876  1.00  0.00     0.163 HD
ENDBRANCH  14  15
ENDBRANCH  13  14
ENDBRANCH  11  13
ENDBRANCH   1  11
BRANCH   3  20
ATOM     20  N   UNL     1       5.889  41.578  48.950  1.00  0.00    -0.339 N 
ATOM     21  H   UNL     1       6.462  40.809  49.263  1.00  0.00     0.168 HD
BRANCH  20  22
ATOM     22  C   UNL     1       5.302  41.380  47.683  1.00  0.00     0.043 A 
ATOM     23  C   UNL     1       5.829  41.957  46.517  1.00  0.00     0.030 A 
ATOM     24  C   UNL     1       4.109  40.625  47.569  1.00  0.00    -0.024 A 
ATOM     25  C   UNL     1       5.221  41.775  45.272  1.00  0.00     0.048 A 
ATOM     26  C   UNL     1       3.505  40.444  46.309  1.00  0.00     0.051 A 
ATOM     27  C   UNL     1       4.066  41.019  45.176  1.00  0.00     0.115 A 
ATOM     28  C   UNL     1       3.450  39.997  48.770  1.00  0.00     0.047 C 
BRANCH  27  29
ATOM     29  O   UNL     1       3.505  40.864  43.944  1.00  0.00    -0.508 OA
ATOM     30  H   UNL     1       2.711  41.419  43.892  1.00  0.00     0.293 HD
ENDBRANCH  27  29
ENDBRANCH  20  22
ENDBRANCH   3  20
TORSDOF 7
ENDMDL
MODEL 13
REMARK VINA RESULT:    -8.062      2.909      7.222
REMARK INTER + INTRA:         -12.266
REMARK INTER:                 -11.513
REMARK INTRA:                  -0.752
REMARK UNBOUND:                -1.140
REMARK SMILES CC(=O)NCCNc1nc(Nc2ccc(O)cc2C)c2cnn(C)c2n1
REMARK SMILES IDX 8 1 9 2 10 3 20 4 21 5 22 6 23 7 24 8 25 9 26 10 7 11 6 13
REMARK SMILES IDX 5 14 4 15 2 16 1 17 3 18 11 20 12 22 13 23 18 24 14 25 17 26
REMARK SMILES IDX 15 27 19 28 16 29
REMARK H PARENT 7 12 4 19 11 21 16 30
ROOT
ATOM      1  C   UNL     1       4.893  43.072  50.905  1.00  0.00     0.226 A 
ATOM      2  N   UNL     1       5.723  44.122  51.014  1.00  0.00    -0.195 NA
ATOM      3  C   UNL     1       5.256  45.352  51.362  1.00  0.00     0.147 A 
ATOM      4  C   UNL     1       3.879  45.455  51.603  1.00  0.00     0.082 A 
ATOM      5  C   UNL     1       2.945  46.444  51.978  1.00  0.00     0.149 A 
ATOM      6  N   UNL     1       1.695  45.976  52.064  1.00  0.00    -0.179 NA
ATOM      7  N   UNL     1       1.833  44.668  51.742  1.00  0.00    -0.250 N 
ATOM      8  C   UNL     1       0.673  43.813  51.734  1.00  0.00     0.176 C 
ATOM      9  C   UNL     1       3.121  44.311  51.454  1.00  0.00     0.165 A 
ATOM     10  N   UNL     1       3.569  43.096  51.102  1.00  0.00    -0.193 NA
ENDROOT
BRANCH   1  11
ATOM     11  N   UNL     1       5.520  41.879  50.558  1.00  0.00    -0.352 N 
ATOM     12  H   UNL     1       6.123  41.669  51.348  1.00  0.00     0.163 HD
BRANCH  11  13
ATOM     13  C   UNL     1       6.200  41.922  49.265  1.00  0.00     0.137 C 
BRANCH  13  14
ATOM     14  C   UNL     1       5.378  41.152  48.225  1.00  0.00     0.137 C 
BRANCH  14  15
ATOM     15  N   UNL     1       5.738  41.537  46.872  1.00  0.00    -0.355 N 
ATOM     16  C   UNL     1       4.833  41.445  45.844  1.00  0.00     0.216 C 
ATOM     17  C   UNL     1       5.316  42.025  44.542  1.00  0.00     0.114 C 
ATOM     18  O   UNL     1       3.721  40.941  45.963  1.00  0.00    -0.275 OA
ATOM     19  H   UNL     1       6.521  42.177  46.787  1.00  0.00     0.163 HD
ENDBRANCH  14  15
ENDBRANCH  13  14
ENDBRANCH  11  13
ENDBRANCH   1  11
BRANCH   3  20
ATOM     20  N   UNL     1       6.107  46.458  51.508  1.00  0.00    -0.339 N 
ATOM     21  H   UNL     1       5.907  47.205  50.859  1.00  0.00     0.168 HD
BRANCH  20  22
ATOM     22  C   UNL     1       7.234  46.689  52.323  1.00  0.00     0.043 A 
ATOM     23  C   UNL     1       8.545  46.579  51.834  1.00  0.00     0.030 A 
ATOM     24  C   UNL     1       7.062  46.988  53.698  1.00  0.00    -0.024 A 
ATOM     25  C   UNL     1       9.654  46.785  52.661  1.00  0.00     0.048 A 
ATOM     26  C   UNL     1       8.185  47.196  54.522  1.00  0.00     0.051 A 
ATOM     27  C   UNL     1       9.466  47.093  53.996  1.00  0.00     0.115 A 
ATOM     28  C   UNL     1       5.693  47.092  54.320  1.00  0.00     0.047 C 
BRANCH  27  29
ATOM     29  O   UNL     1      10.573  47.287  54.768  1.00  0.00    -0.508 OA
ATOM     30  H   UNL     1      10.422  48.057  55.339  1.00  0.00     0.293 HD
ENDBRANCH  27  29
ENDBRANCH  20  22
ENDBRANCH   3  20
TORSDOF 7
ENDMDL
MODEL 14
REMARK VINA RESULT:    -7.987      2.731      6.240
REMARK INTER + INTRA:         -12.163
REMARK INTER:                 -11.616
REMARK INTRA:                  -0.546
REMARK UNBOUND:                -1.140
REMARK SMILES CC(=O)NCCNc1nc(Nc2ccc(O)cc2C)c2cnn(C)c2n1
REMARK SMILES IDX 8 1 9 2 10 3 20 4 21 5 22 6 23 7 24 8 25 9 26 10 7 11 6 13
REMARK SMILES IDX 5 14 4 15 2 16 1 17 3 18 11 20 12 22 13 23 18 24 14 25 17 26
REMARK SMILES IDX 15 27 19 28 16 29
REMARK H PARENT 7 12 4 19 11 21 16 30
ROOT
ATOM      1  C   UNL     1       4.974  45.599  52.198  1.00  0.00     0.226 A 
ATOM      2  N   UNL     1       3.906  45.070  52.817  1.00  0.00    -0.195 NA
ATOM      3  C   UNL     1       3.510  43.793  52.563  1.00  0.00     0.147 A 
ATOM      4  C   UNL     1       4.274  43.072  51.635  1.00  0.00     0.082 A 
ATOM      5  C   UNL     1       4.293  41.785  51.057  1.00  0.00     0.149 A 
ATOM      6  N   UNL     1       5.291  41.620  50.183  1.00  0.00    -0.179 NA
ATOM      7  N   UNL     1       5.922  42.818  50.205  1.00  0.00    -0.250 N 
ATOM      8  C   UNL     1       7.082  43.024  49.376  1.00  0.00     0.176 C 
ATOM      9  C   UNL     1       5.347  43.721  51.056  1.00  0.00     0.165 A 
ATOM     10  N   UNL     1       5.741  44.981  51.292  1.00  0.00    -0.193 NA
ENDROOT
BRANCH   1  11
ATOM     11  N   UNL     1       5.264  46.908  52.574  1.00  0.00    -0.352 N 
ATOM     12  H   UNL     1       6.143  47.118  52.108  1.00  0.00     0.163 HD
BRANCH  11  13
ATOM     13  C   UNL     1       5.275  47.120  54.020  1.00  0.00     0.137 C 
BRANCH  13  14
ATOM     14  C   UNL     1       6.456  46.365  54.641  1.00  0.00     0.137 C 
BRANCH  14  15
ATOM     15  N   UNL     1       7.632  46.428  53.791  1.00  0.00    -0.355 N 
ATOM     16  C   UNL     1       8.695  47.237  54.109  1.00  0.00     0.216 C 
ATOM     17  C   UNL     1       9.890  47.070  53.209  1.00  0.00     0.114 C 
ATOM     18  O   UNL     1       8.687  48.030  55.045  1.00  0.00    -0.275 OA
ATOM     19  H   UNL     1       7.782  45.629  53.183  1.00  0.00     0.163 HD
ENDBRANCH  14  15
ENDBRANCH  13  14
ENDBRANCH  11  13
ENDBRANCH   1  11
BRANCH   3  20
ATOM     20  N   UNL     1       2.414  43.209  53.216  1.00  0.00    -0.339 N 
ATOM     21  H   UNL     1       2.325  42.219  53.041  1.00  0.00     0.168 HD
BRANCH  20  22
ATOM     22  C   UNL     1       1.370  43.752  53.992  1.00  0.00     0.043 A 
ATOM     23  C   UNL     1       1.607  44.664  55.032  1.00  0.00     0.030 A 
ATOM     24  C   UNL     1       0.034  43.334  53.770  1.00  0.00    -0.024 A 
ATOM     25  C   UNL     1       0.565  45.174  55.812  1.00  0.00     0.048 A 
ATOM     26  C   UNL     1      -1.011  43.855  54.558  1.00  0.00     0.051 A 
ATOM     27  C   UNL     1      -0.735  44.767  55.568  1.00  0.00     0.115 A 
ATOM     28  C   UNL     1      -0.315  42.332  52.699  1.00  0.00     0.047 C 
BRANCH  27  29
ATOM     29  O   UNL     1      -1.723  45.289  56.349  1.00  0.00    -0.508 OA
ATOM     30  H   UNL     1      -1.330  45.601  57.180  1.00  0.00     0.293 HD
ENDBRANCH  27  29
ENDBRANCH  20  22
ENDBRANCH   3  20
TORSDOF 7
ENDMDL
MODEL 15
REMARK VINA RESULT:    -7.980      1.784      4.752
REMARK INTER + INTRA:         -12.152
REMARK INTER:                 -10.727
REMARK INTRA:                  -1.425
REMARK UNBOUND:                -1.140
REMARK SMILES CC(=O)NCCNc1nc(Nc2ccc(O)cc2C)c2cnn(C)c2n1
REMARK SMILES IDX 8 1 9 2 10 3 20 4 21 5 22 6 23 7 24 8 25 9 26 10 7 11 6 13
REMARK SMILES IDX 5 14 4 15 2 16 1 17 3 18 11 20 12 22 13 23 18 24 14 25 17 26
REMARK SMILES IDX 15 27 19 28 16 29
REMARK H PARENT 7 12 4 19 11 21 16 30
ROOT
ATOM      1  C   UNL     1       7.417  45.740  50.800  1.00  0.00     0.226 A 
ATOM      2  N   UNL     1       6.090  45.782  51.002  1.00  0.00    -0.195 NA
ATOM      3  C   UNL     1       5.575  46.221  52.183  1.00  0.00     0.147 A 
ATOM      4  C   UNL     1       6.497  46.626  53.158  1.00  0.00     0.082 A 
ATOM      5  C   UNL     1       6.485  47.140  54.472  1.00  0.00     0.149 A 
ATOM      6  N   UNL     1       7.711  47.359  54.958  1.00  0.00    -0.179 NA
ATOM      7  N   UNL     1       8.519  46.982  53.938  1.00  0.00    -0.250 N 
ATOM      8  C   UNL     1       9.948  47.085  54.090  1.00  0.00     0.176 C 
ATOM      9  C   UNL     1       7.838  46.532  52.841  1.00  0.00     0.165 A 
ATOM     10  N   UNL     1       8.357  46.093  51.685  1.00  0.00    -0.193 NA
ENDROOT
BRANCH   1  11
ATOM     11  N   UNL     1       7.791  45.284  49.539  1.00  0.00    -0.352 N 
ATOM     12  H   UNL     1       6.996  45.501  48.944  1.00  0.00     0.163 HD
BRANCH  11  13
ATOM     13  C   UNL     1       8.206  43.883  49.515  1.00  0.00     0.137 C 
BRANCH  13  14
ATOM     14  C   UNL     1       7.060  43.016  48.981  1.00  0.00     0.137 C 
BRANCH  14  15
ATOM     15  N   UNL     1       6.062  42.766  50.006  1.00  0.00    -0.355 N 
ATOM     16  C   UNL     1       5.142  41.755  49.869  1.00  0.00     0.216 C 
ATOM     17  C   UNL     1       4.282  41.534  51.084  1.00  0.00     0.114 C 
ATOM     18  O   UNL     1       5.025  41.079  48.852  1.00  0.00    -0.275 OA
ATOM     19  H   UNL     1       6.284  43.112  50.934  1.00  0.00     0.163 HD
ENDBRANCH  14  15
ENDBRANCH  13  14
ENDBRANCH  11  13
ENDBRANCH   1  11
BRANCH   3  20
ATOM     20  N   UNL     1       4.193  46.299  52.409  1.00  0.00    -0.339 N 
ATOM     21  H   UNL     1       3.889  47.211  52.718  1.00  0.00     0.168 HD
BRANCH  20  22
ATOM     22  C   UNL     1       3.167  45.332  52.373  1.00  0.00     0.043 A 
ATOM     23  C   UNL     1       2.539  44.952  51.177  1.00  0.00     0.030 A 
ATOM     24  C   UNL     1       2.699  44.755  53.580  1.00  0.00    -0.024 A 
ATOM     25  C   UNL     1       1.505  44.011  51.160  1.00  0.00     0.048 A 
ATOM     26  C   UNL     1       1.658  43.806  53.553  1.00  0.00     0.051 A 
ATOM     27  C   UNL     1       1.074  43.445  52.346  1.00  0.00     0.115 A 
ATOM     28  C   UNL     1       3.287  45.128  54.917  1.00  0.00     0.047 C 
BRANCH  27  29
ATOM     29  O   UNL     1       0.064  42.531  52.286  1.00  0.00    -0.508 OA
ATOM     30  H   UNL     1       0.429  41.652  52.475  1.00  0.00     0.293 HD
ENDBRANCH  27  29
ENDBRANCH  20  22
ENDBRANCH   3  20
TORSDOF 7
ENDMDL
MODEL 16
REMARK VINA RESULT:    -7.975      2.602      5.565
REMARK INTER + INTRA:         -12.145
REMARK INTER:                 -11.213
REMARK INTRA:                  -0.932
REMARK UNBOUND:                -1.140
REMARK SMILES CC(=O)NCCNc1nc(Nc2ccc(O)cc2C)c2cnn(C)c2n1
REMARK SMILES IDX 8 1 9 2 10 3 20 4 21 5 22 6 23 7 24 8 25 9 26 10 7 11 6 13
REMARK SMILES IDX 5 14 4 15 2 16 1 17 3 18 11 20 12 22 13 23 18 24 14 25 17 26
REMARK SMILES IDX 15 27 19 28 16 29
REMARK H PARENT 7 12 4 19 11 21 16 30
ROOT
ATOM      1  C   UNL     1       6.585  44.272  50.104  1.00  0.00     0.226 A 
ATOM      2  N   UNL     1       5.297  44.330  50.481  1.00  0.00    -0.195 NA
ATOM      3  C   UNL     1       4.865  45.278  51.356  1.00  0.00     0.147 A 
ATOM      4  C   UNL     1       5.827  46.182  51.828  1.00  0.00     0.082 A 
ATOM      5  C   UNL     1       5.894  47.294  52.694  1.00  0.00     0.149 A 
ATOM      6  N   UNL     1       7.125  47.807  52.790  1.00  0.00    -0.179 NA
ATOM      7  N   UNL     1       7.855  47.012  51.971  1.00  0.00    -0.250 N 
ATOM      8  C   UNL     1       9.264  47.267  51.807  1.00  0.00     0.176 C 
ATOM      9  C   UNL     1       7.122  46.023  51.377  1.00  0.00     0.165 A 
ATOM     10  N   UNL     1       7.561  45.086  50.523  1.00  0.00    -0.193 NA
ENDROOT
BRANCH   1  11
ATOM     11  N   UNL     1       6.872  43.259  49.193  1.00  0.00    -0.352 N 
ATOM     12  H   UNL     1       6.383  43.534  48.345  1.00  0.00     0.163 HD
BRANCH  11  13
ATOM     13  C   UNL     1       6.547  41.919  49.677  1.00  0.00     0.137 C 
BRANCH  13  14
ATOM     14  C   UNL     1       5.597  41.232  48.689  1.00  0.00     0.137 C 
BRANCH  14  15
ATOM     15  N   UNL     1       5.832  41.681  47.327  1.00  0.00    -0.355 N 
ATOM     16  C   UNL     1       4.924  41.425  46.330  1.00  0.00     0.216 C 
ATOM     17  C   UNL     1       5.244  42.088  45.018  1.00  0.00     0.114 C 
ATOM     18  O   UNL     1       3.929  40.723  46.483  1.00  0.00    -0.275 OA
ATOM     19  H   UNL     1       6.479  42.455  47.222  1.00  0.00     0.163 HD
ENDBRANCH  14  15
ENDBRANCH  13  14
ENDBRANCH  11  13
ENDBRANCH   1  11
BRANCH   3  20
ATOM     20  N   UNL     1       3.520  45.376  51.744  1.00  0.00    -0.339 N 
ATOM     21  H   UNL     1       3.188  46.327  51.802  1.00  0.00     0.168 HD
BRANCH  20  22
ATOM     22  C   UNL     1       2.576  44.411  52.151  1.00  0.00     0.043 A 
ATOM     23  C   UNL     1       1.877  43.614  51.231  1.00  0.00     0.030 A 
ATOM     24  C   UNL     1       2.265  44.264  53.526  1.00  0.00    -0.024 A 
ATOM     25  C   UNL     1       0.924  42.680  51.648  1.00  0.00     0.048 A 
ATOM     26  C   UNL     1       1.305  43.318  53.937  1.00  0.00     0.051 A 
ATOM     27  C   UNL     1       0.646  42.538  52.996  1.00  0.00     0.115 A 
ATOM     28  C   UNL     1       2.938  45.100  54.584  1.00  0.00     0.047 C 
BRANCH  27  29
ATOM     29  O   UNL     1      -0.288  41.615  53.361  1.00  0.00    -0.508 OA
ATOM     30  H   UNL     1      -0.940  42.045  53.937  1.00  0.00     0.293 HD
ENDBRANCH  27  29
ENDBRANCH  20  22
ENDBRANCH   3  20
TORSDOF 7
ENDMDL
MODEL 17
REMARK VINA RESULT:    -7.961      2.705      6.030
REMARK INTER + INTRA:         -12.126
REMARK INTER:                 -11.355
REMARK INTRA:                  -0.771
REMARK UNBOUND:                -1.140
REMARK SMILES CC(=O)NCCNc1nc(Nc2ccc(O)cc2C)c2cnn(C)c2n1
REMARK SMILES IDX 8 1 9 2 10 3 20 4 21 5 22 6 23 7 24 8 25 9 26 10 7 11 6 13
REMARK SMILES IDX 5 14 4 15 2 16 1 17 3 18 11 20 12 22 13 23 18 24 14 25 17 26
REMARK SMILES IDX 15 27 19 28 16 29
REMARK H PARENT 7 12 4 19 11 21 16 30
ROOT
ATOM      1  C   UNL     1       5.170  45.451  51.996  1.00  0.00     0.226 A 
ATOM      2  N   UNL     1       4.179  44.872  52.693  1.00  0.00    -0.195 NA
ATOM      3  C   UNL     1       3.799  43.591  52.439  1.00  0.00     0.147 A 
ATOM      4  C   UNL     1       4.497  42.918  51.426  1.00  0.00     0.082 A 
ATOM      5  C   UNL     1       4.501  41.648  50.811  1.00  0.00     0.149 A 
ATOM      6  N   UNL     1       5.420  41.537  49.847  1.00  0.00    -0.179 NA
ATOM      7  N   UNL     1       6.015  42.754  49.847  1.00  0.00    -0.250 N 
ATOM      8  C   UNL     1       7.088  43.018  48.923  1.00  0.00     0.176 C 
ATOM      9  C   UNL     1       5.493  43.616  50.772  1.00  0.00     0.165 A 
ATOM     10  N   UNL     1       5.870  44.881  51.008  1.00  0.00    -0.193 NA
ENDROOT
BRANCH   1  11
ATOM     11  N   UNL     1       5.455  46.758  52.382  1.00  0.00    -0.352 N 
ATOM     12  H   UNL     1       6.425  46.898  52.109  1.00  0.00     0.163 HD
BRANCH  11  13
ATOM     13  C   UNL     1       5.171  47.035  53.789  1.00  0.00     0.137 C 
BRANCH  13  14
ATOM     14  C   UNL     1       6.423  46.759  54.630  1.00  0.00     0.137 C 
BRANCH  14  15
ATOM     15  N   UNL     1       7.617  46.713  53.805  1.00  0.00    -0.355 N 
ATOM     16  C   UNL     1       8.744  47.419  54.148  1.00  0.00     0.216 C 
ATOM     17  C   UNL     1       9.937  47.142  53.273  1.00  0.00     0.114 C 
ATOM     18  O   UNL     1       8.789  48.207  55.087  1.00  0.00    -0.275 OA
ATOM     19  H   UNL     1       7.705  45.904  53.197  1.00  0.00     0.163 HD
ENDBRANCH  14  15
ENDBRANCH  13  14
ENDBRANCH  11  13
ENDBRANCH   1  11
BRANCH   3  20
ATOM     20  N   UNL     1       2.784  42.955  53.170  1.00  0.00    -0.339 N 
ATOM     21  H   UNL     1       3.110  42.159  53.697  1.00  0.00     0.168 HD
BRANCH  20  22
ATOM     22  C   UNL     1       1.391  43.161  53.241  1.00  0.00     0.043 A 
ATOM     23  C   UNL     1       0.502  42.585  52.320  1.00  0.00     0.030 A 
ATOM     24  C   UNL     1       0.854  44.022  54.230  1.00  0.00    -0.024 A 
ATOM     25  C   UNL     1      -0.874  42.820  52.386  1.00  0.00     0.048 A 
ATOM     26  C   UNL     1      -0.535  44.251  54.291  1.00  0.00     0.051 A 
ATOM     27  C   UNL     1      -1.382  43.649  53.370  1.00  0.00     0.115 A 
ATOM     28  C   UNL     1       1.734  44.714  55.240  1.00  0.00     0.047 C 
BRANCH  27  29
ATOM     29  O   UNL     1      -2.730  43.851  53.401  1.00  0.00    -0.508 OA
ATOM     30  H   UNL     1      -3.131  43.386  52.649  1.00  0.00     0.293 HD
ENDBRANCH  27  29
ENDBRANCH  20  22
ENDBRANCH   3  20
TORSDOF 7
ENDMDL
MODEL 18
REMARK VINA RESULT:    -7.888      2.792      4.434
REMARK INTER + INTRA:         -12.025
REMARK INTER:                 -11.065
REMARK INTRA:                  -0.960
REMARK UNBOUND:                -1.140
REMARK SMILES CC(=O)NCCNc1nc(Nc2ccc(O)cc2C)c2cnn(C)c2n1
REMARK SMILES IDX 8 1 9 2 10 3 20 4 21 5 22 6 23 7 24 8 25 9 26 10 7 11 6 13
REMARK SMILES IDX 5 14 4 15 2 16 1 17 3 18 11 20 12 22 13 23 18 24 14 25 17 26
REMARK SMILES IDX 15 27 19 28 16 29
REMARK H PARENT 7 12 4 19 11 21 16 30
ROOT
ATOM      1  C   UNL     1       4.052  42.757  51.879  1.00  0.00     0.226 A 
ATOM      2  N   UNL     1       4.354  41.952  50.846  1.00  0.00    -0.195 NA
ATOM      3  C   UNL     1       5.367  42.260  49.991  1.00  0.00     0.147 A 
ATOM      4  C   UNL     1       6.072  43.443  50.252  1.00  0.00     0.082 A 
ATOM      5  C   UNL     1       7.151  44.170  49.707  1.00  0.00     0.149 A 
ATOM      6  N   UNL     1       7.421  45.291  50.384  1.00  0.00    -0.179 NA
ATOM      7  N   UNL     1       6.501  45.279  51.379  1.00  0.00    -0.250 N 
ATOM      8  C   UNL     1       6.484  46.351  52.341  1.00  0.00     0.176 C 
ATOM      9  C   UNL     1       5.669  44.195  51.338  1.00  0.00     0.165 A 
ATOM     10  N   UNL     1       4.666  43.907  52.181  1.00  0.00    -0.193 NA
ENDROOT
BRANCH   1  11
ATOM     11  N   UNL     1       3.003  42.302  52.672  1.00  0.00    -0.352 N 
ATOM     12  H   UNL     1       2.967  41.301  52.498  1.00  0.00     0.163 HD
BRANCH  11  13
ATOM     13  C   UNL     1       1.742  43.006  52.448  1.00  0.00     0.137 C 
BRANCH  13  14
ATOM     14  C   UNL     1       1.241  43.598  53.770  1.00  0.00     0.137 C 
BRANCH  14  15
ATOM     15  N   UNL     1       2.322  44.219  54.517  1.00  0.00    -0.355 N 
ATOM     16  C   UNL     1       2.605  45.555  54.375  1.00  0.00     0.216 C 
ATOM     17  C   UNL     1       3.649  46.069  55.329  1.00  0.00     0.114 C 
ATOM     18  O   UNL     1       2.059  46.279  53.549  1.00  0.00    -0.275 OA
ATOM     19  H   UNL     1       2.607  43.738  55.364  1.00  0.00     0.163 HD
ENDBRANCH  14  15
ENDBRANCH  13  14
ENDBRANCH  11  13
ENDBRANCH   1  11
BRANCH   3  20
ATOM     20  N   UNL     1       5.719  41.423  48.921  1.00  0.00    -0.339 N 
ATOM     21  H   UNL     1       6.554  40.884  49.092  1.00  0.00     0.168 HD
BRANCH  20  22
ATOM     22  C   UNL     1       5.181  41.256  47.628  1.00  0.00     0.043 A 
ATOM     23  C   UNL     1       5.701  41.926  46.510  1.00  0.00     0.030 A 
ATOM     24  C   UNL     1       4.042  40.435  47.438  1.00  0.00    -0.024 A 
ATOM     25  C   UNL     1       5.141  41.773  45.238  1.00  0.00     0.048 A 
ATOM     26  C   UNL     1       3.486  40.284  46.153  1.00  0.00     0.051 A 
ATOM     27  C   UNL     1       4.040  40.953  45.069  1.00  0.00     0.115 A 
ATOM     28  C   UNL     1       3.392  39.704  48.585  1.00  0.00     0.047 C 
BRANCH  27  29
ATOM     29  O   UNL     1       3.524  40.829  43.813  1.00  0.00    -0.508 OA
ATOM     30  H   UNL     1       4.193  40.418  43.242  1.00  0.00     0.293 HD
ENDBRANCH  27  29
ENDBRANCH  20  22
ENDBRANCH   3  20
TORSDOF 7
ENDMDL
MODEL 19
REMARK VINA RESULT:    -7.834      2.383      5.831
REMARK INTER + INTRA:         -11.952
REMARK INTER:                 -11.063
REMARK INTRA:                  -0.889
REMARK UNBOUND:                -1.140
REMARK SMILES CC(=O)NCCNc1nc(Nc2ccc(O)cc2C)c2cnn(C)c2n1
REMARK SMILES IDX 8 1 9 2 10 3 20 4 21 5 22 6 23 7 24 8 25 9 26 10 7 11 6 13
REMARK SMILES IDX 5 14 4 15 2 16 1 17 3 18 11 20 12 22 13 23 18 24 14 25 17 26
REMARK SMILES IDX 15 27 19 28 16 29
REMARK H PARENT 7 12 4 19 11 21 16 30
ROOT
ATOM      1  C   UNL     1       6.938  44.051  49.973  1.00  0.00     0.226 A 
ATOM      2  N   UNL     1       5.707  44.375  50.402  1.00  0.00    -0.195 NA
ATOM      3  C   UNL     1       5.517  45.398  51.278  1.00  0.00     0.147 A 
ATOM      4  C   UNL     1       6.664  46.089  51.695  1.00  0.00     0.082 A 
ATOM      5  C   UNL     1       6.996  47.170  52.539  1.00  0.00     0.149 A 
ATOM      6  N   UNL     1       8.309  47.419  52.575  1.00  0.00    -0.179 NA
ATOM      7  N   UNL     1       8.824  46.485  51.740  1.00  0.00    -0.250 N 
ATOM      8  C   UNL     1      10.246  46.444  51.512  1.00  0.00     0.176 C 
ATOM      9  C   UNL     1       7.878  45.663  51.193  1.00  0.00     0.165 A 
ATOM     10  N   UNL     1       8.077  44.650  50.336  1.00  0.00    -0.193 NA
ENDROOT
BRANCH   1  11
ATOM     11  N   UNL     1       6.970  42.994  49.067  1.00  0.00    -0.352 N 
ATOM     12  H   UNL     1       6.508  43.355  48.237  1.00  0.00     0.163 HD
BRANCH  11  13
ATOM     13  C   UNL     1       6.403  41.751  49.588  1.00  0.00     0.137 C 
BRANCH  13  14
ATOM     14  C   UNL     1       5.414  41.172  48.570  1.00  0.00     0.137 C 
BRANCH  14  15
ATOM     15  N   UNL     1       5.738  41.590  47.217  1.00  0.00    -0.355 N 
ATOM     16  C   UNL     1       4.864  41.376  46.180  1.00  0.00     0.216 C 
ATOM     17  C   UNL     1       5.285  42.003  44.879  1.00  0.00     0.114 C 
ATOM     18  O   UNL     1       3.823  40.737  46.292  1.00  0.00    -0.275 OA
ATOM     19  H   UNL     1       6.435  42.323  47.136  1.00  0.00     0.163 HD
ENDBRANCH  14  15
ENDBRANCH  13  14
ENDBRANCH  11  13
ENDBRANCH   1  11
BRANCH   3  20
ATOM     20  N   UNL     1       4.240  45.773  51.721  1.00  0.00    -0.339 N 
ATOM     21  H   UNL     1       3.747  46.364  51.068  1.00  0.00     0.168 HD
BRANCH  20  22
ATOM     22  C   UNL     1       3.552  45.556  52.933  1.00  0.00     0.043 A 
ATOM     23  C   UNL     1       3.916  46.200  54.125  1.00  0.00     0.030 A 
ATOM     24  C   UNL     1       2.492  44.617  52.984  1.00  0.00    -0.024 A 
ATOM     25  C   UNL     1       3.242  45.955  55.325  1.00  0.00     0.048 A 
ATOM     26  C   UNL     1       1.817  44.378  54.197  1.00  0.00     0.051 A 
ATOM     27  C   UNL     1       2.198  45.048  55.352  1.00  0.00     0.115 A 
ATOM     28  C   UNL     1       2.053  43.850  51.763  1.00  0.00     0.047 C 
BRANCH  27  29
ATOM     29  O   UNL     1       1.566  44.838  56.541  1.00  0.00    -0.508 OA
ATOM     30  H   UNL     1       1.176  43.949  56.533  1.00  0.00     0.293 HD
ENDBRANCH  27  29
ENDBRANCH  20  22
ENDBRANCH   3  20
TORSDOF 7
ENDMDL
