MODEL 1
REMARK VINA RESULT:    -8.641      0.000      0.000
REMARK INTER + INTRA:         -13.301
REMARK INTER:                 -11.925
REMARK INTRA:                  -1.376
REMARK UNBOUND:                -1.376
REMARK SMILES OC[C@H]1CCCC[N@H+]1CCNc1cc(-c2ccc(F)cc2)nc2ccnn12
REMARK SMILES IDX 9 1 8 2 3 3 4 4 7 5 5 6 6 7 2 9 1 10 10 12 11 13 12 15 13 16
REMARK SMILES IDX 27 17 14 18 26 19 23 20 22 21 25 22 24 23 15 24 16 25 21 26
REMARK SMILES IDX 17 27 20 28 18 29 19 30
REMARK H PARENT 8 8 1 11 11 14
ROOT
ATOM      1  C   UNL     1       2.812  45.799  54.943  1.00  0.00     0.283 C 
ENDROOT
BRANCH   1   2
ATOM      2  N   UNL     1       2.266  45.010  53.762  1.00  0.00    -0.329 N 
ATOM      3  C   UNL     1       1.768  45.869  52.612  1.00  0.00     0.209 C 
ATOM      4  C   UNL     1       1.000  44.962  51.641  1.00  0.00     0.068 C 
ATOM      5  C   UNL     1       3.119  43.847  53.352  1.00  0.00     0.262 C 
ATOM      6  C   UNL     1       1.810  43.749  51.191  1.00  0.00     0.012 C 
ATOM      7  C   UNL     1       2.342  42.965  52.386  1.00  0.00     0.062 C 
ATOM      8  H   UNL     1       1.412  44.604  54.192  1.00  0.00     0.348 HD
BRANCH   3   9
ATOM      9  C   UNL     1       2.910  46.663  51.938  1.00  0.00     0.220 C 
BRANCH   9  10
ATOM     10  O   UNL     1       2.840  48.029  52.326  1.00  0.00    -0.390 OA
ATOM     11  H   UNL     1       2.464  48.074  53.225  1.00  0.00     0.210 HD
ENDBRANCH   9  10
ENDBRANCH   3   9
ENDBRANCH   1   2
BRANCH   1  12
ATOM     12  C   UNL     1       4.257  45.342  55.258  1.00  0.00     0.175 C 
BRANCH  12  13
ATOM     13  N   UNL     1       5.263  46.384  54.925  1.00  0.00    -0.364 N 
ATOM     14  H   UNL     1       5.713  46.722  55.782  1.00  0.00     0.162 HD
BRANCH  13  15
ATOM     15  C   UNL     1       6.245  46.219  53.916  1.00  0.00     0.132 A 
ATOM     16  C   UNL     1       6.041  45.403  52.862  1.00  0.00     0.075 A 
ATOM     17  N   UNL     1       7.504  46.879  54.000  1.00  0.00    -0.199 N 
ATOM     18  C   UNL     1       7.144  45.284  51.850  1.00  0.00     0.076 A 
ATOM     19  N   UNL     1       7.955  47.700  54.999  1.00  0.00    -0.173 NA
ATOM     20  C   UNL     1       8.484  46.693  53.023  1.00  0.00     0.157 A 
ATOM     21  N   UNL     1       8.295  45.884  51.945  1.00  0.00    -0.228 NA
ATOM     22  C   UNL     1       9.182  48.054  54.608  1.00  0.00     0.138 A 
ATOM     23  C   UNL     1       9.562  47.458  53.400  1.00  0.00     0.071 A 
BRANCH  18  24
ATOM     24  C   UNL     1       6.890  44.393  50.683  1.00  0.00     0.001 A 
ATOM     25  C   UNL     1       5.714  43.626  50.671  1.00  0.00     0.013 A 
ATOM     26  C   UNL     1       7.802  44.281  49.624  1.00  0.00     0.013 A 
ATOM     27  C   UNL     1       5.440  42.776  49.597  1.00  0.00     0.040 A 
ATOM     28  C   UNL     1       7.523  43.428  48.552  1.00  0.00     0.040 A 
ATOM     29  C   UNL     1       6.345  42.688  48.547  1.00  0.00     0.123 A 
ATOM     30  F   UNL     1       6.084  41.874  47.516  1.00  0.00    -0.207 F 
ENDBRANCH  18  24
ENDBRANCH  13  15
ENDBRANCH  12  13
ENDBRANCH   1  12
TORSDOF 7
ENDMDL
MODEL 2
REMARK VINA RESULT:    -8.618      1.860      2.322
REMARK INTER + INTRA:         -13.270
REMARK INTER:                 -11.824
REMARK INTRA:                  -1.446
REMARK UNBOUND:                -1.376
REMARK SMILES OC[C@H]1CCCC[N@H+]1CCNc1cc(-c2ccc(F)cc2)nc2ccnn12
REMARK SMILES IDX 9 1 8 2 3 3 4 4 7 5 5 6 6 7 2 9 1 10 10 12 11 13 12 15 13 16
REMARK SMILES IDX 27 17 14 18 26 19 23 20 22 21 25 22 24 23 15 24 16 25 21 26
REMARK SMILES IDX 17 27 20 28 18 29 19 30
REMARK H PARENT 8 8 1 11 11 14
ROOT
ATOM      1  C   UNL     1       2.768  45.401  55.113  1.00  0.00     0.283 C 
ENDROOT
BRANCH   1   2
ATOM      2  N   UNL     1       2.358  44.826  53.765  1.00  0.00    -0.329 N 
ATOM      3  C   UNL     1       1.380  43.667  53.849  1.00  0.00     0.209 C 
ATOM      4  C   UNL     1       1.288  43.022  52.460  1.00  0.00     0.068 C 
ATOM      5  C   UNL     1       2.017  45.860  52.734  1.00  0.00     0.262 C 
ATOM      6  C   UNL     1       0.953  44.024  51.358  1.00  0.00     0.012 C 
ATOM      7  C   UNL     1       1.925  45.200  51.366  1.00  0.00     0.062 C 
ATOM      8  H   UNL     1       3.259  44.405  53.464  1.00  0.00     0.348 HD
BRANCH   3   9
ATOM      9  C   UNL     1       0.010  44.099  54.418  1.00  0.00     0.220 C 
BRANCH   9  10
ATOM     10  O   UNL     1      -0.927  43.038  54.272  1.00  0.00    -0.390 OA
ATOM     11  H   UNL     1      -0.884  42.716  53.353  1.00  0.00     0.210 HD
ENDBRANCH   9  10
ENDBRANCH   3   9
ENDBRANCH   1   2
BRANCH   1  12
ATOM     12  C   UNL     1       3.897  46.441  54.920  1.00  0.00     0.175 C 
BRANCH  12  13
ATOM     13  N   UNL     1       5.223  45.803  54.710  1.00  0.00    -0.364 N 
ATOM     14  H   UNL     1       5.280  44.932  55.249  1.00  0.00     0.162 HD
BRANCH  13  15
ATOM     15  C   UNL     1       5.789  45.597  53.428  1.00  0.00     0.132 A 
ATOM     16  C   UNL     1       5.424  44.552  52.657  1.00  0.00     0.075 A 
ATOM     17  N   UNL     1       6.798  46.464  52.920  1.00  0.00    -0.199 N 
ATOM     18  C   UNL     1       6.087  44.409  51.318  1.00  0.00     0.076 A 
ATOM     19  N   UNL     1       7.365  47.544  53.543  1.00  0.00    -0.173 NA
ATOM     20  C   UNL     1       7.379  46.243  51.670  1.00  0.00     0.157 A 
ATOM     21  N   UNL     1       7.017  45.203  50.871  1.00  0.00    -0.228 NA
ATOM     22  C   UNL     1       8.249  48.010  52.657  1.00  0.00     0.138 A 
ATOM     23  C   UNL     1       8.304  47.244  51.487  1.00  0.00     0.071 A 
BRANCH  18  24
ATOM     24  C   UNL     1       5.654  43.259  50.474  1.00  0.00     0.001 A 
ATOM     25  C   UNL     1       4.551  42.500  50.894  1.00  0.00     0.013 A 
ATOM     26  C   UNL     1       6.335  42.903  49.301  1.00  0.00     0.013 A 
ATOM     27  C   UNL     1       4.115  41.413  50.133  1.00  0.00     0.040 A 
ATOM     28  C   UNL     1       5.895  41.813  48.544  1.00  0.00     0.040 A 
ATOM     29  C   UNL     1       4.789  41.083  48.965  1.00  0.00     0.123 A 
ATOM     30  F   UNL     1       4.373  40.041  48.234  1.00  0.00    -0.207 F 
ENDBRANCH  18  24
ENDBRANCH  13  15
ENDBRANCH  12  13
ENDBRANCH   1  12
TORSDOF 7
ENDMDL
MODEL 3
REMARK VINA RESULT:    -8.580      2.145      5.721
REMARK INTER + INTRA:         -13.216
REMARK INTER:                 -12.195
REMARK INTRA:                  -1.021
REMARK UNBOUND:                -1.376
REMARK SMILES OC[C@H]1CCCC[N@H+]1CCNc1cc(-c2ccc(F)cc2)nc2ccnn12
REMARK SMILES IDX 9 1 8 2 3 3 4 4 7 5 5 6 6 7 2 9 1 10 10 12 11 13 12 15 13 16
REMARK SMILES IDX 27 17 14 18 26 19 23 20 22 21 25 22 24 23 15 24 16 25 21 26
REMARK SMILES IDX 17 27 20 28 18 29 19 30
REMARK H PARENT 8 8 1 11 11 14
ROOT
ATOM      1  C   UNL     1       6.134  46.850  54.762  1.00  0.00     0.283 C 
ENDROOT
BRANCH   1   2
ATOM      2  N   UNL     1       6.858  47.045  53.439  1.00  0.00    -0.329 N 
ATOM      3  C   UNL     1       7.929  48.123  53.463  1.00  0.00     0.209 C 
ATOM      4  C   UNL     1       8.359  48.396  52.016  1.00  0.00     0.068 C 
ATOM      5  C   UNL     1       7.270  45.768  52.770  1.00  0.00     0.262 C 
ATOM      6  C   UNL     1       8.782  47.133  51.271  1.00  0.00     0.012 C 
ATOM      7  C   UNL     1       7.699  46.061  51.339  1.00  0.00     0.062 C 
ATOM      8  H   UNL     1       6.087  47.436  52.864  1.00  0.00     0.348 HD
BRANCH   3   9
ATOM      9  C   UNL     1       9.105  47.757  54.396  1.00  0.00     0.220 C 
BRANCH   9  10
ATOM     10  O   UNL     1       9.115  48.627  55.521  1.00  0.00    -0.390 OA
ATOM     11  H   UNL     1       9.276  48.092  56.321  1.00  0.00     0.210 HD
ENDBRANCH   9  10
ENDBRANCH   3   9
ENDBRANCH   1   2
BRANCH   1  12
ATOM     12  C   UNL     1       4.640  47.225  54.606  1.00  0.00     0.175 C 
BRANCH  12  13
ATOM     13  N   UNL     1       3.736  46.184  55.159  1.00  0.00    -0.364 N 
ATOM     14  H   UNL     1       3.013  46.621  55.739  1.00  0.00     0.162 HD
BRANCH  13  15
ATOM     15  C   UNL     1       3.146  45.168  54.366  1.00  0.00     0.132 A 
ATOM     16  C   UNL     1       3.831  44.564  53.373  1.00  0.00     0.075 A 
ATOM     17  N   UNL     1       1.792  44.775  54.561  1.00  0.00    -0.199 N 
ATOM     18  C   UNL     1       3.119  43.507  52.579  1.00  0.00     0.076 A 
ATOM     19  N   UNL     1       0.892  45.285  55.459  1.00  0.00    -0.173 NA
ATOM     20  C   UNL     1       1.200  43.797  53.760  1.00  0.00     0.157 A 
ATOM     21  N   UNL     1       1.876  43.165  52.761  1.00  0.00    -0.228 NA
ATOM     22  C   UNL     1      -0.225  44.586  55.242  1.00  0.00     0.138 A 
ATOM     23  C   UNL     1      -0.094  43.659  54.202  1.00  0.00     0.071 A 
BRANCH  18  24
ATOM     24  C   UNL     1       3.900  42.838  51.500  1.00  0.00     0.001 A 
ATOM     25  C   UNL     1       5.129  43.399  51.120  1.00  0.00     0.013 A 
ATOM     26  C   UNL     1       3.426  41.694  50.843  1.00  0.00     0.013 A 
ATOM     27  C   UNL     1       5.891  42.805  50.111  1.00  0.00     0.040 A 
ATOM     28  C   UNL     1       4.192  41.104  49.834  1.00  0.00     0.040 A 
ATOM     29  C   UNL     1       5.416  41.662  49.480  1.00  0.00     0.123 A 
ATOM     30  F   UNL     1       6.144  41.090  48.513  1.00  0.00    -0.207 F 
ENDBRANCH  18  24
ENDBRANCH  13  15
ENDBRANCH  12  13
ENDBRANCH   1  12
TORSDOF 7
ENDMDL
MODEL 4
REMARK VINA RESULT:    -8.575      1.354      1.755
REMARK INTER + INTRA:         -13.210
REMARK INTER:                 -11.725
REMARK INTRA:                  -1.485
REMARK UNBOUND:                -1.376
REMARK SMILES OC[C@H]1CCCC[N@H+]1CCNc1cc(-c2ccc(F)cc2)nc2ccnn12
REMARK SMILES IDX 9 1 8 2 3 3 4 4 7 5 5 6 6 7 2 9 1 10 10 12 11 13 12 15 13 16
REMARK SMILES IDX 27 17 14 18 26 19 23 20 22 21 25 22 24 23 15 24 16 25 21 26
REMARK SMILES IDX 17 27 20 28 18 29 19 30
REMARK H PARENT 8 8 1 11 11 14
ROOT
ATOM      1  C   UNL     1       3.071  45.905  55.055  1.00  0.00     0.283 C 
ENDROOT
BRANCH   1   2
ATOM      2  N   UNL     1       2.945  45.354  53.643  1.00  0.00    -0.329 N 
ATOM      3  C   UNL     1       2.328  43.968  53.563  1.00  0.00     0.209 C 
ATOM      4  C   UNL     1       2.528  43.441  52.136  1.00  0.00     0.068 C 
ATOM      5  C   UNL     1       2.407  46.337  52.645  1.00  0.00     0.262 C 
ATOM      6  C   UNL     1       2.012  44.401  51.068  1.00  0.00     0.012 C 
ATOM      7  C   UNL     1       2.610  45.794  51.239  1.00  0.00     0.062 C 
ATOM      8  H   UNL     1       3.948  45.224  53.406  1.00  0.00     0.348 HD
BRANCH   3   9
ATOM      9  C   UNL     1       0.852  43.958  54.020  1.00  0.00     0.220 C 
BRANCH   9  10
ATOM     10  O   UNL     1       0.292  42.669  53.806  1.00  0.00    -0.390 OA
ATOM     11  H   UNL     1       0.857  42.011  54.253  1.00  0.00     0.210 HD
ENDBRANCH   9  10
ENDBRANCH   3   9
ENDBRANCH   1   2
BRANCH   1  12
ATOM     12  C   UNL     1       4.563  45.986  55.457  1.00  0.00     0.175 C 
BRANCH  12  13
ATOM     13  N   UNL     1       5.317  46.966  54.633  1.00  0.00    -0.364 N 
ATOM     14  H   UNL     1       5.627  47.750  55.218  1.00  0.00     0.162 HD
BRANCH  13  15
ATOM     15  C   UNL     1       6.367  46.597  53.756  1.00  0.00     0.132 A 
ATOM     16  C   UNL     1       6.151  45.779  52.705  1.00  0.00     0.075 A 
ATOM     17  N   UNL     1       7.701  47.044  53.974  1.00  0.00    -0.199 N 
ATOM     18  C   UNL     1       7.326  45.435  51.837  1.00  0.00     0.076 A 
ATOM     19  N   UNL     1       8.166  47.823  54.999  1.00  0.00    -0.173 NA
ATOM     20  C   UNL     1       8.741  46.655  53.128  1.00  0.00     0.157 A 
ATOM     21  N   UNL     1       8.544  45.841  52.055  1.00  0.00    -0.228 NA
ATOM     22  C   UNL     1       9.473  47.952  54.751  1.00  0.00     0.138 A 
ATOM     23  C   UNL     1       9.883  47.248  53.614  1.00  0.00     0.071 A 
BRANCH  18  24
ATOM     24  C   UNL     1       7.061  44.546  50.670  1.00  0.00     0.001 A 
ATOM     25  C   UNL     1       5.876  43.793  50.659  1.00  0.00     0.013 A 
ATOM     26  C   UNL     1       7.972  44.422  49.611  1.00  0.00     0.013 A 
ATOM     27  C   UNL     1       5.592  42.946  49.585  1.00  0.00     0.040 A 
ATOM     28  C   UNL     1       7.682  43.572  48.540  1.00  0.00     0.040 A 
ATOM     29  C   UNL     1       6.495  42.847  48.536  1.00  0.00     0.123 A 
ATOM     30  F   UNL     1       6.225  42.036  47.505  1.00  0.00    -0.207 F 
ENDBRANCH  18  24
ENDBRANCH  13  15
ENDBRANCH  12  13
ENDBRANCH   1  12
TORSDOF 7
ENDMDL
MODEL 5
REMARK VINA RESULT:    -8.569      1.163      1.428
REMARK INTER + INTRA:         -13.201
REMARK INTER:                 -11.933
REMARK INTRA:                  -1.268
REMARK UNBOUND:                -1.376
REMARK SMILES OC[C@H]1CCCC[N@H+]1CCNc1cc(-c2ccc(F)cc2)nc2ccnn12
REMARK SMILES IDX 9 1 8 2 3 3 4 4 7 5 5 6 6 7 2 9 1 10 10 12 11 13 12 15 13 16
REMARK SMILES IDX 27 17 14 18 26 19 23 20 22 21 25 22 24 23 15 24 16 25 21 26
REMARK SMILES IDX 17 27 20 28 18 29 19 30
REMARK H PARENT 8 8 1 11 11 14
ROOT
ATOM      1  C   UNL     1       2.794  45.820  55.149  1.00  0.00     0.283 C 
ENDROOT
BRANCH   1   2
ATOM      2  N   UNL     1       1.948  45.116  54.100  1.00  0.00    -0.329 N 
ATOM      3  C   UNL     1       1.475  46.015  52.970  1.00  0.00     0.209 C 
ATOM      4  C   UNL     1       0.418  45.248  52.164  1.00  0.00     0.068 C 
ATOM      5  C   UNL     1       2.492  43.790  53.659  1.00  0.00     0.262 C 
ATOM      6  C   UNL     1       0.905  43.880  51.693  1.00  0.00     0.012 C 
ATOM      7  C   UNL     1       1.432  43.049  52.858  1.00  0.00     0.062 C 
ATOM      8  H   UNL     1       1.098  44.908  54.659  1.00  0.00     0.348 HD
BRANCH   3   9
ATOM      9  C   UNL     1       2.647  46.536  52.107  1.00  0.00     0.220 C 
BRANCH   9  10
ATOM     10  O   UNL     1       2.838  47.925  52.345  1.00  0.00    -0.390 OA
ATOM     11  H   UNL     1       2.014  48.289  52.718  1.00  0.00     0.210 HD
ENDBRANCH   9  10
ENDBRANCH   3   9
ENDBRANCH   1   2
BRANCH   1  12
ATOM     12  C   UNL     1       4.189  45.155  55.234  1.00  0.00     0.175 C 
BRANCH  12  13
ATOM     13  N   UNL     1       5.258  46.007  54.652  1.00  0.00    -0.364 N 
ATOM     14  H   UNL     1       5.994  46.168  55.348  1.00  0.00     0.162 HD
BRANCH  13  15
ATOM     15  C   UNL     1       5.855  45.750  53.393  1.00  0.00     0.132 A 
ATOM     16  C   UNL     1       5.479  44.698  52.638  1.00  0.00     0.075 A 
ATOM     17  N   UNL     1       6.906  46.572  52.895  1.00  0.00    -0.199 N 
ATOM     18  C   UNL     1       6.177  44.500  51.323  1.00  0.00     0.076 A 
ATOM     19  N   UNL     1       7.489  47.649  53.508  1.00  0.00    -0.173 NA
ATOM     20  C   UNL     1       7.516  46.301  51.669  1.00  0.00     0.157 A 
ATOM     21  N   UNL     1       7.145  45.253  50.885  1.00  0.00    -0.228 NA
ATOM     22  C   UNL     1       8.414  48.064  52.638  1.00  0.00     0.138 A 
ATOM     23  C   UNL     1       8.479  47.267  51.490  1.00  0.00     0.071 A 
BRANCH  18  24
ATOM     24  C   UNL     1       5.732  43.343  50.495  1.00  0.00     0.001 A 
ATOM     25  C   UNL     1       4.615  42.607  50.921  1.00  0.00     0.013 A 
ATOM     26  C   UNL     1       6.415  42.959  49.332  1.00  0.00     0.013 A 
ATOM     27  C   UNL     1       4.168  41.514  50.174  1.00  0.00     0.040 A 
ATOM     28  C   UNL     1       5.963  41.864  48.590  1.00  0.00     0.040 A 
ATOM     29  C   UNL     1       4.844  41.156  49.015  1.00  0.00     0.123 A 
ATOM     30  F   UNL     1       4.417  40.109  48.299  1.00  0.00    -0.207 F 
ENDBRANCH  18  24
ENDBRANCH  13  15
ENDBRANCH  12  13
ENDBRANCH   1  12
TORSDOF 7
ENDMDL
MODEL 6
REMARK VINA RESULT:    -8.206      2.065      2.764
REMARK INTER + INTRA:         -12.700
REMARK INTER:                 -11.607
REMARK INTRA:                  -1.093
REMARK UNBOUND:                -1.376
REMARK SMILES OC[C@H]1CCCC[N@H+]1CCNc1cc(-c2ccc(F)cc2)nc2ccnn12
REMARK SMILES IDX 9 1 8 2 3 3 4 4 7 5 5 6 6 7 2 9 1 10 10 12 11 13 12 15 13 16
REMARK SMILES IDX 27 17 14 18 26 19 23 20 22 21 25 22 24 23 15 24 16 25 21 26
REMARK SMILES IDX 17 27 20 28 18 29 19 30
REMARK H PARENT 8 8 1 11 11 14
ROOT
ATOM      1  C   UNL     1       3.373  45.637  55.492  1.00  0.00     0.283 C 
ENDROOT
BRANCH   1   2
ATOM      2  N   UNL     1       2.319  45.130  54.520  1.00  0.00    -0.329 N 
ATOM      3  C   UNL     1       1.114  44.484  55.183  1.00  0.00     0.209 C 
ATOM      4  C   UNL     1       0.294  43.779  54.094  1.00  0.00     0.068 C 
ATOM      5  C   UNL     1       1.986  46.090  53.417  1.00  0.00     0.262 C 
ATOM      6  C   UNL     1      -0.070  44.700  52.932  1.00  0.00     0.012 C 
ATOM      7  C   UNL     1       1.169  45.374  52.351  1.00  0.00     0.062 C 
ATOM      8  H   UNL     1       2.840  44.349  54.075  1.00  0.00     0.348 HD
BRANCH   3   9
ATOM      9  C   UNL     1       0.292  45.495  56.014  1.00  0.00     0.220 C 
BRANCH   9  10
ATOM     10  O   UNL     1      -0.011  44.938  57.286  1.00  0.00    -0.390 OA
ATOM     11  H   UNL     1       0.806  44.926  57.819  1.00  0.00     0.210 HD
ENDBRANCH   9  10
ENDBRANCH   3   9
ENDBRANCH   1   2
BRANCH   1  12
ATOM     12  C   UNL     1       4.062  46.896  54.911  1.00  0.00     0.175 C 
BRANCH  12  13
ATOM     13  N   UNL     1       5.501  46.666  54.617  1.00  0.00    -0.364 N 
ATOM     14  H   UNL     1       5.938  46.152  55.390  1.00  0.00     0.162 HD
BRANCH  13  15
ATOM     15  C   UNL     1       5.967  46.141  53.386  1.00  0.00     0.132 A 
ATOM     16  C   UNL     1       5.404  45.049  52.829  1.00  0.00     0.075 A 
ATOM     17  N   UNL     1       7.076  46.724  52.710  1.00  0.00    -0.199 N 
ATOM     18  C   UNL     1       5.972  44.560  51.529  1.00  0.00     0.076 A 
ATOM     19  N   UNL     1       7.837  47.790  53.112  1.00  0.00    -0.173 NA
ATOM     20  C   UNL     1       7.555  46.188  51.513  1.00  0.00     0.157 A 
ATOM     21  N   UNL     1       6.995  45.095  50.926  1.00  0.00    -0.228 NA
ATOM     22  C   UNL     1       8.742  47.935  52.140  1.00  0.00     0.138 A 
ATOM     23  C   UNL     1       8.619  46.972  51.132  1.00  0.00     0.071 A 
BRANCH  18  24
ATOM     24  C   UNL     1       5.322  43.364  50.920  1.00  0.00     0.001 A 
ATOM     25  C   UNL     1       6.033  42.638  49.952  1.00  0.00     0.013 A 
ATOM     26  C   UNL     1       4.021  42.973  51.266  1.00  0.00     0.013 A 
ATOM     27  C   UNL     1       5.458  41.513  49.356  1.00  0.00     0.040 A 
ATOM     28  C   UNL     1       3.450  41.847  50.665  1.00  0.00     0.040 A 
ATOM     29  C   UNL     1       4.175  41.127  49.720  1.00  0.00     0.123 A 
ATOM     30  F   UNL     1       3.622  40.049  49.150  1.00  0.00    -0.207 F 
ENDBRANCH  18  24
ENDBRANCH  13  15
ENDBRANCH  12  13
ENDBRANCH   1  12
TORSDOF 7
ENDMDL
MODEL 7
REMARK VINA RESULT:    -8.093      2.129      2.620
REMARK INTER + INTRA:         -12.545
REMARK INTER:                 -11.779
REMARK INTRA:                  -0.766
REMARK UNBOUND:                -1.376
REMARK SMILES OC[C@H]1CCCC[N@H+]1CCNc1cc(-c2ccc(F)cc2)nc2ccnn12
REMARK SMILES IDX 9 1 8 2 3 3 4 4 7 5 5 6 6 7 2 9 1 10 10 12 11 13 12 15 13 16
REMARK SMILES IDX 27 17 14 18 26 19 23 20 22 21 25 22 24 23 15 24 16 25 21 26
REMARK SMILES IDX 17 27 20 28 18 29 19 30
REMARK H PARENT 8 8 1 11 11 14
ROOT
ATOM      1  C   UNL     1       2.545  46.253  53.919  1.00  0.00     0.283 C 
ENDROOT
BRANCH   1   2
ATOM      2  N   UNL     1       1.211  45.652  54.337  1.00  0.00    -0.329 N 
ATOM      3  C   UNL     1       0.667  44.608  53.377  1.00  0.00     0.209 C 
ATOM      4  C   UNL     1      -0.787  44.312  53.772  1.00  0.00     0.068 C 
ATOM      5  C   UNL     1       1.135  45.272  55.785  1.00  0.00     0.262 C 
ATOM      6  C   UNL     1      -0.938  43.928  55.242  1.00  0.00     0.012 C 
ATOM      7  C   UNL     1      -0.312  44.977  56.155  1.00  0.00     0.062 C 
ATOM      8  H   UNL     1       0.594  46.479  54.223  1.00  0.00     0.348 HD
BRANCH   3   9
ATOM      9  C   UNL     1       1.556  43.346  53.318  1.00  0.00     0.220 C 
BRANCH   9  10
ATOM     10  O   UNL     1       0.892  42.323  52.588  1.00  0.00    -0.390 OA
ATOM     11  H   UNL     1       1.349  41.478  52.759  1.00  0.00     0.210 HD
ENDBRANCH   9  10
ENDBRANCH   3   9
ENDBRANCH   1   2
BRANCH   1  12
ATOM     12  C   UNL     1       3.643  45.854  54.935  1.00  0.00     0.175 C 
BRANCH  12  13
ATOM     13  N   UNL     1       4.983  46.365  54.547  1.00  0.00    -0.364 N 
ATOM     14  H   UNL     1       5.637  46.263  55.331  1.00  0.00     0.162 HD
BRANCH  13  15
ATOM     15  C   UNL     1       5.636  45.995  53.345  1.00  0.00     0.132 A 
ATOM     16  C   UNL     1       5.258  44.905  52.645  1.00  0.00     0.075 A 
ATOM     17  N   UNL     1       6.745  46.738  52.850  1.00  0.00    -0.199 N 
ATOM     18  C   UNL     1       6.016  44.587  51.389  1.00  0.00     0.076 A 
ATOM     19  N   UNL     1       7.339  47.834  53.418  1.00  0.00    -0.173 NA
ATOM     20  C   UNL     1       7.409  46.356  51.683  1.00  0.00     0.157 A 
ATOM     21  N   UNL     1       7.036  45.268  50.955  1.00  0.00    -0.228 NA
ATOM     22  C   UNL     1       8.326  48.150  52.574  1.00  0.00     0.138 A 
ATOM     23  C   UNL     1       8.419  47.269  51.491  1.00  0.00     0.071 A 
BRANCH  18  24
ATOM     24  C   UNL     1       5.568  43.390  50.621  1.00  0.00     0.001 A 
ATOM     25  C   UNL     1       4.429  42.699  51.064  1.00  0.00     0.013 A 
ATOM     26  C   UNL     1       6.268  42.926  49.498  1.00  0.00     0.013 A 
ATOM     27  C   UNL     1       3.979  41.572  50.374  1.00  0.00     0.040 A 
ATOM     28  C   UNL     1       5.813  41.797  48.812  1.00  0.00     0.040 A 
ATOM     29  C   UNL     1       4.673  41.134  49.253  1.00  0.00     0.123 A 
ATOM     30  F   UNL     1       4.243  40.053  48.590  1.00  0.00    -0.207 F 
ENDBRANCH  18  24
ENDBRANCH  13  15
ENDBRANCH  12  13
ENDBRANCH   1  12
TORSDOF 7
ENDMDL
MODEL 8
REMARK VINA RESULT:    -7.923      1.656      5.492
REMARK INTER + INTRA:         -12.310
REMARK INTER:                 -11.274
REMARK INTRA:                  -1.037
REMARK UNBOUND:                -1.376
REMARK SMILES OC[C@H]1CCCC[N@H+]1CCNc1cc(-c2ccc(F)cc2)nc2ccnn12
REMARK SMILES IDX 9 1 8 2 3 3 4 4 7 5 5 6 6 7 2 9 1 10 10 12 11 13 12 15 13 16
REMARK SMILES IDX 27 17 14 18 26 19 23 20 22 21 25 22 24 23 15 24 16 25 21 26
REMARK SMILES IDX 17 27 20 28 18 29 19 30
REMARK H PARENT 8 8 1 11 11 14
ROOT
ATOM      1  C   UNL     1       6.207  46.678  54.925  1.00  0.00     0.283 C 
ENDROOT
BRANCH   1   2
ATOM      2  N   UNL     1       7.578  46.543  54.281  1.00  0.00    -0.329 N 
ATOM      3  C   UNL     1       7.548  46.082  52.833  1.00  0.00     0.209 C 
ATOM      4  C   UNL     1       8.982  45.723  52.420  1.00  0.00     0.068 C 
ATOM      5  C   UNL     1       8.501  47.694  54.552  1.00  0.00     0.262 C 
ATOM      6  C   UNL     1       9.977  46.850  52.681  1.00  0.00     0.012 C 
ATOM      7  C   UNL     1       9.914  47.320  54.130  1.00  0.00     0.062 C 
ATOM      8  H   UNL     1       7.955  45.738  54.818  1.00  0.00     0.348 HD
BRANCH   3   9
ATOM      9  C   UNL     1       6.882  47.121  51.903  1.00  0.00     0.220 C 
BRANCH   9  10
ATOM     10  O   UNL     1       5.556  46.709  51.593  1.00  0.00    -0.390 OA
ATOM     11  H   UNL     1       4.936  47.282  52.080  1.00  0.00     0.210 HD
ENDBRANCH   9  10
ENDBRANCH   3   9
ENDBRANCH   1   2
BRANCH   1  12
ATOM     12  C   UNL     1       5.824  45.355  55.631  1.00  0.00     0.175 C 
BRANCH  12  13
ATOM     13  N   UNL     1       4.356  45.128  55.648  1.00  0.00    -0.364 N 
ATOM     14  H   UNL     1       3.876  45.969  55.986  1.00  0.00     0.162 HD
BRANCH  13  15
ATOM     15  C   UNL     1       3.641  44.596  54.546  1.00  0.00     0.132 A 
ATOM     16  C   UNL     1       4.279  44.040  53.495  1.00  0.00     0.075 A 
ATOM     17  N   UNL     1       2.220  44.664  54.488  1.00  0.00    -0.199 N 
ATOM     18  C   UNL     1       3.438  43.513  52.370  1.00  0.00     0.076 A 
ATOM     19  N   UNL     1       1.370  45.231  55.400  1.00  0.00    -0.173 NA
ATOM     20  C   UNL     1       1.517  44.168  53.388  1.00  0.00     0.157 A 
ATOM     21  N   UNL     1       2.139  43.592  52.323  1.00  0.00    -0.228 NA
ATOM     22  C   UNL     1       0.154  45.036  54.885  1.00  0.00     0.138 A 
ATOM     23  C   UNL     1       0.184  44.390  53.644  1.00  0.00     0.071 A 
BRANCH  18  24
ATOM     24  C   UNL     1       4.163  42.885  51.228  1.00  0.00     0.001 A 
ATOM     25  C   UNL     1       3.615  41.733  50.642  1.00  0.00     0.013 A 
ATOM     26  C   UNL     1       5.380  43.394  50.754  1.00  0.00     0.013 A 
ATOM     27  C   UNL     1       4.265  41.113  49.572  1.00  0.00     0.040 A 
ATOM     28  C   UNL     1       6.026  42.768  49.683  1.00  0.00     0.040 A 
ATOM     29  C   UNL     1       5.461  41.638  49.101  1.00  0.00     0.123 A 
ATOM     30  F   UNL     1       6.086  41.045  48.076  1.00  0.00    -0.207 F 
ENDBRANCH  18  24
ENDBRANCH  13  15
ENDBRANCH  12  13
ENDBRANCH   1  12
TORSDOF 7
ENDMDL
MODEL 9
REMARK VINA RESULT:    -7.898      3.253      5.440
REMARK INTER + INTRA:         -12.275
REMARK INTER:                 -11.156
REMARK INTRA:                  -1.119
REMARK UNBOUND:                -1.376
REMARK SMILES OC[C@H]1CCCC[N@H+]1CCNc1cc(-c2ccc(F)cc2)nc2ccnn12
REMARK SMILES IDX 9 1 8 2 3 3 4 4 7 5 5 6 6 7 2 9 1 10 10 12 11 13 12 15 13 16
REMARK SMILES IDX 27 17 14 18 26 19 23 20 22 21 25 22 24 23 15 24 16 25 21 26
REMARK SMILES IDX 17 27 20 28 18 29 19 30
REMARK H PARENT 8 8 1 11 11 14
ROOT
ATOM      1  C   UNL     1       1.721  45.641  53.858  1.00  0.00     0.283 C 
ENDROOT
BRANCH   1   2
ATOM      2  N   UNL     1       0.409  45.240  54.516  1.00  0.00    -0.329 N 
ATOM      3  C   UNL     1      -0.302  44.079  53.841  1.00  0.00     0.209 C 
ATOM      4  C   UNL     1      -1.716  43.983  54.429  1.00  0.00     0.068 C 
ATOM      5  C   UNL     1       0.473  45.151  56.012  1.00  0.00     0.262 C 
ATOM      6  C   UNL     1      -1.723  43.900  55.953  1.00  0.00     0.012 C 
ATOM      7  C   UNL     1      -0.937  45.050  56.574  1.00  0.00     0.062 C 
ATOM      8  H   UNL     1      -0.167  46.078  54.302  1.00  0.00     0.348 HD
BRANCH   3   9
ATOM      9  C   UNL     1       0.499  42.762  53.947  1.00  0.00     0.220 C 
BRANCH   9  10
ATOM     10  O   UNL     1       0.714  42.224  52.648  1.00  0.00    -0.390 OA
ATOM     11  H   UNL     1       1.524  41.681  52.672  1.00  0.00     0.210 HD
ENDBRANCH   9  10
ENDBRANCH   3   9
ENDBRANCH   1   2
BRANCH   1  12
ATOM     12  C   UNL     1       1.481  45.980  52.368  1.00  0.00     0.175 C 
BRANCH  12  13
ATOM     13  N   UNL     1       1.947  44.899  51.461  1.00  0.00    -0.364 N 
ATOM     14  H   UNL     1       1.628  45.085  50.503  1.00  0.00     0.162 HD
BRANCH  13  15
ATOM     15  C   UNL     1       3.287  44.441  51.425  1.00  0.00     0.132 A 
ATOM     16  C   UNL     1       4.310  45.224  51.825  1.00  0.00     0.075 A 
ATOM     17  N   UNL     1       3.610  43.146  50.926  1.00  0.00    -0.199 N 
ATOM     18  C   UNL     1       5.696  44.655  51.741  1.00  0.00     0.076 A 
ATOM     19  N   UNL     1       2.753  42.209  50.414  1.00  0.00    -0.173 NA
ATOM     20  C   UNL     1       4.933  42.706  50.862  1.00  0.00     0.157 A 
ATOM     21  N   UNL     1       5.979  43.474  51.271  1.00  0.00    -0.228 NA
ATOM     22  C   UNL     1       3.543  41.182  50.088  1.00  0.00     0.138 A 
ATOM     23  C   UNL     1       4.897  41.436  50.337  1.00  0.00     0.071 A 
BRANCH  18  24
ATOM     24  C   UNL     1       6.810  45.531  52.207  1.00  0.00     0.001 A 
ATOM     25  C   UNL     1       6.878  45.856  53.571  1.00  0.00     0.013 A 
ATOM     26  C   UNL     1       7.760  46.056  51.320  1.00  0.00     0.013 A 
ATOM     27  C   UNL     1       7.904  46.676  54.048  1.00  0.00     0.040 A 
ATOM     28  C   UNL     1       8.784  46.876  51.802  1.00  0.00     0.040 A 
ATOM     29  C   UNL     1       8.848  47.175  53.160  1.00  0.00     0.123 A 
ATOM     30  F   UNL     1       9.832  47.960  53.614  1.00  0.00    -0.207 F 
ENDBRANCH  18  24
ENDBRANCH  13  15
ENDBRANCH  12  13
ENDBRANCH   1  12
TORSDOF 7
ENDMDL
MODEL 10
REMARK VINA RESULT:    -7.859      3.249      5.596
REMARK INTER + INTRA:         -12.221
REMARK INTER:                 -11.161
REMARK INTRA:                  -1.060
REMARK UNBOUND:                -1.376
REMARK SMILES OC[C@H]1CCCC[N@H+]1CCNc1cc(-c2ccc(F)cc2)nc2ccnn12
REMARK SMILES IDX 9 1 8 2 3 3 4 4 7 5 5 6 6 7 2 9 1 10 10 12 11 13 12 15 13 16
REMARK SMILES IDX 27 17 14 18 26 19 23 20 22 21 25 22 24 23 15 24 16 25 21 26
REMARK SMILES IDX 17 27 20 28 18 29 19 30
REMARK H PARENT 8 8 1 11 11 14
ROOT
ATOM      1  C   UNL     1       0.777  43.836  51.801  1.00  0.00     0.283 C 
ENDROOT
BRANCH   1   2
ATOM      2  N   UNL     1      -0.432  44.075  52.693  1.00  0.00    -0.329 N 
ATOM      3  C   UNL     1      -0.163  43.885  54.176  1.00  0.00     0.209 C 
ATOM      4  C   UNL     1      -1.514  43.878  54.905  1.00  0.00     0.068 C 
ATOM      5  C   UNL     1      -1.214  45.308  52.351  1.00  0.00     0.262 C 
ATOM      6  C   UNL     1      -2.368  45.103  54.591  1.00  0.00     0.012 C 
ATOM      7  C   UNL     1      -2.545  45.284  53.088  1.00  0.00     0.062 C 
ATOM      8  H   UNL     1      -1.027  43.270  52.416  1.00  0.00     0.348 HD
BRANCH   3   9
ATOM      9  C   UNL     1       0.828  44.934  54.730  1.00  0.00     0.220 C 
BRANCH   9  10
ATOM     10  O   UNL     1       2.072  44.311  55.023  1.00  0.00    -0.390 OA
ATOM     11  H   UNL     1       1.892  43.452  55.448  1.00  0.00     0.210 HD
ENDBRANCH   9  10
ENDBRANCH   3   9
ENDBRANCH   1   2
BRANCH   1  12
ATOM     12  C   UNL     1       1.301  42.393  51.999  1.00  0.00     0.175 C 
BRANCH  12  13
ATOM     13  N   UNL     1       2.642  42.363  52.638  1.00  0.00    -0.364 N 
ATOM     14  H   UNL     1       2.804  41.446  53.067  1.00  0.00     0.162 HD
BRANCH  13  15
ATOM     15  C   UNL     1       3.824  42.784  51.979  1.00  0.00     0.132 A 
ATOM     16  C   UNL     1       4.542  43.835  52.425  1.00  0.00     0.075 A 
ATOM     17  N   UNL     1       4.278  42.136  50.795  1.00  0.00    -0.199 N 
ATOM     18  C   UNL     1       5.774  44.214  51.655  1.00  0.00     0.076 A 
ATOM     19  N   UNL     1       3.686  41.096  50.130  1.00  0.00    -0.173 NA
ATOM     20  C   UNL     1       5.425  42.570  50.128  1.00  0.00     0.157 A 
ATOM     21  N   UNL     1       6.171  43.620  50.567  1.00  0.00    -0.228 NA
ATOM     22  C   UNL     1       4.494  40.863  49.092  1.00  0.00     0.138 A 
ATOM     23  C   UNL     1       5.579  41.745  49.039  1.00  0.00     0.071 A 
BRANCH  18  24
ATOM     24  C   UNL     1       6.563  45.366  52.177  1.00  0.00     0.001 A 
ATOM     25  C   UNL     1       7.380  46.076  51.283  1.00  0.00     0.013 A 
ATOM     26  C   UNL     1       6.532  45.732  53.531  1.00  0.00     0.013 A 
ATOM     27  C   UNL     1       8.137  47.160  51.733  1.00  0.00     0.040 A 
ATOM     28  C   UNL     1       7.293  46.817  53.975  1.00  0.00     0.040 A 
ATOM     29  C   UNL     1       8.084  47.522  53.073  1.00  0.00     0.123 A 
ATOM     30  F   UNL     1       8.809  48.560  53.506  1.00  0.00    -0.207 F 
ENDBRANCH  18  24
ENDBRANCH  13  15
ENDBRANCH  12  13
ENDBRANCH   1  12
TORSDOF 7
ENDMDL
MODEL 11
REMARK VINA RESULT:    -7.759      2.896      5.279
REMARK INTER + INTRA:         -12.084
REMARK INTER:                 -11.229
REMARK INTRA:                  -0.855
REMARK UNBOUND:                -1.376
REMARK SMILES OC[C@H]1CCCC[N@H+]1CCNc1cc(-c2ccc(F)cc2)nc2ccnn12
REMARK SMILES IDX 9 1 8 2 3 3 4 4 7 5 5 6 6 7 2 9 1 10 10 12 11 13 12 15 13 16
REMARK SMILES IDX 27 17 14 18 26 19 23 20 22 21 25 22 24 23 15 24 16 25 21 26
REMARK SMILES IDX 17 27 20 28 18 29 19 30
REMARK H PARENT 8 8 1 11 11 14
ROOT
ATOM      1  C   UNL     1       1.113  44.172  52.005  1.00  0.00     0.283 C 
ENDROOT
BRANCH   1   2
ATOM      2  N   UNL     1       1.380  44.509  53.464  1.00  0.00    -0.329 N 
ATOM      3  C   UNL     1       2.598  45.389  53.690  1.00  0.00     0.209 C 
ATOM      4  C   UNL     1       2.899  45.404  55.195  1.00  0.00     0.068 C 
ATOM      5  C   UNL     1       0.160  44.919  54.233  1.00  0.00     0.262 C 
ATOM      6  C   UNL     1       1.692  45.803  56.040  1.00  0.00     0.012 C 
ATOM      7  C   UNL     1       0.481  44.934  55.721  1.00  0.00     0.062 C 
ATOM      8  H   UNL     1       1.646  43.572  53.824  1.00  0.00     0.348 HD
BRANCH   3   9
ATOM      9  C   UNL     1       2.422  46.799  53.085  1.00  0.00     0.220 C 
BRANCH   9  10
ATOM     10  O   UNL     1       3.524  47.621  53.452  1.00  0.00    -0.390 OA
ATOM     11  H   UNL     1       3.184  48.506  53.680  1.00  0.00     0.210 HD
ENDBRANCH   9  10
ENDBRANCH   3   9
ENDBRANCH   1   2
BRANCH   1  12
ATOM     12  C   UNL     1       1.418  42.676  51.746  1.00  0.00     0.175 C 
BRANCH  12  13
ATOM     13  N   UNL     1       2.774  42.288  52.213  1.00  0.00    -0.364 N 
ATOM     14  H   UNL     1       2.815  41.274  52.362  1.00  0.00     0.162 HD
BRANCH  13  15
ATOM     15  C   UNL     1       3.965  42.713  51.574  1.00  0.00     0.132 A 
ATOM     16  C   UNL     1       4.673  43.766  52.034  1.00  0.00     0.075 A 
ATOM     17  N   UNL     1       4.440  42.069  50.396  1.00  0.00    -0.199 N 
ATOM     18  C   UNL     1       5.916  44.149  51.285  1.00  0.00     0.076 A 
ATOM     19  N   UNL     1       3.861  41.029  49.719  1.00  0.00    -0.173 NA
ATOM     20  C   UNL     1       5.597  42.507  49.749  1.00  0.00     0.157 A 
ATOM     21  N   UNL     1       6.333  43.559  50.202  1.00  0.00    -0.228 NA
ATOM     22  C   UNL     1       4.687  40.800  48.695  1.00  0.00     0.138 A 
ATOM     23  C   UNL     1       5.771  41.686  48.661  1.00  0.00     0.071 A 
BRANCH  18  24
ATOM     24  C   UNL     1       6.694  45.302  51.822  1.00  0.00     0.001 A 
ATOM     25  C   UNL     1       6.470  45.699  53.150  1.00  0.00     0.013 A 
ATOM     26  C   UNL     1       7.610  46.011  51.031  1.00  0.00     0.013 A 
ATOM     27  C   UNL     1       7.176  46.776  53.690  1.00  0.00     0.040 A 
ATOM     28  C   UNL     1       8.313  47.089  51.577  1.00  0.00     0.040 A 
ATOM     29  C   UNL     1       8.092  47.458  52.900  1.00  0.00     0.123 A 
ATOM     30  F   UNL     1       8.770  48.491  53.415  1.00  0.00    -0.207 F 
ENDBRANCH  18  24
ENDBRANCH  13  15
ENDBRANCH  12  13
ENDBRANCH   1  12
TORSDOF 7
ENDMDL
MODEL 12
REMARK VINA RESULT:    -7.753      3.221      5.391
REMARK INTER + INTRA:         -12.075
REMARK INTER:                 -11.018
REMARK INTRA:                  -1.058
REMARK UNBOUND:                -1.376
REMARK SMILES OC[C@H]1CCCC[N@H+]1CCNc1cc(-c2ccc(F)cc2)nc2ccnn12
REMARK SMILES IDX 9 1 8 2 3 3 4 4 7 5 5 6 6 7 2 9 1 10 10 12 11 13 12 15 13 16
REMARK SMILES IDX 27 17 14 18 26 19 23 20 22 21 25 22 24 23 15 24 16 25 21 26
REMARK SMILES IDX 17 27 20 28 18 29 19 30
REMARK H PARENT 8 8 1 11 11 14
ROOT
ATOM      1  C   UNL     1       1.233  45.228  52.991  1.00  0.00     0.283 C 
ENDROOT
BRANCH   1   2
ATOM      2  N   UNL     1      -0.285  45.231  52.894  1.00  0.00    -0.329 N 
ATOM      3  C   UNL     1      -0.826  44.892  51.516  1.00  0.00     0.209 C 
ATOM      4  C   UNL     1      -2.327  45.211  51.503  1.00  0.00     0.068 C 
ATOM      5  C   UNL     1      -0.975  44.530  54.027  1.00  0.00     0.262 C 
ATOM      6  C   UNL     1      -3.089  44.536  52.640  1.00  0.00     0.012 C 
ATOM      7  C   UNL     1      -2.461  44.854  53.993  1.00  0.00     0.062 C 
ATOM      8  H   UNL     1      -0.476  46.243  53.023  1.00  0.00     0.348 HD
BRANCH   3   9
ATOM      9  C   UNL     1      -0.503  43.438  51.102  1.00  0.00     0.220 C 
BRANCH   9  10
ATOM     10  O   UNL     1       0.707  43.408  50.355  1.00  0.00    -0.390 OA
ATOM     11  H   UNL     1       1.408  43.822  50.892  1.00  0.00     0.210 HD
ENDBRANCH   9  10
ENDBRANCH   3   9
ENDBRANCH   1   2
BRANCH   1  12
ATOM     12  C   UNL     1       1.703  44.036  53.859  1.00  0.00     0.175 C 
BRANCH  12  13
ATOM     13  N   UNL     1       2.389  42.990  53.056  1.00  0.00    -0.364 N 
ATOM     14  H   UNL     1       1.719  42.540  52.423  1.00  0.00     0.162 HD
BRANCH  13  15
ATOM     15  C   UNL     1       3.604  43.216  52.363  1.00  0.00     0.132 A 
ATOM     16  C   UNL     1       4.445  44.208  52.723  1.00  0.00     0.075 A 
ATOM     17  N   UNL     1       3.965  42.429  51.233  1.00  0.00    -0.199 N 
ATOM     18  C   UNL     1       5.703  44.378  51.922  1.00  0.00     0.076 A 
ATOM     19  N   UNL     1       3.247  41.417  50.653  1.00  0.00    -0.173 NA
ATOM     20  C   UNL     1       5.147  42.672  50.530  1.00  0.00     0.157 A 
ATOM     21  N   UNL     1       6.016  43.659  50.883  1.00  0.00    -0.228 NA
ATOM     22  C   UNL     1       4.011  41.011  49.635  1.00  0.00     0.138 A 
ATOM     23  C   UNL     1       5.191  41.752  49.509  1.00  0.00     0.071 A 
BRANCH  18  24
ATOM     24  C   UNL     1       6.628  45.467  52.349  1.00  0.00     0.001 A 
ATOM     25  C   UNL     1       6.649  45.832  53.704  1.00  0.00     0.013 A 
ATOM     26  C   UNL     1       7.444  46.147  51.434  1.00  0.00     0.013 A 
ATOM     27  C   UNL     1       7.499  46.850  54.145  1.00  0.00     0.040 A 
ATOM     28  C   UNL     1       8.292  47.165  51.880  1.00  0.00     0.040 A 
ATOM     29  C   UNL     1       8.314  47.503  53.229  1.00  0.00     0.123 A 
ATOM     30  F   UNL     1       9.129  48.478  53.649  1.00  0.00    -0.207 F 
ENDBRANCH  18  24
ENDBRANCH  13  15
ENDBRANCH  12  13
ENDBRANCH   1  12
TORSDOF 7
ENDMDL
MODEL 13
REMARK VINA RESULT:    -7.752      3.156      6.214
REMARK INTER + INTRA:         -12.073
REMARK INTER:                 -11.296
REMARK INTRA:                  -0.778
REMARK UNBOUND:                -1.376
REMARK SMILES OC[C@H]1CCCC[N@H+]1CCNc1cc(-c2ccc(F)cc2)nc2ccnn12
REMARK SMILES IDX 9 1 8 2 3 3 4 4 7 5 5 6 6 7 2 9 1 10 10 12 11 13 12 15 13 16
REMARK SMILES IDX 27 17 14 18 26 19 23 20 22 21 25 22 24 23 15 24 16 25 21 26
REMARK SMILES IDX 17 27 20 28 18 29 19 30
REMARK H PARENT 8 8 1 11 11 14
ROOT
ATOM      1  C   UNL     1       3.555  41.619  50.946  1.00  0.00     0.283 C 
ENDROOT
BRANCH   1   2
ATOM      2  N   UNL     1       4.933  42.180  50.629  1.00  0.00    -0.329 N 
ATOM      3  C   UNL     1       5.748  41.334  49.667  1.00  0.00     0.209 C 
ATOM      4  C   UNL     1       7.188  41.865  49.671  1.00  0.00     0.068 C 
ATOM      5  C   UNL     1       4.945  43.651  50.335  1.00  0.00     0.262 C 
ATOM      6  C   UNL     1       7.272  43.362  49.388  1.00  0.00     0.012 C 
ATOM      7  C   UNL     1       6.381  44.156  50.337  1.00  0.00     0.062 C 
ATOM      8  H   UNL     1       5.394  42.068  51.553  1.00  0.00     0.348 HD
BRANCH   3   9
ATOM      9  C   UNL     1       5.118  41.279  48.257  1.00  0.00     0.220 C 
BRANCH   9  10
ATOM     10  O   UNL     1       6.141  41.325  47.270  1.00  0.00    -0.390 OA
ATOM     11  H   UNL     1       6.972  41.595  47.703  1.00  0.00     0.210 HD
ENDBRANCH   9  10
ENDBRANCH   3   9
ENDBRANCH   1   2
BRANCH   1  12
ATOM     12  C   UNL     1       2.566  42.777  51.224  1.00  0.00     0.175 C 
BRANCH  12  13
ATOM     13  N   UNL     1       2.274  42.932  52.673  1.00  0.00    -0.364 N 
ATOM     14  H   UNL     1       2.474  42.056  53.166  1.00  0.00     0.162 HD
BRANCH  13  15
ATOM     15  C   UNL     1       2.747  44.021  53.447  1.00  0.00     0.132 A 
ATOM     16  C   UNL     1       3.955  44.575  53.217  1.00  0.00     0.075 A 
ATOM     17  N   UNL     1       1.979  44.547  54.525  1.00  0.00    -0.199 N 
ATOM     18  C   UNL     1       4.375  45.718  54.095  1.00  0.00     0.076 A 
ATOM     19  N   UNL     1       0.763  44.110  54.978  1.00  0.00    -0.173 NA
ATOM     20  C   UNL     1       2.459  45.599  55.308  1.00  0.00     0.157 A 
ATOM     21  N   UNL     1       3.669  46.181  55.086  1.00  0.00    -0.228 NA
ATOM     22  C   UNL     1       0.478  44.924  55.998  1.00  0.00     0.138 A 
ATOM     23  C   UNL     1       1.491  45.858  56.249  1.00  0.00     0.071 A 
BRANCH  18  24
ATOM     24  C   UNL     1       5.705  46.328  53.811  1.00  0.00     0.001 A 
ATOM     25  C   UNL     1       5.948  46.831  52.524  1.00  0.00     0.013 A 
ATOM     26  C   UNL     1       6.717  46.383  54.780  1.00  0.00     0.013 A 
ATOM     27  C   UNL     1       7.183  47.408  52.216  1.00  0.00     0.040 A 
ATOM     28  C   UNL     1       7.951  46.961  54.467  1.00  0.00     0.040 A 
ATOM     29  C   UNL     1       8.170  47.470  53.191  1.00  0.00     0.123 A 
ATOM     30  F   UNL     1       9.353  48.023  52.898  1.00  0.00    -0.207 F 
ENDBRANCH  18  24
ENDBRANCH  13  15
ENDBRANCH  12  13
ENDBRANCH   1  12
TORSDOF 7
ENDMDL
MODEL 14
REMARK VINA RESULT:    -7.702      3.159      5.513
REMARK INTER + INTRA:         -12.005
REMARK INTER:                 -11.105
REMARK INTRA:                  -0.900
REMARK UNBOUND:                -1.376
REMARK SMILES OC[C@H]1CCCC[N@H+]1CCNc1cc(-c2ccc(F)cc2)nc2ccnn12
REMARK SMILES IDX 9 1 8 2 3 3 4 4 7 5 5 6 6 7 2 9 1 10 10 12 11 13 12 15 13 16
REMARK SMILES IDX 27 17 14 18 26 19 23 20 22 21 25 22 24 23 15 24 16 25 21 26
REMARK SMILES IDX 17 27 20 28 18 29 19 30
REMARK H PARENT 8 8 1 11 11 14
ROOT
ATOM      1  C   UNL     1       1.198  43.229  53.672  1.00  0.00     0.283 C 
ENDROOT
BRANCH   1   2
ATOM      2  N   UNL     1       0.526  43.989  54.805  1.00  0.00    -0.329 N 
ATOM      3  C   UNL     1       1.488  44.576  55.823  1.00  0.00     0.209 C 
ATOM      4  C   UNL     1       0.669  45.053  57.031  1.00  0.00     0.068 C 
ATOM      5  C   UNL     1      -0.561  44.922  54.360  1.00  0.00     0.262 C 
ATOM      6  C   UNL     1      -0.465  46.000  56.645  1.00  0.00     0.012 C 
ATOM      7  C   UNL     1      -1.357  45.387  55.570  1.00  0.00     0.062 C 
ATOM      8  H   UNL     1       0.050  43.206  55.295  1.00  0.00     0.348 HD
BRANCH   3   9
ATOM      9  C   UNL     1       2.383  45.679  55.215  1.00  0.00     0.220 C 
BRANCH   9  10
ATOM     10  O   UNL     1       3.155  46.292  56.239  1.00  0.00    -0.390 OA
ATOM     11  H   UNL     1       3.974  45.775  56.357  1.00  0.00     0.210 HD
ENDBRANCH   9  10
ENDBRANCH   3   9
ENDBRANCH   1   2
BRANCH   1  12
ATOM     12  C   UNL     1       0.666  43.735  52.309  1.00  0.00     0.175 C 
BRANCH  12  13
ATOM     13  N   UNL     1       1.669  44.553  51.580  1.00  0.00    -0.364 N 
ATOM     14  H   UNL     1       1.586  45.537  51.858  1.00  0.00     0.162 HD
BRANCH  13  15
ATOM     15  C   UNL     1       3.041  44.207  51.499  1.00  0.00     0.132 A 
ATOM     16  C   UNL     1       4.007  45.054  51.910  1.00  0.00     0.075 A 
ATOM     17  N   UNL     1       3.454  42.963  50.940  1.00  0.00    -0.199 N 
ATOM     18  C   UNL     1       5.432  44.603  51.774  1.00  0.00     0.076 A 
ATOM     19  N   UNL     1       2.664  41.980  50.407  1.00  0.00    -0.173 NA
ATOM     20  C   UNL     1       4.807  42.635  50.831  1.00  0.00     0.157 A 
ATOM     21  N   UNL     1       5.797  43.469  51.250  1.00  0.00    -0.228 NA
ATOM     22  C   UNL     1       3.526  41.035  50.022  1.00  0.00     0.138 A 
ATOM     23  C   UNL     1       4.860  41.388  50.254  1.00  0.00     0.071 A 
BRANCH  18  24
ATOM     24  C   UNL     1       6.482  45.547  52.253  1.00  0.00     0.001 A 
ATOM     25  C   UNL     1       6.548  45.833  53.626  1.00  0.00     0.013 A 
ATOM     26  C   UNL     1       7.374  46.173  51.370  1.00  0.00     0.013 A 
ATOM     27  C   UNL     1       7.515  46.714  54.115  1.00  0.00     0.040 A 
ATOM     28  C   UNL     1       8.340  47.054  51.865  1.00  0.00     0.040 A 
ATOM     29  C   UNL     1       8.403  47.313  53.231  1.00  0.00     0.123 A 
ATOM     30  F   UNL     1       9.331  48.157  53.697  1.00  0.00    -0.207 F 
ENDBRANCH  18  24
ENDBRANCH  13  15
ENDBRANCH  12  13
ENDBRANCH   1  12
TORSDOF 7
ENDMDL
MODEL 15
REMARK VINA RESULT:    -7.608      3.288      7.193
REMARK INTER + INTRA:         -11.875
REMARK INTER:                 -11.052
REMARK INTRA:                  -0.822
REMARK UNBOUND:                -1.376
REMARK SMILES OC[C@H]1CCCC[N@H+]1CCNc1cc(-c2ccc(F)cc2)nc2ccnn12
REMARK SMILES IDX 9 1 8 2 3 3 4 4 7 5 5 6 6 7 2 9 1 10 10 12 11 13 12 15 13 16
REMARK SMILES IDX 27 17 14 18 26 19 23 20 22 21 25 22 24 23 15 24 16 25 21 26
REMARK SMILES IDX 17 27 20 28 18 29 19 30
REMARK H PARENT 8 8 1 11 11 14
ROOT
ATOM      1  C   UNL     1       6.381  46.788  51.634  1.00  0.00     0.283 C 
ENDROOT
BRANCH   1   2
ATOM      2  N   UNL     1       7.667  47.077  52.394  1.00  0.00    -0.329 N 
ATOM      3  C   UNL     1       7.484  47.241  53.893  1.00  0.00     0.209 C 
ATOM      4  C   UNL     1       8.791  47.801  54.472  1.00  0.00     0.068 C 
ATOM      5  C   UNL     1       8.824  46.211  51.995  1.00  0.00     0.262 C 
ATOM      6  C   UNL     1      10.015  46.970  54.093  1.00  0.00     0.012 C 
ATOM      7  C   UNL     1      10.108  46.779  52.583  1.00  0.00     0.062 C 
ATOM      8  H   UNL     1       7.882  48.028  52.037  1.00  0.00     0.348 HD
BRANCH   3   9
ATOM      9  C   UNL     1       7.023  45.933  54.573  1.00  0.00     0.220 C 
BRANCH   9  10
ATOM     10  O   UNL     1       5.669  46.059  54.990  1.00  0.00    -0.390 OA
ATOM     11  H   UNL     1       5.116  46.194  54.198  1.00  0.00     0.210 HD
ENDBRANCH   9  10
ENDBRANCH   3   9
ENDBRANCH   1   2
BRANCH   1  12
ATOM     12  C   UNL     1       6.540  45.491  50.804  1.00  0.00     0.175 C 
BRANCH  12  13
ATOM     13  N   UNL     1       6.254  44.272  51.604  1.00  0.00    -0.364 N 
ATOM     14  H   UNL     1       6.556  44.411  52.574  1.00  0.00     0.162 HD
BRANCH  13  15
ATOM     15  C   UNL     1       4.997  43.617  51.597  1.00  0.00     0.132 A 
ATOM     16  C   UNL     1       4.021  43.958  52.463  1.00  0.00     0.075 A 
ATOM     17  N   UNL     1       4.730  42.544  50.699  1.00  0.00    -0.199 N 
ATOM     18  C   UNL     1       2.727  43.201  52.387  1.00  0.00     0.076 A 
ATOM     19  N   UNL     1       5.581  41.990  49.780  1.00  0.00    -0.173 NA
ATOM     20  C   UNL     1       3.504  41.878  50.713  1.00  0.00     0.157 A 
ATOM     21  N   UNL     1       2.500  42.214  51.569  1.00  0.00    -0.228 NA
ATOM     22  C   UNL     1       4.861  41.025  49.202  1.00  0.00     0.138 A 
ATOM     23  C   UNL     1       3.574  40.908  49.741  1.00  0.00     0.071 A 
BRANCH  18  24
ATOM     24  C   UNL     1       1.655  43.608  53.340  1.00  0.00     0.001 A 
ATOM     25  C   UNL     1       0.421  42.941  53.282  1.00  0.00     0.013 A 
ATOM     26  C   UNL     1       1.838  44.651  54.260  1.00  0.00     0.013 A 
ATOM     27  C   UNL     1      -0.610  43.294  54.156  1.00  0.00     0.040 A 
ATOM     28  C   UNL     1       0.802  45.000  55.131  1.00  0.00     0.040 A 
ATOM     29  C   UNL     1      -0.408  44.318  55.073  1.00  0.00     0.123 A 
ATOM     30  F   UNL     1      -1.395  44.658  55.911  1.00  0.00    -0.207 F 
ENDBRANCH  18  24
ENDBRANCH  13  15
ENDBRANCH  12  13
ENDBRANCH   1  12
TORSDOF 7
ENDMDL
MODEL 16
REMARK VINA RESULT:    -7.573      4.438      8.759
REMARK INTER + INTRA:         -11.827
REMARK INTER:                 -11.095
REMARK INTRA:                  -0.732
REMARK UNBOUND:                -1.376
REMARK SMILES OC[C@H]1CCCC[N@H+]1CCNc1cc(-c2ccc(F)cc2)nc2ccnn12
REMARK SMILES IDX 9 1 8 2 3 3 4 4 7 5 5 6 6 7 2 9 1 10 10 12 11 13 12 15 13 16
REMARK SMILES IDX 27 17 14 18 26 19 23 20 22 21 25 22 24 23 15 24 16 25 21 26
REMARK SMILES IDX 17 27 20 28 18 29 19 30
REMARK H PARENT 8 8 1 11 11 14
ROOT
ATOM      1  C   UNL     1       4.334  46.301  53.070  1.00  0.00     0.283 C 
ENDROOT
BRANCH   1   2
ATOM      2  N   UNL     1       5.626  46.516  52.295  1.00  0.00    -0.329 N 
ATOM      3  C   UNL     1       6.650  47.379  53.012  1.00  0.00     0.209 C 
ATOM      4  C   UNL     1       7.755  47.736  52.008  1.00  0.00     0.068 C 
ATOM      5  C   UNL     1       6.183  45.271  51.671  1.00  0.00     0.262 C 
ATOM      6  C   UNL     1       8.359  46.512  51.326  1.00  0.00     0.012 C 
ATOM      7  C   UNL     1       7.280  45.646  50.685  1.00  0.00     0.062 C 
ATOM      8  H   UNL     1       5.275  47.099  51.510  1.00  0.00     0.348 HD
BRANCH   3   9
ATOM      9  C   UNL     1       7.182  46.710  54.299  1.00  0.00     0.220 C 
BRANCH   9  10
ATOM     10  O   UNL     1       8.063  47.598  54.974  1.00  0.00    -0.390 OA
ATOM     11  H   UNL     1       8.152  47.299  55.898  1.00  0.00     0.210 HD
ENDBRANCH   9  10
ENDBRANCH   3   9
ENDBRANCH   1   2
BRANCH   1  12
ATOM     12  C   UNL     1       3.865  44.834  52.915  1.00  0.00     0.175 C 
BRANCH  12  13
ATOM     13  N   UNL     1       3.348  44.270  54.189  1.00  0.00    -0.364 N 
ATOM     14  H   UNL     1       4.020  44.441  54.945  1.00  0.00     0.162 HD
BRANCH  13  15
ATOM     15  C   UNL     1       2.036  44.511  54.668  1.00  0.00     0.132 A 
ATOM     16  C   UNL     1       1.812  45.303  55.736  1.00  0.00     0.075 A 
ATOM     17  N   UNL     1       0.906  43.891  54.062  1.00  0.00    -0.199 N 
ATOM     18  C   UNL     1       0.389  45.490  56.177  1.00  0.00     0.076 A 
ATOM     19  N   UNL     1       0.895  43.009  53.015  1.00  0.00    -0.173 NA
ATOM     20  C   UNL     1      -0.383  44.103  54.553  1.00  0.00     0.157 A 
ATOM     21  N   UNL     1      -0.635  44.908  55.622  1.00  0.00    -0.228 NA
ATOM     22  C   UNL     1      -0.398  42.726  52.834  1.00  0.00     0.138 A 
ATOM     23  C   UNL     1      -1.230  43.368  53.758  1.00  0.00     0.071 A 
BRANCH  18  24
ATOM     24  C   UNL     1       0.162  46.386  57.347  1.00  0.00     0.001 A 
ATOM     25  C   UNL     1       1.195  46.534  58.286  1.00  0.00     0.013 A 
ATOM     26  C   UNL     1      -1.057  47.051  57.545  1.00  0.00     0.013 A 
ATOM     27  C   UNL     1       1.021  47.362  59.397  1.00  0.00     0.040 A 
ATOM     28  C   UNL     1      -1.225  47.877  58.660  1.00  0.00     0.040 A 
ATOM     29  C   UNL     1      -0.185  48.027  59.572  1.00  0.00     0.123 A 
ATOM     30  F   UNL     1      -0.354  48.821  60.636  1.00  0.00    -0.207 F 
ENDBRANCH  18  24
ENDBRANCH  13  15
ENDBRANCH  12  13
ENDBRANCH   1  12
TORSDOF 7
ENDMDL
MODEL 17
REMARK VINA RESULT:    -7.535      3.954      6.916
REMARK INTER + INTRA:         -11.775
REMARK INTER:                 -11.018
REMARK INTRA:                  -0.757
REMARK UNBOUND:                -1.376
REMARK SMILES OC[C@H]1CCCC[N@H+]1CCNc1cc(-c2ccc(F)cc2)nc2ccnn12
REMARK SMILES IDX 9 1 8 2 3 3 4 4 7 5 5 6 6 7 2 9 1 10 10 12 11 13 12 15 13 16
REMARK SMILES IDX 27 17 14 18 26 19 23 20 22 21 25 22 24 23 15 24 16 25 21 26
REMARK SMILES IDX 17 27 20 28 18 29 19 30
REMARK H PARENT 8 8 1 11 11 14
ROOT
ATOM      1  C   UNL     1       3.494  40.046  48.478  1.00  0.00     0.283 C 
ENDROOT
BRANCH   1   2
ATOM      2  N   UNL     1       4.204  40.403  47.181  1.00  0.00    -0.329 N 
ATOM      3  C   UNL     1       3.382  40.154  45.928  1.00  0.00     0.209 C 
ATOM      4  C   UNL     1       4.315  40.285  44.715  1.00  0.00     0.068 C 
ATOM      5  C   UNL     1       4.914  41.723  47.212  1.00  0.00     0.262 C 
ATOM      6  C   UNL     1       5.079  41.606  44.692  1.00  0.00     0.012 C 
ATOM      7  C   UNL     1       5.828  41.836  46.000  1.00  0.00     0.062 C 
ATOM      8  H   UNL     1       4.947  39.677  47.172  1.00  0.00     0.348 HD
BRANCH   3   9
ATOM      9  C   UNL     1       2.141  41.071  45.850  1.00  0.00     0.220 C 
BRANCH   9  10
ATOM     10  O   UNL     1       0.992  40.299  45.523  1.00  0.00    -0.390 OA
ATOM     11  H   UNL     1       0.625  39.931  46.349  1.00  0.00     0.210 HD
ENDBRANCH   9  10
ENDBRANCH   3   9
ENDBRANCH   1   2
BRANCH   1  12
ATOM     12  C   UNL     1       4.111  40.843  49.653  1.00  0.00     0.175 C 
BRANCH  12  13
ATOM     13  N   UNL     1       3.078  41.517  50.481  1.00  0.00    -0.364 N 
ATOM     14  H   UNL     1       2.527  40.818  50.990  1.00  0.00     0.162 HD
BRANCH  13  15
ATOM     15  C   UNL     1       3.364  42.604  51.344  1.00  0.00     0.132 A 
ATOM     16  C   UNL     1       4.534  43.272  51.270  1.00  0.00     0.075 A 
ATOM     17  N   UNL     1       2.442  43.007  52.351  1.00  0.00    -0.199 N 
ATOM     18  C   UNL     1       4.751  44.403  52.233  1.00  0.00     0.076 A 
ATOM     19  N   UNL     1       1.230  42.445  52.651  1.00  0.00    -0.173 NA
ATOM     20  C   UNL     1       2.737  44.058  53.222  1.00  0.00     0.157 A 
ATOM     21  N   UNL     1       3.904  44.754  53.158  1.00  0.00    -0.228 NA
ATOM     22  C   UNL     1       0.765  43.180  53.664  1.00  0.00     0.138 A 
ATOM     23  C   UNL     1       1.655  44.185  54.061  1.00  0.00     0.071 A 
BRANCH  18  24
ATOM     24  C   UNL     1       6.042  45.140  52.121  1.00  0.00     0.001 A 
ATOM     25  C   UNL     1       6.593  45.704  53.282  1.00  0.00     0.013 A 
ATOM     26  C   UNL     1       6.694  45.309  50.891  1.00  0.00     0.013 A 
ATOM     27  C   UNL     1       7.799  46.406  53.219  1.00  0.00     0.040 A 
ATOM     28  C   UNL     1       7.901  46.012  50.834  1.00  0.00     0.040 A 
ATOM     29  C   UNL     1       8.443  46.550  51.997  1.00  0.00     0.123 A 
ATOM     30  F   UNL     1       9.599  47.221  51.934  1.00  0.00    -0.207 F 
ENDBRANCH  18  24
ENDBRANCH  13  15
ENDBRANCH  12  13
ENDBRANCH   1  12
TORSDOF 7
ENDMDL
MODEL 18
REMARK VINA RESULT:    -7.461      2.894      4.988
REMARK INTER + INTRA:         -11.672
REMARK INTER:                 -10.787
REMARK INTRA:                  -0.885
REMARK UNBOUND:                -1.376
REMARK SMILES OC[C@H]1CCCC[N@H+]1CCNc1cc(-c2ccc(F)cc2)nc2ccnn12
REMARK SMILES IDX 9 1 8 2 3 3 4 4 7 5 5 6 6 7 2 9 1 10 10 12 11 13 12 15 13 16
REMARK SMILES IDX 27 17 14 18 26 19 23 20 22 21 25 22 24 23 15 24 16 25 21 26
REMARK SMILES IDX 17 27 20 28 18 29 19 30
REMARK H PARENT 8 8 1 11 11 14
ROOT
ATOM      1  C   UNL     1      -0.091  44.339  51.569  1.00  0.00     0.283 C 
ENDROOT
BRANCH   1   2
ATOM      2  N   UNL     1      -1.285  45.019  52.220  1.00  0.00    -0.329 N 
ATOM      3  C   UNL     1      -2.253  45.660  51.240  1.00  0.00     0.209 C 
ATOM      4  C   UNL     1      -3.229  46.534  52.039  1.00  0.00     0.068 C 
ATOM      5  C   UNL     1      -1.936  44.212  53.305  1.00  0.00     0.262 C 
ATOM      6  C   UNL     1      -3.919  45.775  53.170  1.00  0.00     0.012 C 
ATOM      7  C   UNL     1      -2.903  45.094  54.081  1.00  0.00     0.062 C 
ATOM      8  H   UNL     1      -0.810  45.810  52.696  1.00  0.00     0.348 HD
BRANCH   3   9
ATOM      9  C   UNL     1      -2.955  44.616  50.344  1.00  0.00     0.220 C 
BRANCH   9  10
ATOM     10  O   UNL     1      -2.481  44.731  49.008  1.00  0.00    -0.390 OA
ATOM     11  H   UNL     1      -1.665  45.266  49.018  1.00  0.00     0.210 HD
ENDBRANCH   9  10
ENDBRANCH   3   9
ENDBRANCH   1   2
BRANCH   1  12
ATOM     12  C   UNL     1      -0.086  42.831  51.920  1.00  0.00     0.175 C 
BRANCH  12  13
ATOM     13  N   UNL     1       1.184  42.405  52.562  1.00  0.00    -0.364 N 
ATOM     14  H   UNL     1       1.504  41.522  52.150  1.00  0.00     0.162 HD
BRANCH  13  15
ATOM     15  C   UNL     1       2.295  43.269  52.732  1.00  0.00     0.132 A 
ATOM     16  C   UNL     1       3.346  43.239  51.888  1.00  0.00     0.075 A 
ATOM     17  N   UNL     1       2.361  44.176  53.828  1.00  0.00    -0.199 N 
ATOM     18  C   UNL     1       4.481  44.184  52.155  1.00  0.00     0.076 A 
ATOM     19  N   UNL     1       1.449  44.339  54.837  1.00  0.00    -0.173 NA
ATOM     20  C   UNL     1       3.468  45.005  54.014  1.00  0.00     0.157 A 
ATOM     21  N   UNL     1       4.534  45.000  53.168  1.00  0.00    -0.228 NA
ATOM     22  C   UNL     1       1.973  45.298  55.605  1.00  0.00     0.138 A 
ATOM     23  C   UNL     1       3.219  45.741  55.148  1.00  0.00     0.071 A 
BRANCH  18  24
ATOM     24  C   UNL     1       5.624  44.148  51.198  1.00  0.00     0.001 A 
ATOM     25  C   UNL     1       6.488  45.253  51.147  1.00  0.00     0.013 A 
ATOM     26  C   UNL     1       5.833  43.062  50.335  1.00  0.00     0.013 A 
ATOM     27  C   UNL     1       7.569  45.260  50.262  1.00  0.00     0.040 A 
ATOM     28  C   UNL     1       6.916  43.075  49.451  1.00  0.00     0.040 A 
ATOM     29  C   UNL     1       7.773  44.170  49.426  1.00  0.00     0.123 A 
ATOM     30  F   UNL     1       8.808  44.174  48.576  1.00  0.00    -0.207 F 
ENDBRANCH  18  24
ENDBRANCH  13  15
ENDBRANCH  12  13
ENDBRANCH   1  12
TORSDOF 7
ENDMDL
MODEL 19
REMARK VINA RESULT:    -7.383      3.018      5.361
REMARK INTER + INTRA:         -11.565
REMARK INTER:                 -10.370
REMARK INTRA:                  -1.195
REMARK UNBOUND:                -1.376
REMARK SMILES OC[C@H]1CCCC[N@H+]1CCNc1cc(-c2ccc(F)cc2)nc2ccnn12
REMARK SMILES IDX 9 1 8 2 3 3 4 4 7 5 5 6 6 7 2 9 1 10 10 12 11 13 12 15 13 16
REMARK SMILES IDX 27 17 14 18 26 19 23 20 22 21 25 22 24 23 15 24 16 25 21 26
REMARK SMILES IDX 17 27 20 28 18 29 19 30
REMARK H PARENT 8 8 1 11 11 14
ROOT
ATOM      1  C   UNL     1       0.721  44.337  51.149  1.00  0.00     0.283 C 
ENDROOT
BRANCH   1   2
ATOM      2  N   UNL     1      -0.733  43.989  50.867  1.00  0.00    -0.329 N 
ATOM      3  C   UNL     1      -1.178  42.650  51.430  1.00  0.00     0.209 C 
ATOM      4  C   UNL     1      -2.550  42.316  50.830  1.00  0.00     0.068 C 
ATOM      5  C   UNL     1      -1.692  45.118  51.103  1.00  0.00     0.262 C 
ATOM      6  C   UNL     1      -3.574  43.431  51.026  1.00  0.00     0.012 C 
ATOM      7  C   UNL     1      -3.046  44.765  50.507  1.00  0.00     0.062 C 
ATOM      8  H   UNL     1      -0.693  43.856  49.838  1.00  0.00     0.348 HD
BRANCH   3   9
ATOM      9  C   UNL     1      -1.161  42.631  52.975  1.00  0.00     0.220 C 
BRANCH   9  10
ATOM     10  O   UNL     1      -0.169  41.723  53.434  1.00  0.00    -0.390 OA
ATOM     11  H   UNL     1      -0.113  40.983  52.801  1.00  0.00     0.210 HD
ENDBRANCH   9  10
ENDBRANCH   3   9
ENDBRANCH   1   2
BRANCH   1  12
ATOM     12  C   UNL     1       1.618  43.102  50.892  1.00  0.00     0.175 C 
BRANCH  12  13
ATOM     13  N   UNL     1       2.493  42.788  52.051  1.00  0.00    -0.364 N 
ATOM     14  H   UNL     1       3.117  42.010  51.817  1.00  0.00     0.162 HD
BRANCH  13  15
ATOM     15  C   UNL     1       3.223  43.774  52.760  1.00  0.00     0.132 A 
ATOM     16  C   UNL     1       4.450  44.165  52.359  1.00  0.00     0.075 A 
ATOM     17  N   UNL     1       2.704  44.362  53.949  1.00  0.00    -0.199 N 
ATOM     18  C   UNL     1       5.152  45.208  53.180  1.00  0.00     0.076 A 
ATOM     19  N   UNL     1       1.519  44.081  54.574  1.00  0.00    -0.173 NA
ATOM     20  C   UNL     1       3.437  45.310  54.666  1.00  0.00     0.157 A 
ATOM     21  N   UNL     1       4.671  45.729  54.273  1.00  0.00    -0.228 NA
ATOM     22  C   UNL     1       1.505  44.890  55.637  1.00  0.00     0.138 A 
ATOM     23  C   UNL     1       2.664  45.666  55.746  1.00  0.00     0.071 A 
BRANCH  18  24
ATOM     24  C   UNL     1       6.498  45.640  52.708  1.00  0.00     0.001 A 
ATOM     25  C   UNL     1       7.421  46.108  53.656  1.00  0.00     0.013 A 
ATOM     26  C   UNL     1       6.848  45.620  51.350  1.00  0.00     0.013 A 
ATOM     27  C   UNL     1       8.692  46.525  53.254  1.00  0.00     0.040 A 
ATOM     28  C   UNL     1       8.121  46.039  50.953  1.00  0.00     0.040 A 
ATOM     29  C   UNL     1       9.030  46.483  51.907  1.00  0.00     0.123 A 
ATOM     30  F   UNL     1      10.248  46.882  51.519  1.00  0.00    -0.207 F 
ENDBRANCH  18  24
ENDBRANCH  13  15
ENDBRANCH  12  13
ENDBRANCH   1  12
TORSDOF 7
ENDMDL
