MODEL 1
REMARK VINA RESULT:    -8.162      0.000      0.000
REMARK INTER + INTRA:         -12.671
REMARK INTER:                 -11.741
REMARK INTRA:                  -0.930
REMARK UNBOUND:                -0.930
REMARK SMILES COc1ccc(Nc2nc(NC[C@H](C)O)nc3c2cnn3C)c(OC)c1
REMARK SMILES IDX 8 1 9 2 10 3 16 4 17 5 18 6 19 7 20 8 21 9 22 10 7 11 6 13
REMARK SMILES IDX 3 14 4 15 26 16 5 17 23 18 2 19 1 20 24 21 25 22 11 23 12 25
REMARK SMILES IDX 13 26 14 27 15 28
REMARK H PARENT 7 12 11 24 15 29
ROOT
ATOM      1  C   UNL     1       5.688  46.654  52.169  1.00  0.00     0.147 A 
ATOM      2  N   UNL     1       6.880  47.270  52.395  1.00  0.00    -0.195 NA
ATOM      3  C   UNL     1       8.011  46.810  51.833  1.00  0.00     0.226 A 
ATOM      4  N   UNL     1       8.108  45.754  51.016  1.00  0.00    -0.193 NA
ATOM      5  C   UNL     1       6.928  45.156  50.804  1.00  0.00     0.165 A 
ATOM      6  C   UNL     1       5.708  45.535  51.326  1.00  0.00     0.082 A 
ATOM      7  C   UNL     1       4.795  44.596  50.799  1.00  0.00     0.149 A 
ATOM      8  N   UNL     1       5.378  43.691  50.007  1.00  0.00    -0.179 NA
ATOM      9  N   UNL     1       6.683  44.052  50.034  1.00  0.00    -0.250 N 
ATOM     10  C   UNL     1       7.647  43.283  49.289  1.00  0.00     0.176 C 
ENDROOT
BRANCH   1  11
ATOM     11  N   UNL     1       4.495  47.115  52.732  1.00  0.00    -0.336 N 
ATOM     12  H   UNL     1       4.377  48.123  52.735  1.00  0.00     0.168 HD
BRANCH  11  13
ATOM     13  C   UNL     1       3.390  46.476  53.333  1.00  0.00     0.083 A 
ATOM     14  C   UNL     1       1.259  45.163  54.639  1.00  0.00     0.122 A 
ATOM     15  C   UNL     1       1.094  45.664  53.352  1.00  0.00     0.049 A 
ATOM     16  C   UNL     1       2.490  45.316  55.282  1.00  0.00     0.095 A 
ATOM     17  C   UNL     1       2.153  46.314  52.706  1.00  0.00     0.034 A 
ATOM     18  C   UNL     1       3.552  45.965  54.643  1.00  0.00     0.146 A 
BRANCH  14  19
ATOM     19  O   UNL     1       0.309  44.511  55.378  1.00  0.00    -0.497 OA
ATOM     20  C   UNL     1       0.046  45.022  56.680  1.00  0.00     0.278 C 
ENDBRANCH  14  19
BRANCH  18  21
ATOM     21  O   UNL     1       4.800  46.167  55.194  1.00  0.00    -0.494 OA
ATOM     22  C   UNL     1       5.584  45.007  55.452  1.00  0.00     0.278 C 
ENDBRANCH  18  21
ENDBRANCH  11  13
ENDBRANCH   1  11
BRANCH   3  23
ATOM     23  N   UNL     1       9.151  47.541  52.161  1.00  0.00    -0.352 N 
ATOM     24  H   UNL     1       9.667  47.599  51.287  1.00  0.00     0.163 HD
BRANCH  23  25
ATOM     25  C   UNL     1       9.907  46.979  53.280  1.00  0.00     0.147 C 
BRANCH  25  26
ATOM     26  C   UNL     1       9.603  47.810  54.541  1.00  0.00     0.130 C 
ATOM     27  C   UNL     1      10.567  47.494  55.672  1.00  0.00     0.040 C 
BRANCH  26  28
ATOM     28  O   UNL     1       8.272  47.531  54.988  1.00  0.00    -0.392 OA
ATOM     29  H   UNL     1       7.738  48.303  54.708  1.00  0.00     0.211 HD
ENDBRANCH  26  28
ENDBRANCH  25  26
ENDBRANCH  23  25
ENDBRANCH   3  23
TORSDOF 8
ENDMDL
MODEL 2
REMARK VINA RESULT:    -8.124      1.896      6.341
REMARK INTER + INTRA:         -12.616
REMARK INTER:                 -12.044
REMARK INTRA:                  -0.572
REMARK UNBOUND:                -0.930
REMARK SMILES COc1ccc(Nc2nc(NC[C@H](C)O)nc3c2cnn3C)c(OC)c1
REMARK SMILES IDX 8 1 9 2 10 3 16 4 17 5 18 6 19 7 20 8 21 9 22 10 7 11 6 13
REMARK SMILES IDX 3 14 4 15 26 16 5 17 23 18 2 19 1 20 24 21 25 22 11 23 12 25
REMARK SMILES IDX 13 26 14 27 15 28
REMARK H PARENT 7 12 11 24 15 29
ROOT
ATOM      1  C   UNL     1       6.414  45.110  51.400  1.00  0.00     0.147 A 
ATOM      2  N   UNL     1       5.342  44.885  52.208  1.00  0.00    -0.195 NA
ATOM      3  C   UNL     1       4.548  43.817  52.019  1.00  0.00     0.226 A 
ATOM      4  N   UNL     1       4.703  42.882  51.073  1.00  0.00    -0.193 NA
ATOM      5  C   UNL     1       5.760  43.116  50.284  1.00  0.00     0.165 A 
ATOM      6  C   UNL     1       6.640  44.176  50.381  1.00  0.00     0.082 A 
ATOM      7  C   UNL     1       7.563  43.960  49.335  1.00  0.00     0.149 A 
ATOM      8  N   UNL     1       7.299  42.857  48.627  1.00  0.00    -0.179 NA
ATOM      9  N   UNL     1       6.188  42.366  49.223  1.00  0.00    -0.250 N 
ATOM     10  C   UNL     1       5.585  41.159  48.717  1.00  0.00     0.176 C 
ENDROOT
BRANCH   1  11
ATOM     11  N   UNL     1       7.261  46.206  51.578  1.00  0.00    -0.336 N 
ATOM     12  H   UNL     1       7.330  46.836  50.785  1.00  0.00     0.168 HD
BRANCH  11  13
ATOM     13  C   UNL     1       8.083  46.640  52.639  1.00  0.00     0.083 A 
ATOM     14  C   UNL     1       9.623  47.580  54.811  1.00  0.00     0.122 A 
ATOM     15  C   UNL     1      10.216  46.830  53.799  1.00  0.00     0.049 A 
ATOM     16  C   UNL     1       8.257  47.863  54.743  1.00  0.00     0.095 A 
ATOM     17  C   UNL     1       9.450  46.367  52.723  1.00  0.00     0.034 A 
ATOM     18  C   UNL     1       7.486  47.402  53.672  1.00  0.00     0.146 A 
BRANCH  14  19
ATOM     19  O   UNL     1      10.257  48.090  55.912  1.00  0.00    -0.497 OA
ATOM     20  C   UNL     1      11.330  47.323  56.447  1.00  0.00     0.278 C 
ENDBRANCH  14  19
BRANCH  18  21
ATOM     21  O   UNL     1       6.134  47.626  53.518  1.00  0.00    -0.494 OA
ATOM     22  C   UNL     1       5.286  47.192  54.576  1.00  0.00     0.278 C 
ENDBRANCH  18  21
ENDBRANCH  11  13
ENDBRANCH   1  11
BRANCH   3  23
ATOM     23  N   UNL     1       3.491  43.724  52.921  1.00  0.00    -0.352 N 
ATOM     24  H   UNL     1       3.732  42.925  53.503  1.00  0.00     0.163 HD
BRANCH  23  25
ATOM     25  C   UNL     1       2.179  43.637  52.281  1.00  0.00     0.147 C 
BRANCH  25  26
ATOM     26  C   UNL     1       1.130  43.309  53.360  1.00  0.00     0.130 C 
ATOM     27  C   UNL     1       1.299  44.178  54.595  1.00  0.00     0.040 C 
BRANCH  26  28
ATOM     28  O   UNL     1       1.256  41.938  53.750  1.00  0.00    -0.392 OA
ATOM     29  H   UNL     1       2.220  41.772  53.804  1.00  0.00     0.211 HD
ENDBRANCH  26  28
ENDBRANCH  25  26
ENDBRANCH  23  25
ENDBRANCH   3  23
TORSDOF 8
ENDMDL
MODEL 3
REMARK VINA RESULT:    -8.101      1.815      6.122
REMARK INTER + INTRA:         -12.583
REMARK INTER:                 -11.404
REMARK INTRA:                  -1.179
REMARK UNBOUND:                -0.930
REMARK SMILES COc1ccc(Nc2nc(NC[C@H](C)O)nc3c2cnn3C)c(OC)c1
REMARK SMILES IDX 8 1 9 2 10 3 16 4 17 5 18 6 19 7 20 8 21 9 22 10 7 11 6 13
REMARK SMILES IDX 3 14 4 15 26 16 5 17 23 18 2 19 1 20 24 21 25 22 11 23 12 25
REMARK SMILES IDX 13 26 14 27 15 28
REMARK H PARENT 7 12 11 24 15 29
ROOT
ATOM      1  C   UNL     1       5.828  45.298  51.413  1.00  0.00     0.147 A 
ATOM      2  N   UNL     1       4.628  45.061  52.009  1.00  0.00    -0.195 NA
ATOM      3  C   UNL     1       3.922  43.954  51.723  1.00  0.00     0.226 A 
ATOM      4  N   UNL     1       4.288  42.989  50.871  1.00  0.00    -0.193 NA
ATOM      5  C   UNL     1       5.470  43.235  50.290  1.00  0.00     0.165 A 
ATOM      6  C   UNL     1       6.279  44.333  50.503  1.00  0.00     0.082 A 
ATOM      7  C   UNL     1       7.394  44.114  49.666  1.00  0.00     0.149 A 
ATOM      8  N   UNL     1       7.310  42.973  48.974  1.00  0.00    -0.179 NA
ATOM      9  N   UNL     1       6.120  42.460  49.369  1.00  0.00    -0.250 N 
ATOM     10  C   UNL     1       5.668  41.209  48.815  1.00  0.00     0.176 C 
ENDROOT
BRANCH   1  11
ATOM     11  N   UNL     1       6.588  46.436  51.698  1.00  0.00    -0.336 N 
ATOM     12  H   UNL     1       6.273  47.291  51.252  1.00  0.00     0.168 HD
BRANCH  11  13
ATOM     13  C   UNL     1       7.741  46.667  52.475  1.00  0.00     0.083 A 
ATOM     14  C   UNL     1       9.971  47.184  54.129  1.00  0.00     0.122 A 
ATOM     15  C   UNL     1      10.150  46.703  52.835  1.00  0.00     0.049 A 
ATOM     16  C   UNL     1       8.677  47.408  54.604  1.00  0.00     0.095 A 
ATOM     17  C   UNL     1       9.042  46.449  52.017  1.00  0.00     0.034 A 
ATOM     18  C   UNL     1       7.566  47.155  53.793  1.00  0.00     0.146 A 
BRANCH  14  19
ATOM     19  O   UNL     1      10.965  47.471  55.025  1.00  0.00    -0.497 OA
ATOM     20  C   UNL     1      10.557  47.874  56.327  1.00  0.00     0.278 C 
ENDBRANCH  14  19
BRANCH  18  21
ATOM     21  O   UNL     1       6.253  47.341  54.172  1.00  0.00    -0.494 OA
ATOM     22  C   UNL     1       5.691  46.366  55.044  1.00  0.00     0.278 C 
ENDBRANCH  18  21
ENDBRANCH  11  13
ENDBRANCH   1  11
BRANCH   3  23
ATOM     23  N   UNL     1       2.713  43.854  52.409  1.00  0.00    -0.352 N 
ATOM     24  H   UNL     1       2.014  44.114  51.716  1.00  0.00     0.163 HD
BRANCH  23  25
ATOM     25  C   UNL     1       2.670  44.639  53.642  1.00  0.00     0.147 C 
BRANCH  25  26
ATOM     26  C   UNL     1       1.676  45.800  53.447  1.00  0.00     0.130 C 
ATOM     27  C   UNL     1       0.577  45.443  52.460  1.00  0.00     0.040 C 
BRANCH  26  28
ATOM     28  O   UNL     1       2.372  46.949  52.955  1.00  0.00    -0.392 OA
ATOM     29  H   UNL     1       2.701  47.414  53.752  1.00  0.00     0.211 HD
ENDBRANCH  26  28
ENDBRANCH  25  26
ENDBRANCH  23  25
ENDBRANCH   3  23
TORSDOF 8
ENDMDL
MODEL 4
REMARK VINA RESULT:    -8.094      1.023      1.802
REMARK INTER + INTRA:         -12.573
REMARK INTER:                 -11.440
REMARK INTRA:                  -1.133
REMARK UNBOUND:                -0.930
REMARK SMILES COc1ccc(Nc2nc(NC[C@H](C)O)nc3c2cnn3C)c(OC)c1
REMARK SMILES IDX 8 1 9 2 10 3 16 4 17 5 18 6 19 7 20 8 21 9 22 10 7 11 6 13
REMARK SMILES IDX 3 14 4 15 26 16 5 17 23 18 2 19 1 20 24 21 25 22 11 23 12 25
REMARK SMILES IDX 13 26 14 27 15 28
REMARK H PARENT 7 12 11 24 15 29
ROOT
ATOM      1  C   UNL     1       5.530  46.444  51.976  1.00  0.00     0.147 A 
ATOM      2  N   UNL     1       6.639  47.181  52.252  1.00  0.00    -0.195 NA
ATOM      3  C   UNL     1       7.839  46.836  51.754  1.00  0.00     0.226 A 
ATOM      4  N   UNL     1       8.085  45.788  50.958  1.00  0.00    -0.193 NA
ATOM      5  C   UNL     1       6.985  45.069  50.696  1.00  0.00     0.165 A 
ATOM      6  C   UNL     1       5.707  45.326  51.151  1.00  0.00     0.082 A 
ATOM      7  C   UNL     1       4.924  44.293  50.594  1.00  0.00     0.149 A 
ATOM      8  N   UNL     1       5.636  43.445  49.844  1.00  0.00    -0.179 NA
ATOM      9  N   UNL     1       6.894  43.939  49.931  1.00  0.00    -0.250 N 
ATOM     10  C   UNL     1       7.969  43.268  49.245  1.00  0.00     0.176 C 
ENDROOT
BRANCH   1  11
ATOM     11  N   UNL     1       4.269  46.784  52.473  1.00  0.00    -0.336 N 
ATOM     12  H   UNL     1       3.801  47.543  51.987  1.00  0.00     0.168 HD
BRANCH  11  13
ATOM     13  C   UNL     1       3.482  46.308  53.542  1.00  0.00     0.083 A 
ATOM     14  C   UNL     1       1.802  45.341  55.596  1.00  0.00     0.122 A 
ATOM     15  C   UNL     1       3.078  45.811  55.892  1.00  0.00     0.049 A 
ATOM     16  C   UNL     1       1.359  45.351  54.271  1.00  0.00     0.095 A 
ATOM     17  C   UNL     1       3.908  46.291  54.871  1.00  0.00     0.034 A 
ATOM     18  C   UNL     1       2.183  45.827  53.247  1.00  0.00     0.146 A 
BRANCH  14  19
ATOM     19  O   UNL     1       0.897  44.849  56.496  1.00  0.00    -0.497 OA
ATOM     20  C   UNL     1      -0.216  45.679  56.807  1.00  0.00     0.278 C 
ENDBRANCH  14  19
BRANCH  18  21
ATOM     21  O   UNL     1       1.837  45.874  51.912  1.00  0.00    -0.494 OA
ATOM     22  C   UNL     1       1.240  44.706  51.362  1.00  0.00     0.278 C 
ENDBRANCH  18  21
ENDBRANCH  11  13
ENDBRANCH   1  11
BRANCH   3  23
ATOM     23  N   UNL     1       8.879  47.684  52.128  1.00  0.00    -0.352 N 
ATOM     24  H   UNL     1       9.344  47.906  51.250  1.00  0.00     0.163 HD
BRANCH  23  25
ATOM     25  C   UNL     1       9.754  47.122  53.156  1.00  0.00     0.147 C 
BRANCH  25  26
ATOM     26  C   UNL     1       9.468  47.841  54.487  1.00  0.00     0.130 C 
ATOM     27  C   UNL     1      10.472  47.460  55.562  1.00  0.00     0.040 C 
BRANCH  26  28
ATOM     28  O   UNL     1       8.158  47.494  54.947  1.00  0.00    -0.392 OA
ATOM     29  H   UNL     1       7.660  47.240  54.142  1.00  0.00     0.211 HD
ENDBRANCH  26  28
ENDBRANCH  25  26
ENDBRANCH  23  25
ENDBRANCH   3  23
TORSDOF 8
ENDMDL
MODEL 5
REMARK VINA RESULT:    -8.005      1.865      6.124
REMARK INTER + INTRA:         -12.445
REMARK INTER:                 -11.384
REMARK INTRA:                  -1.062
REMARK UNBOUND:                -0.930
REMARK SMILES COc1ccc(Nc2nc(NC[C@H](C)O)nc3c2cnn3C)c(OC)c1
REMARK SMILES IDX 8 1 9 2 10 3 16 4 17 5 18 6 19 7 20 8 21 9 22 10 7 11 6 13
REMARK SMILES IDX 3 14 4 15 26 16 5 17 23 18 2 19 1 20 24 21 25 22 11 23 12 25
REMARK SMILES IDX 13 26 14 27 15 28
REMARK H PARENT 7 12 11 24 15 29
ROOT
ATOM      1  C   UNL     1       5.019  45.354  51.366  1.00  0.00     0.147 A 
ATOM      2  N   UNL     1       3.810  45.567  51.953  1.00  0.00    -0.195 NA
ATOM      3  C   UNL     1       2.874  44.603  51.974  1.00  0.00     0.226 A 
ATOM      4  N   UNL     1       3.002  43.374  51.459  1.00  0.00    -0.193 NA
ATOM      5  C   UNL     1       4.196  43.178  50.883  1.00  0.00     0.165 A 
ATOM      6  C   UNL     1       5.229  44.090  50.800  1.00  0.00     0.082 A 
ATOM      7  C   UNL     1       6.250  43.400  50.113  1.00  0.00     0.149 A 
ATOM      8  N   UNL     1       5.904  42.151  49.783  1.00  0.00    -0.179 NA
ATOM      9  N   UNL     1       4.641  42.045  50.258  1.00  0.00    -0.250 N 
ATOM     10  C   UNL     1       3.915  40.814  50.076  1.00  0.00     0.176 C 
ENDROOT
BRANCH   1  11
ATOM     11  N   UNL     1       6.015  46.334  51.338  1.00  0.00    -0.336 N 
ATOM     12  H   UNL     1       5.864  47.087  50.674  1.00  0.00     0.168 HD
BRANCH  11  13
ATOM     13  C   UNL     1       7.229  46.510  52.033  1.00  0.00     0.083 A 
ATOM     14  C   UNL     1       9.593  46.936  53.517  1.00  0.00     0.122 A 
ATOM     15  C   UNL     1       9.641  46.286  52.287  1.00  0.00     0.049 A 
ATOM     16  C   UNL     1       8.363  47.375  54.013  1.00  0.00     0.095 A 
ATOM     17  C   UNL     1       8.467  46.077  51.553  1.00  0.00     0.034 A 
ATOM     18  C   UNL     1       7.187  47.169  53.285  1.00  0.00     0.146 A 
BRANCH  14  19
ATOM     19  O   UNL     1      10.662  47.201  54.329  1.00  0.00    -0.497 OA
ATOM     20  C   UNL     1      10.372  47.581  55.669  1.00  0.00     0.278 C 
ENDBRANCH  14  19
BRANCH  18  21
ATOM     21  O   UNL     1       5.929  47.562  53.691  1.00  0.00    -0.494 OA
ATOM     22  C   UNL     1       5.393  46.916  54.840  1.00  0.00     0.278 C 
ENDBRANCH  18  21
ENDBRANCH  11  13
ENDBRANCH   1  11
BRANCH   3  23
ATOM     23  N   UNL     1       1.688  44.971  52.605  1.00  0.00    -0.352 N 
ATOM     24  H   UNL     1       1.160  45.450  51.879  1.00  0.00     0.163 HD
BRANCH  23  25
ATOM     25  C   UNL     1       1.890  45.751  53.826  1.00  0.00     0.147 C 
BRANCH  25  26
ATOM     26  C   UNL     1       1.699  44.819  55.037  1.00  0.00     0.130 C 
ATOM     27  C   UNL     1       0.676  45.368  56.017  1.00  0.00     0.040 C 
BRANCH  26  28
ATOM     28  O   UNL     1       2.946  44.663  55.723  1.00  0.00    -0.392 OA
ATOM     29  H   UNL     1       3.626  44.998  55.103  1.00  0.00     0.211 HD
ENDBRANCH  26  28
ENDBRANCH  25  26
ENDBRANCH  23  25
ENDBRANCH   3  23
TORSDOF 8
ENDMDL
MODEL 6
REMARK VINA RESULT:    -7.979      2.733      6.431
REMARK INTER + INTRA:         -12.408
REMARK INTER:                 -11.738
REMARK INTRA:                  -0.670
REMARK UNBOUND:                -0.930
REMARK SMILES COc1ccc(Nc2nc(NC[C@H](C)O)nc3c2cnn3C)c(OC)c1
REMARK SMILES IDX 8 1 9 2 10 3 16 4 17 5 18 6 19 7 20 8 21 9 22 10 7 11 6 13
REMARK SMILES IDX 3 14 4 15 26 16 5 17 23 18 2 19 1 20 24 21 25 22 11 23 12 25
REMARK SMILES IDX 13 26 14 27 15 28
REMARK H PARENT 7 12 11 24 15 29
ROOT
ATOM      1  C   UNL     1       3.925  44.934  51.845  1.00  0.00     0.147 A 
ATOM      2  N   UNL     1       4.424  43.701  51.559  1.00  0.00    -0.195 NA
ATOM      3  C   UNL     1       3.610  42.636  51.451  1.00  0.00     0.226 A 
ATOM      4  N   UNL     1       2.279  42.648  51.591  1.00  0.00    -0.193 NA
ATOM      5  C   UNL     1       1.802  43.868  51.874  1.00  0.00     0.165 A 
ATOM      6  C   UNL     1       2.538  45.028  52.011  1.00  0.00     0.082 A 
ATOM      7  C   UNL     1       1.576  46.020  52.298  1.00  0.00     0.149 A 
ATOM      8  N   UNL     1       0.329  45.540  52.342  1.00  0.00    -0.179 NA
ATOM      9  N   UNL     1       0.497  44.221  52.087  1.00  0.00    -0.250 N 
ATOM     10  C   UNL     1      -0.651  43.350  52.063  1.00  0.00     0.176 C 
ENDROOT
BRANCH   1  11
ATOM     11  N   UNL     1       4.745  46.060  51.955  1.00  0.00    -0.336 N 
ATOM     12  H   UNL     1       4.290  46.948  51.772  1.00  0.00     0.168 HD
BRANCH  11  13
ATOM     13  C   UNL     1       6.111  46.245  52.255  1.00  0.00     0.083 A 
ATOM     14  C   UNL     1       8.810  46.647  52.982  1.00  0.00     0.122 A 
ATOM     15  C   UNL     1       8.467  46.401  51.656  1.00  0.00     0.049 A 
ATOM     16  C   UNL     1       7.806  46.691  53.953  1.00  0.00     0.095 A 
ATOM     17  C   UNL     1       7.127  46.204  51.298  1.00  0.00     0.034 A 
ATOM     18  C   UNL     1       6.467  46.494  53.602  1.00  0.00     0.146 A 
BRANCH  14  19
ATOM     19  O   UNL     1      10.075  46.855  53.461  1.00  0.00    -0.497 OA
ATOM     20  C   UNL     1      10.190  47.223  54.830  1.00  0.00     0.278 C 
ENDBRANCH  14  19
BRANCH  18  21
ATOM     21  O   UNL     1       5.408  46.516  54.486  1.00  0.00    -0.494 OA
ATOM     22  C   UNL     1       5.250  45.380  55.328  1.00  0.00     0.278 C 
ENDBRANCH  18  21
ENDBRANCH  11  13
ENDBRANCH   1  11
BRANCH   3  23
ATOM     23  N   UNL     1       4.267  41.442  51.160  1.00  0.00    -0.352 N 
ATOM     24  H   UNL     1       4.879  41.296  51.959  1.00  0.00     0.163 HD
BRANCH  23  25
ATOM     25  C   UNL     1       4.947  41.447  49.865  1.00  0.00     0.147 C 
BRANCH  25  26
ATOM     26  C   UNL     1       6.410  41.876  50.084  1.00  0.00     0.130 C 
ATOM     27  C   UNL     1       6.871  42.870  49.031  1.00  0.00     0.040 C 
BRANCH  26  28
ATOM     28  O   UNL     1       7.260  40.726  50.025  1.00  0.00    -0.392 OA
ATOM     29  H   UNL     1       6.848  40.133  49.362  1.00  0.00     0.211 HD
ENDBRANCH  26  28
ENDBRANCH  25  26
ENDBRANCH  23  25
ENDBRANCH   3  23
TORSDOF 8
ENDMDL
MODEL 7
REMARK VINA RESULT:    -7.878      3.148      7.167
REMARK INTER + INTRA:         -12.262
REMARK INTER:                 -11.378
REMARK INTRA:                  -0.884
REMARK UNBOUND:                -0.930
REMARK SMILES COc1ccc(Nc2nc(NC[C@H](C)O)nc3c2cnn3C)c(OC)c1
REMARK SMILES IDX 8 1 9 2 10 3 16 4 17 5 18 6 19 7 20 8 21 9 22 10 7 11 6 13
REMARK SMILES IDX 3 14 4 15 26 16 5 17 23 18 2 19 1 20 24 21 25 22 11 23 12 25
REMARK SMILES IDX 13 26 14 27 15 28
REMARK H PARENT 7 12 11 24 15 29
ROOT
ATOM      1  C   UNL     1       4.394  44.695  51.751  1.00  0.00     0.147 A 
ATOM      2  N   UNL     1       4.431  43.452  51.199  1.00  0.00    -0.195 NA
ATOM      3  C   UNL     1       3.473  42.549  51.467  1.00  0.00     0.226 A 
ATOM      4  N   UNL     1       2.410  42.744  52.258  1.00  0.00    -0.193 NA
ATOM      5  C   UNL     1       2.386  43.971  52.796  1.00  0.00     0.165 A 
ATOM      6  C   UNL     1       3.312  44.976  52.596  1.00  0.00     0.082 A 
ATOM      7  C   UNL     1       2.832  46.053  53.371  1.00  0.00     0.149 A 
ATOM      8  N   UNL     1       1.695  45.766  54.014  1.00  0.00    -0.179 NA
ATOM      9  N   UNL     1       1.450  44.485  53.651  1.00  0.00    -0.250 N 
ATOM     10  C   UNL     1       0.287  43.811  54.169  1.00  0.00     0.176 C 
ENDROOT
BRANCH   1  11
ATOM     11  N   UNL     1       5.371  45.657  51.483  1.00  0.00    -0.336 N 
ATOM     12  H   UNL     1       5.229  46.197  50.635  1.00  0.00     0.168 HD
BRANCH  11  13
ATOM     13  C   UNL     1       6.558  46.048  52.136  1.00  0.00     0.083 A 
ATOM     14  C   UNL     1       9.004  46.796  53.333  1.00  0.00     0.122 A 
ATOM     15  C   UNL     1       7.827  46.799  54.075  1.00  0.00     0.049 A 
ATOM     16  C   UNL     1       8.965  46.420  51.988  1.00  0.00     0.095 A 
ATOM     17  C   UNL     1       6.616  46.427  53.479  1.00  0.00     0.034 A 
ATOM     18  C   UNL     1       7.759  46.048  51.386  1.00  0.00     0.146 A 
BRANCH  14  19
ATOM     19  O   UNL     1      10.247  47.137  53.793  1.00  0.00    -0.497 OA
ATOM     20  C   UNL     1      10.363  47.414  55.184  1.00  0.00     0.278 C 
ENDBRANCH  14  19
BRANCH  18  21
ATOM     21  O   UNL     1       7.619  45.665  50.069  1.00  0.00    -0.494 OA
ATOM     22  C   UNL     1       8.232  44.439  49.687  1.00  0.00     0.278 C 
ENDBRANCH  18  21
ENDBRANCH  11  13
ENDBRANCH   1  11
BRANCH   3  23
ATOM     23  N   UNL     1       3.651  41.321  50.833  1.00  0.00    -0.352 N 
ATOM     24  H   UNL     1       3.539  40.639  51.580  1.00  0.00     0.163 HD
BRANCH  23  25
ATOM     25  C   UNL     1       4.910  41.218  50.097  1.00  0.00     0.147 C 
BRANCH  25  26
ATOM     26  C   UNL     1       4.597  41.238  48.589  1.00  0.00     0.130 C 
ATOM     27  C   UNL     1       3.692  40.087  48.184  1.00  0.00     0.040 C 
BRANCH  26  28
ATOM     28  O   UNL     1       5.815  41.141  47.846  1.00  0.00    -0.392 OA
ATOM     29  H   UNL     1       6.531  41.233  48.508  1.00  0.00     0.211 HD
ENDBRANCH  26  28
ENDBRANCH  25  26
ENDBRANCH  23  25
ENDBRANCH   3  23
TORSDOF 8
ENDMDL
MODEL 8
REMARK VINA RESULT:    -7.815      2.179      6.140
REMARK INTER + INTRA:         -12.172
REMARK INTER:                 -11.584
REMARK INTRA:                  -0.589
REMARK UNBOUND:                -0.930
REMARK SMILES COc1ccc(Nc2nc(NC[C@H](C)O)nc3c2cnn3C)c(OC)c1
REMARK SMILES IDX 8 1 9 2 10 3 16 4 17 5 18 6 19 7 20 8 21 9 22 10 7 11 6 13
REMARK SMILES IDX 3 14 4 15 26 16 5 17 23 18 2 19 1 20 24 21 25 22 11 23 12 25
REMARK SMILES IDX 13 26 14 27 15 28
REMARK H PARENT 7 12 11 24 15 29
ROOT
ATOM      1  C   UNL     1       5.598  44.402  51.537  1.00  0.00     0.147 A 
ATOM      2  N   UNL     1       4.584  44.477  52.441  1.00  0.00    -0.195 NA
ATOM      3  C   UNL     1       3.583  43.580  52.430  1.00  0.00     0.226 A 
ATOM      4  N   UNL     1       3.462  42.550  51.584  1.00  0.00    -0.193 NA
ATOM      5  C   UNL     1       4.466  42.489  50.698  1.00  0.00     0.165 A 
ATOM      6  C   UNL     1       5.541  43.351  50.613  1.00  0.00     0.082 A 
ATOM      7  C   UNL     1       6.301  42.855  49.533  1.00  0.00     0.149 A 
ATOM      8  N   UNL     1       5.762  41.768  48.971  1.00  0.00    -0.179 NA
ATOM      9  N   UNL     1       4.637  41.572  49.698  1.00  0.00    -0.250 N 
ATOM     10  C   UNL     1       3.765  40.472  49.373  1.00  0.00     0.176 C 
ENDROOT
BRANCH   1  11
ATOM     11  N   UNL     1       6.657  45.315  51.531  1.00  0.00    -0.336 N 
ATOM     12  H   UNL     1       7.071  45.493  50.622  1.00  0.00     0.168 HD
BRANCH  11  13
ATOM     13  C   UNL     1       7.313  46.052  52.538  1.00  0.00     0.083 A 
ATOM     14  C   UNL     1       8.744  47.504  54.492  1.00  0.00     0.122 A 
ATOM     15  C   UNL     1       7.378  47.284  54.639  1.00  0.00     0.049 A 
ATOM     16  C   UNL     1       9.403  47.001  53.367  1.00  0.00     0.095 A 
ATOM     17  C   UNL     1       6.671  46.563  53.668  1.00  0.00     0.034 A 
ATOM     18  C   UNL     1       8.702  46.281  52.394  1.00  0.00     0.146 A 
BRANCH  14  19
ATOM     19  O   UNL     1       9.547  48.189  55.364  1.00  0.00    -0.497 OA
ATOM     20  C   UNL     1      10.705  47.511  55.838  1.00  0.00     0.278 C 
ENDBRANCH  14  19
BRANCH  18  21
ATOM     21  O   UNL     1       9.262  45.749  51.251  1.00  0.00    -0.494 OA
ATOM     22  C   UNL     1      10.654  45.458  51.293  1.00  0.00     0.278 C 
ENDBRANCH  18  21
ENDBRANCH  11  13
ENDBRANCH   1  11
BRANCH   3  23
ATOM     23  N   UNL     1       2.617  43.789  53.412  1.00  0.00    -0.352 N 
ATOM     24  H   UNL     1       1.749  43.495  52.972  1.00  0.00     0.163 HD
BRANCH  23  25
ATOM     25  C   UNL     1       2.601  45.154  53.938  1.00  0.00     0.147 C 
BRANCH  25  26
ATOM     26  C   UNL     1       2.462  45.085  55.471  1.00  0.00     0.130 C 
ATOM     27  C   UNL     1       1.026  45.305  55.918  1.00  0.00     0.040 C 
BRANCH  26  28
ATOM     28  O   UNL     1       3.284  46.089  56.072  1.00  0.00    -0.392 OA
ATOM     29  H   UNL     1       3.778  45.629  56.782  1.00  0.00     0.211 HD
ENDBRANCH  26  28
ENDBRANCH  25  26
ENDBRANCH  23  25
ENDBRANCH   3  23
TORSDOF 8
ENDMDL
MODEL 9
REMARK VINA RESULT:    -7.793      2.742      6.152
REMARK INTER + INTRA:         -12.139
REMARK INTER:                 -11.396
REMARK INTRA:                  -0.743
REMARK UNBOUND:                -0.930
REMARK SMILES COc1ccc(Nc2nc(NC[C@H](C)O)nc3c2cnn3C)c(OC)c1
REMARK SMILES IDX 8 1 9 2 10 3 16 4 17 5 18 6 19 7 20 8 21 9 22 10 7 11 6 13
REMARK SMILES IDX 3 14 4 15 26 16 5 17 23 18 2 19 1 20 24 21 25 22 11 23 12 25
REMARK SMILES IDX 13 26 14 27 15 28
REMARK H PARENT 7 12 11 24 15 29
ROOT
ATOM      1  C   UNL     1       6.865  46.277  52.324  1.00  0.00     0.147 A 
ATOM      2  N   UNL     1       5.777  46.568  53.088  1.00  0.00    -0.195 NA
ATOM      3  C   UNL     1       5.917  47.130  54.301  1.00  0.00     0.226 A 
ATOM      4  N   UNL     1       7.075  47.468  54.880  1.00  0.00    -0.193 NA
ATOM      5  C   UNL     1       8.138  47.176  54.118  1.00  0.00     0.165 A 
ATOM      6  C   UNL     1       8.117  46.599  52.864  1.00  0.00     0.082 A 
ATOM      7  C   UNL     1       9.477  46.511  52.497  1.00  0.00     0.149 A 
ATOM      8  N   UNL     1      10.301  46.989  53.434  1.00  0.00    -0.179 NA
ATOM      9  N   UNL     1       9.457  47.382  54.417  1.00  0.00    -0.250 N 
ATOM     10  C   UNL     1       9.992  47.952  55.627  1.00  0.00     0.176 C 
ENDROOT
BRANCH   1  11
ATOM     11  N   UNL     1       6.750  45.701  51.056  1.00  0.00    -0.336 N 
ATOM     12  H   UNL     1       7.051  46.287  50.284  1.00  0.00     0.168 HD
BRANCH  11  13
ATOM     13  C   UNL     1       6.278  44.457  50.590  1.00  0.00     0.083 A 
ATOM     14  C   UNL     1       5.427  41.969  49.560  1.00  0.00     0.122 A 
ATOM     15  C   UNL     1       4.724  42.581  50.594  1.00  0.00     0.049 A 
ATOM     16  C   UNL     1       6.561  42.596  49.036  1.00  0.00     0.095 A 
ATOM     17  C   UNL     1       5.148  43.815  51.102  1.00  0.00     0.034 A 
ATOM     18  C   UNL     1       6.990  43.828  49.540  1.00  0.00     0.146 A 
BRANCH  14  19
ATOM     19  O   UNL     1       5.120  40.770  48.977  1.00  0.00    -0.497 OA
ATOM     20  C   UNL     1       3.744  40.411  48.935  1.00  0.00     0.278 C 
ENDBRANCH  14  19
BRANCH  18  21
ATOM     21  O   UNL     1       8.094  44.523  49.092  1.00  0.00    -0.494 OA
ATOM     22  C   UNL     1       9.351  44.164  49.656  1.00  0.00     0.278 C 
ENDBRANCH  18  21
ENDBRANCH  11  13
ENDBRANCH   1  11
BRANCH   3  23
ATOM     23  N   UNL     1       4.714  47.362  54.965  1.00  0.00    -0.352 N 
ATOM     24  H   UNL     1       4.898  47.065  55.920  1.00  0.00     0.163 HD
BRANCH  23  25
ATOM     25  C   UNL     1       3.562  46.716  54.337  1.00  0.00     0.147 C 
BRANCH  25  26
ATOM     26  C   UNL     1       3.094  45.564  55.246  1.00  0.00     0.130 C 
ATOM     27  C   UNL     1       1.821  44.916  54.727  1.00  0.00     0.040 C 
BRANCH  26  28
ATOM     28  O   UNL     1       2.843  46.065  56.563  1.00  0.00    -0.392 OA
ATOM     29  H   UNL     1       2.485  45.303  57.065  1.00  0.00     0.211 HD
ENDBRANCH  26  28
ENDBRANCH  25  26
ENDBRANCH  23  25
ENDBRANCH   3  23
TORSDOF 8
ENDMDL
MODEL 10
REMARK VINA RESULT:    -7.739      2.594      5.712
REMARK INTER + INTRA:         -12.062
REMARK INTER:                 -11.619
REMARK INTRA:                  -0.443
REMARK UNBOUND:                -0.930
REMARK SMILES COc1ccc(Nc2nc(NC[C@H](C)O)nc3c2cnn3C)c(OC)c1
REMARK SMILES IDX 8 1 9 2 10 3 16 4 17 5 18 6 19 7 20 8 21 9 22 10 7 11 6 13
REMARK SMILES IDX 3 14 4 15 26 16 5 17 23 18 2 19 1 20 24 21 25 22 11 23 12 25
REMARK SMILES IDX 13 26 14 27 15 28
REMARK H PARENT 7 12 11 24 15 29
ROOT
ATOM      1  C   UNL     1       6.553  45.919  52.268  1.00  0.00     0.147 A 
ATOM      2  N   UNL     1       5.615  46.289  53.183  1.00  0.00    -0.195 NA
ATOM      3  C   UNL     1       5.971  46.879  54.336  1.00  0.00     0.226 A 
ATOM      4  N   UNL     1       7.221  47.175  54.713  1.00  0.00    -0.193 NA
ATOM      5  C   UNL     1       8.134  46.805  53.805  1.00  0.00     0.165 A 
ATOM      6  C   UNL     1       7.888  46.192  52.592  1.00  0.00     0.082 A 
ATOM      7  C   UNL     1       9.167  46.023  52.020  1.00  0.00     0.149 A 
ATOM      8  N   UNL     1      10.151  46.487  52.797  1.00  0.00    -0.179 NA
ATOM      9  N   UNL     1       9.492  46.952  53.885  1.00  0.00    -0.250 N 
ATOM     10  C   UNL     1      10.239  47.530  54.973  1.00  0.00     0.176 C 
ENDROOT
BRANCH   1  11
ATOM     11  N   UNL     1       6.211  45.312  51.057  1.00  0.00    -0.336 N 
ATOM     12  H   UNL     1       6.358  45.881  50.230  1.00  0.00     0.168 HD
BRANCH  11  13
ATOM     13  C   UNL     1       5.674  44.054  50.716  1.00  0.00     0.083 A 
ATOM     14  C   UNL     1       4.488  41.566  50.101  1.00  0.00     0.122 A 
ATOM     15  C   UNL     1       5.807  41.825  49.742  1.00  0.00     0.049 A 
ATOM     16  C   UNL     1       3.753  42.550  50.769  1.00  0.00     0.095 A 
ATOM     17  C   UNL     1       6.393  43.059  50.049  1.00  0.00     0.034 A 
ATOM     18  C   UNL     1       4.332  43.785  51.077  1.00  0.00     0.146 A 
BRANCH  14  19
ATOM     19  O   UNL     1       3.800  40.407  49.861  1.00  0.00    -0.497 OA
ATOM     20  C   UNL     1       3.534  40.089  48.500  1.00  0.00     0.278 C 
ENDBRANCH  14  19
BRANCH  18  21
ATOM     21  O   UNL     1       3.690  44.817  51.729  1.00  0.00    -0.494 OA
ATOM     22  C   UNL     1       2.567  45.392  51.071  1.00  0.00     0.278 C 
ENDBRANCH  18  21
ENDBRANCH  11  13
ENDBRANCH   1  11
BRANCH   3  23
ATOM     23  N   UNL     1       4.901  47.194  55.172  1.00  0.00    -0.352 N 
ATOM     24  H   UNL     1       5.147  46.763  56.060  1.00  0.00     0.163 HD
BRANCH  23  25
ATOM     25  C   UNL     1       3.601  46.789  54.637  1.00  0.00     0.147 C 
BRANCH  25  26
ATOM     26  C   UNL     1       3.055  45.637  55.502  1.00  0.00     0.130 C 
ATOM     27  C   UNL     1       1.891  44.929  54.830  1.00  0.00     0.040 C 
BRANCH  26  28
ATOM     28  O   UNL     1       2.608  46.153  56.760  1.00  0.00    -0.392 OA
ATOM     29  H   UNL     1       3.271  46.829  57.013  1.00  0.00     0.211 HD
ENDBRANCH  26  28
ENDBRANCH  25  26
ENDBRANCH  23  25
ENDBRANCH   3  23
TORSDOF 8
ENDMDL
MODEL 11
REMARK VINA RESULT:    -7.706      2.072      2.705
REMARK INTER + INTRA:         -12.015
REMARK INTER:                 -11.039
REMARK INTRA:                  -0.976
REMARK UNBOUND:                -0.930
REMARK SMILES COc1ccc(Nc2nc(NC[C@H](C)O)nc3c2cnn3C)c(OC)c1
REMARK SMILES IDX 8 1 9 2 10 3 16 4 17 5 18 6 19 7 20 8 21 9 22 10 7 11 6 13
REMARK SMILES IDX 3 14 4 15 26 16 5 17 23 18 2 19 1 20 24 21 25 22 11 23 12 25
REMARK SMILES IDX 13 26 14 27 15 28
REMARK H PARENT 7 12 11 24 15 29
ROOT
ATOM      1  C   UNL     1       4.742  44.216  52.392  1.00  0.00     0.147 A 
ATOM      2  N   UNL     1       5.173  45.434  52.819  1.00  0.00    -0.195 NA
ATOM      3  C   UNL     1       6.199  46.054  52.212  1.00  0.00     0.226 A 
ATOM      4  N   UNL     1       6.887  45.589  51.162  1.00  0.00    -0.193 NA
ATOM      5  C   UNL     1       6.453  44.389  50.753  1.00  0.00     0.165 A 
ATOM      6  C   UNL     1       5.415  43.660  51.297  1.00  0.00     0.082 A 
ATOM      7  C   UNL     1       5.361  42.489  50.510  1.00  0.00     0.149 A 
ATOM      8  N   UNL     1       6.284  42.467  49.543  1.00  0.00    -0.179 NA
ATOM      9  N   UNL     1       6.942  43.637  49.720  1.00  0.00    -0.250 N 
ATOM     10  C   UNL     1       8.042  43.970  48.851  1.00  0.00     0.176 C 
ENDROOT
BRANCH   1  11
ATOM     11  N   UNL     1       3.672  43.552  52.997  1.00  0.00    -0.336 N 
ATOM     12  H   UNL     1       3.921  42.932  53.761  1.00  0.00     0.168 HD
BRANCH  11  13
ATOM     13  C   UNL     1       2.281  43.534  52.767  1.00  0.00     0.083 A 
ATOM     14  C   UNL     1      -0.523  43.543  52.433  1.00  0.00     0.122 A 
ATOM     15  C   UNL     1       0.302  43.024  51.440  1.00  0.00     0.049 A 
ATOM     16  C   UNL     1       0.048  44.061  53.598  1.00  0.00     0.095 A 
ATOM     17  C   UNL     1       1.693  43.020  51.610  1.00  0.00     0.034 A 
ATOM     18  C   UNL     1       1.435  44.061  53.773  1.00  0.00     0.146 A 
BRANCH  14  19
ATOM     19  O   UNL     1      -1.890  43.606  52.392  1.00  0.00    -0.497 OA
ATOM     20  C   UNL     1      -2.555  43.931  53.607  1.00  0.00     0.278 C 
ENDBRANCH  14  19
BRANCH  18  21
ATOM     21  O   UNL     1       2.091  44.552  54.882  1.00  0.00    -0.494 OA
ATOM     22  C   UNL     1       1.300  45.241  55.844  1.00  0.00     0.278 C 
ENDBRANCH  18  21
ENDBRANCH  11  13
ENDBRANCH   1  11
BRANCH   3  23
ATOM     23  N   UNL     1       6.528  47.290  52.766  1.00  0.00    -0.352 N 
ATOM     24  H   UNL     1       5.741  47.887  52.522  1.00  0.00     0.163 HD
BRANCH  23  25
ATOM     25  C   UNL     1       7.832  47.796  52.338  1.00  0.00     0.147 C 
BRANCH  25  26
ATOM     26  C   UNL     1       8.766  47.834  53.562  1.00  0.00     0.130 C 
ATOM     27  C   UNL     1       9.894  46.824  53.444  1.00  0.00     0.040 C 
BRANCH  26  28
ATOM     28  O   UNL     1       8.016  47.540  54.745  1.00  0.00    -0.392 OA
ATOM     29  H   UNL     1       7.552  46.699  54.555  1.00  0.00     0.211 HD
ENDBRANCH  26  28
ENDBRANCH  25  26
ENDBRANCH  23  25
ENDBRANCH   3  23
TORSDOF 8
ENDMDL
MODEL 12
REMARK VINA RESULT:    -7.681      2.266      4.424
REMARK INTER + INTRA:         -11.978
REMARK INTER:                 -10.997
REMARK INTRA:                  -0.981
REMARK UNBOUND:                -0.930
REMARK SMILES COc1ccc(Nc2nc(NC[C@H](C)O)nc3c2cnn3C)c(OC)c1
REMARK SMILES IDX 8 1 9 2 10 3 16 4 17 5 18 6 19 7 20 8 21 9 22 10 7 11 6 13
REMARK SMILES IDX 3 14 4 15 26 16 5 17 23 18 2 19 1 20 24 21 25 22 11 23 12 25
REMARK SMILES IDX 13 26 14 27 15 28
REMARK H PARENT 7 12 11 24 15 29
ROOT
ATOM      1  C   UNL     1       5.867  45.596  50.904  1.00  0.00     0.147 A 
ATOM      2  N   UNL     1       6.119  44.553  50.066  1.00  0.00    -0.195 NA
ATOM      3  C   UNL     1       7.379  44.174  49.797  1.00  0.00     0.226 A 
ATOM      4  N   UNL     1       8.490  44.731  50.295  1.00  0.00    -0.193 NA
ATOM      5  C   UNL     1       8.228  45.757  51.116  1.00  0.00     0.165 A 
ATOM      6  C   UNL     1       6.981  46.235  51.464  1.00  0.00     0.082 A 
ATOM      7  C   UNL     1       7.249  47.304  52.345  1.00  0.00     0.149 A 
ATOM      8  N   UNL     1       8.557  47.497  52.547  1.00  0.00    -0.179 NA
ATOM      9  N   UNL     1       9.132  46.543  51.778  1.00  0.00    -0.250 N 
ATOM     10  C   UNL     1      10.568  46.443  51.726  1.00  0.00     0.176 C 
ENDROOT
BRANCH   1  11
ATOM     11  N   UNL     1       4.567  46.007  51.210  1.00  0.00    -0.336 N 
ATOM     12  H   UNL     1       4.285  46.894  50.805  1.00  0.00     0.168 HD
BRANCH  11  13
ATOM     13  C   UNL     1       3.531  45.458  51.993  1.00  0.00     0.083 A 
ATOM     14  C   UNL     1       1.476  44.458  53.652  1.00  0.00     0.122 A 
ATOM     15  C   UNL     1       1.876  43.750  52.523  1.00  0.00     0.049 A 
ATOM     16  C   UNL     1       2.099  45.671  53.958  1.00  0.00     0.095 A 
ATOM     17  C   UNL     1       2.897  44.248  51.703  1.00  0.00     0.034 A 
ATOM     18  C   UNL     1       3.118  46.174  53.143  1.00  0.00     0.146 A 
BRANCH  14  19
ATOM     19  O   UNL     1       0.497  44.084  54.531  1.00  0.00    -0.497 OA
ATOM     20  C   UNL     1      -0.639  43.423  53.985  1.00  0.00     0.278 C 
ENDBRANCH  14  19
BRANCH  18  21
ATOM     21  O   UNL     1       3.789  47.359  53.359  1.00  0.00    -0.494 OA
ATOM     22  C   UNL     1       4.504  47.478  54.584  1.00  0.00     0.278 C 
ENDBRANCH  18  21
ENDBRANCH  11  13
ENDBRANCH   1  11
BRANCH   3  23
ATOM     23  N   UNL     1       7.477  43.096  48.919  1.00  0.00    -0.352 N 
ATOM     24  H   UNL     1       8.015  43.462  48.137  1.00  0.00     0.163 HD
BRANCH  23  25
ATOM     25  C   UNL     1       6.184  42.519  48.552  1.00  0.00     0.147 C 
BRANCH  25  26
ATOM     26  C   UNL     1       5.987  41.216  49.349  1.00  0.00     0.130 C 
ATOM     27  C   UNL     1       4.914  41.361  50.415  1.00  0.00     0.040 C 
BRANCH  26  28
ATOM     28  O   UNL     1       7.216  40.856  49.989  1.00  0.00    -0.392 OA
ATOM     29  H   UNL     1       6.988  40.115  50.589  1.00  0.00     0.211 HD
ENDBRANCH  26  28
ENDBRANCH  25  26
ENDBRANCH  23  25
ENDBRANCH   3  23
TORSDOF 8
ENDMDL
MODEL 13
REMARK VINA RESULT:    -7.674      1.737      2.648
REMARK INTER + INTRA:         -11.969
REMARK INTER:                 -11.175
REMARK INTRA:                  -0.794
REMARK UNBOUND:                -0.930
REMARK SMILES COc1ccc(Nc2nc(NC[C@H](C)O)nc3c2cnn3C)c(OC)c1
REMARK SMILES IDX 8 1 9 2 10 3 16 4 17 5 18 6 19 7 20 8 21 9 22 10 7 11 6 13
REMARK SMILES IDX 3 14 4 15 26 16 5 17 23 18 2 19 1 20 24 21 25 22 11 23 12 25
REMARK SMILES IDX 13 26 14 27 15 28
REMARK H PARENT 7 12 11 24 15 29
ROOT
ATOM      1  C   UNL     1       4.846  44.340  52.456  1.00  0.00     0.147 A 
ATOM      2  N   UNL     1       5.288  45.551  52.890  1.00  0.00    -0.195 NA
ATOM      3  C   UNL     1       6.304  46.177  52.271  1.00  0.00     0.226 A 
ATOM      4  N   UNL     1       6.970  45.723  51.202  1.00  0.00    -0.193 NA
ATOM      5  C   UNL     1       6.526  44.530  50.785  1.00  0.00     0.165 A 
ATOM      6  C   UNL     1       5.496  43.795  51.341  1.00  0.00     0.082 A 
ATOM      7  C   UNL     1       5.424  42.635  50.541  1.00  0.00     0.149 A 
ATOM      8  N   UNL     1       6.328  42.624  49.556  1.00  0.00    -0.179 NA
ATOM      9  N   UNL     1       6.993  43.790  49.734  1.00  0.00    -0.250 N 
ATOM     10  C   UNL     1       8.076  44.131  48.848  1.00  0.00     0.176 C 
ENDROOT
BRANCH   1  11
ATOM     11  N   UNL     1       3.786  43.670  53.073  1.00  0.00    -0.336 N 
ATOM     12  H   UNL     1       3.855  42.658  53.077  1.00  0.00     0.168 HD
BRANCH  11  13
ATOM     13  C   UNL     1       2.595  44.097  53.696  1.00  0.00     0.083 A 
ATOM     14  C   UNL     1       0.141  44.889  54.846  1.00  0.00     0.122 A 
ATOM     15  C   UNL     1       1.345  45.350  55.370  1.00  0.00     0.049 A 
ATOM     16  C   UNL     1       0.156  44.029  53.745  1.00  0.00     0.095 A 
ATOM     17  C   UNL     1       2.561  44.956  54.797  1.00  0.00     0.034 A 
ATOM     18  C   UNL     1       1.367  43.631  53.169  1.00  0.00     0.146 A 
BRANCH  14  19
ATOM     19  O   UNL     1      -1.109  45.197  55.310  1.00  0.00    -0.497 OA
ATOM     20  C   UNL     1      -1.363  44.944  56.687  1.00  0.00     0.278 C 
ENDBRANCH  14  19
BRANCH  18  21
ATOM     21  O   UNL     1       1.485  42.785  52.087  1.00  0.00    -0.494 OA
ATOM     22  C   UNL     1       0.996  43.265  50.839  1.00  0.00     0.278 C 
ENDBRANCH  18  21
ENDBRANCH  11  13
ENDBRANCH   1  11
BRANCH   3  23
ATOM     23  N   UNL     1       6.646  47.405  52.833  1.00  0.00    -0.352 N 
ATOM     24  H   UNL     1       5.864  48.010  52.599  1.00  0.00     0.163 HD
BRANCH  23  25
ATOM     25  C   UNL     1       7.953  47.903  52.404  1.00  0.00     0.147 C 
BRANCH  25  26
ATOM     26  C   UNL     1       8.913  47.854  53.607  1.00  0.00     0.130 C 
ATOM     27  C   UNL     1       9.904  46.707  53.492  1.00  0.00     0.040 C 
BRANCH  26  28
ATOM     28  O   UNL     1       8.162  47.685  54.813  1.00  0.00    -0.392 OA
ATOM     29  H   UNL     1       8.810  47.798  55.539  1.00  0.00     0.211 HD
ENDBRANCH  26  28
ENDBRANCH  25  26
ENDBRANCH  23  25
ENDBRANCH   3  23
TORSDOF 8
ENDMDL
MODEL 14
REMARK VINA RESULT:    -7.644      2.525      4.440
REMARK INTER + INTRA:         -11.926
REMARK INTER:                 -11.103
REMARK INTRA:                  -0.823
REMARK UNBOUND:                -0.930
REMARK SMILES COc1ccc(Nc2nc(NC[C@H](C)O)nc3c2cnn3C)c(OC)c1
REMARK SMILES IDX 8 1 9 2 10 3 16 4 17 5 18 6 19 7 20 8 21 9 22 10 7 11 6 13
REMARK SMILES IDX 3 14 4 15 26 16 5 17 23 18 2 19 1 20 24 21 25 22 11 23 12 25
REMARK SMILES IDX 13 26 14 27 15 28
REMARK H PARENT 7 12 11 24 15 29
ROOT
ATOM      1  C   UNL     1       5.478  46.069  51.977  1.00  0.00     0.147 A 
ATOM      2  N   UNL     1       5.966  45.567  50.810  1.00  0.00    -0.195 NA
ATOM      3  C   UNL     1       7.291  45.472  50.601  1.00  0.00     0.226 A 
ATOM      4  N   UNL     1       8.249  45.830  51.465  1.00  0.00    -0.193 NA
ATOM      5  C   UNL     1       7.755  46.324  52.608  1.00  0.00     0.165 A 
ATOM      6  C   UNL     1       6.420  46.470  52.932  1.00  0.00     0.082 A 
ATOM      7  C   UNL     1       6.435  47.022  54.231  1.00  0.00     0.149 A 
ATOM      8  N   UNL     1       7.672  47.215  54.701  1.00  0.00    -0.179 NA
ATOM      9  N   UNL     1       8.458  46.787  53.685  1.00  0.00    -0.250 N 
ATOM     10  C   UNL     1       9.891  46.853  53.821  1.00  0.00     0.176 C 
ENDROOT
BRANCH   1  11
ATOM     11  N   UNL     1       4.107  46.170  52.226  1.00  0.00    -0.336 N 
ATOM     12  H   UNL     1       3.780  47.095  52.489  1.00  0.00     0.168 HD
BRANCH  11  13
ATOM     13  C   UNL     1       3.043  45.244  52.212  1.00  0.00     0.083 A 
ATOM     14  C   UNL     1       0.945  43.357  52.312  1.00  0.00     0.122 A 
ATOM     15  C   UNL     1       1.244  44.015  51.122  1.00  0.00     0.049 A 
ATOM     16  C   UNL     1       1.691  43.640  53.458  1.00  0.00     0.095 A 
ATOM     17  C   UNL     1       2.287  44.950  51.076  1.00  0.00     0.034 A 
ATOM     18  C   UNL     1       2.732  44.573  53.419  1.00  0.00     0.146 A 
BRANCH  14  19
ATOM     19  O   UNL     1      -0.042  42.427  52.490  1.00  0.00    -0.497 OA
ATOM     20  C   UNL     1      -1.304  42.706  51.893  1.00  0.00     0.278 C 
ENDBRANCH  14  19
BRANCH  18  21
ATOM     21  O   UNL     1       3.522  44.921  54.495  1.00  0.00    -0.494 OA
ATOM     22  C   UNL     1       2.899  45.671  55.532  1.00  0.00     0.278 C 
ENDBRANCH  18  21
ENDBRANCH  11  13
ENDBRANCH   1  11
BRANCH   3  23
ATOM     23  N   UNL     1       7.637  44.943  49.359  1.00  0.00    -0.352 N 
ATOM     24  H   UNL     1       6.882  45.241  48.745  1.00  0.00     0.163 HD
BRANCH  23  25
ATOM     25  C   UNL     1       7.871  43.500  49.381  1.00  0.00     0.147 C 
BRANCH  25  26
ATOM     26  C   UNL     1       6.533  42.784  49.120  1.00  0.00     0.130 C 
ATOM     27  C   UNL     1       6.376  41.546  49.987  1.00  0.00     0.040 C 
BRANCH  26  28
ATOM     28  O   UNL     1       6.461  42.388  47.747  1.00  0.00    -0.392 OA
ATOM     29  H   UNL     1       6.925  41.527  47.701  1.00  0.00     0.211 HD
ENDBRANCH  26  28
ENDBRANCH  25  26
ENDBRANCH  23  25
ENDBRANCH   3  23
TORSDOF 8
ENDMDL
MODEL 15
REMARK VINA RESULT:    -7.634      3.578      6.911
REMARK INTER + INTRA:         -11.911
REMARK INTER:                 -11.320
REMARK INTRA:                  -0.591
REMARK UNBOUND:                -0.930
REMARK SMILES COc1ccc(Nc2nc(NC[C@H](C)O)nc3c2cnn3C)c(OC)c1
REMARK SMILES IDX 8 1 9 2 10 3 16 4 17 5 18 6 19 7 20 8 21 9 22 10 7 11 6 13
REMARK SMILES IDX 3 14 4 15 26 16 5 17 23 18 2 19 1 20 24 21 25 22 11 23 12 25
REMARK SMILES IDX 13 26 14 27 15 28
REMARK H PARENT 7 12 11 24 15 29
ROOT
ATOM      1  C   UNL     1       2.485  43.487  52.920  1.00  0.00     0.147 A 
ATOM      2  N   UNL     1       3.151  44.326  53.759  1.00  0.00    -0.195 NA
ATOM      3  C   UNL     1       2.529  44.890  54.809  1.00  0.00     0.226 A 
ATOM      4  N   UNL     1       1.249  44.703  55.155  1.00  0.00    -0.193 NA
ATOM      5  C   UNL     1       0.605  43.877  54.320  1.00  0.00     0.165 A 
ATOM      6  C   UNL     1       1.137  43.245  53.214  1.00  0.00     0.082 A 
ATOM      7  C   UNL     1       0.063  42.495  52.690  1.00  0.00     0.149 A 
ATOM      8  N   UNL     1      -1.063  42.632  53.397  1.00  0.00    -0.179 NA
ATOM      9  N   UNL     1      -0.705  43.488  54.383  1.00  0.00    -0.250 N 
ATOM     10  C   UNL     1      -1.683  43.894  55.360  1.00  0.00     0.176 C 
ENDROOT
BRANCH   1  11
ATOM     11  N   UNL     1       3.108  42.880  51.827  1.00  0.00    -0.336 N 
ATOM     12  H   UNL     1       2.613  42.089  51.429  1.00  0.00     0.168 HD
BRANCH  11  13
ATOM     13  C   UNL     1       4.318  43.115  51.141  1.00  0.00     0.083 A 
ATOM     14  C   UNL     1       6.746  43.453  49.740  1.00  0.00     0.122 A 
ATOM     15  C   UNL     1       6.179  44.518  50.432  1.00  0.00     0.049 A 
ATOM     16  C   UNL     1       6.102  42.213  49.742  1.00  0.00     0.095 A 
ATOM     17  C   UNL     1       4.975  44.347  51.127  1.00  0.00     0.034 A 
ATOM     18  C   UNL     1       4.900  42.036  50.433  1.00  0.00     0.146 A 
BRANCH  14  19
ATOM     19  O   UNL     1       7.912  43.487  49.024  1.00  0.00    -0.497 OA
ATOM     20  C   UNL     1       8.950  44.319  49.529  1.00  0.00     0.278 C 
ENDBRANCH  14  19
BRANCH  18  21
ATOM     21  O   UNL     1       4.189  40.855  50.493  1.00  0.00    -0.494 OA
ATOM     22  C   UNL     1       3.542  40.433  49.297  1.00  0.00     0.278 C 
ENDBRANCH  18  21
ENDBRANCH  11  13
ENDBRANCH   1  11
BRANCH   3  23
ATOM     23  N   UNL     1       3.340  45.728  55.572  1.00  0.00    -0.352 N 
ATOM     24  H   UNL     1       2.807  46.592  55.640  1.00  0.00     0.163 HD
BRANCH  23  25
ATOM     25  C   UNL     1       4.691  45.885  55.034  1.00  0.00     0.147 C 
BRANCH  25  26
ATOM     26  C   UNL     1       4.710  47.124  54.120  1.00  0.00     0.130 C 
ATOM     27  C   UNL     1       5.970  47.181  53.272  1.00  0.00     0.040 C 
BRANCH  26  28
ATOM     28  O   UNL     1       4.647  48.310  54.918  1.00  0.00    -0.392 OA
ATOM     29  H   UNL     1       5.344  48.900  54.561  1.00  0.00     0.211 HD
ENDBRANCH  26  28
ENDBRANCH  25  26
ENDBRANCH  23  25
ENDBRANCH   3  23
TORSDOF 8
ENDMDL
MODEL 16
REMARK VINA RESULT:    -7.519      2.632      4.770
REMARK INTER + INTRA:         -11.745
REMARK INTER:                 -11.253
REMARK INTRA:                  -0.492
REMARK UNBOUND:                -0.930
REMARK SMILES COc1ccc(Nc2nc(NC[C@H](C)O)nc3c2cnn3C)c(OC)c1
REMARK SMILES IDX 8 1 9 2 10 3 16 4 17 5 18 6 19 7 20 8 21 9 22 10 7 11 6 13
REMARK SMILES IDX 3 14 4 15 26 16 5 17 23 18 2 19 1 20 24 21 25 22 11 23 12 25
REMARK SMILES IDX 13 26 14 27 15 28
REMARK H PARENT 7 12 11 24 15 29
ROOT
ATOM      1  C   UNL     1       4.656  44.783  53.298  1.00  0.00     0.147 A 
ATOM      2  N   UNL     1       4.781  44.263  52.047  1.00  0.00    -0.195 NA
ATOM      3  C   UNL     1       5.811  44.609  51.256  1.00  0.00     0.226 A 
ATOM      4  N   UNL     1       6.799  45.453  51.579  1.00  0.00    -0.193 NA
ATOM      5  C   UNL     1       6.663  45.958  52.812  1.00  0.00     0.165 A 
ATOM      6  C   UNL     1       5.651  45.679  53.709  1.00  0.00     0.082 A 
ATOM      7  C   UNL     1       5.970  46.451  54.847  1.00  0.00     0.149 A 
ATOM      8  N   UNL     1       7.090  47.165  54.696  1.00  0.00    -0.179 NA
ATOM      9  N   UNL     1       7.488  46.851  53.440  1.00  0.00    -0.250 N 
ATOM     10  C   UNL     1       8.683  47.451  52.904  1.00  0.00     0.176 C 
ENDROOT
BRANCH   1  11
ATOM     11  N   UNL     1       3.601  44.435  54.146  1.00  0.00    -0.336 N 
ATOM     12  H   UNL     1       3.815  44.458  55.137  1.00  0.00     0.168 HD
BRANCH  11  13
ATOM     13  C   UNL     1       2.269  44.028  53.926  1.00  0.00     0.083 A 
ATOM     14  C   UNL     1      -0.435  43.285  53.595  1.00  0.00     0.122 A 
ATOM     15  C   UNL     1       0.553  42.722  52.793  1.00  0.00     0.049 A 
ATOM     16  C   UNL     1      -0.078  44.224  54.566  1.00  0.00     0.095 A 
ATOM     17  C   UNL     1       1.893  43.091  52.961  1.00  0.00     0.034 A 
ATOM     18  C   UNL     1       1.258  44.598  54.737  1.00  0.00     0.146 A 
BRANCH  14  19
ATOM     19  O   UNL     1      -1.775  43.011  53.533  1.00  0.00    -0.497 OA
ATOM     20  C   UNL     1      -2.379  43.047  52.245  1.00  0.00     0.278 C 
ENDBRANCH  14  19
BRANCH  18  21
ATOM     21  O   UNL     1       1.709  45.515  55.663  1.00  0.00    -0.494 OA
ATOM     22  C   UNL     1       0.945  45.651  56.857  1.00  0.00     0.278 C 
ENDBRANCH  18  21
ENDBRANCH  11  13
ENDBRANCH   1  11
BRANCH   3  23
ATOM     23  N   UNL     1       5.800  44.000  50.003  1.00  0.00    -0.352 N 
ATOM     24  H   UNL     1       4.900  43.527  49.966  1.00  0.00     0.163 HD
BRANCH  23  25
ATOM     25  C   UNL     1       6.953  43.133  49.762  1.00  0.00     0.147 C 
BRANCH  25  26
ATOM     26  C   UNL     1       6.442  41.706  49.489  1.00  0.00     0.130 C 
ATOM     27  C   UNL     1       5.041  41.493  50.038  1.00  0.00     0.040 C 
BRANCH  26  28
ATOM     28  O   UNL     1       7.319  40.757  50.104  1.00  0.00    -0.392 OA
ATOM     29  H   UNL     1       7.520  40.100  49.406  1.00  0.00     0.211 HD
ENDBRANCH  26  28
ENDBRANCH  25  26
ENDBRANCH  23  25
ENDBRANCH   3  23
TORSDOF 8
ENDMDL
MODEL 17
REMARK VINA RESULT:    -7.486      2.723      6.908
REMARK INTER + INTRA:         -11.698
REMARK INTER:                 -10.814
REMARK INTRA:                  -0.884
REMARK UNBOUND:                -0.930
REMARK SMILES COc1ccc(Nc2nc(NC[C@H](C)O)nc3c2cnn3C)c(OC)c1
REMARK SMILES IDX 8 1 9 2 10 3 16 4 17 5 18 6 19 7 20 8 21 9 22 10 7 11 6 13
REMARK SMILES IDX 3 14 4 15 26 16 5 17 23 18 2 19 1 20 24 21 25 22 11 23 12 25
REMARK SMILES IDX 13 26 14 27 15 28
REMARK H PARENT 7 12 11 24 15 29
ROOT
ATOM      1  C   UNL     1       3.021  45.655  52.969  1.00  0.00     0.147 A 
ATOM      2  N   UNL     1       2.850  45.854  54.305  1.00  0.00    -0.195 NA
ATOM      3  C   UNL     1       1.974  45.114  55.006  1.00  0.00     0.226 A 
ATOM      4  N   UNL     1       1.205  44.134  54.515  1.00  0.00    -0.193 NA
ATOM      5  C   UNL     1       1.381  43.950  53.200  1.00  0.00     0.165 A 
ATOM      6  C   UNL     1       2.247  44.647  52.380  1.00  0.00     0.082 A 
ATOM      7  C   UNL     1       2.058  44.073  51.105  1.00  0.00     0.149 A 
ATOM      8  N   UNL     1       1.150  43.091  51.104  1.00  0.00    -0.179 NA
ATOM      9  N   UNL     1       0.747  43.043  52.396  1.00  0.00    -0.250 N 
ATOM     10  C   UNL     1      -0.261  42.092  52.790  1.00  0.00     0.176 C 
ENDROOT
BRANCH   1  11
ATOM     11  N   UNL     1       3.931  46.402  52.217  1.00  0.00    -0.336 N 
ATOM     12  H   UNL     1       3.581  47.288  51.867  1.00  0.00     0.168 HD
BRANCH  11  13
ATOM     13  C   UNL     1       5.262  46.187  51.806  1.00  0.00     0.083 A 
ATOM     14  C   UNL     1       7.969  45.847  51.076  1.00  0.00     0.122 A 
ATOM     15  C   UNL     1       6.959  45.241  50.335  1.00  0.00     0.049 A 
ATOM     16  C   UNL     1       7.633  46.625  52.187  1.00  0.00     0.095 A 
ATOM     17  C   UNL     1       5.617  45.413  50.699  1.00  0.00     0.034 A 
ATOM     18  C   UNL     1       6.295  46.799  52.556  1.00  0.00     0.146 A 
BRANCH  14  19
ATOM     19  O   UNL     1       9.312  45.759  50.829  1.00  0.00    -0.497 OA
ATOM     20  C   UNL     1      10.182  46.338  51.794  1.00  0.00     0.278 C 
ENDBRANCH  14  19
BRANCH  18  21
ATOM     21  O   UNL     1       5.864  47.544  53.634  1.00  0.00    -0.494 OA
ATOM     22  C   UNL     1       6.072  46.984  54.926  1.00  0.00     0.278 C 
ENDBRANCH  18  21
ENDBRANCH  11  13
ENDBRANCH   1  11
BRANCH   3  23
ATOM     23  N   UNL     1       1.908  45.438  56.360  1.00  0.00    -0.352 N 
ATOM     24  H   UNL     1       2.670  44.910  56.777  1.00  0.00     0.163 HD
BRANCH  23  25
ATOM     25  C   UNL     1       0.596  45.191  56.958  1.00  0.00     0.147 C 
BRANCH  25  26
ATOM     26  C   UNL     1       0.067  46.517  57.537  1.00  0.00     0.130 C 
ATOM     27  C   UNL     1       0.926  47.013  58.688  1.00  0.00     0.040 C 
BRANCH  26  28
ATOM     28  O   UNL     1      -1.269  46.331  58.016  1.00  0.00    -0.392 OA
ATOM     29  H   UNL     1      -1.230  46.531  58.974  1.00  0.00     0.211 HD
ENDBRANCH  26  28
ENDBRANCH  25  26
ENDBRANCH  23  25
ENDBRANCH   3  23
TORSDOF 8
ENDMDL
MODEL 18
REMARK VINA RESULT:    -7.450      2.326      4.584
REMARK INTER + INTRA:         -11.646
REMARK INTER:                 -10.632
REMARK INTRA:                  -1.015
REMARK UNBOUND:                -0.930
REMARK SMILES COc1ccc(Nc2nc(NC[C@H](C)O)nc3c2cnn3C)c(OC)c1
REMARK SMILES IDX 8 1 9 2 10 3 16 4 17 5 18 6 19 7 20 8 21 9 22 10 7 11 6 13
REMARK SMILES IDX 3 14 4 15 26 16 5 17 23 18 2 19 1 20 24 21 25 22 11 23 12 25
REMARK SMILES IDX 13 26 14 27 15 28
REMARK H PARENT 7 12 11 24 15 29
ROOT
ATOM      1  C   UNL     1       5.640  45.578  51.218  1.00  0.00     0.147 A 
ATOM      2  N   UNL     1       5.957  44.560  50.373  1.00  0.00    -0.195 NA
ATOM      3  C   UNL     1       7.238  44.283  50.076  1.00  0.00     0.226 A 
ATOM      4  N   UNL     1       8.310  44.928  50.554  1.00  0.00    -0.193 NA
ATOM      5  C   UNL     1       7.984  45.928  51.383  1.00  0.00     0.165 A 
ATOM      6  C   UNL     1       6.709  46.304  51.757  1.00  0.00     0.082 A 
ATOM      7  C   UNL     1       6.909  47.390  52.636  1.00  0.00     0.149 A 
ATOM      8  N   UNL     1       8.201  47.687  52.812  1.00  0.00    -0.179 NA
ATOM      9  N   UNL     1       8.835  46.783  52.029  1.00  0.00    -0.250 N 
ATOM     10  C   UNL     1      10.273  46.799  51.948  1.00  0.00     0.176 C 
ENDROOT
BRANCH   1  11
ATOM     11  N   UNL     1       4.317  45.882  51.551  1.00  0.00    -0.336 N 
ATOM     12  H   UNL     1       3.813  46.436  50.866  1.00  0.00     0.168 HD
BRANCH  11  13
ATOM     13  C   UNL     1       3.504  45.600  52.669  1.00  0.00     0.083 A 
ATOM     14  C   UNL     1       1.803  44.953  54.828  1.00  0.00     0.122 A 
ATOM     15  C   UNL     1       2.783  45.931  54.972  1.00  0.00     0.049 A 
ATOM     16  C   UNL     1       1.669  44.292  53.604  1.00  0.00     0.095 A 
ATOM     17  C   UNL     1       3.624  46.251  53.898  1.00  0.00     0.034 A 
ATOM     18  C   UNL     1       2.507  44.605  52.530  1.00  0.00     0.146 A 
BRANCH  14  19
ATOM     19  O   UNL     1       0.922  44.549  55.793  1.00  0.00    -0.497 OA
ATOM     20  C   UNL     1       0.632  45.481  56.829  1.00  0.00     0.278 C 
ENDBRANCH  14  19
BRANCH  18  21
ATOM     21  O   UNL     1       2.455  44.008  51.287  1.00  0.00    -0.494 OA
ATOM     22  C   UNL     1       1.420  43.054  51.076  1.00  0.00     0.278 C 
ENDBRANCH  18  21
ENDBRANCH  11  13
ENDBRANCH   1  11
BRANCH   3  23
ATOM     23  N   UNL     1       7.404  43.218  49.194  1.00  0.00    -0.352 N 
ATOM     24  H   UNL     1       7.968  43.606  48.441  1.00  0.00     0.163 HD
BRANCH  23  25
ATOM     25  C   UNL     1       6.144  42.613  48.761  1.00  0.00     0.147 C 
BRANCH  25  26
ATOM     26  C   UNL     1       6.017  41.228  49.422  1.00  0.00     0.130 C 
ATOM     27  C   UNL     1       4.898  41.193  50.451  1.00  0.00     0.040 C 
BRANCH  26  28
ATOM     28  O   UNL     1       7.245  40.894  50.077  1.00  0.00    -0.392 OA
ATOM     29  H   UNL     1       7.785  41.711  50.045  1.00  0.00     0.211 HD
ENDBRANCH  26  28
ENDBRANCH  25  26
ENDBRANCH  23  25
ENDBRANCH   3  23
TORSDOF 8
ENDMDL
MODEL 19
REMARK VINA RESULT:    -7.370      2.549      4.767
REMARK INTER + INTRA:         -11.532
REMARK INTER:                 -10.403
REMARK INTRA:                  -1.129
REMARK UNBOUND:                -0.930
REMARK SMILES COc1ccc(Nc2nc(NC[C@H](C)O)nc3c2cnn3C)c(OC)c1
REMARK SMILES IDX 8 1 9 2 10 3 16 4 17 5 18 6 19 7 20 8 21 9 22 10 7 11 6 13
REMARK SMILES IDX 3 14 4 15 26 16 5 17 23 18 2 19 1 20 24 21 25 22 11 23 12 25
REMARK SMILES IDX 13 26 14 27 15 28
REMARK H PARENT 7 12 11 24 15 29
ROOT
ATOM      1  C   UNL     1       5.041  44.616  53.034  1.00  0.00     0.147 A 
ATOM      2  N   UNL     1       5.223  44.055  51.808  1.00  0.00    -0.195 NA
ATOM      3  C   UNL     1       6.122  44.560  50.945  1.00  0.00     0.226 A 
ATOM      4  N   UNL     1       6.918  45.613  51.169  1.00  0.00    -0.193 NA
ATOM      5  C   UNL     1       6.727  46.156  52.379  1.00  0.00     0.165 A 
ATOM      6  C   UNL     1       5.836  45.727  53.342  1.00  0.00     0.082 A 
ATOM      7  C   UNL     1       6.027  46.620  54.418  1.00  0.00     0.149 A 
ATOM      8  N   UNL     1       6.961  47.544  54.169  1.00  0.00    -0.179 NA
ATOM      9  N   UNL     1       7.366  47.241  52.913  1.00  0.00    -0.250 N 
ATOM     10  C   UNL     1       8.381  48.046  52.282  1.00  0.00     0.176 C 
ENDROOT
BRANCH   1  11
ATOM     11  N   UNL     1       4.120  44.107  53.954  1.00  0.00    -0.336 N 
ATOM     12  H   UNL     1       4.477  43.384  54.571  1.00  0.00     0.168 HD
BRANCH  11  13
ATOM     13  C   UNL     1       2.759  44.366  54.216  1.00  0.00     0.083 A 
ATOM     14  C   UNL     1       0.001  44.804  54.636  1.00  0.00     0.122 A 
ATOM     15  C   UNL     1       0.947  45.517  55.367  1.00  0.00     0.049 A 
ATOM     16  C   UNL     1       0.429  43.867  53.692  1.00  0.00     0.095 A 
ATOM     17  C   UNL     1       2.314  45.298  55.155  1.00  0.00     0.034 A 
ATOM     18  C   UNL     1       1.792  43.643  53.477  1.00  0.00     0.146 A 
BRANCH  14  19
ATOM     19  O   UNL     1      -1.357  44.923  54.746  1.00  0.00    -0.497 OA
ATOM     20  C   UNL     1      -2.030  43.924  55.504  1.00  0.00     0.278 C 
ENDBRANCH  14  19
BRANCH  18  21
ATOM     21  O   UNL     1       2.311  42.740  52.572  1.00  0.00    -0.494 OA
ATOM     22  C   UNL     1       1.840  42.831  51.232  1.00  0.00     0.278 C 
ENDBRANCH  18  21
ENDBRANCH  11  13
ENDBRANCH   1  11
BRANCH   3  23
ATOM     23  N   UNL     1       6.191  43.883  49.730  1.00  0.00    -0.352 N 
ATOM     24  H   UNL     1       5.220  43.688  49.500  1.00  0.00     0.163 HD
BRANCH  23  25
ATOM     25  C   UNL     1       7.057  42.705  49.763  1.00  0.00     0.147 C 
BRANCH  25  26
ATOM     26  C   UNL     1       6.190  41.455  49.521  1.00  0.00     0.130 C 
ATOM     27  C   UNL     1       5.526  41.484  48.154  1.00  0.00     0.040 C 
BRANCH  26  28
ATOM     28  O   UNL     1       5.168  41.380  50.520  1.00  0.00    -0.392 OA
ATOM     29  H   UNL     1       5.518  40.771  51.203  1.00  0.00     0.211 HD
ENDBRANCH  26  28
ENDBRANCH  25  26
ENDBRANCH  23  25
ENDBRANCH   3  23
TORSDOF 8
ENDMDL
MODEL 20
REMARK VINA RESULT:    -7.361      2.912      6.924
REMARK INTER + INTRA:         -11.518
REMARK INTER:                 -10.435
REMARK INTRA:                  -1.083
REMARK UNBOUND:                -0.930
REMARK SMILES COc1ccc(Nc2nc(NC[C@H](C)O)nc3c2cnn3C)c(OC)c1
REMARK SMILES IDX 8 1 9 2 10 3 16 4 17 5 18 6 19 7 20 8 21 9 22 10 7 11 6 13
REMARK SMILES IDX 3 14 4 15 26 16 5 17 23 18 2 19 1 20 24 21 25 22 11 23 12 25
REMARK SMILES IDX 13 26 14 27 15 28
REMARK H PARENT 7 12 11 24 15 29
ROOT
ATOM      1  C   UNL     1       2.796  44.280  53.479  1.00  0.00     0.147 A 
ATOM      2  N   UNL     1       2.063  44.934  54.420  1.00  0.00    -0.195 NA
ATOM      3  C   UNL     1       0.733  45.070  54.287  1.00  0.00     0.226 A 
ATOM      4  N   UNL     1      -0.006  44.599  53.275  1.00  0.00    -0.193 NA
ATOM      5  C   UNL     1       0.728  43.959  52.355  1.00  0.00     0.165 A 
ATOM      6  C   UNL     1       2.094  43.760  52.384  1.00  0.00     0.082 A 
ATOM      7  C   UNL     1       2.367  43.037  51.204  1.00  0.00     0.149 A 
ATOM      8  N   UNL     1       1.272  42.791  50.477  1.00  0.00    -0.179 NA
ATOM      9  N   UNL     1       0.286  43.373  51.200  1.00  0.00    -0.250 N 
ATOM     10  C   UNL     1      -1.070  43.326  50.716  1.00  0.00     0.176 C 
ENDROOT
BRANCH   1  11
ATOM     11  N   UNL     1       4.179  44.116  53.596  1.00  0.00    -0.336 N 
ATOM     12  H   UNL     1       4.492  43.161  53.740  1.00  0.00     0.168 HD
BRANCH  11  13
ATOM     13  C   UNL     1       5.271  45.007  53.576  1.00  0.00     0.083 A 
ATOM     14  C   UNL     1       7.487  46.750  53.410  1.00  0.00     0.122 A 
ATOM     15  C   UNL     1       6.782  46.620  54.602  1.00  0.00     0.049 A 
ATOM     16  C   UNL     1       7.088  46.012  52.293  1.00  0.00     0.095 A 
ATOM     17  C   UNL     1       5.684  45.753  54.682  1.00  0.00     0.034 A 
ATOM     18  C   UNL     1       5.993  45.146  52.365  1.00  0.00     0.146 A 
BRANCH  14  19
ATOM     19  O   UNL     1       8.572  47.558  53.201  1.00  0.00    -0.497 OA
ATOM     20  C   UNL     1       9.852  46.992  53.459  1.00  0.00     0.278 C 
ENDBRANCH  14  19
BRANCH  18  21
ATOM     21  O   UNL     1       5.522  44.379  51.320  1.00  0.00    -0.494 OA
ATOM     22  C   UNL     1       6.427  44.125  50.251  1.00  0.00     0.278 C 
ENDBRANCH  18  21
ENDBRANCH  11  13
ENDBRANCH   1  11
BRANCH   3  23
ATOM     23  N   UNL     1       0.122  45.767  55.327  1.00  0.00    -0.352 N 
ATOM     24  H   UNL     1       0.634  46.646  55.370  1.00  0.00     0.163 HD
BRANCH  23  25
ATOM     25  C   UNL     1       0.081  45.024  56.586  1.00  0.00     0.147 C 
BRANCH  25  26
ATOM     26  C   UNL     1       0.717  45.895  57.687  1.00  0.00     0.130 C 
ATOM     27  C   UNL     1      -0.143  47.103  58.018  1.00  0.00     0.040 C 
BRANCH  26  28
ATOM     28  O   UNL     1       1.999  46.356  57.251  1.00  0.00    -0.392 OA
ATOM     29  H   UNL     1       2.041  46.142  56.296  1.00  0.00     0.211 HD
ENDBRANCH  26  28
ENDBRANCH  25  26
ENDBRANCH  23  25
ENDBRANCH   3  23
TORSDOF 8
ENDMDL
