MODEL 1
REMARK VINA RESULT:    -8.044      0.000      0.000
REMARK INTER + INTRA:         -12.324
REMARK INTER:                 -11.336
REMARK INTRA:                  -0.988
REMARK UNBOUND:                -0.988
REMARK SMILES COCCCNc1nc(Nc2ccccc2)c2cnn(C)c2n1
REMARK SMILES IDX 5 1 4 2 3 3 2 4 1 5 6 6 7 8 8 9 23 10 9 11 22 12 17 13 20 14
REMARK SMILES IDX 18 15 19 16 21 17 10 18 11 20 12 21 16 22 13 23 15 24 14 25
REMARK H PARENT 6 7 10 19
ROOT
ATOM      1  C   UNL     1       1.709  43.512  52.681  1.00  0.00     0.118 C 
ENDROOT
BRANCH   1   2
ATOM      2  C   UNL     1       0.824  43.832  53.889  1.00  0.00     0.050 C 
BRANCH   2   3
ATOM      3  C   UNL     1       1.275  45.059  54.679  1.00  0.00     0.161 C 
BRANCH   3   4
ATOM      4  O   UNL     1       2.492  44.841  55.388  1.00  0.00    -0.385 OA
ATOM      5  C   UNL     1       3.354  45.972  55.385  1.00  0.00     0.194 C 
ENDBRANCH   3   4
ENDBRANCH   2   3
ENDBRANCH   1   2
BRANCH   1   6
ATOM      6  N   UNL     1       3.054  43.097  53.039  1.00  0.00    -0.354 N 
ATOM      7  H   UNL     1       3.312  43.216  54.012  1.00  0.00     0.163 HD
BRANCH   6   8
ATOM      8  C   UNL     1       4.104  43.521  52.246  1.00  0.00     0.226 A 
ATOM      9  N   UNL     1       4.693  44.705  52.499  1.00  0.00    -0.195 NA
ATOM     10  N   UNL     1       4.459  42.669  51.276  1.00  0.00    -0.193 NA
ATOM     11  C   UNL     1       5.731  45.150  51.744  1.00  0.00     0.147 A 
ATOM     12  C   UNL     1       5.484  43.118  50.539  1.00  0.00     0.165 A 
ATOM     13  C   UNL     1       6.156  44.313  50.706  1.00  0.00     0.082 A 
ATOM     14  N   UNL     1       6.076  42.495  49.475  1.00  0.00    -0.250 N 
ATOM     15  C   UNL     1       7.138  44.303  49.693  1.00  0.00     0.149 A 
ATOM     16  N   UNL     1       7.102  43.198  48.940  1.00  0.00    -0.179 NA
ATOM     17  C   UNL     1       5.718  41.219  48.908  1.00  0.00     0.176 C 
BRANCH  11  18
ATOM     18  N   UNL     1       6.373  46.369  52.010  1.00  0.00    -0.339 N 
ATOM     19  H   UNL     1       5.834  47.181  51.746  1.00  0.00     0.168 HD
BRANCH  18  20
ATOM     20  C   UNL     1       7.588  46.677  52.647  1.00  0.00     0.040 A 
ATOM     21  C   UNL     1       7.687  47.102  53.975  1.00  0.00     0.026 A 
ATOM     22  C   UNL     1       8.783  46.501  51.929  1.00  0.00     0.026 A 
ATOM     23  C   UNL     1       8.930  47.362  54.563  1.00  0.00     0.002 A 
ATOM     24  C   UNL     1      10.029  46.757  52.512  1.00  0.00     0.002 A 
ATOM     25  C   UNL     1      10.101  47.190  53.831  1.00  0.00     0.000 A 
ENDBRANCH  18  20
ENDBRANCH  11  18
ENDBRANCH   6   8
ENDBRANCH   1   6
TORSDOF 7
ENDMDL
MODEL 2
REMARK VINA RESULT:    -8.035      0.239      1.027
REMARK INTER + INTRA:         -12.310
REMARK INTER:                 -11.253
REMARK INTRA:                  -1.057
REMARK UNBOUND:                -0.988
REMARK SMILES COCCCNc1nc(Nc2ccccc2)c2cnn(C)c2n1
REMARK SMILES IDX 5 1 4 2 3 3 2 4 1 5 6 6 7 8 8 9 23 10 9 11 22 12 17 13 20 14
REMARK SMILES IDX 18 15 19 16 21 17 10 18 11 20 12 21 16 22 13 23 15 24 14 25
REMARK H PARENT 6 7 10 19
ROOT
ATOM      1  C   UNL     1       1.756  44.001  52.726  1.00  0.00     0.118 C 
ENDROOT
BRANCH   1   2
ATOM      2  C   UNL     1       0.957  44.232  54.012  1.00  0.00     0.050 C 
BRANCH   2   3
ATOM      3  C   UNL     1       1.538  45.318  54.916  1.00  0.00     0.161 C 
BRANCH   3   4
ATOM      4  O   UNL     1       2.858  45.016  55.360  1.00  0.00    -0.385 OA
ATOM      5  C   UNL     1       3.718  46.148  55.374  1.00  0.00     0.194 C 
ENDBRANCH   3   4
ENDBRANCH   2   3
ENDBRANCH   1   2
BRANCH   1   6
ATOM      6  N   UNL     1       3.005  43.290  52.937  1.00  0.00    -0.354 N 
ATOM      7  H   UNL     1       3.300  43.185  53.901  1.00  0.00     0.163 HD
BRANCH   6   8
ATOM      8  C   UNL     1       4.101  43.649  52.175  1.00  0.00     0.226 A 
ATOM      9  N   UNL     1       4.741  44.805  52.434  1.00  0.00    -0.195 NA
ATOM     10  N   UNL     1       4.443  42.768  51.227  1.00  0.00    -0.193 NA
ATOM     11  C   UNL     1       5.825  45.187  51.709  1.00  0.00     0.147 A 
ATOM     12  C   UNL     1       5.513  43.155  50.519  1.00  0.00     0.165 A 
ATOM     13  C   UNL     1       6.240  44.316  50.695  1.00  0.00     0.082 A 
ATOM     14  N   UNL     1       6.107  42.489  49.482  1.00  0.00    -0.250 N 
ATOM     15  C   UNL     1       7.253  44.243  49.716  1.00  0.00     0.149 A 
ATOM     16  N   UNL     1       7.184  43.131  48.975  1.00  0.00    -0.179 NA
ATOM     17  C   UNL     1       5.702  41.225  48.919  1.00  0.00     0.176 C 
BRANCH  11  18
ATOM     18  N   UNL     1       6.520  46.374  51.982  1.00  0.00    -0.339 N 
ATOM     19  H   UNL     1       6.019  47.210  51.719  1.00  0.00     0.168 HD
BRANCH  18  20
ATOM     20  C   UNL     1       7.745  46.625  52.626  1.00  0.00     0.040 A 
ATOM     21  C   UNL     1       8.993  46.466  52.018  1.00  0.00     0.026 A 
ATOM     22  C   UNL     1       7.720  47.112  53.945  1.00  0.00     0.026 A 
ATOM     23  C   UNL     1      10.177  46.763  52.702  1.00  0.00     0.002 A 
ATOM     24  C   UNL     1       8.901  47.412  54.632  1.00  0.00     0.002 A 
ATOM     25  C   UNL     1      10.131  47.236  54.010  1.00  0.00     0.000 A 
ENDBRANCH  18  20
ENDBRANCH  11  18
ENDBRANCH   6   8
ENDBRANCH   1   6
TORSDOF 7
ENDMDL
MODEL 3
REMARK VINA RESULT:    -7.905      1.347      1.853
REMARK INTER + INTRA:         -12.128
REMARK INTER:                 -11.005
REMARK INTRA:                  -1.123
REMARK UNBOUND:                -0.988
REMARK SMILES COCCCNc1nc(Nc2ccccc2)c2cnn(C)c2n1
REMARK SMILES IDX 5 1 4 2 3 3 2 4 1 5 6 6 7 8 8 9 23 10 9 11 22 12 17 13 20 14
REMARK SMILES IDX 18 15 19 16 21 17 10 18 11 20 12 21 16 22 13 23 15 24 14 25
REMARK H PARENT 6 7 10 19
ROOT
ATOM      1  C   UNL     1       1.886  45.462  54.044  1.00  0.00     0.118 C 
ENDROOT
BRANCH   1   2
ATOM      2  C   UNL     1       1.114  45.681  52.739  1.00  0.00     0.050 C 
BRANCH   2   3
ATOM      3  C   UNL     1      -0.052  44.715  52.541  1.00  0.00     0.161 C 
BRANCH   3   4
ATOM      4  O   UNL     1       0.377  43.383  52.268  1.00  0.00    -0.385 OA
ATOM      5  C   UNL     1      -0.164  42.423  53.167  1.00  0.00     0.194 C 
ENDBRANCH   3   4
ENDBRANCH   2   3
ENDBRANCH   1   2
BRANCH   1   6
ATOM      6  N   UNL     1       2.808  44.341  53.993  1.00  0.00    -0.354 N 
ATOM      7  H   UNL     1       3.228  44.070  54.874  1.00  0.00     0.163 HD
BRANCH   6   8
ATOM      8  C   UNL     1       3.787  44.340  53.017  1.00  0.00     0.226 A 
ATOM      9  N   UNL     1       4.640  45.378  52.931  1.00  0.00    -0.195 NA
ATOM     10  N   UNL     1       3.802  43.255  52.233  1.00  0.00    -0.193 NA
ATOM     11  C   UNL     1       5.618  45.408  51.988  1.00  0.00     0.147 A 
ATOM     12  C   UNL     1       4.771  43.296  51.308  1.00  0.00     0.165 A 
ATOM     13  C   UNL     1       5.695  44.307  51.127  1.00  0.00     0.082 A 
ATOM     14  N   UNL     1       5.049  42.354  50.356  1.00  0.00    -0.250 N 
ATOM     15  C   UNL     1       6.484  43.867  50.044  1.00  0.00     0.149 A 
ATOM     16  N   UNL     1       6.103  42.676  49.570  1.00  0.00    -0.179 NA
ATOM     17  C   UNL     1       4.350  41.113  50.135  1.00  0.00     0.176 C 
BRANCH  11  18
ATOM     18  N   UNL     1       6.533  46.469  51.901  1.00  0.00    -0.339 N 
ATOM     19  H   UNL     1       6.230  47.220  51.299  1.00  0.00     0.168 HD
BRANCH  18  20
ATOM     20  C   UNL     1       7.752  46.720  52.554  1.00  0.00     0.040 A 
ATOM     21  C   UNL     1       7.852  47.167  53.875  1.00  0.00     0.026 A 
ATOM     22  C   UNL     1       8.948  46.462  51.862  1.00  0.00     0.026 A 
ATOM     23  C   UNL     1       9.097  47.368  54.481  1.00  0.00     0.002 A 
ATOM     24  C   UNL     1      10.195  46.660  52.464  1.00  0.00     0.002 A 
ATOM     25  C   UNL     1      10.269  47.115  53.775  1.00  0.00     0.000 A 
ENDBRANCH  18  20
ENDBRANCH  11  18
ENDBRANCH   6   8
ENDBRANCH   1   6
TORSDOF 7
ENDMDL
MODEL 4
REMARK VINA RESULT:    -7.893      1.401      2.076
REMARK INTER + INTRA:         -12.110
REMARK INTER:                 -11.465
REMARK INTRA:                  -0.645
REMARK UNBOUND:                -0.988
REMARK SMILES COCCCNc1nc(Nc2ccccc2)c2cnn(C)c2n1
REMARK SMILES IDX 5 1 4 2 3 3 2 4 1 5 6 6 7 8 8 9 23 10 9 11 22 12 17 13 20 14
REMARK SMILES IDX 18 15 19 16 21 17 10 18 11 20 12 21 16 22 13 23 15 24 14 25
REMARK H PARENT 6 7 10 19
ROOT
ATOM      1  C   UNL     1       2.207  45.341  54.828  1.00  0.00     0.118 C 
ENDROOT
BRANCH   1   2
ATOM      2  C   UNL     1       0.801  45.313  55.435  1.00  0.00     0.050 C 
BRANCH   2   3
ATOM      3  C   UNL     1       0.783  45.408  56.959  1.00  0.00     0.161 C 
BRANCH   3   4
ATOM      4  O   UNL     1      -0.502  45.138  57.513  1.00  0.00    -0.385 OA
ATOM      5  C   UNL     1      -1.405  44.557  56.580  1.00  0.00     0.194 C 
ENDBRANCH   3   4
ENDBRANCH   2   3
ENDBRANCH   1   2
BRANCH   1   6
ATOM      6  N   UNL     1       2.537  44.148  54.069  1.00  0.00    -0.354 N 
ATOM      7  H   UNL     1       2.663  43.299  54.608  1.00  0.00     0.163 HD
BRANCH   6   8
ATOM      8  C   UNL     1       3.546  44.229  53.127  1.00  0.00     0.226 A 
ATOM      9  N   UNL     1       4.354  45.305  53.108  1.00  0.00    -0.195 NA
ATOM     10  N   UNL     1       3.635  43.177  52.304  1.00  0.00    -0.193 NA
ATOM     11  C   UNL     1       5.359  45.415  52.200  1.00  0.00     0.147 A 
ATOM     12  C   UNL     1       4.630  43.296  51.414  1.00  0.00     0.165 A 
ATOM     13  C   UNL     1       5.512  44.353  51.302  1.00  0.00     0.082 A 
ATOM     14  N   UNL     1       4.979  42.405  50.437  1.00  0.00    -0.250 N 
ATOM     15  C   UNL     1       6.354  43.990  50.230  1.00  0.00     0.149 A 
ATOM     16  N   UNL     1       6.042  42.803  49.698  1.00  0.00    -0.179 NA
ATOM     17  C   UNL     1       4.345  41.143  50.146  1.00  0.00     0.176 C 
BRANCH  11  18
ATOM     18  N   UNL     1       6.226  46.517  52.183  1.00  0.00    -0.339 N 
ATOM     19  H   UNL     1       5.807  47.362  51.821  1.00  0.00     0.168 HD
BRANCH  18  20
ATOM     20  C   UNL     1       7.542  46.691  52.648  1.00  0.00     0.040 A 
ATOM     21  C   UNL     1       8.680  46.488  51.863  1.00  0.00     0.026 A 
ATOM     22  C   UNL     1       7.732  47.143  53.965  1.00  0.00     0.026 A 
ATOM     23  C   UNL     1       9.964  46.709  52.374  1.00  0.00     0.002 A 
ATOM     24  C   UNL     1       9.013  47.367  54.481  1.00  0.00     0.002 A 
ATOM     25  C   UNL     1      10.130  47.148  53.684  1.00  0.00     0.000 A 
ENDBRANCH  18  20
ENDBRANCH  11  18
ENDBRANCH   6   8
ENDBRANCH   1   6
TORSDOF 7
ENDMDL
MODEL 5
REMARK VINA RESULT:    -7.865      1.973      5.334
REMARK INTER + INTRA:         -12.071
REMARK INTER:                 -11.159
REMARK INTRA:                  -0.913
REMARK UNBOUND:                -0.988
REMARK SMILES COCCCNc1nc(Nc2ccccc2)c2cnn(C)c2n1
REMARK SMILES IDX 5 1 4 2 3 3 2 4 1 5 6 6 7 8 8 9 23 10 9 11 22 12 17 13 20 14
REMARK SMILES IDX 18 15 19 16 21 17 10 18 11 20 12 21 16 22 13 23 15 24 14 25
REMARK H PARENT 6 7 10 19
ROOT
ATOM      1  C   UNL     1       4.057  45.683  55.432  1.00  0.00     0.118 C 
ENDROOT
BRANCH   1   2
ATOM      2  C   UNL     1       2.538  45.772  55.260  1.00  0.00     0.050 C 
BRANCH   2   3
ATOM      3  C   UNL     1       2.070  45.636  53.813  1.00  0.00     0.161 C 
BRANCH   3   4
ATOM      4  O   UNL     1       2.402  46.771  53.017  1.00  0.00    -0.385 OA
ATOM      5  C   UNL     1       2.684  46.445  51.663  1.00  0.00     0.194 C 
ENDBRANCH   3   4
ENDBRANCH   2   3
ENDBRANCH   1   2
BRANCH   1   6
ATOM      6  N   UNL     1       4.765  46.864  54.973  1.00  0.00    -0.354 N 
ATOM      7  H   UNL     1       4.193  47.599  54.573  1.00  0.00     0.163 HD
BRANCH   6   8
ATOM      8  C   UNL     1       5.882  46.691  54.176  1.00  0.00     0.226 A 
ATOM      9  N   UNL     1       5.752  46.125  52.961  1.00  0.00    -0.195 NA
ATOM     10  N   UNL     1       7.028  47.136  54.706  1.00  0.00    -0.193 NA
ATOM     11  C   UNL     1       6.826  45.945  52.150  1.00  0.00     0.147 A 
ATOM     12  C   UNL     1       8.080  46.954  53.897  1.00  0.00     0.165 A 
ATOM     13  C   UNL     1       8.062  46.384  52.639  1.00  0.00     0.082 A 
ATOM     14  N   UNL     1       9.384  47.289  54.143  1.00  0.00    -0.250 N 
ATOM     15  C   UNL     1       9.407  46.434  52.216  1.00  0.00     0.149 A 
ATOM     16  N   UNL     1      10.220  46.988  53.122  1.00  0.00    -0.179 NA
ATOM     17  C   UNL     1       9.910  47.906  55.334  1.00  0.00     0.176 C 
BRANCH  11  18
ATOM     18  N   UNL     1       6.705  45.382  50.871  1.00  0.00    -0.339 N 
ATOM     19  H   UNL     1       7.030  45.983  50.128  1.00  0.00     0.168 HD
BRANCH  18  20
ATOM     20  C   UNL     1       6.292  44.110  50.434  1.00  0.00     0.040 A 
ATOM     21  C   UNL     1       6.959  43.366  49.458  1.00  0.00     0.026 A 
ATOM     22  C   UNL     1       5.170  43.524  51.046  1.00  0.00     0.026 A 
ATOM     23  C   UNL     1       6.517  42.090  49.088  1.00  0.00     0.002 A 
ATOM     24  C   UNL     1       4.725  42.249  50.682  1.00  0.00     0.002 A 
ATOM     25  C   UNL     1       5.399  41.532  49.701  1.00  0.00     0.000 A 
ENDBRANCH  18  20
ENDBRANCH  11  18
ENDBRANCH   6   8
ENDBRANCH   1   6
TORSDOF 7
ENDMDL
MODEL 6
REMARK VINA RESULT:    -7.858      1.347      1.735
REMARK INTER + INTRA:         -12.061
REMARK INTER:                 -11.417
REMARK INTRA:                  -0.643
REMARK UNBOUND:                -0.988
REMARK SMILES COCCCNc1nc(Nc2ccccc2)c2cnn(C)c2n1
REMARK SMILES IDX 5 1 4 2 3 3 2 4 1 5 6 6 7 8 8 9 23 10 9 11 22 12 17 13 20 14
REMARK SMILES IDX 18 15 19 16 21 17 10 18 11 20 12 21 16 22 13 23 15 24 14 25
REMARK H PARENT 6 7 10 19
ROOT
ATOM      1  C   UNL     1       2.290  45.355  54.709  1.00  0.00     0.118 C 
ENDROOT
BRANCH   1   2
ATOM      2  C   UNL     1       0.886  45.249  55.312  1.00  0.00     0.050 C 
BRANCH   2   3
ATOM      3  C   UNL     1       0.859  45.330  56.837  1.00  0.00     0.161 C 
BRANCH   3   4
ATOM      4  O   UNL     1      -0.383  44.900  57.389  1.00  0.00    -0.385 OA
ATOM      5  C   UNL     1      -1.409  44.752  56.416  1.00  0.00     0.194 C 
ENDBRANCH   3   4
ENDBRANCH   2   3
ENDBRANCH   1   2
BRANCH   1   6
ATOM      6  N   UNL     1       2.738  44.136  54.059  1.00  0.00    -0.354 N 
ATOM      7  H   UNL     1       2.958  43.360  54.672  1.00  0.00     0.163 HD
BRANCH   6   8
ATOM      8  C   UNL     1       3.723  44.232  53.094  1.00  0.00     0.226 A 
ATOM      9  N   UNL     1       4.522  45.316  53.064  1.00  0.00    -0.195 NA
ATOM     10  N   UNL     1       3.801  43.187  52.261  1.00  0.00    -0.193 NA
ATOM     11  C   UNL     1       5.504  45.441  52.134  1.00  0.00     0.147 A 
ATOM     12  C   UNL     1       4.774  43.321  51.349  1.00  0.00     0.165 A 
ATOM     13  C   UNL     1       5.644  44.386  51.224  1.00  0.00     0.082 A 
ATOM     14  N   UNL     1       5.107  42.440  50.357  1.00  0.00    -0.250 N 
ATOM     15  C   UNL     1       6.464  44.038  50.130  1.00  0.00     0.149 A 
ATOM     16  N   UNL     1       6.148  42.853  49.597  1.00  0.00    -0.179 NA
ATOM     17  C   UNL     1       4.476  41.176  50.072  1.00  0.00     0.176 C 
BRANCH  11  18
ATOM     18  N   UNL     1       6.362  46.550  52.105  1.00  0.00    -0.339 N 
ATOM     19  H   UNL     1       5.978  47.351  51.626  1.00  0.00     0.168 HD
BRANCH  18  20
ATOM     20  C   UNL     1       7.622  46.785  52.684  1.00  0.00     0.040 A 
ATOM     21  C   UNL     1       7.809  47.186  54.009  1.00  0.00     0.026 A 
ATOM     22  C   UNL     1       8.770  46.556  51.905  1.00  0.00     0.026 A 
ATOM     23  C   UNL     1       9.092  47.372  54.538  1.00  0.00     0.002 A 
ATOM     24  C   UNL     1      10.054  46.739  52.428  1.00  0.00     0.002 A 
ATOM     25  C   UNL     1      10.214  47.149  53.746  1.00  0.00     0.000 A 
ENDBRANCH  18  20
ENDBRANCH  11  18
ENDBRANCH   6   8
ENDBRANCH   1   6
TORSDOF 7
ENDMDL
MODEL 7
REMARK VINA RESULT:    -7.781      1.505      1.814
REMARK INTER + INTRA:         -11.953
REMARK INTER:                 -10.879
REMARK INTRA:                  -1.074
REMARK UNBOUND:                -0.988
REMARK SMILES COCCCNc1nc(Nc2ccccc2)c2cnn(C)c2n1
REMARK SMILES IDX 5 1 4 2 3 3 2 4 1 5 6 6 7 8 8 9 23 10 9 11 22 12 17 13 20 14
REMARK SMILES IDX 18 15 19 16 21 17 10 18 11 20 12 21 16 22 13 23 15 24 14 25
REMARK H PARENT 6 7 10 19
ROOT
ATOM      1  C   UNL     1       2.430  46.355  53.270  1.00  0.00     0.118 C 
ENDROOT
BRANCH   1   2
ATOM      2  C   UNL     1       2.802  45.480  54.471  1.00  0.00     0.050 C 
BRANCH   2   3
ATOM      3  C   UNL     1       3.984  46.009  55.279  1.00  0.00     0.161 C 
BRANCH   3   4
ATOM      4  O   UNL     1       4.911  44.986  55.634  1.00  0.00    -0.385 OA
ATOM      5  C   UNL     1       5.792  44.635  54.574  1.00  0.00     0.194 C 
ENDBRANCH   3   4
ENDBRANCH   2   3
ENDBRANCH   1   2
BRANCH   1   6
ATOM      6  N   UNL     1       2.359  45.625  52.017  1.00  0.00    -0.354 N 
ATOM      7  H   UNL     1       1.622  44.934  51.946  1.00  0.00     0.163 HD
BRANCH   6   8
ATOM      8  C   UNL     1       3.525  45.083  51.507  1.00  0.00     0.226 A 
ATOM      9  N   UNL     1       4.618  45.858  51.379  1.00  0.00    -0.195 NA
ATOM     10  N   UNL     1       3.454  43.783  51.195  1.00  0.00    -0.193 NA
ATOM     11  C   UNL     1       5.782  45.358  50.887  1.00  0.00     0.147 A 
ATOM     12  C   UNL     1       4.607  43.301  50.712  1.00  0.00     0.165 A 
ATOM     13  C   UNL     1       5.783  44.003  50.535  1.00  0.00     0.082 A 
ATOM     14  N   UNL     1       4.862  42.023  50.297  1.00  0.00    -0.250 N 
ATOM     15  C   UNL     1       6.682  43.049  50.014  1.00  0.00     0.149 A 
ATOM     16  N   UNL     1       6.133  41.838  49.869  1.00  0.00    -0.179 NA
ATOM     17  C   UNL     1       3.939  40.916  50.279  1.00  0.00     0.176 C 
BRANCH  11  18
ATOM     18  N   UNL     1       6.938  46.144  50.772  1.00  0.00    -0.339 N 
ATOM     19  H   UNL     1       7.075  46.535  49.851  1.00  0.00     0.168 HD
BRANCH  18  20
ATOM     20  C   UNL     1       7.897  46.557  51.714  1.00  0.00     0.040 A 
ATOM     21  C   UNL     1       7.602  47.326  52.842  1.00  0.00     0.026 A 
ATOM     22  C   UNL     1       9.226  46.132  51.544  1.00  0.00     0.026 A 
ATOM     23  C   UNL     1       8.597  47.678  53.762  1.00  0.00     0.002 A 
ATOM     24  C   UNL     1      10.225  46.479  52.461  1.00  0.00     0.002 A 
ATOM     25  C   UNL     1       9.909  47.254  53.570  1.00  0.00     0.000 A 
ENDBRANCH  18  20
ENDBRANCH  11  18
ENDBRANCH   6   8
ENDBRANCH   1   6
TORSDOF 7
ENDMDL
MODEL 8
REMARK VINA RESULT:    -7.698      2.319      4.509
REMARK INTER + INTRA:         -11.836
REMARK INTER:                 -11.101
REMARK INTRA:                  -0.735
REMARK UNBOUND:                -0.988
REMARK SMILES COCCCNc1nc(Nc2ccccc2)c2cnn(C)c2n1
REMARK SMILES IDX 5 1 4 2 3 3 2 4 1 5 6 6 7 8 8 9 23 10 9 11 22 12 17 13 20 14
REMARK SMILES IDX 18 15 19 16 21 17 10 18 11 20 12 21 16 22 13 23 15 24 14 25
REMARK H PARENT 6 7 10 19
ROOT
ATOM      1  C   UNL     1       3.812  41.373  50.385  1.00  0.00     0.118 C 
ENDROOT
BRANCH   1   2
ATOM      2  C   UNL     1       4.715  41.151  49.169  1.00  0.00     0.050 C 
BRANCH   2   3
ATOM      3  C   UNL     1       6.177  41.526  49.407  1.00  0.00     0.161 C 
BRANCH   3   4
ATOM      4  O   UNL     1       6.594  42.640  48.622  1.00  0.00    -0.385 OA
ATOM      5  C   UNL     1       7.712  43.326  49.170  1.00  0.00     0.194 C 
ENDBRANCH   3   4
ENDBRANCH   2   3
ENDBRANCH   1   2
BRANCH   1   6
ATOM      6  N   UNL     1       4.491  41.991  51.510  1.00  0.00    -0.354 N 
ATOM      7  H   UNL     1       4.374  41.534  52.406  1.00  0.00     0.163 HD
BRANCH   6   8
ATOM      8  C   UNL     1       4.357  43.356  51.688  1.00  0.00     0.226 A 
ATOM      9  N   UNL     1       5.419  44.160  51.494  1.00  0.00    -0.195 NA
ATOM     10  N   UNL     1       3.129  43.761  52.033  1.00  0.00    -0.193 NA
ATOM     11  C   UNL     1       5.322  45.505  51.654  1.00  0.00     0.147 A 
ATOM     12  C   UNL     1       3.045  45.090  52.188  1.00  0.00     0.165 A 
ATOM     13  C   UNL     1       4.066  46.004  52.020  1.00  0.00     0.082 A 
ATOM     14  N   UNL     1       1.940  45.815  52.543  1.00  0.00    -0.250 N 
ATOM     15  C   UNL     1       3.464  47.251  52.290  1.00  0.00     0.149 A 
ATOM     16  N   UNL     1       2.168  47.148  52.605  1.00  0.00    -0.179 NA
ATOM     17  C   UNL     1       0.625  45.304  52.837  1.00  0.00     0.176 C 
BRANCH  11  18
ATOM     18  N   UNL     1       6.411  46.360  51.430  1.00  0.00    -0.339 N 
ATOM     19  H   UNL     1       6.329  46.915  50.591  1.00  0.00     0.168 HD
BRANCH  18  20
ATOM     20  C   UNL     1       7.556  46.651  52.194  1.00  0.00     0.040 A 
ATOM     21  C   UNL     1       7.517  47.161  53.494  1.00  0.00     0.026 A 
ATOM     22  C   UNL     1       8.817  46.368  51.642  1.00  0.00     0.026 A 
ATOM     23  C   UNL     1       8.693  47.400  54.216  1.00  0.00     0.002 A 
ATOM     24  C   UNL     1       9.995  46.603  52.359  1.00  0.00     0.002 A 
ATOM     25  C   UNL     1       9.932  47.121  53.647  1.00  0.00     0.000 A 
ENDBRANCH  18  20
ENDBRANCH  11  18
ENDBRANCH   6   8
ENDBRANCH   1   6
TORSDOF 7
ENDMDL
MODEL 9
REMARK VINA RESULT:    -7.675      2.153      4.697
REMARK INTER + INTRA:         -11.803
REMARK INTER:                 -10.770
REMARK INTRA:                  -1.033
REMARK UNBOUND:                -0.988
REMARK SMILES COCCCNc1nc(Nc2ccccc2)c2cnn(C)c2n1
REMARK SMILES IDX 5 1 4 2 3 3 2 4 1 5 6 6 7 8 8 9 23 10 9 11 22 12 17 13 20 14
REMARK SMILES IDX 18 15 19 16 21 17 10 18 11 20 12 21 16 22 13 23 15 24 14 25
REMARK H PARENT 6 7 10 19
ROOT
ATOM      1  C   UNL     1       4.120  41.730  51.056  1.00  0.00     0.118 C 
ENDROOT
BRANCH   1   2
ATOM      2  C   UNL     1       4.826  41.182  49.812  1.00  0.00     0.050 C 
BRANCH   2   3
ATOM      3  C   UNL     1       6.277  41.638  49.672  1.00  0.00     0.161 C 
BRANCH   3   4
ATOM      4  O   UNL     1       6.399  43.049  49.517  1.00  0.00    -0.385 OA
ATOM      5  C   UNL     1       7.728  43.472  49.245  1.00  0.00     0.194 C 
ENDBRANCH   3   4
ENDBRANCH   2   3
ENDBRANCH   1   2
BRANCH   1   6
ATOM      6  N   UNL     1       3.550  43.052  50.866  1.00  0.00    -0.354 N 
ATOM      7  H   UNL     1       3.653  43.452  49.941  1.00  0.00     0.163 HD
BRANCH   6   8
ATOM      8  C   UNL     1       3.832  44.028  51.805  1.00  0.00     0.226 A 
ATOM      9  N   UNL     1       4.829  44.903  51.576  1.00  0.00    -0.195 NA
ATOM     10  N   UNL     1       3.041  44.017  52.885  1.00  0.00    -0.193 NA
ATOM     11  C   UNL     1       5.129  45.878  52.473  1.00  0.00     0.147 A 
ATOM     12  C   UNL     1       3.346  44.983  53.762  1.00  0.00     0.165 A 
ATOM     13  C   UNL     1       4.345  45.928  53.632  1.00  0.00     0.082 A 
ATOM     14  N   UNL     1       2.738  45.237  54.961  1.00  0.00    -0.250 N 
ATOM     15  C   UNL     1       4.245  46.704  54.805  1.00  0.00     0.149 A 
ATOM     16  N   UNL     1       3.266  46.295  55.620  1.00  0.00    -0.179 NA
ATOM     17  C   UNL     1       1.639  44.511  55.546  1.00  0.00     0.176 C 
BRANCH  11  18
ATOM     18  N   UNL     1       6.147  46.815  52.239  1.00  0.00    -0.339 N 
ATOM     19  H   UNL     1       5.835  47.644  51.755  1.00  0.00     0.168 HD
BRANCH  18  20
ATOM     20  C   UNL     1       7.500  46.854  52.620  1.00  0.00     0.040 A 
ATOM     21  C   UNL     1       7.940  47.199  53.901  1.00  0.00     0.026 A 
ATOM     22  C   UNL     1       8.472  46.476  51.678  1.00  0.00     0.026 A 
ATOM     23  C   UNL     1       9.301  47.189  54.229  1.00  0.00     0.002 A 
ATOM     24  C   UNL     1       9.833  46.461  52.001  1.00  0.00     0.002 A 
ATOM     25  C   UNL     1      10.247  46.820  53.278  1.00  0.00     0.000 A 
ENDBRANCH  18  20
ENDBRANCH  11  18
ENDBRANCH   6   8
ENDBRANCH   1   6
TORSDOF 7
ENDMDL
MODEL 10
REMARK VINA RESULT:    -7.660      2.517      4.938
REMARK INTER + INTRA:         -11.782
REMARK INTER:                 -11.063
REMARK INTRA:                  -0.719
REMARK UNBOUND:                -0.988
REMARK SMILES COCCCNc1nc(Nc2ccccc2)c2cnn(C)c2n1
REMARK SMILES IDX 5 1 4 2 3 3 2 4 1 5 6 6 7 8 8 9 23 10 9 11 22 12 17 13 20 14
REMARK SMILES IDX 18 15 19 16 21 17 10 18 11 20 12 21 16 22 13 23 15 24 14 25
REMARK H PARENT 6 7 10 19
ROOT
ATOM      1  C   UNL     1       5.529  41.504  49.998  1.00  0.00     0.118 C 
ENDROOT
BRANCH   1   2
ATOM      2  C   UNL     1       5.006  41.148  48.603  1.00  0.00     0.050 C 
BRANCH   2   3
ATOM      3  C   UNL     1       3.686  40.380  48.614  1.00  0.00     0.161 C 
BRANCH   3   4
ATOM      4  O   UNL     1       3.009  40.431  47.361  1.00  0.00    -0.385 OA
ATOM      5  C   UNL     1       3.878  40.674  46.262  1.00  0.00     0.194 C 
ENDBRANCH   3   4
ENDBRANCH   2   3
ENDBRANCH   1   2
BRANCH   1   6
ATOM      6  N   UNL     1       4.496  41.976  50.903  1.00  0.00    -0.354 N 
ATOM      7  H   UNL     1       3.550  41.683  50.691  1.00  0.00     0.163 HD
BRANCH   6   8
ATOM      8  C   UNL     1       4.480  43.318  51.236  1.00  0.00     0.226 A 
ATOM      9  N   UNL     1       5.589  44.061  51.059  1.00  0.00    -0.195 NA
ATOM     10  N   UNL     1       3.310  43.769  51.704  1.00  0.00    -0.193 NA
ATOM     11  C   UNL     1       5.607  45.383  51.369  1.00  0.00     0.147 A 
ATOM     12  C   UNL     1       3.339  45.075  52.006  1.00  0.00     0.165 A 
ATOM     13  C   UNL     1       4.417  45.927  51.869  1.00  0.00     0.082 A 
ATOM     14  N   UNL     1       2.318  45.833  52.509  1.00  0.00    -0.250 N 
ATOM     15  C   UNL     1       3.932  47.175  52.312  1.00  0.00     0.149 A 
ATOM     16  N   UNL     1       2.652  47.130  52.699  1.00  0.00    -0.179 NA
ATOM     17  C   UNL     1       0.986  45.387  52.833  1.00  0.00     0.176 C 
BRANCH  11  18
ATOM     18  N   UNL     1       6.745  46.178  51.166  1.00  0.00    -0.339 N 
ATOM     19  H   UNL     1       6.740  46.682  50.292  1.00  0.00     0.168 HD
BRANCH  18  20
ATOM     20  C   UNL     1       7.851  46.470  51.984  1.00  0.00     0.040 A 
ATOM     21  C   UNL     1       9.174  46.178  51.640  1.00  0.00     0.026 A 
ATOM     22  C   UNL     1       7.627  47.140  53.199  1.00  0.00     0.026 A 
ATOM     23  C   UNL     1      10.236  46.522  52.484  1.00  0.00     0.002 A 
ATOM     24  C   UNL     1       8.685  47.488  54.045  1.00  0.00     0.002 A 
ATOM     25  C   UNL     1       9.991  47.177  53.686  1.00  0.00     0.000 A 
ENDBRANCH  18  20
ENDBRANCH  11  18
ENDBRANCH   6   8
ENDBRANCH   1   6
TORSDOF 7
ENDMDL
MODEL 11
REMARK VINA RESULT:    -7.545      2.729      5.277
REMARK INTER + INTRA:         -11.620
REMARK INTER:                 -10.911
REMARK INTRA:                  -0.709
REMARK UNBOUND:                -0.988
REMARK SMILES COCCCNc1nc(Nc2ccccc2)c2cnn(C)c2n1
REMARK SMILES IDX 5 1 4 2 3 3 2 4 1 5 6 6 7 8 8 9 23 10 9 11 22 12 17 13 20 14
REMARK SMILES IDX 18 15 19 16 21 17 10 18 11 20 12 21 16 22 13 23 15 24 14 25
REMARK H PARENT 6 7 10 19
ROOT
ATOM      1  C   UNL     1       5.359  41.203  48.093  1.00  0.00     0.118 C 
ENDROOT
BRANCH   1   2
ATOM      2  C   UNL     1       5.775  41.933  46.812  1.00  0.00     0.050 C 
BRANCH   2   3
ATOM      3  C   UNL     1       4.950  41.549  45.585  1.00  0.00     0.161 C 
BRANCH   3   4
ATOM      4  O   UNL     1       3.957  40.568  45.875  1.00  0.00    -0.385 OA
ATOM      5  C   UNL     1       3.319  40.055  44.712  1.00  0.00     0.194 C 
ENDBRANCH   3   4
ENDBRANCH   2   3
ENDBRANCH   1   2
BRANCH   1   6
ATOM      6  N   UNL     1       6.180  41.535  49.244  1.00  0.00    -0.354 N 
ATOM      7  H   UNL     1       6.439  40.761  49.844  1.00  0.00     0.163 HD
BRANCH   6   8
ATOM      8  C   UNL     1       5.797  42.601  50.037  1.00  0.00     0.226 A 
ATOM      9  N   UNL     1       6.546  43.719  50.056  1.00  0.00    -0.195 NA
ATOM     10  N   UNL     1       4.662  42.415  50.722  1.00  0.00    -0.193 NA
ATOM     11  C   UNL     1       6.196  44.788  50.818  1.00  0.00     0.147 A 
ATOM     12  C   UNL     1       4.327  43.475  51.470  1.00  0.00     0.165 A 
ATOM     13  C   UNL     1       5.020  44.666  51.568  1.00  0.00     0.082 A 
ATOM     14  N   UNL     1       3.238  43.603  52.288  1.00  0.00    -0.250 N 
ATOM     15  C   UNL     1       4.256  45.440  52.465  1.00  0.00     0.149 A 
ATOM     16  N   UNL     1       3.165  44.804  52.906  1.00  0.00    -0.179 NA
ATOM     17  C   UNL     1       2.215  42.616  52.530  1.00  0.00     0.176 C 
BRANCH  11  18
ATOM     18  N   UNL     1       6.950  45.971  50.829  1.00  0.00    -0.339 N 
ATOM     19  H   UNL     1       6.682  46.633  50.116  1.00  0.00     0.168 HD
BRANCH  18  20
ATOM     20  C   UNL     1       7.953  46.443  51.695  1.00  0.00     0.040 A 
ATOM     21  C   UNL     1       7.727  47.368  52.718  1.00  0.00     0.026 A 
ATOM     22  C   UNL     1       9.251  45.922  51.563  1.00  0.00     0.026 A 
ATOM     23  C   UNL     1       8.761  47.776  53.569  1.00  0.00     0.002 A 
ATOM     24  C   UNL     1      10.288  46.324  52.412  1.00  0.00     0.002 A 
ATOM     25  C   UNL     1      10.042  47.254  53.416  1.00  0.00     0.000 A 
ENDBRANCH  18  20
ENDBRANCH  11  18
ENDBRANCH   6   8
ENDBRANCH   1   6
TORSDOF 7
ENDMDL
MODEL 12
REMARK VINA RESULT:    -7.483      2.395      4.935
REMARK INTER + INTRA:         -11.533
REMARK INTER:                 -10.795
REMARK INTRA:                  -0.738
REMARK UNBOUND:                -0.988
REMARK SMILES COCCCNc1nc(Nc2ccccc2)c2cnn(C)c2n1
REMARK SMILES IDX 5 1 4 2 3 3 2 4 1 5 6 6 7 8 8 9 23 10 9 11 22 12 17 13 20 14
REMARK SMILES IDX 18 15 19 16 21 17 10 18 11 20 12 21 16 22 13 23 15 24 14 25
REMARK H PARENT 6 7 10 19
ROOT
ATOM      1  C   UNL     1       5.788  41.667  49.319  1.00  0.00     0.118 C 
ENDROOT
BRANCH   1   2
ATOM      2  C   UNL     1       5.080  41.148  48.063  1.00  0.00     0.050 C 
BRANCH   2   3
ATOM      3  C   UNL     1       3.769  40.418  48.349  1.00  0.00     0.161 C 
BRANCH   3   4
ATOM      4  O   UNL     1       2.892  40.402  47.226  1.00  0.00    -0.385 OA
ATOM      5  C   UNL     1       3.562  40.591  45.986  1.00  0.00     0.194 C 
ENDBRANCH   3   4
ENDBRANCH   2   3
ENDBRANCH   1   2
BRANCH   1   6
ATOM      6  N   UNL     1       4.961  41.626  50.512  1.00  0.00    -0.354 N 
ATOM      7  H   UNL     1       4.083  41.125  50.428  1.00  0.00     0.163 HD
BRANCH   6   8
ATOM      8  C   UNL     1       4.734  42.807  51.193  1.00  0.00     0.226 A 
ATOM      9  N   UNL     1       5.602  43.828  51.062  1.00  0.00    -0.195 NA
ATOM     10  N   UNL     1       3.619  42.826  51.933  1.00  0.00    -0.193 NA
ATOM     11  C   UNL     1       5.407  45.005  51.712  1.00  0.00     0.147 A 
ATOM     12  C   UNL     1       3.437  43.992  52.569  1.00  0.00     0.165 A 
ATOM     13  C   UNL     1       4.261  45.099  52.510  1.00  0.00     0.082 A 
ATOM     14  N   UNL     1       2.407  44.330  53.404  1.00  0.00    -0.250 N 
ATOM     15  C   UNL     1       3.628  46.047  53.341  1.00  0.00     0.149 A 
ATOM     16  N   UNL     1       2.495  45.591  53.886  1.00  0.00    -0.179 NA
ATOM     17  C   UNL     1       1.294  43.498  53.788  1.00  0.00     0.176 C 
BRANCH  11  18
ATOM     18  N   UNL     1       6.287  46.088  51.566  1.00  0.00    -0.339 N 
ATOM     19  H   UNL     1       5.991  46.764  50.878  1.00  0.00     0.168 HD
BRANCH  18  20
ATOM     20  C   UNL     1       7.460  46.451  52.252  1.00  0.00     0.040 A 
ATOM     21  C   UNL     1       7.483  46.897  53.576  1.00  0.00     0.026 A 
ATOM     22  C   UNL     1       8.692  46.312  51.590  1.00  0.00     0.026 A 
ATOM     23  C   UNL     1       8.687  47.213  54.216  1.00  0.00     0.002 A 
ATOM     24  C   UNL     1       9.899  46.624  52.225  1.00  0.00     0.002 A 
ATOM     25  C   UNL     1       9.895  47.077  53.539  1.00  0.00     0.000 A 
ENDBRANCH  18  20
ENDBRANCH  11  18
ENDBRANCH   6   8
ENDBRANCH   1   6
TORSDOF 7
ENDMDL
MODEL 13
REMARK VINA RESULT:    -7.376      2.454      7.017
REMARK INTER + INTRA:         -11.382
REMARK INTER:                 -10.720
REMARK INTRA:                  -0.662
REMARK UNBOUND:                -0.988
REMARK SMILES COCCCNc1nc(Nc2ccccc2)c2cnn(C)c2n1
REMARK SMILES IDX 5 1 4 2 3 3 2 4 1 5 6 6 7 8 8 9 23 10 9 11 22 12 17 13 20 14
REMARK SMILES IDX 18 15 19 16 21 17 10 18 11 20 12 21 16 22 13 23 15 24 14 25
REMARK H PARENT 6 7 10 19
ROOT
ATOM      1  C   UNL     1       7.636  46.870  51.584  1.00  0.00     0.118 C 
ENDROOT
BRANCH   1   2
ATOM      2  C   UNL     1       8.960  47.515  52.004  1.00  0.00     0.050 C 
BRANCH   2   3
ATOM      3  C   UNL     1       9.943  46.543  52.654  1.00  0.00     0.161 C 
BRANCH   3   4
ATOM      4  O   UNL     1      10.066  46.743  54.060  1.00  0.00    -0.385 OA
ATOM      5  C   UNL     1       9.281  47.825  54.544  1.00  0.00     0.194 C 
ENDBRANCH   3   4
ENDBRANCH   2   3
ENDBRANCH   1   2
BRANCH   1   6
ATOM      6  N   UNL     1       7.798  45.736  50.691  1.00  0.00    -0.354 N 
ATOM      7  H   UNL     1       8.011  45.957  49.725  1.00  0.00     0.163 HD
BRANCH   6   8
ATOM      8  C   UNL     1       6.840  44.739  50.716  1.00  0.00     0.226 A 
ATOM      9  N   UNL     1       6.902  43.735  49.822  1.00  0.00    -0.195 NA
ATOM     10  N   UNL     1       5.918  44.867  51.678  1.00  0.00    -0.193 NA
ATOM     11  C   UNL     1       5.982  42.735  49.822  1.00  0.00     0.147 A 
ATOM     12  C   UNL     1       5.016  43.876  51.668  1.00  0.00     0.165 A 
ATOM     13  C   UNL     1       4.981  42.803  50.799  1.00  0.00     0.082 A 
ATOM     14  N   UNL     1       3.948  43.717  52.509  1.00  0.00    -0.250 N 
ATOM     15  C   UNL     1       3.857  42.058  51.211  1.00  0.00     0.149 A 
ATOM     16  N   UNL     1       3.223  42.604  52.255  1.00  0.00    -0.179 NA
ATOM     17  C   UNL     1       3.556  44.591  53.586  1.00  0.00     0.176 C 
BRANCH  11  18
ATOM     18  N   UNL     1       6.046  41.667  48.915  1.00  0.00    -0.339 N 
ATOM     19  H   UNL     1       6.720  40.959  49.166  1.00  0.00     0.168 HD
BRANCH  18  20
ATOM     20  C   UNL     1       5.294  41.355  47.768  1.00  0.00     0.040 A 
ATOM     21  C   UNL     1       4.144  40.563  47.781  1.00  0.00     0.026 A 
ATOM     22  C   UNL     1       5.688  41.912  46.539  1.00  0.00     0.026 A 
ATOM     23  C   UNL     1       3.419  40.315  46.609  1.00  0.00     0.002 A 
ATOM     24  C   UNL     1       4.967  41.669  45.365  1.00  0.00     0.002 A 
ATOM     25  C   UNL     1       3.832  40.868  45.401  1.00  0.00     0.000 A 
ENDBRANCH  18  20
ENDBRANCH  11  18
ENDBRANCH   6   8
ENDBRANCH   1   6
TORSDOF 7
ENDMDL
MODEL 14
REMARK VINA RESULT:    -7.326      2.384      3.318
REMARK INTER + INTRA:         -11.312
REMARK INTER:                 -10.727
REMARK INTRA:                  -0.585
REMARK UNBOUND:                -0.988
REMARK SMILES COCCCNc1nc(Nc2ccccc2)c2cnn(C)c2n1
REMARK SMILES IDX 5 1 4 2 3 3 2 4 1 5 6 6 7 8 8 9 23 10 9 11 22 12 17 13 20 14
REMARK SMILES IDX 18 15 19 16 21 17 10 18 11 20 12 21 16 22 13 23 15 24 14 25
REMARK H PARENT 6 7 10 19
ROOT
ATOM      1  C   UNL     1       1.484  45.365  56.286  1.00  0.00     0.118 C 
ENDROOT
BRANCH   1   2
ATOM      2  C   UNL     1       0.640  45.890  57.451  1.00  0.00     0.050 C 
BRANCH   2   3
ATOM      3  C   UNL     1      -0.818  46.162  57.086  1.00  0.00     0.161 C 
BRANCH   3   4
ATOM      4  O   UNL     1      -1.204  47.512  57.328  1.00  0.00    -0.385 OA
ATOM      5  C   UNL     1      -2.234  47.637  58.299  1.00  0.00     0.194 C 
ENDBRANCH   3   4
ENDBRANCH   2   3
ENDBRANCH   1   2
BRANCH   1   6
ATOM      6  N   UNL     1       2.758  46.046  56.137  1.00  0.00    -0.354 N 
ATOM      7  H   UNL     1       2.764  47.033  56.367  1.00  0.00     0.163 HD
BRANCH   6   8
ATOM      8  C   UNL     1       3.469  45.859  54.967  1.00  0.00     0.226 A 
ATOM      9  N   UNL     1       4.459  46.712  54.646  1.00  0.00    -0.195 NA
ATOM     10  N   UNL     1       3.099  44.793  54.246  1.00  0.00    -0.193 NA
ATOM     11  C   UNL     1       5.182  46.556  53.507  1.00  0.00     0.147 A 
ATOM     12  C   UNL     1       3.820  44.648  53.125  1.00  0.00     0.165 A 
ATOM     13  C   UNL     1       4.850  45.462  52.698  1.00  0.00     0.082 A 
ATOM     14  N   UNL     1       3.689  43.672  52.176  1.00  0.00    -0.250 N 
ATOM     15  C   UNL     1       5.272  44.880  51.484  1.00  0.00     0.149 A 
ATOM     16  N   UNL     1       4.575  43.786  51.159  1.00  0.00    -0.179 NA
ATOM     17  C   UNL     1       2.737  42.589  52.171  1.00  0.00     0.176 C 
BRANCH  11  18
ATOM     18  N   UNL     1       6.234  47.420  53.170  1.00  0.00    -0.339 N 
ATOM     19  H   UNL     1       5.941  48.368  52.986  1.00  0.00     0.168 HD
BRANCH  18  20
ATOM     20  C   UNL     1       7.628  47.236  53.119  1.00  0.00     0.040 A 
ATOM     21  C   UNL     1       8.464  47.295  54.238  1.00  0.00     0.026 A 
ATOM     22  C   UNL     1       8.217  46.925  51.882  1.00  0.00     0.026 A 
ATOM     23  C   UNL     1       9.841  47.071  54.128  1.00  0.00     0.002 A 
ATOM     24  C   UNL     1       9.593  46.698  51.766  1.00  0.00     0.002 A 
ATOM     25  C   UNL     1      10.405  46.773  52.892  1.00  0.00     0.000 A 
ENDBRANCH  18  20
ENDBRANCH  11  18
ENDBRANCH   6   8
ENDBRANCH   1   6
TORSDOF 7
ENDMDL
MODEL 15
REMARK VINA RESULT:    -7.229      2.101      5.246
REMARK INTER + INTRA:         -11.174
REMARK INTER:                 -10.745
REMARK INTRA:                  -0.430
REMARK UNBOUND:                -0.988
REMARK SMILES COCCCNc1nc(Nc2ccccc2)c2cnn(C)c2n1
REMARK SMILES IDX 5 1 4 2 3 3 2 4 1 5 6 6 7 8 8 9 23 10 9 11 22 12 17 13 20 14
REMARK SMILES IDX 18 15 19 16 21 17 10 18 11 20 12 21 16 22 13 23 15 24 14 25
REMARK H PARENT 6 7 10 19
ROOT
ATOM      1  C   UNL     1       5.358  45.218  55.371  1.00  0.00     0.118 C 
ENDROOT
BRANCH   1   2
ATOM      2  C   UNL     1       5.729  46.542  54.696  1.00  0.00     0.050 C 
BRANCH   2   3
ATOM      3  C   UNL     1       7.174  46.602  54.204  1.00  0.00     0.161 C 
BRANCH   3   4
ATOM      4  O   UNL     1       7.949  47.581  54.891  1.00  0.00    -0.385 OA
ATOM      5  C   UNL     1       9.306  47.620  54.469  1.00  0.00     0.194 C 
ENDBRANCH   3   4
ENDBRANCH   2   3
ENDBRANCH   1   2
BRANCH   1   6
ATOM      6  N   UNL     1       3.934  44.936  55.355  1.00  0.00    -0.354 N 
ATOM      7  H   UNL     1       3.583  44.378  56.125  1.00  0.00     0.163 HD
BRANCH   6   8
ATOM      8  C   UNL     1       3.371  44.474  54.180  1.00  0.00     0.226 A 
ATOM      9  N   UNL     1       4.168  44.078  53.170  1.00  0.00    -0.195 NA
ATOM     10  N   UNL     1       2.032  44.449  54.168  1.00  0.00    -0.193 NA
ATOM     11  C   UNL     1       3.649  43.613  52.004  1.00  0.00     0.147 A 
ATOM     12  C   UNL     1       1.532  43.989  53.013  1.00  0.00     0.165 A 
ATOM     13  C   UNL     1       2.253  43.561  51.915  1.00  0.00     0.082 A 
ATOM     14  N   UNL     1       0.213  43.846  52.679  1.00  0.00    -0.250 N 
ATOM     15  C   UNL     1       1.268  43.176  50.981  1.00  0.00     0.149 A 
ATOM     16  N   UNL     1       0.022  43.341  51.438  1.00  0.00    -0.179 NA
ATOM     17  C   UNL     1      -0.929  44.170  53.497  1.00  0.00     0.176 C 
BRANCH  11  18
ATOM     18  N   UNL     1       4.465  43.171  50.952  1.00  0.00    -0.339 N 
ATOM     19  H   UNL     1       4.043  42.453  50.382  1.00  0.00     0.168 HD
BRANCH  18  20
ATOM     20  C   UNL     1       5.725  43.594  50.492  1.00  0.00     0.040 A 
ATOM     21  C   UNL     1       6.562  42.818  49.685  1.00  0.00     0.026 A 
ATOM     22  C   UNL     1       6.154  44.893  50.817  1.00  0.00     0.026 A 
ATOM     23  C   UNL     1       7.792  43.309  49.232  1.00  0.00     0.002 A 
ATOM     24  C   UNL     1       7.382  45.388  50.365  1.00  0.00     0.002 A 
ATOM     25  C   UNL     1       8.202  44.594  49.573  1.00  0.00     0.000 A 
ENDBRANCH  18  20
ENDBRANCH  11  18
ENDBRANCH   6   8
ENDBRANCH   1   6
TORSDOF 7
ENDMDL
MODEL 16
REMARK VINA RESULT:    -7.211      2.141      5.912
REMARK INTER + INTRA:         -11.150
REMARK INTER:                 -10.504
REMARK INTRA:                  -0.646
REMARK UNBOUND:                -0.988
REMARK SMILES COCCCNc1nc(Nc2ccccc2)c2cnn(C)c2n1
REMARK SMILES IDX 5 1 4 2 3 3 2 4 1 5 6 6 7 8 8 9 23 10 9 11 22 12 17 13 20 14
REMARK SMILES IDX 18 15 19 16 21 17 10 18 11 20 12 21 16 22 13 23 15 24 14 25
REMARK H PARENT 6 7 10 19
ROOT
ATOM      1  C   UNL     1       9.784  46.673  51.916  1.00  0.00     0.118 C 
ENDROOT
BRANCH   1   2
ATOM      2  C   UNL     1       9.922  46.728  53.440  1.00  0.00     0.050 C 
BRANCH   2   3
ATOM      3  C   UNL     1       9.196  47.906  54.086  1.00  0.00     0.161 C 
BRANCH   3   4
ATOM      4  O   UNL     1       9.482  48.034  55.476  1.00  0.00    -0.385 OA
ATOM      5  C   UNL     1      10.747  47.498  55.841  1.00  0.00     0.194 C 
ENDBRANCH   3   4
ENDBRANCH   2   3
ENDBRANCH   1   2
BRANCH   1   6
ATOM      6  N   UNL     1       8.555  47.268  51.421  1.00  0.00    -0.354 N 
ATOM      7  H   UNL     1       8.346  48.200  51.758  1.00  0.00     0.163 HD
BRANCH   6   8
ATOM      8  C   UNL     1       7.399  46.512  51.461  1.00  0.00     0.226 A 
ATOM      9  N   UNL     1       6.317  46.984  52.110  1.00  0.00    -0.195 NA
ATOM     10  N   UNL     1       7.464  45.345  50.809  1.00  0.00    -0.193 NA
ATOM     11  C   UNL     1       5.162  46.271  52.165  1.00  0.00     0.147 A 
ATOM     12  C   UNL     1       6.319  44.650  50.870  1.00  0.00     0.165 A 
ATOM     13  C   UNL     1       5.156  45.035  51.507  1.00  0.00     0.082 A 
ATOM     14  N   UNL     1       6.062  43.425  50.318  1.00  0.00    -0.250 N 
ATOM     15  C   UNL     1       4.261  43.971  51.269  1.00  0.00     0.149 A 
ATOM     16  N   UNL     1       4.801  42.987  50.541  1.00  0.00    -0.179 NA
ATOM     17  C   UNL     1       6.974  42.609  49.556  1.00  0.00     0.176 C 
BRANCH  11  18
ATOM     18  N   UNL     1       4.018  46.759  52.813  1.00  0.00    -0.339 N 
ATOM     19  H   UNL     1       3.761  47.695  52.538  1.00  0.00     0.168 HD
BRANCH  18  20
ATOM     20  C   UNL     1       3.116  46.163  53.713  1.00  0.00     0.040 A 
ATOM     21  C   UNL     1       3.427  45.858  55.041  1.00  0.00     0.026 A 
ATOM     22  C   UNL     1       1.807  45.903  53.274  1.00  0.00     0.026 A 
ATOM     23  C   UNL     1       2.474  45.294  55.898  1.00  0.00     0.002 A 
ATOM     24  C   UNL     1       0.850  45.342  54.127  1.00  0.00     0.002 A 
ATOM     25  C   UNL     1       1.186  45.036  55.440  1.00  0.00     0.000 A 
ENDBRANCH  18  20
ENDBRANCH  11  18
ENDBRANCH   6   8
ENDBRANCH   1   6
TORSDOF 7
ENDMDL
MODEL 17
REMARK VINA RESULT:    -7.194      2.778      6.004
REMARK INTER + INTRA:         -11.126
REMARK INTER:                 -10.239
REMARK INTRA:                  -0.887
REMARK UNBOUND:                -0.988
REMARK SMILES COCCCNc1nc(Nc2ccccc2)c2cnn(C)c2n1
REMARK SMILES IDX 5 1 4 2 3 3 2 4 1 5 6 6 7 8 8 9 23 10 9 11 22 12 17 13 20 14
REMARK SMILES IDX 18 15 19 16 21 17 10 18 11 20 12 21 16 22 13 23 15 24 14 25
REMARK H PARENT 6 7 10 19
ROOT
ATOM      1  C   UNL     1       4.969  45.479  55.223  1.00  0.00     0.118 C 
ENDROOT
BRANCH   1   2
ATOM      2  C   UNL     1       5.578  46.765  54.655  1.00  0.00     0.050 C 
BRANCH   2   3
ATOM      3  C   UNL     1       5.166  47.061  53.215  1.00  0.00     0.161 C 
BRANCH   3   4
ATOM      4  O   UNL     1       3.880  47.668  53.123  1.00  0.00    -0.385 OA
ATOM      5  C   UNL     1       3.122  47.212  52.010  1.00  0.00     0.194 C 
ENDBRANCH   3   4
ENDBRANCH   2   3
ENDBRANCH   1   2
BRANCH   1   6
ATOM      6  N   UNL     1       3.529  45.544  55.396  1.00  0.00    -0.354 N 
ATOM      7  H   UNL     1       3.195  45.530  56.353  1.00  0.00     0.163 HD
BRANCH   6   8
ATOM      8  C   UNL     1       2.739  44.700  54.639  1.00  0.00     0.226 A 
ATOM      9  N   UNL     1       3.287  44.013  53.619  1.00  0.00    -0.195 NA
ATOM     10  N   UNL     1       1.458  44.633  55.020  1.00  0.00    -0.193 NA
ATOM     11  C   UNL     1       2.542  43.170  52.857  1.00  0.00     0.147 A 
ATOM     12  C   UNL     1       0.733  43.798  54.262  1.00  0.00     0.165 A 
ATOM     13  C   UNL     1       1.188  43.050  53.195  1.00  0.00     0.082 A 
ATOM     14  N   UNL     1      -0.600  43.513  54.384  1.00  0.00    -0.250 N 
ATOM     15  C   UNL     1       0.049  42.346  52.753  1.00  0.00     0.149 A 
ATOM     16  N   UNL     1      -1.045  42.617  53.473  1.00  0.00    -0.179 NA
ATOM     17  C   UNL     1      -1.518  44.058  55.353  1.00  0.00     0.176 C 
BRANCH  11  18
ATOM     18  N   UNL     1       3.102  42.426  51.808  1.00  0.00    -0.339 N 
ATOM     19  H   UNL     1       2.492  41.708  51.446  1.00  0.00     0.168 HD
BRANCH  18  20
ATOM     20  C   UNL     1       4.318  42.543  51.112  1.00  0.00     0.040 A 
ATOM     21  C   UNL     1       4.978  41.469  50.509  1.00  0.00     0.026 A 
ATOM     22  C   UNL     1       4.885  43.821  50.965  1.00  0.00     0.026 A 
ATOM     23  C   UNL     1       6.171  41.655  49.801  1.00  0.00     0.002 A 
ATOM     24  C   UNL     1       6.076  44.013  50.257  1.00  0.00     0.002 A 
ATOM     25  C   UNL     1       6.720  42.927  49.676  1.00  0.00     0.000 A 
ENDBRANCH  18  20
ENDBRANCH  11  18
ENDBRANCH   6   8
ENDBRANCH   1   6
TORSDOF 7
ENDMDL
MODEL 18
REMARK VINA RESULT:    -7.144      2.300      6.219
REMARK INTER + INTRA:         -11.055
REMARK INTER:                 -10.654
REMARK INTRA:                  -0.401
REMARK UNBOUND:                -0.988
REMARK SMILES COCCCNc1nc(Nc2ccccc2)c2cnn(C)c2n1
REMARK SMILES IDX 5 1 4 2 3 3 2 4 1 5 6 6 7 8 8 9 23 10 9 11 22 12 17 13 20 14
REMARK SMILES IDX 18 15 19 16 21 17 10 18 11 20 12 21 16 22 13 23 15 24 14 25
REMARK H PARENT 6 7 10 19
ROOT
ATOM      1  C   UNL     1       4.186  47.351  53.926  1.00  0.00     0.118 C 
ENDROOT
BRANCH   1   2
ATOM      2  C   UNL     1       5.644  47.173  53.494  1.00  0.00     0.050 C 
BRANCH   2   3
ATOM      3  C   UNL     1       6.534  46.546  54.565  1.00  0.00     0.161 C 
BRANCH   3   4
ATOM      4  O   UNL     1       7.638  47.375  54.920  1.00  0.00    -0.385 OA
ATOM      5  C   UNL     1       8.754  47.228  54.051  1.00  0.00     0.194 C 
ENDBRANCH   3   4
ENDBRANCH   2   3
ENDBRANCH   1   2
BRANCH   1   6
ATOM      6  N   UNL     1       3.726  46.335  54.856  1.00  0.00    -0.354 N 
ATOM      7  H   UNL     1       4.429  45.947  55.474  1.00  0.00     0.163 HD
BRANCH   6   8
ATOM      8  C   UNL     1       2.947  45.303  54.368  1.00  0.00     0.226 A 
ATOM      9  N   UNL     1       3.474  44.430  53.490  1.00  0.00    -0.195 NA
ATOM     10  N   UNL     1       1.698  45.262  54.850  1.00  0.00    -0.193 NA
ATOM     11  C   UNL     1       2.739  43.400  52.993  1.00  0.00     0.147 A 
ATOM     12  C   UNL     1       0.983  44.243  54.354  1.00  0.00     0.165 A 
ATOM     13  C   UNL     1       1.420  43.294  53.450  1.00  0.00     0.082 A 
ATOM     14  N   UNL     1      -0.318  43.928  54.635  1.00  0.00    -0.250 N 
ATOM     15  C   UNL     1       0.303  42.453  53.262  1.00  0.00     0.149 A 
ATOM     16  N   UNL     1      -0.760  42.827  53.984  1.00  0.00    -0.179 NA
ATOM     17  C   UNL     1      -1.208  44.633  55.523  1.00  0.00     0.176 C 
BRANCH  11  18
ATOM     18  N   UNL     1       3.280  42.466  52.098  1.00  0.00    -0.339 N 
ATOM     19  H   UNL     1       2.786  41.585  52.079  1.00  0.00     0.168 HD
BRANCH  18  20
ATOM     20  C   UNL     1       4.329  42.549  51.165  1.00  0.00     0.040 A 
ATOM     21  C   UNL     1       5.107  43.693  50.967  1.00  0.00     0.026 A 
ATOM     22  C   UNL     1       4.653  41.403  50.419  1.00  0.00     0.026 A 
ATOM     23  C   UNL     1       6.160  43.703  50.044  1.00  0.00     0.002 A 
ATOM     24  C   UNL     1       5.706  41.408  49.497  1.00  0.00     0.002 A 
ATOM     25  C   UNL     1       6.459  42.561  49.309  1.00  0.00     0.000 A 
ENDBRANCH  18  20
ENDBRANCH  11  18
ENDBRANCH   6   8
ENDBRANCH   1   6
TORSDOF 7
ENDMDL
MODEL 19
REMARK VINA RESULT:    -7.127      2.368      6.466
REMARK INTER + INTRA:         -11.031
REMARK INTER:                 -10.202
REMARK INTRA:                  -0.828
REMARK UNBOUND:                -0.988
REMARK SMILES COCCCNc1nc(Nc2ccccc2)c2cnn(C)c2n1
REMARK SMILES IDX 5 1 4 2 3 3 2 4 1 5 6 6 7 8 8 9 23 10 9 11 22 12 17 13 20 14
REMARK SMILES IDX 18 15 19 16 21 17 10 18 11 20 12 21 16 22 13 23 15 24 14 25
REMARK H PARENT 6 7 10 19
ROOT
ATOM      1  C   UNL     1       7.899  43.526  49.477  1.00  0.00     0.118 C 
ENDROOT
BRANCH   1   2
ATOM      2  C   UNL     1       6.639  42.812  48.978  1.00  0.00     0.050 C 
BRANCH   2   3
ATOM      3  C   UNL     1       6.387  41.462  49.647  1.00  0.00     0.161 C 
BRANCH   3   4
ATOM      4  O   UNL     1       5.021  41.061  49.580  1.00  0.00    -0.385 OA
ATOM      5  C   UNL     1       4.256  41.485  50.701  1.00  0.00     0.194 C 
ENDBRANCH   3   4
ENDBRANCH   2   3
ENDBRANCH   1   2
BRANCH   1   6
ATOM      6  N   UNL     1       7.748  44.966  49.584  1.00  0.00    -0.354 N 
ATOM      7  H   UNL     1       8.556  45.518  49.325  1.00  0.00     0.163 HD
BRANCH   6   8
ATOM      8  C   UNL     1       7.212  45.484  50.749  1.00  0.00     0.226 A 
ATOM      9  N   UNL     1       5.876  45.496  50.919  1.00  0.00    -0.195 NA
ATOM     10  N   UNL     1       8.111  45.926  51.636  1.00  0.00    -0.193 NA
ATOM     11  C   UNL     1       5.316  45.992  52.052  1.00  0.00     0.147 A 
ATOM     12  C   UNL     1       7.547  46.412  52.750  1.00  0.00     0.165 A 
ATOM     13  C   UNL     1       6.196  46.477  53.027  1.00  0.00     0.082 A 
ATOM     14  N   UNL     1       8.183  46.943  53.839  1.00  0.00    -0.250 N 
ATOM     15  C   UNL     1       6.132  47.057  54.312  1.00  0.00     0.149 A 
ATOM     16  N   UNL     1       7.337  47.340  54.818  1.00  0.00    -0.179 NA
ATOM     17  C   UNL     1       9.604  47.103  54.020  1.00  0.00     0.176 C 
BRANCH  11  18
ATOM     18  N   UNL     1       3.928  45.988  52.258  1.00  0.00    -0.339 N 
ATOM     19  H   UNL     1       3.535  46.905  52.412  1.00  0.00     0.168 HD
BRANCH  18  20
ATOM     20  C   UNL     1       2.969  44.960  52.209  1.00  0.00     0.040 A 
ATOM     21  C   UNL     1       2.779  44.022  53.227  1.00  0.00     0.026 A 
ATOM     22  C   UNL     1       2.113  44.896  51.096  1.00  0.00     0.026 A 
ATOM     23  C   UNL     1       1.785  43.041  53.134  1.00  0.00     0.002 A 
ATOM     24  C   UNL     1       1.117  43.919  50.998  1.00  0.00     0.002 A 
ATOM     25  C   UNL     1       0.954  42.990  52.019  1.00  0.00     0.000 A 
ENDBRANCH  18  20
ENDBRANCH  11  18
ENDBRANCH   6   8
ENDBRANCH   1   6
TORSDOF 7
ENDMDL
MODEL 20
REMARK VINA RESULT:    -7.064      2.427      6.451
REMARK INTER + INTRA:         -10.942
REMARK INTER:                 -10.549
REMARK INTRA:                  -0.393
REMARK UNBOUND:                -0.988
REMARK SMILES COCCCNc1nc(Nc2ccccc2)c2cnn(C)c2n1
REMARK SMILES IDX 5 1 4 2 3 3 2 4 1 5 6 6 7 8 8 9 23 10 9 11 22 12 17 13 20 14
REMARK SMILES IDX 18 15 19 16 21 17 10 18 11 20 12 21 16 22 13 23 15 24 14 25
REMARK H PARENT 6 7 10 19
ROOT
ATOM      1  C   UNL     1       6.991  46.400  54.424  1.00  0.00     0.118 C 
ENDROOT
BRANCH   1   2
ATOM      2  C   UNL     1       7.573  47.205  53.258  1.00  0.00     0.050 C 
BRANCH   2   3
ATOM      3  C   UNL     1       8.902  47.886  53.578  1.00  0.00     0.161 C 
BRANCH   3   4
ATOM      4  O   UNL     1      10.015  47.002  53.465  1.00  0.00    -0.385 OA
ATOM      5  C   UNL     1      10.108  46.377  52.192  1.00  0.00     0.194 C 
ENDBRANCH   3   4
ENDBRANCH   2   3
ENDBRANCH   1   2
BRANCH   1   6
ATOM      6  N   UNL     1       5.654  46.815  54.807  1.00  0.00    -0.354 N 
ATOM      7  H   UNL     1       5.539  47.111  55.769  1.00  0.00     0.163 HD
BRANCH   6   8
ATOM      8  C   UNL     1       4.591  46.000  54.465  1.00  0.00     0.226 A 
ATOM      9  N   UNL     1       4.675  45.221  53.370  1.00  0.00    -0.195 NA
ATOM     10  N   UNL     1       3.546  46.054  55.300  1.00  0.00    -0.193 NA
ATOM     11  C   UNL     1       3.653  44.404  53.006  1.00  0.00     0.147 A 
ATOM     12  C   UNL     1       2.544  45.244  54.932  1.00  0.00     0.165 A 
ATOM     13  C   UNL     1       2.522  44.410  53.831  1.00  0.00     0.082 A 
ATOM     14  N   UNL     1       1.342  45.073  55.562  1.00  0.00    -0.250 N 
ATOM     15  C   UNL     1       1.263  43.778  53.900  1.00  0.00     0.149 A 
ATOM     16  N   UNL     1       0.537  44.170  54.953  1.00  0.00    -0.179 NA
ATOM     17  C   UNL     1       0.888  45.737  56.758  1.00  0.00     0.176 C 
BRANCH  11  18
ATOM     18  N   UNL     1       3.734  43.567  51.884  1.00  0.00    -0.339 N 
ATOM     19  H   UNL     1       2.839  43.234  51.557  1.00  0.00     0.168 HD
BRANCH  18  20
ATOM     20  C   UNL     1       4.817  43.168  51.080  1.00  0.00     0.040 A 
ATOM     21  C   UNL     1       5.037  41.852  50.665  1.00  0.00     0.026 A 
ATOM     22  C   UNL     1       5.708  44.153  50.621  1.00  0.00     0.026 A 
ATOM     23  C   UNL     1       6.117  41.522  49.837  1.00  0.00     0.002 A 
ATOM     24  C   UNL     1       6.788  43.830  49.792  1.00  0.00     0.002 A 
ATOM     25  C   UNL     1       6.992  42.512  49.401  1.00  0.00     0.000 A 
ENDBRANCH  18  20
ENDBRANCH  11  18
ENDBRANCH   6   8
ENDBRANCH   1   6
TORSDOF 7
ENDMDL
