MODEL 1
REMARK VINA RESULT:    -8.845      0.000      0.000
REMARK INTER + INTRA:         -12.644
REMARK INTER:                 -11.947
REMARK INTRA:                  -0.697
REMARK UNBOUND:                -0.697
REMARK SMILES COc1ccc(Nc2nc(NC[C@H]3CCCO3)nc3c2cnn3C)cc1
REMARK SMILES IDX 8 1 9 2 10 3 18 4 19 5 20 6 21 7 22 8 23 9 24 10 7 11 6 13
REMARK SMILES IDX 3 14 4 15 26 16 5 17 25 18 2 19 1 20 11 21 12 23 13 24 14 25
REMARK SMILES IDX 17 26 15 27 16 28
REMARK H PARENT 7 12 11 22
ROOT
ATOM      1  C   UNL     1       6.703  45.915  52.281  1.00  0.00     0.147 A 
ATOM      2  N   UNL     1       5.638  46.176  53.085  1.00  0.00    -0.195 NA
ATOM      3  C   UNL     1       5.795  46.814  54.259  1.00  0.00     0.226 A 
ATOM      4  N   UNL     1       6.957  47.247  54.765  1.00  0.00    -0.193 NA
ATOM      5  C   UNL     1       7.998  46.984  53.963  1.00  0.00     0.165 A 
ATOM      6  C   UNL     1       7.956  46.339  52.742  1.00  0.00     0.082 A 
ATOM      7  C   UNL     1       9.300  46.312  52.316  1.00  0.00     0.149 A 
ATOM      8  N   UNL     1      10.137  46.889  53.187  1.00  0.00    -0.179 NA
ATOM      9  N   UNL     1       9.313  47.295  54.181  1.00  0.00    -0.250 N 
ATOM     10  C   UNL     1       9.863  47.984  55.321  1.00  0.00     0.176 C 
ENDROOT
BRANCH   1  11
ATOM     11  N   UNL     1       6.565  45.239  51.059  1.00  0.00    -0.339 N 
ATOM     12  H   UNL     1       6.936  45.751  50.270  1.00  0.00     0.168 HD
BRANCH  11  13
ATOM     13  C   UNL     1       5.971  44.014  50.712  1.00  0.00     0.040 A 
ATOM     14  C   UNL     1       4.642  41.592  50.062  1.00  0.00     0.119 A 
ATOM     15  C   UNL     1       5.859  41.913  49.467  1.00  0.00     0.048 A 
ATOM     16  C   UNL     1       4.087  42.482  50.979  1.00  0.00     0.048 A 
ATOM     17  C   UNL     1       6.511  43.114  49.789  1.00  0.00     0.030 A 
ATOM     18  C   UNL     1       4.741  43.678  51.297  1.00  0.00     0.030 A 
BRANCH  14  19
ATOM     19  O   UNL     1       3.906  40.462  49.838  1.00  0.00    -0.497 OA
ATOM     20  C   UNL     1       3.588  40.164  48.485  1.00  0.00     0.278 C 
ENDBRANCH  14  19
ENDBRANCH  11  13
ENDBRANCH   1  11
BRANCH   3  21
ATOM     21  N   UNL     1       4.618  47.024  54.967  1.00  0.00    -0.351 N 
ATOM     22  H   UNL     1       4.034  47.600  54.363  1.00  0.00     0.163 HD
BRANCH  21  23
ATOM     23  C   UNL     1       3.947  45.801  55.392  1.00  0.00     0.148 C 
BRANCH  23  24
ATOM     24  C   UNL     1       2.478  45.811  54.942  1.00  0.00     0.137 C 
ATOM     25  C   UNL     1       2.272  45.937  53.440  1.00  0.00     0.036 C 
ATOM     26  O   UNL     1       1.811  44.594  55.347  1.00  0.00    -0.376 OA
ATOM     27  C   UNL     1       0.919  45.294  53.266  1.00  0.00     0.031 C 
ATOM     28  C   UNL     1       0.986  44.153  54.258  1.00  0.00     0.160 C 
ENDBRANCH  23  24
ENDBRANCH  21  23
ENDBRANCH   3  21
TORSDOF 6
ENDMDL
MODEL 2
REMARK VINA RESULT:    -8.753      2.695      5.754
REMARK INTER + INTRA:         -12.521
REMARK INTER:                 -11.882
REMARK INTRA:                  -0.639
REMARK UNBOUND:                -0.697
REMARK SMILES COc1ccc(Nc2nc(NC[C@H]3CCCO3)nc3c2cnn3C)cc1
REMARK SMILES IDX 8 1 9 2 10 3 18 4 19 5 20 6 21 7 22 8 23 9 24 10 7 11 6 13
REMARK SMILES IDX 3 14 4 15 26 16 5 17 25 18 2 19 1 20 11 21 12 23 13 24 14 25
REMARK SMILES IDX 17 26 15 27 16 28
REMARK H PARENT 7 12 11 22
ROOT
ATOM      1  C   UNL     1       5.971  42.937  50.028  1.00  0.00     0.147 A 
ATOM      2  N   UNL     1       6.824  43.995  50.069  1.00  0.00    -0.195 NA
ATOM      3  C   UNL     1       6.644  44.998  50.946  1.00  0.00     0.226 A 
ATOM      4  N   UNL     1       5.652  45.085  51.842  1.00  0.00    -0.193 NA
ATOM      5  C   UNL     1       4.819  44.037  51.792  1.00  0.00     0.165 A 
ATOM      6  C   UNL     1       4.905  42.956  50.938  1.00  0.00     0.082 A 
ATOM      7  C   UNL     1       3.801  42.149  51.285  1.00  0.00     0.149 A 
ATOM      8  N   UNL     1       3.066  42.666  52.276  1.00  0.00    -0.179 NA
ATOM      9  N   UNL     1       3.715  43.818  52.570  1.00  0.00    -0.250 N 
ATOM     10  C   UNL     1       3.213  44.666  53.621  1.00  0.00     0.176 C 
ENDROOT
BRANCH   1  11
ATOM     11  N   UNL     1       6.131  41.885  49.113  1.00  0.00    -0.339 N 
ATOM     12  H   UNL     1       6.927  41.295  49.310  1.00  0.00     0.168 HD
BRANCH  11  13
ATOM     13  C   UNL     1       5.429  41.522  47.951  1.00  0.00     0.040 A 
ATOM     14  C   UNL     1       3.897  40.754  45.689  1.00  0.00     0.119 A 
ATOM     15  C   UNL     1       5.017  41.567  45.542  1.00  0.00     0.048 A 
ATOM     16  C   UNL     1       3.539  40.326  46.966  1.00  0.00     0.048 A 
ATOM     17  C   UNL     1       5.770  41.946  46.664  1.00  0.00     0.030 A 
ATOM     18  C   UNL     1       4.294  40.708  48.082  1.00  0.00     0.030 A 
BRANCH  14  19
ATOM     19  O   UNL     1       3.080  40.313  44.686  1.00  0.00    -0.497 OA
ATOM     20  C   UNL     1       1.764  40.849  44.651  1.00  0.00     0.278 C 
ENDBRANCH  14  19
ENDBRANCH  11  13
ENDBRANCH   1  11
BRANCH   3  21
ATOM     21  N   UNL     1       7.602  46.003  50.882  1.00  0.00    -0.351 N 
ATOM     22  H   UNL     1       7.544  46.376  49.936  1.00  0.00     0.163 HD
BRANCH  21  23
ATOM     23  C   UNL     1       7.456  47.037  51.901  1.00  0.00     0.148 C 
BRANCH  23  24
ATOM     24  C   UNL     1       8.301  46.692  53.136  1.00  0.00     0.137 C 
ATOM     25  C   UNL     1       9.802  46.858  52.950  1.00  0.00     0.036 C 
ATOM     26  O   UNL     1       7.933  47.529  54.256  1.00  0.00    -0.376 OA
ATOM     27  C   UNL     1      10.259  47.090  54.368  1.00  0.00     0.031 C 
ATOM     28  C   UNL     1       9.136  47.941  54.922  1.00  0.00     0.160 C 
ENDBRANCH  23  24
ENDBRANCH  21  23
ENDBRANCH   3  21
TORSDOF 6
ENDMDL
MODEL 3
REMARK VINA RESULT:    -8.711      2.729      5.811
REMARK INTER + INTRA:         -12.463
REMARK INTER:                 -11.864
REMARK INTRA:                  -0.599
REMARK UNBOUND:                -0.697
REMARK SMILES COc1ccc(Nc2nc(NC[C@H]3CCCO3)nc3c2cnn3C)cc1
REMARK SMILES IDX 8 1 9 2 10 3 18 4 19 5 20 6 21 7 22 8 23 9 24 10 7 11 6 13
REMARK SMILES IDX 3 14 4 15 26 16 5 17 25 18 2 19 1 20 11 21 12 23 13 24 14 25
REMARK SMILES IDX 17 26 15 27 16 28
REMARK H PARENT 7 12 11 22
ROOT
ATOM      1  C   UNL     1       6.035  42.956  50.017  1.00  0.00     0.147 A 
ATOM      2  N   UNL     1       6.898  44.006  50.041  1.00  0.00    -0.195 NA
ATOM      3  C   UNL     1       6.747  45.008  50.925  1.00  0.00     0.226 A 
ATOM      4  N   UNL     1       5.776  45.102  51.844  1.00  0.00    -0.193 NA
ATOM      5  C   UNL     1       4.933  44.061  51.810  1.00  0.00     0.165 A 
ATOM      6  C   UNL     1       4.990  42.981  50.951  1.00  0.00     0.082 A 
ATOM      7  C   UNL     1       3.887  42.183  51.320  1.00  0.00     0.149 A 
ATOM      8  N   UNL     1       3.179  42.704  52.329  1.00  0.00    -0.179 NA
ATOM      9  N   UNL     1       3.845  43.849  52.612  1.00  0.00    -0.250 N 
ATOM     10  C   UNL     1       3.374  44.699  53.676  1.00  0.00     0.176 C 
ENDROOT
BRANCH   1  11
ATOM     11  N   UNL     1       6.164  41.906  49.095  1.00  0.00    -0.339 N 
ATOM     12  H   UNL     1       6.998  41.351  49.229  1.00  0.00     0.168 HD
BRANCH  11  13
ATOM     13  C   UNL     1       5.387  41.505  47.995  1.00  0.00     0.040 A 
ATOM     14  C   UNL     1       3.933  40.729  45.685  1.00  0.00     0.119 A 
ATOM     15  C   UNL     1       3.539  40.296  46.948  1.00  0.00     0.048 A 
ATOM     16  C   UNL     1       5.055  41.548  45.575  1.00  0.00     0.048 A 
ATOM     17  C   UNL     1       4.264  40.680  48.087  1.00  0.00     0.030 A 
ATOM     18  C   UNL     1       5.774  41.928  46.714  1.00  0.00     0.030 A 
BRANCH  14  19
ATOM     19  O   UNL     1       3.320  40.431  44.500  1.00  0.00    -0.497 OA
ATOM     20  C   UNL     1       3.837  39.322  43.775  1.00  0.00     0.278 C 
ENDBRANCH  14  19
ENDBRANCH  11  13
ENDBRANCH   1  11
BRANCH   3  21
ATOM     21  N   UNL     1       7.712  46.005  50.842  1.00  0.00    -0.351 N 
ATOM     22  H   UNL     1       7.661  46.356  49.887  1.00  0.00     0.163 HD
BRANCH  21  23
ATOM     23  C   UNL     1       7.569  47.063  51.837  1.00  0.00     0.148 C 
BRANCH  23  24
ATOM     24  C   UNL     1       8.358  46.713  53.107  1.00  0.00     0.137 C 
ATOM     25  C   UNL     1       9.865  46.878  52.988  1.00  0.00     0.036 C 
ATOM     26  O   UNL     1       7.940  47.545  54.213  1.00  0.00    -0.376 OA
ATOM     27  C   UNL     1      10.259  47.104  54.426  1.00  0.00     0.031 C 
ATOM     28  C   UNL     1       9.113  47.953  54.933  1.00  0.00     0.160 C 
ENDBRANCH  23  24
ENDBRANCH  21  23
ENDBRANCH   3  21
TORSDOF 6
ENDMDL
MODEL 4
REMARK VINA RESULT:    -8.684      2.597      6.248
REMARK INTER + INTRA:         -12.427
REMARK INTER:                 -11.818
REMARK INTRA:                  -0.610
REMARK UNBOUND:                -0.697
REMARK SMILES COc1ccc(Nc2nc(NC[C@H]3CCCO3)nc3c2cnn3C)cc1
REMARK SMILES IDX 8 1 9 2 10 3 18 4 19 5 20 6 21 7 22 8 23 9 24 10 7 11 6 13
REMARK SMILES IDX 3 14 4 15 26 16 5 17 25 18 2 19 1 20 11 21 12 23 13 24 14 25
REMARK SMILES IDX 17 26 15 27 16 28
REMARK H PARENT 7 12 11 22
ROOT
ATOM      1  C   UNL     1       6.187  44.518  51.317  1.00  0.00     0.147 A 
ATOM      2  N   UNL     1       5.238  44.545  52.290  1.00  0.00    -0.195 NA
ATOM      3  C   UNL     1       4.232  43.652  52.303  1.00  0.00     0.226 A 
ATOM      4  N   UNL     1       4.042  42.675  51.407  1.00  0.00    -0.193 NA
ATOM      5  C   UNL     1       4.984  42.659  50.454  1.00  0.00     0.165 A 
ATOM      6  C   UNL     1       6.056  43.522  50.341  1.00  0.00     0.082 A 
ATOM      7  C   UNL     1       6.732  43.086  49.182  1.00  0.00     0.149 A 
ATOM      8  N   UNL     1       6.146  42.035  48.598  1.00  0.00    -0.179 NA
ATOM      9  N   UNL     1       5.083  41.792  49.400  1.00  0.00    -0.250 N 
ATOM     10  C   UNL     1       4.196  40.699  49.091  1.00  0.00     0.176 C 
ENDROOT
BRANCH   1  11
ATOM     11  N   UNL     1       7.237  45.448  51.275  1.00  0.00    -0.339 N 
ATOM     12  H   UNL     1       7.566  45.644  50.339  1.00  0.00     0.168 HD
BRANCH  11  13
ATOM     13  C   UNL     1       7.952  46.120  52.279  1.00  0.00     0.040 A 
ATOM     14  C   UNL     1       9.288  47.446  54.404  1.00  0.00     0.119 A 
ATOM     15  C   UNL     1       9.986  47.050  53.268  1.00  0.00     0.048 A 
ATOM     16  C   UNL     1       7.923  47.177  54.483  1.00  0.00     0.048 A 
ATOM     17  C   UNL     1       9.322  46.392  52.221  1.00  0.00     0.030 A 
ATOM     18  C   UNL     1       7.265  46.521  53.436  1.00  0.00     0.030 A 
BRANCH  14  19
ATOM     19  O   UNL     1       9.810  48.091  55.491  1.00  0.00    -0.497 OA
ATOM     20  C   UNL     1      10.986  47.532  56.062  1.00  0.00     0.278 C 
ENDBRANCH  14  19
ENDBRANCH  11  13
ENDBRANCH   1  11
BRANCH   3  21
ATOM     21  N   UNL     1       3.346  43.793  53.364  1.00  0.00    -0.351 N 
ATOM     22  H   UNL     1       3.911  44.098  54.155  1.00  0.00     0.163 HD
BRANCH  21  23
ATOM     23  C   UNL     1       2.227  44.689  53.096  1.00  0.00     0.148 C 
BRANCH  23  24
ATOM     24  C   UNL     1       2.497  46.077  53.697  1.00  0.00     0.137 C 
ATOM     25  C   UNL     1       3.607  46.117  54.735  1.00  0.00     0.036 C 
ATOM     26  O   UNL     1       2.868  47.017  52.663  1.00  0.00    -0.376 OA
ATOM     27  C   UNL     1       4.056  47.554  54.642  1.00  0.00     0.031 C 
ATOM     28  C   UNL     1       3.954  47.817  53.154  1.00  0.00     0.160 C 
ENDBRANCH  23  24
ENDBRANCH  21  23
ENDBRANCH   3  21
TORSDOF 6
ENDMDL
MODEL 5
REMARK VINA RESULT:    -8.633      2.705      6.958
REMARK INTER + INTRA:         -12.358
REMARK INTER:                 -11.847
REMARK INTRA:                  -0.512
REMARK UNBOUND:                -0.697
REMARK SMILES COc1ccc(Nc2nc(NC[C@H]3CCCO3)nc3c2cnn3C)cc1
REMARK SMILES IDX 8 1 9 2 10 3 18 4 19 5 20 6 21 7 22 8 23 9 24 10 7 11 6 13
REMARK SMILES IDX 3 14 4 15 26 16 5 17 25 18 2 19 1 20 11 21 12 23 13 24 14 25
REMARK SMILES IDX 17 26 15 27 16 28
REMARK H PARENT 7 12 11 22
ROOT
ATOM      1  C   UNL     1       3.610  43.977  52.766  1.00  0.00     0.147 A 
ATOM      2  N   UNL     1       4.173  45.188  53.020  1.00  0.00    -0.195 NA
ATOM      3  C   UNL     1       5.262  45.601  52.348  1.00  0.00     0.226 A 
ATOM      4  N   UNL     1       5.903  44.911  51.396  1.00  0.00    -0.193 NA
ATOM      5  C   UNL     1       5.338  43.720  51.155  1.00  0.00     0.165 A 
ATOM      6  C   UNL     1       4.224  43.194  51.780  1.00  0.00     0.082 A 
ATOM      7  C   UNL     1       4.048  41.933  51.174  1.00  0.00     0.149 A 
ATOM      8  N   UNL     1       4.968  41.668  50.240  1.00  0.00    -0.179 NA
ATOM      9  N   UNL     1       5.740  42.780  50.246  1.00  0.00    -0.250 N 
ATOM     10  C   UNL     1       6.859  42.871  49.342  1.00  0.00     0.176 C 
ENDROOT
BRANCH   1  11
ATOM     11  N   UNL     1       2.482  43.518  53.464  1.00  0.00    -0.339 N 
ATOM     12  H   UNL     1       2.240  42.559  53.256  1.00  0.00     0.168 HD
BRANCH  11  13
ATOM     13  C   UNL     1       1.597  44.146  54.357  1.00  0.00     0.040 A 
ATOM     14  C   UNL     1      -0.297  45.318  56.116  1.00  0.00     0.119 A 
ATOM     15  C   UNL     1       1.067  45.507  56.317  1.00  0.00     0.048 A 
ATOM     16  C   UNL     1      -0.716  44.540  55.039  1.00  0.00     0.048 A 
ATOM     17  C   UNL     1       2.000  44.923  55.446  1.00  0.00     0.030 A 
ATOM     18  C   UNL     1       0.218  43.959  54.173  1.00  0.00     0.030 A 
BRANCH  14  19
ATOM     19  O   UNL     1      -1.305  45.827  56.885  1.00  0.00    -0.497 OA
ATOM     20  C   UNL     1      -1.034  47.042  57.573  1.00  0.00     0.278 C 
ENDBRANCH  14  19
ENDBRANCH  11  13
ENDBRANCH   1  11
BRANCH   3  21
ATOM     21  N   UNL     1       5.719  46.865  52.704  1.00  0.00    -0.351 N 
ATOM     22  H   UNL     1       5.628  46.913  53.718  1.00  0.00     0.163 HD
BRANCH  21  23
ATOM     23  C   UNL     1       7.071  47.165  52.248  1.00  0.00     0.148 C 
BRANCH  23  24
ATOM     24  C   UNL     1       8.095  46.801  53.333  1.00  0.00     0.137 C 
ATOM     25  C   UNL     1       9.549  46.994  52.929  1.00  0.00     0.036 C 
ATOM     26  O   UNL     1       7.890  47.603  54.518  1.00  0.00    -0.376 OA
ATOM     27  C   UNL     1      10.211  47.196  54.268  1.00  0.00     0.031 C 
ATOM     28  C   UNL     1       9.175  48.015  55.008  1.00  0.00     0.160 C 
ENDBRANCH  23  24
ENDBRANCH  21  23
ENDBRANCH   3  21
TORSDOF 6
ENDMDL
MODEL 6
REMARK VINA RESULT:    -8.618      2.658      6.570
REMARK INTER + INTRA:         -12.338
REMARK INTER:                 -11.543
REMARK INTRA:                  -0.795
REMARK UNBOUND:                -0.697
REMARK SMILES COc1ccc(Nc2nc(NC[C@H]3CCCO3)nc3c2cnn3C)cc1
REMARK SMILES IDX 8 1 9 2 10 3 18 4 19 5 20 6 21 7 22 8 23 9 24 10 7 11 6 13
REMARK SMILES IDX 3 14 4 15 26 16 5 17 25 18 2 19 1 20 11 21 12 23 13 24 14 25
REMARK SMILES IDX 17 26 15 27 16 28
REMARK H PARENT 7 12 11 22
ROOT
ATOM      1  C   UNL     1       4.027  44.160  52.843  1.00  0.00     0.147 A 
ATOM      2  N   UNL     1       4.671  45.357  52.858  1.00  0.00    -0.195 NA
ATOM      3  C   UNL     1       5.612  45.650  51.943  1.00  0.00     0.226 A 
ATOM      4  N   UNL     1       6.021  44.843  50.954  1.00  0.00    -0.193 NA
ATOM      5  C   UNL     1       5.378  43.667  50.951  1.00  0.00     0.165 A 
ATOM      6  C   UNL     1       4.400  43.260  51.836  1.00  0.00     0.082 A 
ATOM      7  C   UNL     1       4.060  41.960  51.406  1.00  0.00     0.149 A 
ATOM      8  N   UNL     1       4.761  41.563  50.337  1.00  0.00    -0.179 NA
ATOM      9  N   UNL     1       5.554  42.629  50.077  1.00  0.00    -0.250 N 
ATOM     10  C   UNL     1       6.467  42.579  48.963  1.00  0.00     0.176 C 
ENDROOT
BRANCH   1  11
ATOM     11  N   UNL     1       3.051  43.827  53.795  1.00  0.00    -0.339 N 
ATOM     12  H   UNL     1       3.436  43.521  54.678  1.00  0.00     0.168 HD
BRANCH  11  13
ATOM     13  C   UNL     1       1.648  43.789  53.744  1.00  0.00     0.040 A 
ATOM     14  C   UNL     1      -1.179  43.565  53.631  1.00  0.00     0.119 A 
ATOM     15  C   UNL     1      -0.580  44.718  54.128  1.00  0.00     0.048 A 
ATOM     16  C   UNL     1      -0.367  42.520  53.194  1.00  0.00     0.048 A 
ATOM     17  C   UNL     1       0.818  44.823  54.184  1.00  0.00     0.030 A 
ATOM     18  C   UNL     1       1.027  42.630  53.253  1.00  0.00     0.030 A 
BRANCH  14  19
ATOM     19  O   UNL     1      -2.522  43.334  53.522  1.00  0.00    -0.497 OA
ATOM     20  C   UNL     1      -3.385  44.418  53.838  1.00  0.00     0.278 C 
ENDBRANCH  14  19
ENDBRANCH  11  13
ENDBRANCH   1  11
BRANCH   3  21
ATOM     21  N   UNL     1       6.174  46.914  52.073  1.00  0.00    -0.351 N 
ATOM     22  H   UNL     1       5.908  47.238  53.001  1.00  0.00     0.163 HD
BRANCH  21  23
ATOM     23  C   UNL     1       7.616  46.955  51.857  1.00  0.00     0.148 C 
BRANCH  23  24
ATOM     24  C   UNL     1       8.362  46.701  53.175  1.00  0.00     0.137 C 
ATOM     25  C   UNL     1       9.877  46.796  53.080  1.00  0.00     0.036 C 
ATOM     26  O   UNL     1       7.955  47.653  54.184  1.00  0.00    -0.376 OA
ATOM     27  C   UNL     1      10.248  47.145  54.499  1.00  0.00     0.031 C 
ATOM     28  C   UNL     1       9.127  48.084  54.892  1.00  0.00     0.160 C 
ENDBRANCH  23  24
ENDBRANCH  21  23
ENDBRANCH   3  21
TORSDOF 6
ENDMDL
MODEL 7
REMARK VINA RESULT:    -8.617      2.490      6.082
REMARK INTER + INTRA:         -12.336
REMARK INTER:                 -11.784
REMARK INTRA:                  -0.553
REMARK UNBOUND:                -0.697
REMARK SMILES COc1ccc(Nc2nc(NC[C@H]3CCCO3)nc3c2cnn3C)cc1
REMARK SMILES IDX 8 1 9 2 10 3 18 4 19 5 20 6 21 7 22 8 23 9 24 10 7 11 6 13
REMARK SMILES IDX 3 14 4 15 26 16 5 17 25 18 2 19 1 20 11 21 12 23 13 24 14 25
REMARK SMILES IDX 17 26 15 27 16 28
REMARK H PARENT 7 12 11 22
ROOT
ATOM      1  C   UNL     1       6.147  44.754  51.399  1.00  0.00     0.147 A 
ATOM      2  N   UNL     1       5.189  44.678  52.360  1.00  0.00    -0.195 NA
ATOM      3  C   UNL     1       4.268  43.697  52.345  1.00  0.00     0.226 A 
ATOM      4  N   UNL     1       4.177  42.723  51.430  1.00  0.00    -0.193 NA
ATOM      5  C   UNL     1       5.127  42.809  50.490  1.00  0.00     0.165 A 
ATOM      6  C   UNL     1       6.118  43.768  50.404  1.00  0.00     0.082 A 
ATOM      7  C   UNL     1       6.844  43.416  49.247  1.00  0.00     0.149 A 
ATOM      8  N   UNL     1       6.362  42.327  48.638  1.00  0.00    -0.179 NA
ATOM      9  N   UNL     1       5.317  41.974  49.423  1.00  0.00    -0.250 N 
ATOM     10  C   UNL     1       4.536  40.810  49.084  1.00  0.00     0.176 C 
ENDROOT
BRANCH   1  11
ATOM     11  N   UNL     1       7.109  45.776  51.385  1.00  0.00    -0.339 N 
ATOM     12  H   UNL     1       7.308  46.132  50.460  1.00  0.00     0.168 HD
BRANCH  11  13
ATOM     13  C   UNL     1       7.884  46.365  52.398  1.00  0.00     0.040 A 
ATOM     14  C   UNL     1       9.334  47.539  54.537  1.00  0.00     0.119 A 
ATOM     15  C   UNL     1      10.000  47.030  53.426  1.00  0.00     0.048 A 
ATOM     16  C   UNL     1       7.944  47.459  54.583  1.00  0.00     0.048 A 
ATOM     17  C   UNL     1       9.278  46.448  52.372  1.00  0.00     0.030 A 
ATOM     18  C   UNL     1       7.229  46.877  53.529  1.00  0.00     0.030 A 
BRANCH  14  19
ATOM     19  O   UNL     1       9.912  48.129  55.627  1.00  0.00    -0.497 OA
ATOM     20  C   UNL     1      11.089  47.515  56.136  1.00  0.00     0.278 C 
ENDBRANCH  14  19
ENDBRANCH  11  13
ENDBRANCH   1  11
BRANCH   3  21
ATOM     21  N   UNL     1       3.361  43.738  53.397  1.00  0.00    -0.351 N 
ATOM     22  H   UNL     1       3.547  42.905  53.952  1.00  0.00     0.163 HD
BRANCH  21  23
ATOM     23  C   UNL     1       3.415  44.962  54.189  1.00  0.00     0.148 C 
BRANCH  23  24
ATOM     24  C   UNL     1       2.000  45.392  54.605  1.00  0.00     0.137 C 
ATOM     25  C   UNL     1       0.922  44.343  54.381  1.00  0.00     0.036 C 
ATOM     26  O   UNL     1       1.961  45.725  56.012  1.00  0.00    -0.376 OA
ATOM     27  C   UNL     1      -0.110  44.746  55.404  1.00  0.00     0.031 C 
ATOM     28  C   UNL     1       0.758  45.176  56.569  1.00  0.00     0.160 C 
ENDBRANCH  23  24
ENDBRANCH  21  23
ENDBRANCH   3  21
TORSDOF 6
ENDMDL
MODEL 8
REMARK VINA RESULT:    -8.566      2.678      5.951
REMARK INTER + INTRA:         -12.268
REMARK INTER:                 -11.582
REMARK INTRA:                  -0.686
REMARK UNBOUND:                -0.697
REMARK SMILES COc1ccc(Nc2nc(NC[C@H]3CCCO3)nc3c2cnn3C)cc1
REMARK SMILES IDX 8 1 9 2 10 3 18 4 19 5 20 6 21 7 22 8 23 9 24 10 7 11 6 13
REMARK SMILES IDX 3 14 4 15 26 16 5 17 25 18 2 19 1 20 11 21 12 23 13 24 14 25
REMARK SMILES IDX 17 26 15 27 16 28
REMARK H PARENT 7 12 11 22
ROOT
ATOM      1  C   UNL     1       2.783  44.078  53.238  1.00  0.00     0.147 A 
ATOM      2  N   UNL     1       3.720  44.892  53.793  1.00  0.00    -0.195 NA
ATOM      3  C   UNL     1       3.443  45.624  54.886  1.00  0.00     0.226 A 
ATOM      4  N   UNL     1       2.270  45.651  55.534  1.00  0.00    -0.193 NA
ATOM      5  C   UNL     1       1.356  44.844  54.977  1.00  0.00     0.165 A 
ATOM      6  C   UNL     1       1.528  44.051  53.860  1.00  0.00     0.082 A 
ATOM      7  C   UNL     1       0.281  43.413  53.691  1.00  0.00     0.149 A 
ATOM      8  N   UNL     1      -0.617  43.767  54.617  1.00  0.00    -0.179 NA
ATOM      9  N   UNL     1       0.069  44.638  55.394  1.00  0.00    -0.250 N 
ATOM     10  C   UNL     1      -0.581  45.240  56.530  1.00  0.00     0.176 C 
ENDROOT
BRANCH   1  11
ATOM     11  N   UNL     1       3.045  43.315  52.089  1.00  0.00    -0.339 N 
ATOM     12  H   UNL     1       2.268  42.736  51.803  1.00  0.00     0.168 HD
BRANCH  11  13
ATOM     13  C   UNL     1       4.190  43.163  51.290  1.00  0.00     0.040 A 
ATOM     14  C   UNL     1       6.551  42.987  49.724  1.00  0.00     0.119 A 
ATOM     15  C   UNL     1       5.813  41.846  50.022  1.00  0.00     0.048 A 
ATOM     16  C   UNL     1       6.112  44.217  50.211  1.00  0.00     0.048 A 
ATOM     17  C   UNL     1       4.648  41.937  50.799  1.00  0.00     0.030 A 
ATOM     18  C   UNL     1       4.950  44.303  50.986  1.00  0.00     0.030 A 
BRANCH  14  19
ATOM     19  O   UNL     1       7.698  43.038  48.982  1.00  0.00    -0.497 OA
ATOM     20  C   UNL     1       8.554  44.151  49.204  1.00  0.00     0.278 C 
ENDBRANCH  14  19
ENDBRANCH  11  13
ENDBRANCH   1  11
BRANCH   3  21
ATOM     21  N   UNL     1       4.500  46.398  55.350  1.00  0.00    -0.351 N 
ATOM     22  H   UNL     1       5.057  45.778  55.936  1.00  0.00     0.163 HD
BRANCH  21  23
ATOM     23  C   UNL     1       5.288  47.029  54.297  1.00  0.00     0.148 C 
BRANCH  23  24
ATOM     24  C   UNL     1       6.743  46.540  54.351  1.00  0.00     0.137 C 
ATOM     25  C   UNL     1       7.375  46.263  52.995  1.00  0.00     0.036 C 
ATOM     26  O   UNL     1       7.586  47.517  55.004  1.00  0.00    -0.376 OA
ATOM     27  C   UNL     1       8.840  46.447  53.301  1.00  0.00     0.031 C 
ATOM     28  C   UNL     1       8.813  47.615  54.265  1.00  0.00     0.160 C 
ENDBRANCH  23  24
ENDBRANCH  21  23
ENDBRANCH   3  21
TORSDOF 6
ENDMDL
MODEL 9
REMARK VINA RESULT:    -8.563      2.906      6.039
REMARK INTER + INTRA:         -12.263
REMARK INTER:                 -11.453
REMARK INTRA:                  -0.810
REMARK UNBOUND:                -0.697
REMARK SMILES COc1ccc(Nc2nc(NC[C@H]3CCCO3)nc3c2cnn3C)cc1
REMARK SMILES IDX 8 1 9 2 10 3 18 4 19 5 20 6 21 7 22 8 23 9 24 10 7 11 6 13
REMARK SMILES IDX 3 14 4 15 26 16 5 17 25 18 2 19 1 20 11 21 12 23 13 24 14 25
REMARK SMILES IDX 17 26 15 27 16 28
REMARK H PARENT 7 12 11 22
ROOT
ATOM      1  C   UNL     1       2.522  43.365  52.759  1.00  0.00     0.147 A 
ATOM      2  N   UNL     1       3.166  44.474  53.212  1.00  0.00    -0.195 NA
ATOM      3  C   UNL     1       2.542  45.361  54.007  1.00  0.00     0.226 A 
ATOM      4  N   UNL     1       1.274  45.276  54.431  1.00  0.00    -0.193 NA
ATOM      5  C   UNL     1       0.652  44.180  53.978  1.00  0.00     0.165 A 
ATOM      6  C   UNL     1       1.189  43.205  53.160  1.00  0.00     0.082 A 
ATOM      7  C   UNL     1       0.137  42.284  52.977  1.00  0.00     0.149 A 
ATOM      8  N   UNL     1      -0.983  42.635  53.619  1.00  0.00    -0.179 NA
ATOM      9  N   UNL     1      -0.637  43.795  54.228  1.00  0.00    -0.250 N 
ATOM     10  C   UNL     1      -1.606  44.486  55.041  1.00  0.00     0.176 C 
ENDROOT
BRANCH   1  11
ATOM     11  N   UNL     1       3.148  42.432  51.917  1.00  0.00    -0.339 N 
ATOM     12  H   UNL     1       2.691  41.530  51.903  1.00  0.00     0.168 HD
BRANCH  11  13
ATOM     13  C   UNL     1       4.309  42.492  51.129  1.00  0.00     0.040 A 
ATOM     14  C   UNL     1       6.688  42.743  49.602  1.00  0.00     0.119 A 
ATOM     15  C   UNL     1       6.075  41.504  49.758  1.00  0.00     0.048 A 
ATOM     16  C   UNL     1       6.116  43.858  50.211  1.00  0.00     0.048 A 
ATOM     17  C   UNL     1       4.900  41.384  50.517  1.00  0.00     0.030 A 
ATOM     18  C   UNL     1       4.944  43.733  50.967  1.00  0.00     0.030 A 
BRANCH  14  19
ATOM     19  O   UNL     1       7.829  42.997  48.893  1.00  0.00    -0.497 OA
ATOM     20  C   UNL     1       8.579  44.142  49.278  1.00  0.00     0.278 C 
ENDBRANCH  14  19
ENDBRANCH  11  13
ENDBRANCH   1  11
BRANCH   3  21
ATOM     21  N   UNL     1       3.327  46.437  54.403  1.00  0.00    -0.351 N 
ATOM     22  H   UNL     1       2.684  47.108  54.819  1.00  0.00     0.163 HD
BRANCH  21  23
ATOM     23  C   UNL     1       4.424  46.084  55.297  1.00  0.00     0.148 C 
BRANCH  23  24
ATOM     24  C   UNL     1       5.771  46.479  54.675  1.00  0.00     0.137 C 
ATOM     25  C   UNL     1       6.523  45.340  54.004  1.00  0.00     0.036 C 
ATOM     26  O   UNL     1       5.588  47.499  53.667  1.00  0.00    -0.376 OA
ATOM     27  C   UNL     1       7.370  46.085  53.003  1.00  0.00     0.031 C 
ATOM     28  C   UNL     1       6.425  47.176  52.546  1.00  0.00     0.160 C 
ENDBRANCH  23  24
ENDBRANCH  21  23
ENDBRANCH   3  21
TORSDOF 6
ENDMDL
MODEL 10
REMARK VINA RESULT:    -8.505      2.602      6.152
REMARK INTER + INTRA:         -12.185
REMARK INTER:                 -11.616
REMARK INTRA:                  -0.569
REMARK UNBOUND:                -0.697
REMARK SMILES COc1ccc(Nc2nc(NC[C@H]3CCCO3)nc3c2cnn3C)cc1
REMARK SMILES IDX 8 1 9 2 10 3 18 4 19 5 20 6 21 7 22 8 23 9 24 10 7 11 6 13
REMARK SMILES IDX 3 14 4 15 26 16 5 17 25 18 2 19 1 20 11 21 12 23 13 24 14 25
REMARK SMILES IDX 17 26 15 27 16 28
REMARK H PARENT 7 12 11 22
ROOT
ATOM      1  C   UNL     1       5.962  44.671  51.573  1.00  0.00     0.147 A 
ATOM      2  N   UNL     1       5.011  44.780  52.538  1.00  0.00    -0.195 NA
ATOM      3  C   UNL     1       3.986  43.911  52.603  1.00  0.00     0.226 A 
ATOM      4  N   UNL     1       3.777  42.884  51.769  1.00  0.00    -0.193 NA
ATOM      5  C   UNL     1       4.721  42.788  50.823  1.00  0.00     0.165 A 
ATOM      6  C   UNL     1       5.812  43.618  50.660  1.00  0.00     0.082 A 
ATOM      7  C   UNL     1       6.482  43.096  49.534  1.00  0.00     0.149 A 
ATOM      8  N   UNL     1       5.875  42.023  49.015  1.00  0.00    -0.179 NA
ATOM      9  N   UNL     1       4.805  41.854  49.827  1.00  0.00    -0.250 N 
ATOM     10  C   UNL     1       3.895  40.763  49.582  1.00  0.00     0.176 C 
ENDROOT
BRANCH   1  11
ATOM     11  N   UNL     1       7.033  45.573  51.477  1.00  0.00    -0.339 N 
ATOM     12  H   UNL     1       7.323  45.757  50.526  1.00  0.00     0.168 HD
BRANCH  11  13
ATOM     13  C   UNL     1       7.810  46.232  52.444  1.00  0.00     0.040 A 
ATOM     14  C   UNL     1       9.277  47.530  54.498  1.00  0.00     0.119 A 
ATOM     15  C   UNL     1       9.903  47.142  53.318  1.00  0.00     0.048 A 
ATOM     16  C   UNL     1       7.917  47.266  54.655  1.00  0.00     0.048 A 
ATOM     17  C   UNL     1       9.175  46.498  52.306  1.00  0.00     0.030 A 
ATOM     18  C   UNL     1       7.195  46.624  53.643  1.00  0.00     0.030 A 
BRANCH  14  19
ATOM     19  O   UNL     1       9.866  48.161  55.558  1.00  0.00    -0.497 OA
ATOM     20  C   UNL     1      10.986  47.512  56.146  1.00  0.00     0.278 C 
ENDBRANCH  14  19
ENDBRANCH  11  13
ENDBRANCH   1  11
BRANCH   3  21
ATOM     21  N   UNL     1       3.099  44.138  53.649  1.00  0.00    -0.351 N 
ATOM     22  H   UNL     1       3.679  44.358  54.457  1.00  0.00     0.163 HD
BRANCH  21  23
ATOM     23  C   UNL     1       2.102  45.167  53.378  1.00  0.00     0.148 C 
BRANCH  23  24
ATOM     24  C   UNL     1       0.733  44.528  53.102  1.00  0.00     0.137 C 
ATOM     25  C   UNL     1       0.414  44.312  51.631  1.00  0.00     0.036 C 
ATOM     26  O   UNL     1       0.639  43.232  53.736  1.00  0.00    -0.376 OA
ATOM     27  C   UNL     1      -0.570  43.172  51.699  1.00  0.00     0.031 C 
ATOM     28  C   UNL     1       0.006  42.329  52.816  1.00  0.00     0.160 C 
ENDBRANCH  23  24
ENDBRANCH  21  23
ENDBRANCH   3  21
TORSDOF 6
ENDMDL
MODEL 11
REMARK VINA RESULT:    -8.272      2.835      7.361
REMARK INTER + INTRA:         -11.871
REMARK INTER:                 -11.134
REMARK INTRA:                  -0.736
REMARK UNBOUND:                -0.697
REMARK SMILES COc1ccc(Nc2nc(NC[C@H]3CCCO3)nc3c2cnn3C)cc1
REMARK SMILES IDX 8 1 9 2 10 3 18 4 19 5 20 6 21 7 22 8 23 9 24 10 7 11 6 13
REMARK SMILES IDX 3 14 4 15 26 16 5 17 25 18 2 19 1 20 11 21 12 23 13 24 14 25
REMARK SMILES IDX 17 26 15 27 16 28
REMARK H PARENT 7 12 11 22
ROOT
ATOM      1  C   UNL     1       5.637  44.823  51.004  1.00  0.00     0.147 A 
ATOM      2  N   UNL     1       5.769  43.498  50.731  1.00  0.00    -0.195 NA
ATOM      3  C   UNL     1       4.704  42.676  50.749  1.00  0.00     0.226 A 
ATOM      4  N   UNL     1       3.443  43.036  51.027  1.00  0.00    -0.193 NA
ATOM      5  C   UNL     1       3.327  44.343  51.293  1.00  0.00     0.165 A 
ATOM      6  C   UNL     1       4.345  45.276  51.304  1.00  0.00     0.082 A 
ATOM      7  C   UNL     1       3.705  46.487  51.642  1.00  0.00     0.149 A 
ATOM      8  N   UNL     1       2.388  46.347  51.833  1.00  0.00    -0.179 NA
ATOM      9  N   UNL     1       2.184  45.027  51.607  1.00  0.00    -0.250 N 
ATOM     10  C   UNL     1       0.852  44.487  51.713  1.00  0.00     0.176 C 
ENDROOT
BRANCH   1  11
ATOM     11  N   UNL     1       6.735  45.697  51.005  1.00  0.00    -0.339 N 
ATOM     12  H   UNL     1       7.090  45.901  50.081  1.00  0.00     0.168 HD
BRANCH  11  13
ATOM     13  C   UNL     1       7.466  46.303  52.040  1.00  0.00     0.040 A 
ATOM     14  C   UNL     1       8.864  47.449  54.228  1.00  0.00     0.119 A 
ATOM     15  C   UNL     1       9.401  47.491  52.945  1.00  0.00     0.048 A 
ATOM     16  C   UNL     1       7.630  46.831  54.420  1.00  0.00     0.048 A 
ATOM     17  C   UNL     1       8.708  46.920  51.867  1.00  0.00     0.030 A 
ATOM     18  C   UNL     1       6.942  46.264  53.341  1.00  0.00     0.030 A 
BRANCH  14  19
ATOM     19  O   UNL     1       9.432  47.963  55.360  1.00  0.00    -0.497 OA
ATOM     20  C   UNL     1      10.703  47.443  55.730  1.00  0.00     0.278 C 
ENDBRANCH  14  19
ENDBRANCH  11  13
ENDBRANCH   1  11
BRANCH   3  21
ATOM     21  N   UNL     1       4.987  41.352  50.438  1.00  0.00    -0.351 N 
ATOM     22  H   UNL     1       4.089  40.871  50.442  1.00  0.00     0.163 HD
BRANCH  21  23
ATOM     23  C   UNL     1       5.713  41.172  49.186  1.00  0.00     0.148 C 
BRANCH  23  24
ATOM     24  C   UNL     1       4.797  41.468  47.989  1.00  0.00     0.137 C 
ATOM     25  C   UNL     1       5.506  41.544  46.645  1.00  0.00     0.036 C 
ATOM     26  O   UNL     1       3.781  40.448  47.859  1.00  0.00    -0.376 OA
ATOM     27  C   UNL     1       4.389  41.195  45.694  1.00  0.00     0.031 C 
ATOM     28  C   UNL     1       3.643  40.128  46.466  1.00  0.00     0.160 C 
ENDBRANCH  23  24
ENDBRANCH  21  23
ENDBRANCH   3  21
TORSDOF 6
ENDMDL
MODEL 12
REMARK VINA RESULT:    -8.057      2.909      5.980
REMARK INTER + INTRA:         -11.581
REMARK INTER:                 -10.804
REMARK INTRA:                  -0.777
REMARK UNBOUND:                -0.697
REMARK SMILES COc1ccc(Nc2nc(NC[C@H]3CCCO3)nc3c2cnn3C)cc1
REMARK SMILES IDX 8 1 9 2 10 3 18 4 19 5 20 6 21 7 22 8 23 9 24 10 7 11 6 13
REMARK SMILES IDX 3 14 4 15 26 16 5 17 25 18 2 19 1 20 11 21 12 23 13 24 14 25
REMARK SMILES IDX 17 26 15 27 16 28
REMARK H PARENT 7 12 11 22
ROOT
ATOM      1  C   UNL     1       2.930  43.134  52.756  1.00  0.00     0.147 A 
ATOM      2  N   UNL     1       3.642  44.275  52.955  1.00  0.00    -0.195 NA
ATOM      3  C   UNL     1       3.103  45.325  53.599  1.00  0.00     0.226 A 
ATOM      4  N   UNL     1       1.861  45.384  54.098  1.00  0.00    -0.193 NA
ATOM      5  C   UNL     1       1.171  44.254  53.897  1.00  0.00     0.165 A 
ATOM      6  C   UNL     1       1.619  43.118  53.252  1.00  0.00     0.082 A 
ATOM      7  C   UNL     1       0.523  42.232  53.304  1.00  0.00     0.149 A 
ATOM      8  N   UNL     1      -0.541  42.752  53.927  1.00  0.00    -0.179 NA
ATOM      9  N   UNL     1      -0.114  43.986  54.284  1.00  0.00    -0.250 N 
ATOM     10  C   UNL     1      -1.004  44.864  55.001  1.00  0.00     0.176 C 
ENDROOT
BRANCH   1  11
ATOM     11  N   UNL     1       3.466  42.030  52.075  1.00  0.00    -0.339 N 
ATOM     12  H   UNL     1       3.344  41.154  52.566  1.00  0.00     0.168 HD
BRANCH  11  13
ATOM     13  C   UNL     1       4.180  41.911  50.871  1.00  0.00     0.040 A 
ATOM     14  C   UNL     1       5.499  41.617  48.376  1.00  0.00     0.119 A 
ATOM     15  C   UNL     1       6.013  42.465  49.352  1.00  0.00     0.048 A 
ATOM     16  C   UNL     1       4.324  40.918  48.643  1.00  0.00     0.048 A 
ATOM     17  C   UNL     1       5.355  42.610  50.584  1.00  0.00     0.030 A 
ATOM     18  C   UNL     1       3.672  41.065  49.873  1.00  0.00     0.030 A 
BRANCH  14  19
ATOM     19  O   UNL     1       6.037  41.386  47.140  1.00  0.00    -0.497 OA
ATOM     20  C   UNL     1       5.204  41.656  46.020  1.00  0.00     0.278 C 
ENDBRANCH  14  19
ENDBRANCH  11  13
ENDBRANCH   1  11
BRANCH   3  21
ATOM     21  N   UNL     1       3.952  46.417  53.739  1.00  0.00    -0.351 N 
ATOM     22  H   UNL     1       4.588  46.173  54.496  1.00  0.00     0.163 HD
BRANCH  21  23
ATOM     23  C   UNL     1       4.653  46.793  52.517  1.00  0.00     0.148 C 
BRANCH  23  24
ATOM     24  C   UNL     1       6.171  46.659  52.708  1.00  0.00     0.137 C 
ATOM     25  C   UNL     1       6.918  46.097  51.507  1.00  0.00     0.036 C 
ATOM     26  O   UNL     1       6.765  47.945  52.995  1.00  0.00    -0.376 OA
ATOM     27  C   UNL     1       8.298  46.668  51.716  1.00  0.00     0.031 C 
ATOM     28  C   UNL     1       7.987  48.051  52.248  1.00  0.00     0.160 C 
ENDBRANCH  23  24
ENDBRANCH  21  23
ENDBRANCH   3  21
TORSDOF 6
ENDMDL
MODEL 13
REMARK VINA RESULT:    -8.056      2.925      7.195
REMARK INTER + INTRA:         -11.579
REMARK INTER:                 -10.656
REMARK INTRA:                  -0.923
REMARK UNBOUND:                -0.697
REMARK SMILES COc1ccc(Nc2nc(NC[C@H]3CCCO3)nc3c2cnn3C)cc1
REMARK SMILES IDX 8 1 9 2 10 3 18 4 19 5 20 6 21 7 22 8 23 9 24 10 7 11 6 13
REMARK SMILES IDX 3 14 4 15 26 16 5 17 25 18 2 19 1 20 11 21 12 23 13 24 14 25
REMARK SMILES IDX 17 26 15 27 16 28
REMARK H PARENT 7 12 11 22
ROOT
ATOM      1  C   UNL     1       2.970  45.048  54.377  1.00  0.00     0.147 A 
ATOM      2  N   UNL     1       3.106  44.179  53.341  1.00  0.00    -0.195 NA
ATOM      3  C   UNL     1       2.090  43.382  52.965  1.00  0.00     0.226 A 
ATOM      4  N   UNL     1       0.877  43.340  53.535  1.00  0.00    -0.193 NA
ATOM      5  C   UNL     1       0.756  44.201  54.553  1.00  0.00     0.165 A 
ATOM      6  C   UNL     1       1.727  45.063  55.024  1.00  0.00     0.082 A 
ATOM      7  C   UNL     1       1.104  45.738  56.095  1.00  0.00     0.149 A 
ATOM      8  N   UNL     1      -0.158  45.345  56.298  1.00  0.00    -0.179 NA
ATOM      9  N   UNL     1      -0.346  44.409  55.337  1.00  0.00    -0.250 N 
ATOM     10  C   UNL     1      -1.623  43.748  55.230  1.00  0.00     0.176 C 
ENDROOT
BRANCH   1  11
ATOM     11  N   UNL     1       4.020  45.879  54.796  1.00  0.00    -0.339 N 
ATOM     12  H   UNL     1       3.906  46.233  55.736  1.00  0.00     0.168 HD
BRANCH  11  13
ATOM     13  C   UNL     1       5.173  46.354  54.147  1.00  0.00     0.040 A 
ATOM     14  C   UNL     1       7.582  47.244  52.940  1.00  0.00     0.119 A 
ATOM     15  C   UNL     1       6.391  47.236  52.221  1.00  0.00     0.048 A 
ATOM     16  C   UNL     1       7.572  46.804  54.262  1.00  0.00     0.048 A 
ATOM     17  C   UNL     1       5.203  46.792  52.821  1.00  0.00     0.030 A 
ATOM     18  C   UNL     1       6.384  46.362  54.857  1.00  0.00     0.030 A 
BRANCH  14  19
ATOM     19  O   UNL     1       8.804  47.648  52.478  1.00  0.00    -0.497 OA
ATOM     20  C   UNL     1       9.933  46.908  52.923  1.00  0.00     0.278 C 
ENDBRANCH  14  19
ENDBRANCH  11  13
ENDBRANCH   1  11
BRANCH   3  21
ATOM     21  N   UNL     1       2.369  42.556  51.883  1.00  0.00    -0.351 N 
ATOM     22  H   UNL     1       2.188  43.120  51.055  1.00  0.00     0.163 HD
BRANCH  21  23
ATOM     23  C   UNL     1       3.713  41.990  51.893  1.00  0.00     0.148 C 
BRANCH  23  24
ATOM     24  C   UNL     1       4.458  42.360  50.601  1.00  0.00     0.137 C 
ATOM     25  C   UNL     1       5.500  43.458  50.757  1.00  0.00     0.036 C 
ATOM     26  O   UNL     1       5.152  41.210  50.065  1.00  0.00    -0.376 OA
ATOM     27  C   UNL     1       6.436  43.151  49.615  1.00  0.00     0.031 C 
ATOM     28  C   UNL     1       6.449  41.637  49.621  1.00  0.00     0.160 C 
ENDBRANCH  23  24
ENDBRANCH  21  23
ENDBRANCH   3  21
TORSDOF 6
ENDMDL
MODEL 14
REMARK VINA RESULT:    -8.055      3.731      8.660
REMARK INTER + INTRA:         -11.578
REMARK INTER:                 -10.837
REMARK INTRA:                  -0.741
REMARK UNBOUND:                -0.697
REMARK SMILES COc1ccc(Nc2nc(NC[C@H]3CCCO3)nc3c2cnn3C)cc1
REMARK SMILES IDX 8 1 9 2 10 3 18 4 19 5 20 6 21 7 22 8 23 9 24 10 7 11 6 13
REMARK SMILES IDX 3 14 4 15 26 16 5 17 25 18 2 19 1 20 11 21 12 23 13 24 14 25
REMARK SMILES IDX 17 26 15 27 16 28
REMARK H PARENT 7 12 11 22
ROOT
ATOM      1  C   UNL     1       2.318  45.311  55.663  1.00  0.00     0.147 A 
ATOM      2  N   UNL     1       3.436  46.076  55.554  1.00  0.00    -0.195 NA
ATOM      3  C   UNL     1       4.131  46.128  54.404  1.00  0.00     0.226 A 
ATOM      4  N   UNL     1       3.833  45.465  53.278  1.00  0.00    -0.193 NA
ATOM      5  C   UNL     1       2.730  44.715  53.399  1.00  0.00     0.165 A 
ATOM      6  C   UNL     1       1.940  44.586  54.525  1.00  0.00     0.082 A 
ATOM      7  C   UNL     1       0.922  43.691  54.135  1.00  0.00     0.149 A 
ATOM      8  N   UNL     1       1.045  43.278  52.868  1.00  0.00    -0.179 NA
ATOM      9  N   UNL     1       2.155  43.925  52.441  1.00  0.00    -0.250 N 
ATOM     10  C   UNL     1       2.611  43.734  51.087  1.00  0.00     0.176 C 
ENDROOT
BRANCH   1  11
ATOM     11  N   UNL     1       1.584  45.230  56.856  1.00  0.00    -0.339 N 
ATOM     12  H   UNL     1       1.676  44.341  57.329  1.00  0.00     0.168 HD
BRANCH  11  13
ATOM     13  C   UNL     1       0.709  46.124  57.496  1.00  0.00     0.040 A 
ATOM     14  C   UNL     1      -0.941  47.992  58.854  1.00  0.00     0.119 A 
ATOM     15  C   UNL     1      -1.409  47.321  57.729  1.00  0.00     0.048 A 
ATOM     16  C   UNL     1       0.354  47.733  59.301  1.00  0.00     0.048 A 
ATOM     17  C   UNL     1      -0.589  46.400  57.059  1.00  0.00     0.030 A 
ATOM     18  C   UNL     1       1.168  46.814  58.629  1.00  0.00     0.030 A 
BRANCH  14  19
ATOM     19  O   UNL     1      -1.632  48.908  59.596  1.00  0.00    -0.497 OA
ATOM     20  C   UNL     1      -1.060  49.285  60.842  1.00  0.00     0.278 C 
ENDBRANCH  14  19
ENDBRANCH  11  13
ENDBRANCH   1  11
BRANCH   3  21
ATOM     21  N   UNL     1       5.243  46.962  54.435  1.00  0.00    -0.351 N 
ATOM     22  H   UNL     1       5.714  46.757  55.314  1.00  0.00     0.163 HD
BRANCH  21  23
ATOM     23  C   UNL     1       6.126  46.829  53.281  1.00  0.00     0.148 C 
BRANCH  23  24
ATOM     24  C   UNL     1       7.569  46.571  53.739  1.00  0.00     0.137 C 
ATOM     25  C   UNL     1       8.632  46.849  52.688  1.00  0.00     0.036 C 
ATOM     26  O   UNL     1       7.897  47.394  54.882  1.00  0.00    -0.376 OA
ATOM     27  C   UNL     1       9.838  47.138  53.546  1.00  0.00     0.031 C 
ATOM     28  C   UNL     1       9.225  47.908  54.696  1.00  0.00     0.160 C 
ENDBRANCH  23  24
ENDBRANCH  21  23
ENDBRANCH   3  21
TORSDOF 6
ENDMDL
MODEL 15
REMARK VINA RESULT:    -8.053      3.584      6.345
REMARK INTER + INTRA:         -11.575
REMARK INTER:                 -10.785
REMARK INTRA:                  -0.791
REMARK UNBOUND:                -0.697
REMARK SMILES COc1ccc(Nc2nc(NC[C@H]3CCCO3)nc3c2cnn3C)cc1
REMARK SMILES IDX 8 1 9 2 10 3 18 4 19 5 20 6 21 7 22 8 23 9 24 10 7 11 6 13
REMARK SMILES IDX 3 14 4 15 26 16 5 17 25 18 2 19 1 20 11 21 12 23 13 24 14 25
REMARK SMILES IDX 17 26 15 27 16 28
REMARK H PARENT 7 12 11 22
ROOT
ATOM      1  C   UNL     1       2.919  45.755  53.195  1.00  0.00     0.147 A 
ATOM      2  N   UNL     1       2.749  45.780  54.544  1.00  0.00    -0.195 NA
ATOM      3  C   UNL     1       1.865  44.965  55.147  1.00  0.00     0.226 A 
ATOM      4  N   UNL     1       1.076  44.075  54.531  1.00  0.00    -0.193 NA
ATOM      5  C   UNL     1       1.253  44.060  53.203  1.00  0.00     0.165 A 
ATOM      6  C   UNL     1       2.128  44.847  52.480  1.00  0.00     0.082 A 
ATOM      7  C   UNL     1       1.927  44.450  51.141  1.00  0.00     0.149 A 
ATOM      8  N   UNL     1       1.002  43.491  51.012  1.00  0.00    -0.179 NA
ATOM      9  N   UNL     1       0.612  43.268  52.290  1.00  0.00    -0.250 N 
ATOM     10  C   UNL     1      -0.392  42.270  52.561  1.00  0.00     0.176 C 
ENDROOT
BRANCH   1  11
ATOM     11  N   UNL     1       3.825  46.605  52.542  1.00  0.00    -0.339 N 
ATOM     12  H   UNL     1       3.425  47.493  52.273  1.00  0.00     0.168 HD
BRANCH  11  13
ATOM     13  C   UNL     1       5.164  46.444  52.148  1.00  0.00     0.040 A 
ATOM     14  C   UNL     1       7.910  46.166  51.486  1.00  0.00     0.119 A 
ATOM     15  C   UNL     1       6.934  45.499  50.752  1.00  0.00     0.048 A 
ATOM     16  C   UNL     1       7.516  46.970  52.553  1.00  0.00     0.048 A 
ATOM     17  C   UNL     1       5.577  45.637  51.085  1.00  0.00     0.030 A 
ATOM     18  C   UNL     1       6.161  47.105  52.882  1.00  0.00     0.030 A 
BRANCH  14  19
ATOM     19  O   UNL     1       9.259  46.119  51.269  1.00  0.00    -0.497 OA
ATOM     20  C   UNL     1      10.095  46.472  52.363  1.00  0.00     0.278 C 
ENDBRANCH  14  19
ENDBRANCH  11  13
ENDBRANCH   1  11
BRANCH   3  21
ATOM     21  N   UNL     1       1.809  45.092  56.529  1.00  0.00    -0.351 N 
ATOM     22  H   UNL     1       2.404  45.887  56.756  1.00  0.00     0.163 HD
BRANCH  21  23
ATOM     23  C   UNL     1       0.459  45.232  57.065  1.00  0.00     0.148 C 
BRANCH  23  24
ATOM     24  C   UNL     1       0.212  46.678  57.520  1.00  0.00     0.137 C 
ATOM     25  C   UNL     1      -1.245  47.022  57.792  1.00  0.00     0.036 C 
ATOM     26  O   UNL     1       0.934  46.960  58.741  1.00  0.00    -0.376 OA
ATOM     27  C   UNL     1      -1.109  48.160  58.771  1.00  0.00     0.031 C 
ATOM     28  C   UNL     1       0.072  47.714  59.607  1.00  0.00     0.160 C 
ENDBRANCH  23  24
ENDBRANCH  21  23
ENDBRANCH   3  21
TORSDOF 6
ENDMDL
MODEL 16
REMARK VINA RESULT:    -7.981      2.822      7.494
REMARK INTER + INTRA:         -11.478
REMARK INTER:                 -10.693
REMARK INTRA:                  -0.786
REMARK UNBOUND:                -0.697
REMARK SMILES COc1ccc(Nc2nc(NC[C@H]3CCCO3)nc3c2cnn3C)cc1
REMARK SMILES IDX 8 1 9 2 10 3 18 4 19 5 20 6 21 7 22 8 23 9 24 10 7 11 6 13
REMARK SMILES IDX 3 14 4 15 26 16 5 17 25 18 2 19 1 20 11 21 12 23 13 24 14 25
REMARK SMILES IDX 17 26 15 27 16 28
REMARK H PARENT 7 12 11 22
ROOT
ATOM      1  C   UNL     1       5.302  44.578  51.360  1.00  0.00     0.147 A 
ATOM      2  N   UNL     1       5.497  43.434  50.652  1.00  0.00    -0.195 NA
ATOM      3  C   UNL     1       4.638  42.403  50.749  1.00  0.00     0.226 A 
ATOM      4  N   UNL     1       3.541  42.368  51.518  1.00  0.00    -0.193 NA
ATOM      5  C   UNL     1       3.360  43.502  52.209  1.00  0.00     0.165 A 
ATOM      6  C   UNL     1       4.172  44.619  52.188  1.00  0.00     0.082 A 
ATOM      7  C   UNL     1       3.552  45.517  53.080  1.00  0.00     0.149 A 
ATOM      8  N   UNL     1       2.437  45.022  53.631  1.00  0.00    -0.179 NA
ATOM      9  N   UNL     1       2.341  43.791  53.075  1.00  0.00    -0.250 N 
ATOM     10  C   UNL     1       1.234  42.938  53.427  1.00  0.00     0.176 C 
ENDROOT
BRANCH   1  11
ATOM     11  N   UNL     1       6.191  45.661  51.285  1.00  0.00    -0.339 N 
ATOM     12  H   UNL     1       6.081  46.218  50.448  1.00  0.00     0.168 HD
BRANCH  11  13
ATOM     13  C   UNL     1       7.234  46.094  52.120  1.00  0.00     0.040 A 
ATOM     14  C   UNL     1       9.425  46.990  53.687  1.00  0.00     0.119 A 
ATOM     15  C   UNL     1       8.137  46.973  54.215  1.00  0.00     0.048 A 
ATOM     16  C   UNL     1       9.619  46.563  52.375  1.00  0.00     0.048 A 
ATOM     17  C   UNL     1       7.057  46.532  53.435  1.00  0.00     0.030 A 
ATOM     18  C   UNL     1       8.538  46.123  51.601  1.00  0.00     0.030 A 
BRANCH  14  19
ATOM     19  O   UNL     1      10.559  47.394  54.334  1.00  0.00    -0.497 OA
ATOM     20  C   UNL     1      10.465  47.563  55.743  1.00  0.00     0.278 C 
ENDBRANCH  14  19
ENDBRANCH  11  13
ENDBRANCH   1  11
BRANCH   3  21
ATOM     21  N   UNL     1       4.957  41.306  49.959  1.00  0.00    -0.351 N 
ATOM     22  H   UNL     1       5.310  40.598  50.601  1.00  0.00     0.163 HD
BRANCH  21  23
ATOM     23  C   UNL     1       3.855  40.817  49.138  1.00  0.00     0.148 C 
BRANCH  23  24
ATOM     24  C   UNL     1       4.357  40.448  47.734  1.00  0.00     0.137 C 
ATOM     25  C   UNL     1       3.294  40.486  46.646  1.00  0.00     0.036 C 
ATOM     26  O   UNL     1       5.406  41.350  47.313  1.00  0.00    -0.376 OA
ATOM     27  C   UNL     1       4.130  40.729  45.414  1.00  0.00     0.031 C 
ATOM     28  C   UNL     1       5.182  41.686  45.935  1.00  0.00     0.160 C 
ENDBRANCH  23  24
ENDBRANCH  21  23
ENDBRANCH   3  21
TORSDOF 6
ENDMDL
MODEL 17
REMARK VINA RESULT:    -7.979      3.407      7.122
REMARK INTER + INTRA:         -11.475
REMARK INTER:                 -10.111
REMARK INTRA:                  -1.364
REMARK UNBOUND:                -0.697
REMARK SMILES COc1ccc(Nc2nc(NC[C@H]3CCCO3)nc3c2cnn3C)cc1
REMARK SMILES IDX 8 1 9 2 10 3 18 4 19 5 20 6 21 7 22 8 23 9 24 10 7 11 6 13
REMARK SMILES IDX 3 14 4 15 26 16 5 17 25 18 2 19 1 20 11 21 12 23 13 24 14 25
REMARK SMILES IDX 17 26 15 27 16 28
REMARK H PARENT 7 12 11 22
ROOT
ATOM      1  C   UNL     1       1.949  45.288  55.568  1.00  0.00     0.147 A 
ATOM      2  N   UNL     1       1.714  44.497  54.487  1.00  0.00    -0.195 NA
ATOM      3  C   UNL     1       0.483  44.016  54.234  1.00  0.00     0.226 A 
ATOM      4  N   UNL     1      -0.610  44.236  54.976  1.00  0.00    -0.193 NA
ATOM      5  C   UNL     1      -0.365  45.016  56.037  1.00  0.00     0.165 A 
ATOM      6  C   UNL     1       0.851  45.564  56.393  1.00  0.00     0.082 A 
ATOM      7  C   UNL     1       0.575  46.288  57.573  1.00  0.00     0.149 A 
ATOM      8  N   UNL     1      -0.708  46.211  57.945  1.00  0.00    -0.179 NA
ATOM      9  N   UNL     1      -1.260  45.433  56.985  1.00  0.00    -0.250 N 
ATOM     10  C   UNL     1      -2.667  45.127  57.042  1.00  0.00     0.176 C 
ENDROOT
BRANCH   1  11
ATOM     11  N   UNL     1       3.226  45.790  55.859  1.00  0.00    -0.339 N 
ATOM     12  H   UNL     1       3.355  46.028  56.833  1.00  0.00     0.168 HD
BRANCH  11  13
ATOM     13  C   UNL     1       4.343  46.072  55.055  1.00  0.00     0.040 A 
ATOM     14  C   UNL     1       6.639  46.497  53.441  1.00  0.00     0.119 A 
ATOM     15  C   UNL     1       5.583  47.404  53.423  1.00  0.00     0.048 A 
ATOM     16  C   UNL     1       6.548  45.375  54.262  1.00  0.00     0.048 A 
ATOM     17  C   UNL     1       4.449  47.187  54.221  1.00  0.00     0.030 A 
ATOM     18  C   UNL     1       5.414  45.164  55.056  1.00  0.00     0.030 A 
BRANCH  14  19
ATOM     19  O   UNL     1       7.795  46.588  52.717  1.00  0.00    -0.497 OA
ATOM     20  C   UNL     1       7.740  46.145  51.367  1.00  0.00     0.278 C 
ENDBRANCH  14  19
ENDBRANCH  11  13
ENDBRANCH   1  11
BRANCH   3  21
ATOM     21  N   UNL     1       0.390  43.234  53.089  1.00  0.00    -0.351 N 
ATOM     22  H   UNL     1      -0.482  42.716  53.181  1.00  0.00     0.163 HD
BRANCH  21  23
ATOM     23  C   UNL     1       0.466  43.987  51.841  1.00  0.00     0.148 C 
BRANCH  23  24
ATOM     24  C   UNL     1       1.857  43.836  51.209  1.00  0.00     0.137 C 
ATOM     25  C   UNL     1       2.766  45.045  51.369  1.00  0.00     0.036 C 
ATOM     26  O   UNL     1       2.562  42.714  51.787  1.00  0.00    -0.376 OA
ATOM     27  C   UNL     1       4.131  44.412  51.269  1.00  0.00     0.031 C 
ATOM     28  C   UNL     1       3.925  43.106  52.008  1.00  0.00     0.160 C 
ENDBRANCH  23  24
ENDBRANCH  21  23
ENDBRANCH   3  21
TORSDOF 6
ENDMDL
MODEL 18
REMARK VINA RESULT:    -7.942      1.401      5.590
REMARK INTER + INTRA:         -11.425
REMARK INTER:                 -10.590
REMARK INTRA:                  -0.835
REMARK UNBOUND:                -0.697
REMARK SMILES COc1ccc(Nc2nc(NC[C@H]3CCCO3)nc3c2cnn3C)cc1
REMARK SMILES IDX 8 1 9 2 10 3 18 4 19 5 20 6 21 7 22 8 23 9 24 10 7 11 6 13
REMARK SMILES IDX 3 14 4 15 26 16 5 17 25 18 2 19 1 20 11 21 12 23 13 24 14 25
REMARK SMILES IDX 17 26 15 27 16 28
REMARK H PARENT 7 12 11 22
ROOT
ATOM      1  C   UNL     1       5.784  46.349  52.367  1.00  0.00     0.147 A 
ATOM      2  N   UNL     1       5.532  45.435  51.393  1.00  0.00    -0.195 NA
ATOM      3  C   UNL     1       6.529  44.906  50.663  1.00  0.00     0.226 A 
ATOM      4  N   UNL     1       7.831  45.197  50.789  1.00  0.00    -0.193 NA
ATOM      5  C   UNL     1       8.066  46.098  51.752  1.00  0.00     0.165 A 
ATOM      6  C   UNL     1       7.125  46.706  52.560  1.00  0.00     0.082 A 
ATOM      7  C   UNL     1       7.879  47.561  53.390  1.00  0.00     0.149 A 
ATOM      8  N   UNL     1       9.192  47.511  53.138  1.00  0.00    -0.179 NA
ATOM      9  N   UNL     1       9.278  46.605  52.136  1.00  0.00    -0.250 N 
ATOM     10  C   UNL     1      10.569  46.270  51.591  1.00  0.00     0.176 C 
ENDROOT
BRANCH   1  11
ATOM     11  N   UNL     1       4.759  46.925  53.133  1.00  0.00    -0.339 N 
ATOM     12  H   UNL     1       4.898  47.909  53.320  1.00  0.00     0.168 HD
BRANCH  11  13
ATOM     13  C   UNL     1       3.604  46.392  53.729  1.00  0.00     0.040 A 
ATOM     14  C   UNL     1       1.217  45.288  54.797  1.00  0.00     0.119 A 
ATOM     15  C   UNL     1       2.359  45.402  55.585  1.00  0.00     0.048 A 
ATOM     16  C   UNL     1       1.267  45.722  53.474  1.00  0.00     0.048 A 
ATOM     17  C   UNL     1       3.537  45.946  55.051  1.00  0.00     0.030 A 
ATOM     18  C   UNL     1       2.446  46.264  52.946  1.00  0.00     0.030 A 
BRANCH  14  19
ATOM     19  O   UNL     1       0.011  44.779  55.190  1.00  0.00    -0.497 OA
ATOM     20  C   UNL     1      -0.495  45.227  56.441  1.00  0.00     0.278 C 
ENDBRANCH  14  19
ENDBRANCH  11  13
ENDBRANCH   1  11
BRANCH   3  21
ATOM     21  N   UNL     1       6.123  43.975  49.714  1.00  0.00    -0.351 N 
ATOM     22  H   UNL     1       6.198  44.449  48.816  1.00  0.00     0.163 HD
BRANCH  21  23
ATOM     23  C   UNL     1       6.865  42.720  49.749  1.00  0.00     0.148 C 
BRANCH  23  24
ATOM     24  C   UNL     1       5.898  41.528  49.812  1.00  0.00     0.137 C 
ATOM     25  C   UNL     1       4.593  41.804  50.542  1.00  0.00     0.036 C 
ATOM     26  O   UNL     1       5.539  41.091  48.481  1.00  0.00    -0.376 OA
ATOM     27  C   UNL     1       3.673  40.789  49.911  1.00  0.00     0.031 C 
ATOM     28  C   UNL     1       4.132  40.808  48.468  1.00  0.00     0.160 C 
ENDBRANCH  23  24
ENDBRANCH  21  23
ENDBRANCH   3  21
TORSDOF 6
ENDMDL
MODEL 19
REMARK VINA RESULT:    -7.904      2.707      4.371
REMARK INTER + INTRA:         -11.373
REMARK INTER:                 -10.385
REMARK INTRA:                  -0.988
REMARK UNBOUND:                -0.697
REMARK SMILES COc1ccc(Nc2nc(NC[C@H]3CCCO3)nc3c2cnn3C)cc1
REMARK SMILES IDX 8 1 9 2 10 3 18 4 19 5 20 6 21 7 22 8 23 9 24 10 7 11 6 13
REMARK SMILES IDX 3 14 4 15 26 16 5 17 25 18 2 19 1 20 11 21 12 23 13 24 14 25
REMARK SMILES IDX 17 26 15 27 16 28
REMARK H PARENT 7 12 11 22
ROOT
ATOM      1  C   UNL     1       5.330  42.247  50.045  1.00  0.00     0.147 A 
ATOM      2  N   UNL     1       4.312  41.950  50.895  1.00  0.00    -0.195 NA
ATOM      3  C   UNL     1       4.011  42.758  51.927  1.00  0.00     0.226 A 
ATOM      4  N   UNL     1       4.643  43.898  52.238  1.00  0.00    -0.193 NA
ATOM      5  C   UNL     1       5.643  44.180  51.393  1.00  0.00     0.165 A 
ATOM      6  C   UNL     1       6.040  43.427  50.305  1.00  0.00     0.082 A 
ATOM      7  C   UNL     1       7.123  44.148  49.759  1.00  0.00     0.149 A 
ATOM      8  N   UNL     1       7.401  45.267  50.437  1.00  0.00    -0.179 NA
ATOM      9  N   UNL     1       6.477  45.264  51.427  1.00  0.00    -0.250 N 
ATOM     10  C   UNL     1       6.454  46.346  52.379  1.00  0.00     0.176 C 
ENDROOT
BRANCH   1  11
ATOM     11  N   UNL     1       5.671  41.413  48.969  1.00  0.00    -0.339 N 
ATOM     12  H   UNL     1       6.525  40.892  49.117  1.00  0.00     0.168 HD
BRANCH  11  13
ATOM     13  C   UNL     1       5.084  41.195  47.712  1.00  0.00     0.040 A 
ATOM     14  C   UNL     1       3.774  40.720  45.240  1.00  0.00     0.119 A 
ATOM     15  C   UNL     1       4.929  41.493  45.290  1.00  0.00     0.048 A 
ATOM     16  C   UNL     1       3.269  40.186  46.424  1.00  0.00     0.048 A 
ATOM     17  C   UNL     1       5.572  41.728  46.516  1.00  0.00     0.030 A 
ATOM     18  C   UNL     1       3.914  40.424  47.643  1.00  0.00     0.030 A 
BRANCH  14  19
ATOM     19  O   UNL     1       3.053  40.415  44.119  1.00  0.00    -0.497 OA
ATOM     20  C   UNL     1       1.650  40.641  44.180  1.00  0.00     0.278 C 
ENDBRANCH  14  19
ENDBRANCH  11  13
ENDBRANCH   1  11
BRANCH   3  21
ATOM     21  N   UNL     1       2.939  42.334  52.703  1.00  0.00    -0.351 N 
ATOM     22  H   UNL     1       3.103  42.719  53.631  1.00  0.00     0.163 HD
BRANCH  21  23
ATOM     23  C   UNL     1       1.631  42.697  52.168  1.00  0.00     0.148 C 
BRANCH  23  24
ATOM     24  C   UNL     1       1.093  43.950  52.876  1.00  0.00     0.137 C 
ATOM     25  C   UNL     1       1.579  44.134  54.306  1.00  0.00     0.036 C 
ATOM     26  O   UNL     1       1.475  45.145  52.157  1.00  0.00    -0.376 OA
ATOM     27  C   UNL     1       1.456  45.627  54.478  1.00  0.00     0.031 C 
ATOM     28  C   UNL     1       1.881  46.134  53.116  1.00  0.00     0.160 C 
ENDBRANCH  23  24
ENDBRANCH  21  23
ENDBRANCH   3  21
TORSDOF 6
ENDMDL
MODEL 20
REMARK VINA RESULT:    -7.857      3.114      7.324
REMARK INTER + INTRA:         -11.310
REMARK INTER:                 -10.669
REMARK INTRA:                  -0.640
REMARK UNBOUND:                -0.697
REMARK SMILES COc1ccc(Nc2nc(NC[C@H]3CCCO3)nc3c2cnn3C)cc1
REMARK SMILES IDX 8 1 9 2 10 3 18 4 19 5 20 6 21 7 22 8 23 9 24 10 7 11 6 13
REMARK SMILES IDX 3 14 4 15 26 16 5 17 25 18 2 19 1 20 11 21 12 23 13 24 14 25
REMARK SMILES IDX 17 26 15 27 16 28
REMARK H PARENT 7 12 11 22
ROOT
ATOM      1  C   UNL     1       3.453  44.476  52.771  1.00  0.00     0.147 A 
ATOM      2  N   UNL     1       3.962  43.293  52.335  1.00  0.00    -0.195 NA
ATOM      3  C   UNL     1       3.205  42.427  51.639  1.00  0.00     0.226 A 
ATOM      4  N   UNL     1       1.919  42.604  51.305  1.00  0.00    -0.193 NA
ATOM      5  C   UNL     1       1.430  43.773  51.739  1.00  0.00     0.165 A 
ATOM      6  C   UNL     1       2.111  44.735  52.460  1.00  0.00     0.082 A 
ATOM      7  C   UNL     1       1.159  45.754  52.668  1.00  0.00     0.149 A 
ATOM      8  N   UNL     1      -0.033  45.473  52.129  1.00  0.00    -0.179 NA
ATOM      9  N   UNL     1       0.163  44.259  51.564  1.00  0.00    -0.250 N 
ATOM     10  C   UNL     1      -0.921  43.618  50.863  1.00  0.00     0.176 C 
ENDROOT
BRANCH   1  11
ATOM     11  N   UNL     1       4.219  45.390  53.511  1.00  0.00    -0.339 N 
ATOM     12  H   UNL     1       3.715  45.813  54.278  1.00  0.00     0.168 HD
BRANCH  11  13
ATOM     13  C   UNL     1       5.533  45.865  53.365  1.00  0.00     0.040 A 
ATOM     14  C   UNL     1       8.155  46.862  52.931  1.00  0.00     0.119 A 
ATOM     15  C   UNL     1       7.660  46.711  54.223  1.00  0.00     0.048 A 
ATOM     16  C   UNL     1       7.339  46.518  51.855  1.00  0.00     0.048 A 
ATOM     17  C   UNL     1       6.362  46.221  54.433  1.00  0.00     0.030 A 
ATOM     18  C   UNL     1       6.045  46.030  52.069  1.00  0.00     0.030 A 
BRANCH  14  19
ATOM     19  O   UNL     1       9.394  47.326  52.588  1.00  0.00    -0.497 OA
ATOM     20  C   UNL     1      10.292  46.387  52.011  1.00  0.00     0.278 C 
ENDBRANCH  14  19
ENDBRANCH  11  13
ENDBRANCH   1  11
BRANCH   3  21
ATOM     21  N   UNL     1       3.862  41.266  51.248  1.00  0.00    -0.351 N 
ATOM     22  H   UNL     1       3.308  40.498  51.624  1.00  0.00     0.163 HD
BRANCH  21  23
ATOM     23  C   UNL     1       4.074  41.152  49.810  1.00  0.00     0.148 C 
BRANCH  23  24
ATOM     24  C   UNL     1       5.539  41.456  49.459  1.00  0.00     0.137 C 
ATOM     25  C   UNL     1       5.754  42.051  48.076  1.00  0.00     0.036 C 
ATOM     26  O   UNL     1       6.105  42.394  50.401  1.00  0.00    -0.376 OA
ATOM     27  C   UNL     1       7.050  42.797  48.266  1.00  0.00     0.031 C 
ATOM     28  C   UNL     1       6.892  43.345  49.668  1.00  0.00     0.160 C 
ENDBRANCH  23  24
ENDBRANCH  21  23
ENDBRANCH   3  21
TORSDOF 6
ENDMDL
