MODEL 1
REMARK VINA RESULT:    -8.046      0.000      0.000
REMARK INTER + INTRA:         -11.895
REMARK INTER:                 -11.104
REMARK INTRA:                  -0.791
REMARK UNBOUND:                -0.791
REMARK SMILES COc1ccc(Nc2nc(NCCO)nc3nccnc23)cc1
REMARK SMILES IDX 8 1 9 2 10 3 15 4 16 5 17 6 18 7 19 8 20 9 21 10 7 11 6 13
REMARK SMILES IDX 3 14 4 15 23 16 5 17 22 18 2 19 1 20 11 21 12 23 13 24 14 25
REMARK H PARENT 7 12 11 22 14 26
ROOT
ATOM      1  C   UNL     1       4.851  44.556  51.630  1.00  0.00     0.164 A 
ATOM      2  N   UNL     1       3.842  44.525  52.519  1.00  0.00    -0.193 NA
ATOM      3  C   UNL     1       3.141  43.401  52.628  1.00  0.00     0.226 A 
ATOM      4  N   UNL     1       3.387  42.303  51.920  1.00  0.00    -0.191 NA
ATOM      5  C   UNL     1       4.383  42.335  51.044  1.00  0.00     0.185 A 
ATOM      6  N   UNL     1       4.620  41.219  50.345  1.00  0.00    -0.233 NA
ATOM      7  C   UNL     1       5.635  41.231  49.452  1.00  0.00     0.133 A 
ATOM      8  C   UNL     1       6.426  42.339  49.253  1.00  0.00     0.132 A 
ATOM      9  N   UNL     1       6.226  43.477  49.942  1.00  0.00    -0.247 NA
ATOM     10  C   UNL     1       5.186  43.462  50.836  1.00  0.00     0.150 A 
ENDROOT
BRANCH   1  11
ATOM     11  N   UNL     1       5.611  45.744  51.435  1.00  0.00    -0.338 N 
ATOM     12  H   UNL     1       5.363  46.174  50.547  1.00  0.00     0.168 HD
BRANCH  11  13
ATOM     13  C   UNL     1       6.821  46.191  51.989  1.00  0.00     0.040 A 
ATOM     14  C   UNL     1       9.222  47.042  53.234  1.00  0.00     0.119 A 
ATOM     15  C   UNL     1       8.053  46.893  53.977  1.00  0.00     0.048 A 
ATOM     16  C   UNL     1       9.196  46.753  51.872  1.00  0.00     0.048 A 
ATOM     17  C   UNL     1       6.870  46.466  53.364  1.00  0.00     0.030 A 
ATOM     18  C   UNL     1       8.006  46.327  51.263  1.00  0.00     0.030 A 
BRANCH  14  19
ATOM     19  O   UNL     1      10.307  47.465  53.950  1.00  0.00    -0.497 OA
ATOM     20  C   UNL     1      10.184  47.454  55.367  1.00  0.00     0.278 C 
ENDBRANCH  14  19
ENDBRANCH  11  13
ENDBRANCH   1  11
BRANCH   3  21
ATOM     21  N   UNL     1       2.109  43.427  53.553  1.00  0.00    -0.352 N 
ATOM     22  H   UNL     1       1.360  42.864  53.162  1.00  0.00     0.163 HD
BRANCH  21  23
ATOM     23  C   UNL     1       1.715  44.744  54.028  1.00  0.00     0.144 C 
BRANCH  23  24
ATOM     24  C   UNL     1       2.034  44.938  55.513  1.00  0.00     0.177 C 
BRANCH  24  25
ATOM     25  O   UNL     1       3.443  44.872  55.732  1.00  0.00    -0.395 OA
ATOM     26  H   UNL     1       3.659  45.588  56.356  1.00  0.00     0.210 HD
ENDBRANCH  24  25
ENDBRANCH  23  24
ENDBRANCH  21  23
ENDBRANCH   3  21
TORSDOF 7
ENDMDL
MODEL 2
REMARK VINA RESULT:    -7.917      0.201      1.018
REMARK INTER + INTRA:         -11.717
REMARK INTER:                 -10.898
REMARK INTRA:                  -0.818
REMARK UNBOUND:                -0.791
REMARK SMILES COc1ccc(Nc2nc(NCCO)nc3nccnc23)cc1
REMARK SMILES IDX 8 1 9 2 10 3 15 4 16 5 17 6 18 7 19 8 20 9 21 10 7 11 6 13
REMARK SMILES IDX 3 14 4 15 23 16 5 17 22 18 2 19 1 20 11 21 12 23 13 24 14 25
REMARK H PARENT 7 12 11 22 14 26
ROOT
ATOM      1  C   UNL     1       4.807  44.478  51.673  1.00  0.00     0.164 A 
ATOM      2  N   UNL     1       3.784  44.467  52.548  1.00  0.00    -0.193 NA
ATOM      3  C   UNL     1       3.025  43.377  52.607  1.00  0.00     0.226 A 
ATOM      4  N   UNL     1       3.225  42.294  51.863  1.00  0.00    -0.191 NA
ATOM      5  C   UNL     1       4.234  42.306  51.002  1.00  0.00     0.185 A 
ATOM      6  N   UNL     1       4.424  41.204  50.266  1.00  0.00    -0.233 NA
ATOM      7  C   UNL     1       5.451  41.196  49.387  1.00  0.00     0.133 A 
ATOM      8  C   UNL     1       6.301  42.268  49.238  1.00  0.00     0.132 A 
ATOM      9  N   UNL     1       6.149  43.389  49.966  1.00  0.00    -0.247 NA
ATOM     10  C   UNL     1       5.097  43.397  50.845  1.00  0.00     0.150 A 
ENDROOT
BRANCH   1  11
ATOM     11  N   UNL     1       5.630  45.631  51.531  1.00  0.00    -0.338 N 
ATOM     12  H   UNL     1       5.532  46.014  50.593  1.00  0.00     0.168 HD
BRANCH  11  13
ATOM     13  C   UNL     1       6.757  46.077  52.237  1.00  0.00     0.040 A 
ATOM     14  C   UNL     1       9.082  47.039  53.546  1.00  0.00     0.119 A 
ATOM     15  C   UNL     1       9.081  46.821  52.170  1.00  0.00     0.048 A 
ATOM     16  C   UNL     1       7.917  46.789  54.267  1.00  0.00     0.048 A 
ATOM     17  C   UNL     1       7.933  46.353  51.523  1.00  0.00     0.030 A 
ATOM     18  C   UNL     1       6.768  46.318  53.613  1.00  0.00     0.030 A 
BRANCH  14  19
ATOM     19  O   UNL     1      10.265  47.496  54.056  1.00  0.00    -0.497 OA
ATOM     20  C   UNL     1      10.402  47.477  55.471  1.00  0.00     0.278 C 
ENDBRANCH  14  19
ENDBRANCH  11  13
ENDBRANCH   1  11
BRANCH   3  21
ATOM     21  N   UNL     1       1.982  43.424  53.519  1.00  0.00    -0.352 N 
ATOM     22  H   UNL     1       1.214  42.907  53.103  1.00  0.00     0.163 HD
BRANCH  21  23
ATOM     23  C   UNL     1       1.642  44.743  54.028  1.00  0.00     0.144 C 
BRANCH  23  24
ATOM     24  C   UNL     1       1.985  44.892  55.513  1.00  0.00     0.177 C 
BRANCH  24  25
ATOM     25  O   UNL     1       3.400  44.877  55.701  1.00  0.00    -0.395 OA
ATOM     26  H   UNL     1       3.557  45.122  56.630  1.00  0.00     0.210 HD
ENDBRANCH  24  25
ENDBRANCH  23  24
ENDBRANCH  21  23
ENDBRANCH   3  21
TORSDOF 7
ENDMDL
MODEL 3
REMARK VINA RESULT:    -7.879      2.597      5.939
REMARK INTER + INTRA:         -11.665
REMARK INTER:                 -11.111
REMARK INTRA:                  -0.554
REMARK UNBOUND:                -0.791
REMARK SMILES COc1ccc(Nc2nc(NCCO)nc3nccnc23)cc1
REMARK SMILES IDX 8 1 9 2 10 3 15 4 16 5 17 6 18 7 19 8 20 9 21 10 7 11 6 13
REMARK SMILES IDX 3 14 4 15 23 16 5 17 22 18 2 19 1 20 11 21 12 23 13 24 14 25
REMARK H PARENT 7 12 11 22 14 26
ROOT
ATOM      1  C   UNL     1       6.370  45.986  52.402  1.00  0.00     0.164 A 
ATOM      2  N   UNL     1       5.242  46.229  53.095  1.00  0.00    -0.193 NA
ATOM      3  C   UNL     1       5.352  46.848  54.267  1.00  0.00     0.226 A 
ATOM      4  N   UNL     1       6.507  47.251  54.787  1.00  0.00    -0.191 NA
ATOM      5  C   UNL     1       7.617  47.011  54.101  1.00  0.00     0.185 A 
ATOM      6  N   UNL     1       8.770  47.430  54.637  1.00  0.00    -0.233 NA
ATOM      7  C   UNL     1       9.911  47.199  53.950  1.00  0.00     0.133 A 
ATOM      8  C   UNL     1       9.920  46.565  52.729  1.00  0.00     0.132 A 
ATOM      9  N   UNL     1       8.782  46.138  52.153  1.00  0.00    -0.247 NA
ATOM     10  C   UNL     1       7.629  46.362  52.861  1.00  0.00     0.150 A 
ENDROOT
BRANCH   1  11
ATOM     11  N   UNL     1       6.323  45.288  51.161  1.00  0.00    -0.338 N 
ATOM     12  H   UNL     1       6.445  45.941  50.391  1.00  0.00     0.168 HD
BRANCH  11  13
ATOM     13  C   UNL     1       5.790  44.041  50.801  1.00  0.00     0.040 A 
ATOM     14  C   UNL     1       4.584  41.574  50.095  1.00  0.00     0.119 A 
ATOM     15  C   UNL     1       3.937  42.460  50.954  1.00  0.00     0.048 A 
ATOM     16  C   UNL     1       5.827  41.926  49.578  1.00  0.00     0.048 A 
ATOM     17  C   UNL     1       4.528  43.680  51.297  1.00  0.00     0.030 A 
ATOM     18  C   UNL     1       6.417  43.151  49.926  1.00  0.00     0.030 A 
BRANCH  14  19
ATOM     19  O   UNL     1       3.900  40.418  49.840  1.00  0.00    -0.497 OA
ATOM     20  C   UNL     1       3.542  40.172  48.485  1.00  0.00     0.278 C 
ENDBRANCH  14  19
ENDBRANCH  11  13
ENDBRANCH   1  11
BRANCH   3  21
ATOM     21  N   UNL     1       4.161  47.066  54.941  1.00  0.00    -0.352 N 
ATOM     22  H   UNL     1       4.289  47.915  55.482  1.00  0.00     0.163 HD
BRANCH  21  23
ATOM     23  C   UNL     1       3.632  45.931  55.680  1.00  0.00     0.144 C 
BRANCH  23  24
ATOM     24  C   UNL     1       2.395  45.331  55.004  1.00  0.00     0.177 C 
BRANCH  24  25
ATOM     25  O   UNL     1       2.771  44.261  54.138  1.00  0.00    -0.395 OA
ATOM     26  H   UNL     1       2.292  44.402  53.302  1.00  0.00     0.210 HD
ENDBRANCH  24  25
ENDBRANCH  23  24
ENDBRANCH  21  23
ENDBRANCH   3  21
TORSDOF 7
ENDMDL
MODEL 4
REMARK VINA RESULT:    -7.766      1.091      1.098
REMARK INTER + INTRA:         -11.508
REMARK INTER:                 -10.728
REMARK INTRA:                  -0.780
REMARK UNBOUND:                -0.791
REMARK SMILES COc1ccc(Nc2nc(NCCO)nc3nccnc23)cc1
REMARK SMILES IDX 8 1 9 2 10 3 15 4 16 5 17 6 18 7 19 8 20 9 21 10 7 11 6 13
REMARK SMILES IDX 3 14 4 15 23 16 5 17 22 18 2 19 1 20 11 21 12 23 13 24 14 25
REMARK H PARENT 7 12 11 22 14 26
ROOT
ATOM      1  C   UNL     1       4.845  44.560  51.647  1.00  0.00     0.164 A 
ATOM      2  N   UNL     1       3.856  44.535  52.560  1.00  0.00    -0.193 NA
ATOM      3  C   UNL     1       3.148  43.416  52.680  1.00  0.00     0.226 A 
ATOM      4  N   UNL     1       3.368  42.319  51.963  1.00  0.00    -0.191 NA
ATOM      5  C   UNL     1       4.344  42.345  51.065  1.00  0.00     0.185 A 
ATOM      6  N   UNL     1       4.555  41.229  50.357  1.00  0.00    -0.233 NA
ATOM      7  C   UNL     1       5.549  41.236  49.441  1.00  0.00     0.133 A 
ATOM      8  C   UNL     1       6.345  42.338  49.227  1.00  0.00     0.132 A 
ATOM      9  N   UNL     1       6.172  43.474  49.925  1.00  0.00    -0.247 NA
ATOM     10  C   UNL     1       5.152  43.466  50.842  1.00  0.00     0.150 A 
ENDROOT
BRANCH   1  11
ATOM     11  N   UNL     1       5.612  45.742  51.439  1.00  0.00    -0.338 N 
ATOM     12  H   UNL     1       5.350  46.175  50.556  1.00  0.00     0.168 HD
BRANCH  11  13
ATOM     13  C   UNL     1       6.835  46.178  51.971  1.00  0.00     0.040 A 
ATOM     14  C   UNL     1       9.273  46.995  53.166  1.00  0.00     0.119 A 
ATOM     15  C   UNL     1       8.153  46.726  53.951  1.00  0.00     0.048 A 
ATOM     16  C   UNL     1       9.179  46.843  51.785  1.00  0.00     0.048 A 
ATOM     17  C   UNL     1       6.953  46.316  53.362  1.00  0.00     0.030 A 
ATOM     18  C   UNL     1       7.971  46.433  51.200  1.00  0.00     0.030 A 
BRANCH  14  19
ATOM     19  O   UNL     1      10.382  47.386  53.862  1.00  0.00    -0.497 OA
ATOM     20  C   UNL     1      10.278  47.394  55.281  1.00  0.00     0.278 C 
ENDBRANCH  14  19
ENDBRANCH  11  13
ENDBRANCH   1  11
BRANCH   3  21
ATOM     21  N   UNL     1       2.138  43.448  53.629  1.00  0.00    -0.352 N 
ATOM     22  H   UNL     1       2.239  42.605  54.185  1.00  0.00     0.163 HD
BRANCH  21  23
ATOM     23  C   UNL     1       0.798  43.702  53.122  1.00  0.00     0.144 C 
BRANCH  23  24
ATOM     24  C   UNL     1       0.314  45.115  53.460  1.00  0.00     0.177 C 
BRANCH  24  25
ATOM     25  O   UNL     1       0.930  46.072  52.598  1.00  0.00    -0.395 OA
ATOM     26  H   UNL     1       1.829  46.216  52.944  1.00  0.00     0.210 HD
ENDBRANCH  24  25
ENDBRANCH  23  24
ENDBRANCH  21  23
ENDBRANCH   3  21
TORSDOF 7
ENDMDL
MODEL 5
REMARK VINA RESULT:    -7.685      2.578      3.754
REMARK INTER + INTRA:         -11.397
REMARK INTER:                 -10.831
REMARK INTRA:                  -0.566
REMARK UNBOUND:                -0.791
REMARK SMILES COc1ccc(Nc2nc(NCCO)nc3nccnc23)cc1
REMARK SMILES IDX 8 1 9 2 10 3 15 4 16 5 17 6 18 7 19 8 20 9 21 10 7 11 6 13
REMARK SMILES IDX 3 14 4 15 23 16 5 17 22 18 2 19 1 20 11 21 12 23 13 24 14 25
REMARK H PARENT 7 12 11 22 14 26
ROOT
ATOM      1  C   UNL     1       2.870  45.695  53.377  1.00  0.00     0.164 A 
ATOM      2  N   UNL     1       2.895  46.150  54.643  1.00  0.00    -0.193 NA
ATOM      3  C   UNL     1       2.133  45.534  55.543  1.00  0.00     0.226 A 
ATOM      4  N   UNL     1       1.360  44.489  55.268  1.00  0.00    -0.191 NA
ATOM      5  C   UNL     1       1.337  44.041  54.019  1.00  0.00     0.185 A 
ATOM      6  N   UNL     1       0.558  42.984  53.762  1.00  0.00    -0.233 NA
ATOM      7  C   UNL     1       0.526  42.509  52.496  1.00  0.00     0.133 A 
ATOM      8  C   UNL     1       1.270  43.068  51.482  1.00  0.00     0.132 A 
ATOM      9  N   UNL     1       2.073  44.125  51.702  1.00  0.00    -0.247 NA
ATOM     10  C   UNL     1       2.089  44.610  52.985  1.00  0.00     0.150 A 
ENDROOT
BRANCH   1  11
ATOM     11  N   UNL     1       3.629  46.338  52.358  1.00  0.00    -0.338 N 
ATOM     12  H   UNL     1       3.025  46.582  51.577  1.00  0.00     0.168 HD
BRANCH  11  13
ATOM     13  C   UNL     1       5.002  46.345  52.069  1.00  0.00     0.040 A 
ATOM     14  C   UNL     1       7.801  46.394  51.618  1.00  0.00     0.119 A 
ATOM     15  C   UNL     1       7.233  47.154  52.639  1.00  0.00     0.048 A 
ATOM     16  C   UNL     1       6.972  45.599  50.831  1.00  0.00     0.048 A 
ATOM     17  C   UNL     1       5.854  47.125  52.866  1.00  0.00     0.030 A 
ATOM     18  C   UNL     1       5.588  45.575  51.062  1.00  0.00     0.030 A 
BRANCH  14  19
ATOM     19  O   UNL     1       9.158  46.511  51.500  1.00  0.00    -0.497 OA
ATOM     20  C   UNL     1       9.922  46.317  52.684  1.00  0.00     0.278 C 
ENDBRANCH  14  19
ENDBRANCH  11  13
ENDBRANCH   1  11
BRANCH   3  21
ATOM     21  N   UNL     1       2.192  46.049  56.828  1.00  0.00    -0.352 N 
ATOM     22  H   UNL     1       2.929  45.541  57.307  1.00  0.00     0.163 HD
BRANCH  21  23
ATOM     23  C   UNL     1       0.926  46.128  57.540  1.00  0.00     0.144 C 
BRANCH  23  24
ATOM     24  C   UNL     1       1.020  47.022  58.780  1.00  0.00     0.177 C 
BRANCH  24  25
ATOM     25  O   UNL     1       2.241  46.778  59.478  1.00  0.00    -0.395 OA
ATOM     26  H   UNL     1       2.958  46.909  58.832  1.00  0.00     0.210 HD
ENDBRANCH  24  25
ENDBRANCH  23  24
ENDBRANCH  21  23
ENDBRANCH   3  21
TORSDOF 7
ENDMDL
MODEL 6
REMARK VINA RESULT:    -7.682      2.617      3.823
REMARK INTER + INTRA:         -11.392
REMARK INTER:                 -10.823
REMARK INTRA:                  -0.570
REMARK UNBOUND:                -0.791
REMARK SMILES COc1ccc(Nc2nc(NCCO)nc3nccnc23)cc1
REMARK SMILES IDX 8 1 9 2 10 3 15 4 16 5 17 6 18 7 19 8 20 9 21 10 7 11 6 13
REMARK SMILES IDX 3 14 4 15 23 16 5 17 22 18 2 19 1 20 11 21 12 23 13 24 14 25
REMARK H PARENT 7 12 11 22 14 26
ROOT
ATOM      1  C   UNL     1       2.999  45.716  53.354  1.00  0.00     0.164 A 
ATOM      2  N   UNL     1       2.997  46.149  54.628  1.00  0.00    -0.193 NA
ATOM      3  C   UNL     1       2.185  45.545  55.491  1.00  0.00     0.226 A 
ATOM      4  N   UNL     1       1.387  44.531  55.172  1.00  0.00    -0.191 NA
ATOM      5  C   UNL     1       1.391  44.105  53.915  1.00  0.00     0.185 A 
ATOM      6  N   UNL     1       0.586  43.079  53.614  1.00  0.00    -0.233 NA
ATOM      7  C   UNL     1       0.581  42.627  52.340  1.00  0.00     0.133 A 
ATOM      8  C   UNL     1       1.377  43.177  51.361  1.00  0.00     0.132 A 
ATOM      9  N   UNL     1       2.207  44.202  51.626  1.00  0.00    -0.247 NA
ATOM     10  C   UNL     1       2.196  44.665  52.917  1.00  0.00     0.150 A 
ENDROOT
BRANCH   1  11
ATOM     11  N   UNL     1       3.813  46.350  52.372  1.00  0.00    -0.338 N 
ATOM     12  H   UNL     1       3.239  46.655  51.589  1.00  0.00     0.168 HD
BRANCH  11  13
ATOM     13  C   UNL     1       5.190  46.288  52.108  1.00  0.00     0.040 A 
ATOM     14  C   UNL     1       7.941  46.133  51.439  1.00  0.00     0.119 A 
ATOM     15  C   UNL     1       6.993  45.415  50.713  1.00  0.00     0.048 A 
ATOM     16  C   UNL     1       7.514  46.938  52.491  1.00  0.00     0.048 A 
ATOM     17  C   UNL     1       5.635  45.497  51.038  1.00  0.00     0.030 A 
ATOM     18  C   UNL     1       6.150  47.016  52.814  1.00  0.00     0.030 A 
BRANCH  14  19
ATOM     19  O   UNL     1       9.232  45.966  51.022  1.00  0.00    -0.497 OA
ATOM     20  C   UNL     1      10.254  46.335  51.939  1.00  0.00     0.278 C 
ENDBRANCH  14  19
ENDBRANCH  11  13
ENDBRANCH   1  11
BRANCH   3  21
ATOM     21  N   UNL     1       2.218  46.036  56.786  1.00  0.00    -0.352 N 
ATOM     22  H   UNL     1       2.967  45.542  57.261  1.00  0.00     0.163 HD
BRANCH  21  23
ATOM     23  C   UNL     1       0.944  46.061  57.488  1.00  0.00     0.144 C 
BRANCH  23  24
ATOM     24  C   UNL     1       0.967  47.018  58.685  1.00  0.00     0.177 C 
BRANCH  24  25
ATOM     25  O   UNL     1       2.103  46.757  59.509  1.00  0.00    -0.395 OA
ATOM     26  H   UNL     1       2.779  46.361  58.930  1.00  0.00     0.210 HD
ENDBRANCH  24  25
ENDBRANCH  23  24
ENDBRANCH  21  23
ENDBRANCH   3  21
TORSDOF 7
ENDMDL
MODEL 7
REMARK VINA RESULT:    -7.656      2.002      3.943
REMARK INTER + INTRA:         -11.357
REMARK INTER:                 -10.597
REMARK INTRA:                  -0.759
REMARK UNBOUND:                -0.791
REMARK SMILES COc1ccc(Nc2nc(NCCO)nc3nccnc23)cc1
REMARK SMILES IDX 8 1 9 2 10 3 15 4 16 5 17 6 18 7 19 8 20 9 21 10 7 11 6 13
REMARK SMILES IDX 3 14 4 15 23 16 5 17 22 18 2 19 1 20 11 21 12 23 13 24 14 25
REMARK H PARENT 7 12 11 22 14 26
ROOT
ATOM      1  C   UNL     1       5.448  45.026  51.143  1.00  0.00     0.164 A 
ATOM      2  N   UNL     1       5.782  43.771  50.789  1.00  0.00    -0.193 NA
ATOM      3  C   UNL     1       4.849  42.828  50.879  1.00  0.00     0.226 A 
ATOM      4  N   UNL     1       3.603  43.054  51.284  1.00  0.00    -0.191 NA
ATOM      5  C   UNL     1       3.275  44.292  51.632  1.00  0.00     0.185 A 
ATOM      6  N   UNL     1       2.015  44.502  52.031  1.00  0.00    -0.233 NA
ATOM      7  C   UNL     1       1.661  45.759  52.383  1.00  0.00     0.133 A 
ATOM      8  C   UNL     1       2.543  46.813  52.333  1.00  0.00     0.132 A 
ATOM      9  N   UNL     1       3.815  46.645  51.928  1.00  0.00    -0.247 NA
ATOM     10  C   UNL     1       4.172  45.366  51.586  1.00  0.00     0.150 A 
ENDROOT
BRANCH   1  11
ATOM     11  N   UNL     1       6.413  46.072  51.111  1.00  0.00    -0.338 N 
ATOM     12  H   UNL     1       6.456  46.477  50.178  1.00  0.00     0.168 HD
BRANCH  11  13
ATOM     13  C   UNL     1       7.511  46.367  51.934  1.00  0.00     0.040 A 
ATOM     14  C   UNL     1       9.647  46.938  53.710  1.00  0.00     0.119 A 
ATOM     15  C   UNL     1       8.324  47.113  54.111  1.00  0.00     0.048 A 
ATOM     16  C   UNL     1       9.902  46.465  52.425  1.00  0.00     0.048 A 
ATOM     17  C   UNL     1       7.270  46.825  53.238  1.00  0.00     0.030 A 
ATOM     18  C   UNL     1       8.841  46.178  51.553  1.00  0.00     0.030 A 
BRANCH  14  19
ATOM     19  O   UNL     1      10.581  47.255  54.655  1.00  0.00    -0.497 OA
ATOM     20  C   UNL     1      10.116  47.943  55.810  1.00  0.00     0.278 C 
ENDBRANCH  14  19
ENDBRANCH  11  13
ENDBRANCH   1  11
BRANCH   3  21
ATOM     21  N   UNL     1       5.250  41.554  50.510  1.00  0.00    -0.352 N 
ATOM     22  H   UNL     1       6.156  41.402  50.942  1.00  0.00     0.163 HD
BRANCH  21  23
ATOM     23  C   UNL     1       5.179  41.252  49.089  1.00  0.00     0.144 C 
BRANCH  23  24
ATOM     24  C   UNL     1       3.867  40.556  48.715  1.00  0.00     0.177 C 
BRANCH  24  25
ATOM     25  O   UNL     1       3.185  40.116  49.888  1.00  0.00    -0.395 OA
ATOM     26  H   UNL     1       3.323  40.805  50.562  1.00  0.00     0.210 HD
ENDBRANCH  24  25
ENDBRANCH  23  24
ENDBRANCH  21  23
ENDBRANCH   3  21
TORSDOF 7
ENDMDL
MODEL 8
REMARK VINA RESULT:    -7.539      2.491      4.067
REMARK INTER + INTRA:         -11.196
REMARK INTER:                 -10.617
REMARK INTRA:                  -0.579
REMARK UNBOUND:                -0.791
REMARK SMILES COc1ccc(Nc2nc(NCCO)nc3nccnc23)cc1
REMARK SMILES IDX 8 1 9 2 10 3 15 4 16 5 17 6 18 7 19 8 20 9 21 10 7 11 6 13
REMARK SMILES IDX 3 14 4 15 23 16 5 17 22 18 2 19 1 20 11 21 12 23 13 24 14 25
REMARK H PARENT 7 12 11 22 14 26
ROOT
ATOM      1  C   UNL     1       3.172  44.571  53.943  1.00  0.00     0.164 A 
ATOM      2  N   UNL     1       3.141  45.033  55.207  1.00  0.00    -0.193 NA
ATOM      3  C   UNL     1       1.973  45.444  55.692  1.00  0.00     0.226 A 
ATOM      4  N   UNL     1       0.834  45.414  55.007  1.00  0.00    -0.191 NA
ATOM      5  C   UNL     1       0.867  44.958  53.761  1.00  0.00     0.185 A 
ATOM      6  N   UNL     1      -0.290  44.929  53.089  1.00  0.00    -0.233 NA
ATOM      7  C   UNL     1      -0.276  44.462  51.820  1.00  0.00     0.133 A 
ATOM      8  C   UNL     1       0.874  44.012  51.214  1.00  0.00     0.132 A 
ATOM      9  N   UNL     1       2.054  44.015  51.859  1.00  0.00    -0.247 NA
ATOM     10  C   UNL     1       2.037  44.504  53.140  1.00  0.00     0.150 A 
ENDROOT
BRANCH   1  11
ATOM     11  N   UNL     1       4.399  44.157  53.352  1.00  0.00    -0.338 N 
ATOM     12  H   UNL     1       4.623  43.208  53.644  1.00  0.00     0.168 HD
BRANCH  11  13
ATOM     13  C   UNL     1       5.475  44.877  52.811  1.00  0.00     0.040 A 
ATOM     14  C   UNL     1       7.720  46.310  51.836  1.00  0.00     0.119 A 
ATOM     15  C   UNL     1       7.484  46.207  53.206  1.00  0.00     0.048 A 
ATOM     16  C   UNL     1       6.842  45.686  50.954  1.00  0.00     0.048 A 
ATOM     17  C   UNL     1       6.381  45.494  53.687  1.00  0.00     0.030 A 
ATOM     18  C   UNL     1       5.735  44.974  51.442  1.00  0.00     0.030 A 
BRANCH  14  19
ATOM     19  O   UNL     1       8.829  47.032  51.496  1.00  0.00    -0.497 OA
ATOM     20  C   UNL     1      10.083  46.528  51.941  1.00  0.00     0.278 C 
ENDBRANCH  14  19
ENDBRANCH  11  13
ENDBRANCH   1  11
BRANCH   3  21
ATOM     21  N   UNL     1       1.999  45.917  56.995  1.00  0.00    -0.352 N 
ATOM     22  H   UNL     1       2.483  45.214  57.545  1.00  0.00     0.163 HD
BRANCH  21  23
ATOM     23  C   UNL     1       0.725  46.363  57.535  1.00  0.00     0.144 C 
BRANCH  23  24
ATOM     24  C   UNL     1       0.896  47.138  58.845  1.00  0.00     0.177 C 
BRANCH  24  25
ATOM     25  O   UNL     1       2.132  46.793  59.470  1.00  0.00    -0.395 OA
ATOM     26  H   UNL     1       2.605  47.629  59.627  1.00  0.00     0.210 HD
ENDBRANCH  24  25
ENDBRANCH  23  24
ENDBRANCH  21  23
ENDBRANCH   3  21
TORSDOF 7
ENDMDL
MODEL 9
REMARK VINA RESULT:    -7.514      1.976      4.169
REMARK INTER + INTRA:         -11.161
REMARK INTER:                 -10.477
REMARK INTRA:                  -0.684
REMARK UNBOUND:                -0.791
REMARK SMILES COc1ccc(Nc2nc(NCCO)nc3nccnc23)cc1
REMARK SMILES IDX 8 1 9 2 10 3 15 4 16 5 17 6 18 7 19 8 20 9 21 10 7 11 6 13
REMARK SMILES IDX 3 14 4 15 23 16 5 17 22 18 2 19 1 20 11 21 12 23 13 24 14 25
REMARK H PARENT 7 12 11 22 14 26
ROOT
ATOM      1  C   UNL     1       4.463  44.723  51.869  1.00  0.00     0.164 A 
ATOM      2  N   UNL     1       4.826  43.602  51.218  1.00  0.00    -0.193 NA
ATOM      3  C   UNL     1       4.089  42.510  51.398  1.00  0.00     0.226 A 
ATOM      4  N   UNL     1       3.008  42.465  52.171  1.00  0.00    -0.191 NA
ATOM      5  C   UNL     1       2.652  43.571  52.811  1.00  0.00     0.185 A 
ATOM      6  N   UNL     1       1.558  43.508  53.580  1.00  0.00    -0.233 NA
ATOM      7  C   UNL     1       1.176  44.628  54.235  1.00  0.00     0.133 A 
ATOM      8  C   UNL     1       1.864  45.815  54.127  1.00  0.00     0.132 A 
ATOM      9  N   UNL     1       2.962  45.921  53.357  1.00  0.00    -0.247 NA
ATOM     10  C   UNL     1       3.352  44.779  52.707  1.00  0.00     0.150 A 
ENDROOT
BRANCH   1  11
ATOM     11  N   UNL     1       5.237  45.913  51.752  1.00  0.00    -0.338 N 
ATOM     12  H   UNL     1       4.883  46.484  50.988  1.00  0.00     0.168 HD
BRANCH  11  13
ATOM     13  C   UNL     1       6.529  46.243  52.187  1.00  0.00     0.040 A 
ATOM     14  C   UNL     1       9.109  46.856  53.191  1.00  0.00     0.119 A 
ATOM     15  C   UNL     1       8.019  46.750  54.053  1.00  0.00     0.048 A 
ATOM     16  C   UNL     1       8.913  46.643  51.830  1.00  0.00     0.048 A 
ATOM     17  C   UNL     1       6.748  46.441  53.559  1.00  0.00     0.030 A 
ATOM     18  C   UNL     1       7.635  46.334  51.339  1.00  0.00     0.030 A 
BRANCH  14  19
ATOM     19  O   UNL     1      10.295  47.162  53.799  1.00  0.00    -0.497 OA
ATOM     20  C   UNL     1      10.243  47.464  55.188  1.00  0.00     0.278 C 
ENDBRANCH  14  19
ENDBRANCH  11  13
ENDBRANCH   1  11
BRANCH   3  21
ATOM     21  N   UNL     1       4.512  41.384  50.711  1.00  0.00    -0.352 N 
ATOM     22  H   UNL     1       4.413  40.603  51.352  1.00  0.00     0.163 HD
BRANCH  21  23
ATOM     23  C   UNL     1       5.805  41.489  50.053  1.00  0.00     0.144 C 
BRANCH  23  24
ATOM     24  C   UNL     1       5.678  41.442  48.527  1.00  0.00     0.177 C 
BRANCH  24  25
ATOM     25  O   UNL     1       6.455  42.480  47.931  1.00  0.00    -0.395 OA
ATOM     26  H   UNL     1       5.874  42.924  47.287  1.00  0.00     0.210 HD
ENDBRANCH  24  25
ENDBRANCH  23  24
ENDBRANCH  21  23
ENDBRANCH   3  21
TORSDOF 7
ENDMDL
MODEL 10
REMARK VINA RESULT:    -7.320      1.063      1.231
REMARK INTER + INTRA:         -10.893
REMARK INTER:                 -10.338
REMARK INTRA:                  -0.555
REMARK UNBOUND:                -0.791
REMARK SMILES COc1ccc(Nc2nc(NCCO)nc3nccnc23)cc1
REMARK SMILES IDX 8 1 9 2 10 3 15 4 16 5 17 6 18 7 19 8 20 9 21 10 7 11 6 13
REMARK SMILES IDX 3 14 4 15 23 16 5 17 22 18 2 19 1 20 11 21 12 23 13 24 14 25
REMARK H PARENT 7 12 11 22 14 26
ROOT
ATOM      1  C   UNL     1       4.893  45.393  51.689  1.00  0.00     0.164 A 
ATOM      2  N   UNL     1       3.914  46.010  52.377  1.00  0.00    -0.193 NA
ATOM      3  C   UNL     1       2.810  45.319  52.645  1.00  0.00     0.226 A 
ATOM      4  N   UNL     1       2.623  44.053  52.286  1.00  0.00    -0.191 NA
ATOM      5  C   UNL     1       3.589  43.447  51.609  1.00  0.00     0.185 A 
ATOM      6  N   UNL     1       3.385  42.170  51.261  1.00  0.00    -0.233 NA
ATOM      7  C   UNL     1       4.362  41.534  50.576  1.00  0.00     0.133 A 
ATOM      8  C   UNL     1       5.546  42.149  50.240  1.00  0.00     0.132 A 
ATOM      9  N   UNL     1       5.793  43.427  50.580  1.00  0.00    -0.247 NA
ATOM     10  C   UNL     1       4.793  44.072  51.261  1.00  0.00     0.150 A 
ENDROOT
BRANCH   1  11
ATOM     11  N   UNL     1       6.082  46.092  51.332  1.00  0.00    -0.338 N 
ATOM     12  H   UNL     1       6.188  46.103  50.320  1.00  0.00     0.168 HD
BRANCH  11  13
ATOM     13  C   UNL     1       7.247  46.397  52.052  1.00  0.00     0.040 A 
ATOM     14  C   UNL     1       9.544  46.954  53.619  1.00  0.00     0.119 A 
ATOM     15  C   UNL     1       8.295  46.804  54.219  1.00  0.00     0.048 A 
ATOM     16  C   UNL     1       9.648  46.813  52.238  1.00  0.00     0.048 A 
ATOM     17  C   UNL     1       7.163  46.522  53.447  1.00  0.00     0.030 A 
ATOM     18  C   UNL     1       8.508  46.532  51.468  1.00  0.00     0.030 A 
BRANCH  14  19
ATOM     19  O   UNL     1      10.567  47.227  54.483  1.00  0.00    -0.497 OA
ATOM     20  C   UNL     1      10.222  47.873  55.702  1.00  0.00     0.278 C 
ENDBRANCH  14  19
ENDBRANCH  11  13
ENDBRANCH   1  11
BRANCH   3  21
ATOM     21  N   UNL     1       1.833  46.005  53.348  1.00  0.00    -0.352 N 
ATOM     22  H   UNL     1       2.182  46.949  53.478  1.00  0.00     0.163 HD
BRANCH  21  23
ATOM     23  C   UNL     1       1.339  45.353  54.550  1.00  0.00     0.144 C 
BRANCH  23  24
ATOM     24  C   UNL     1       2.468  45.031  55.535  1.00  0.00     0.177 C 
BRANCH  24  25
ATOM     25  O   UNL     1       2.658  46.115  56.444  1.00  0.00    -0.395 OA
ATOM     26  H   UNL     1       1.971  46.772  56.237  1.00  0.00     0.210 HD
ENDBRANCH  24  25
ENDBRANCH  23  24
ENDBRANCH  21  23
ENDBRANCH   3  21
TORSDOF 7
ENDMDL
MODEL 11
REMARK VINA RESULT:    -7.279      2.929      6.701
REMARK INTER + INTRA:         -10.836
REMARK INTER:                 -10.196
REMARK INTRA:                  -0.640
REMARK UNBOUND:                -0.791
REMARK SMILES COc1ccc(Nc2nc(NCCO)nc3nccnc23)cc1
REMARK SMILES IDX 8 1 9 2 10 3 15 4 16 5 17 6 18 7 19 8 20 9 21 10 7 11 6 13
REMARK SMILES IDX 3 14 4 15 23 16 5 17 22 18 2 19 1 20 11 21 12 23 13 24 14 25
REMARK H PARENT 7 12 11 22 14 26
ROOT
ATOM      1  C   UNL     1       6.422  46.683  52.304  1.00  0.00     0.164 A 
ATOM      2  N   UNL     1       6.345  45.971  51.164  1.00  0.00    -0.193 NA
ATOM      3  C   UNL     1       7.476  45.500  50.646  1.00  0.00     0.226 A 
ATOM      4  N   UNL     1       8.673  45.680  51.194  1.00  0.00    -0.191 NA
ATOM      5  C   UNL     1       8.747  46.382  52.318  1.00  0.00     0.185 A 
ATOM      6  N   UNL     1       9.960  46.546  52.858  1.00  0.00    -0.233 NA
ATOM      7  C   UNL     1      10.054  47.254  54.006  1.00  0.00     0.133 A 
ATOM      8  C   UNL     1       8.952  47.792  54.631  1.00  0.00     0.132 A 
ATOM      9  N   UNL     1       7.715  47.639  54.126  1.00  0.00    -0.247 NA
ATOM     10  C   UNL     1       7.628  46.934  52.953  1.00  0.00     0.150 A 
ENDROOT
BRANCH   1  11
ATOM     11  N   UNL     1       5.253  47.252  52.885  1.00  0.00    -0.338 N 
ATOM     12  H   UNL     1       5.432  48.218  53.150  1.00  0.00     0.168 HD
BRANCH  11  13
ATOM     13  C   UNL     1       4.122  46.676  53.482  1.00  0.00     0.040 A 
ATOM     14  C   UNL     1       1.788  45.477  54.559  1.00  0.00     0.119 A 
ATOM     15  C   UNL     1       1.787  45.995  53.265  1.00  0.00     0.048 A 
ATOM     16  C   UNL     1       2.959  45.545  55.310  1.00  0.00     0.048 A 
ATOM     17  C   UNL     1       2.940  46.580  52.732  1.00  0.00     0.030 A 
ATOM     18  C   UNL     1       4.112  46.135  54.770  1.00  0.00     0.030 A 
BRANCH  14  19
ATOM     19  O   UNL     1       0.600  44.934  54.962  1.00  0.00    -0.497 OA
ATOM     20  C   UNL     1       0.069  45.399  56.196  1.00  0.00     0.278 C 
ENDBRANCH  14  19
ENDBRANCH  11  13
ENDBRANCH   1  11
BRANCH   3  21
ATOM     21  N   UNL     1       7.339  44.781  49.469  1.00  0.00    -0.352 N 
ATOM     22  H   UNL     1       6.377  44.903  49.169  1.00  0.00     0.163 HD
BRANCH  21  23
ATOM     23  C   UNL     1       7.810  43.405  49.507  1.00  0.00     0.144 C 
BRANCH  23  24
ATOM     24  C   UNL     1       6.660  42.408  49.677  1.00  0.00     0.177 C 
BRANCH  24  25
ATOM     25  O   UNL     1       7.167  41.110  49.983  1.00  0.00    -0.395 OA
ATOM     26  H   UNL     1       7.184  40.616  49.144  1.00  0.00     0.210 HD
ENDBRANCH  24  25
ENDBRANCH  23  24
ENDBRANCH  21  23
ENDBRANCH   3  21
TORSDOF 7
ENDMDL
MODEL 12
REMARK VINA RESULT:    -7.226      2.077      4.561
REMARK INTER + INTRA:         -10.764
REMARK INTER:                 -10.309
REMARK INTRA:                  -0.455
REMARK UNBOUND:                -0.791
REMARK SMILES COc1ccc(Nc2nc(NCCO)nc3nccnc23)cc1
REMARK SMILES IDX 8 1 9 2 10 3 15 4 16 5 17 6 18 7 19 8 20 9 21 10 7 11 6 13
REMARK SMILES IDX 3 14 4 15 23 16 5 17 22 18 2 19 1 20 11 21 12 23 13 24 14 25
REMARK H PARENT 7 12 11 22 14 26
ROOT
ATOM      1  C   UNL     1       3.596  44.732  53.062  1.00  0.00     0.164 A 
ATOM      2  N   UNL     1       4.142  43.820  52.237  1.00  0.00    -0.193 NA
ATOM      3  C   UNL     1       3.437  42.725  51.964  1.00  0.00     0.226 A 
ATOM      4  N   UNL     1       2.222  42.486  52.447  1.00  0.00    -0.191 NA
ATOM      5  C   UNL     1       1.686  43.387  53.260  1.00  0.00     0.185 A 
ATOM      6  N   UNL     1       0.459  43.132  53.731  1.00  0.00    -0.233 NA
ATOM      7  C   UNL     1      -0.106  44.042  54.557  1.00  0.00     0.133 A 
ATOM      8  C   UNL     1       0.530  45.210  54.911  1.00  0.00     0.132 A 
ATOM      9  N   UNL     1       1.758  45.507  54.450  1.00  0.00    -0.247 NA
ATOM     10  C   UNL     1       2.332  44.573  53.626  1.00  0.00     0.150 A 
ENDROOT
BRANCH   1  11
ATOM     11  N   UNL     1       4.317  45.904  53.428  1.00  0.00    -0.338 N 
ATOM     12  H   UNL     1       3.685  46.701  53.471  1.00  0.00     0.168 HD
BRANCH  11  13
ATOM     13  C   UNL     1       5.679  46.233  53.357  1.00  0.00     0.040 A 
ATOM     14  C   UNL     1       8.410  46.947  53.085  1.00  0.00     0.119 A 
ATOM     15  C   UNL     1       7.633  46.671  51.962  1.00  0.00     0.048 A 
ATOM     16  C   UNL     1       7.818  46.880  54.344  1.00  0.00     0.048 A 
ATOM     17  C   UNL     1       6.285  46.325  52.095  1.00  0.00     0.030 A 
ATOM     18  C   UNL     1       6.465  46.531  54.473  1.00  0.00     0.030 A 
BRANCH  14  19
ATOM     19  O   UNL     1       9.711  47.272  52.820  1.00  0.00    -0.497 OA
ATOM     20  C   UNL     1      10.397  46.449  51.885  1.00  0.00     0.278 C 
ENDBRANCH  14  19
ENDBRANCH  11  13
ENDBRANCH   1  11
BRANCH   3  21
ATOM     21  N   UNL     1       4.050  41.817  51.115  1.00  0.00    -0.352 N 
ATOM     22  H   UNL     1       4.203  40.974  51.660  1.00  0.00     0.163 HD
BRANCH  21  23
ATOM     23  C   UNL     1       5.211  42.308  50.390  1.00  0.00     0.144 C 
BRANCH  23  24
ATOM     24  C   UNL     1       5.828  41.229  49.495  1.00  0.00     0.177 C 
BRANCH  24  25
ATOM     25  O   UNL     1       7.125  40.870  49.971  1.00  0.00    -0.395 OA
ATOM     26  H   UNL     1       7.530  41.688  50.311  1.00  0.00     0.210 HD
ENDBRANCH  24  25
ENDBRANCH  23  24
ENDBRANCH  21  23
ENDBRANCH   3  21
TORSDOF 7
ENDMDL
MODEL 13
REMARK VINA RESULT:    -7.185      2.987      6.715
REMARK INTER + INTRA:         -10.707
REMARK INTER:                 -10.066
REMARK INTRA:                  -0.641
REMARK UNBOUND:                -0.791
REMARK SMILES COc1ccc(Nc2nc(NCCO)nc3nccnc23)cc1
REMARK SMILES IDX 8 1 9 2 10 3 15 4 16 5 17 6 18 7 19 8 20 9 21 10 7 11 6 13
REMARK SMILES IDX 3 14 4 15 23 16 5 17 22 18 2 19 1 20 11 21 12 23 13 24 14 25
REMARK H PARENT 7 12 11 22 14 26
ROOT
ATOM      1  C   UNL     1       6.567  46.787  52.588  1.00  0.00     0.164 A 
ATOM      2  N   UNL     1       6.476  46.156  51.403  1.00  0.00    -0.193 NA
ATOM      3  C   UNL     1       7.599  45.720  50.841  1.00  0.00     0.226 A 
ATOM      4  N   UNL     1       8.803  45.858  51.387  1.00  0.00    -0.191 NA
ATOM      5  C   UNL     1       8.890  46.480  52.556  1.00  0.00     0.185 A 
ATOM      6  N   UNL     1      10.110  46.604  53.094  1.00  0.00    -0.233 NA
ATOM      7  C   UNL     1      10.218  47.229  54.288  1.00  0.00     0.133 A 
ATOM      8  C   UNL     1       9.124  47.724  54.961  1.00  0.00     0.132 A 
ATOM      9  N   UNL     1       7.881  47.610  54.459  1.00  0.00    -0.247 NA
ATOM     10  C   UNL     1       7.780  46.989  53.241  1.00  0.00     0.150 A 
ENDROOT
BRANCH   1  11
ATOM     11  N   UNL     1       5.406  47.317  53.220  1.00  0.00    -0.338 N 
ATOM     12  H   UNL     1       5.646  48.159  53.739  1.00  0.00     0.168 HD
BRANCH  11  13
ATOM     13  C   UNL     1       4.177  46.737  53.571  1.00  0.00     0.040 A 
ATOM     14  C   UNL     1       1.721  45.598  54.414  1.00  0.00     0.119 A 
ATOM     15  C   UNL     1       2.806  45.669  55.286  1.00  0.00     0.048 A 
ATOM     16  C   UNL     1       1.858  46.108  53.126  1.00  0.00     0.048 A 
ATOM     17  C   UNL     1       4.015  46.238  54.872  1.00  0.00     0.030 A 
ATOM     18  C   UNL     1       3.074  46.675  52.716  1.00  0.00     0.030 A 
BRANCH  14  19
ATOM     19  O   UNL     1       0.599  45.021  54.939  1.00  0.00    -0.497 OA
ATOM     20  C   UNL     1       0.435  45.105  56.350  1.00  0.00     0.278 C 
ENDBRANCH  14  19
ENDBRANCH  11  13
ENDBRANCH   1  11
BRANCH   3  21
ATOM     21  N   UNL     1       7.448  45.085  49.619  1.00  0.00    -0.352 N 
ATOM     22  H   UNL     1       6.514  45.310  49.292  1.00  0.00     0.163 HD
BRANCH  21  23
ATOM     23  C   UNL     1       7.794  43.673  49.589  1.00  0.00     0.144 C 
BRANCH  23  24
ATOM     24  C   UNL     1       6.562  42.776  49.745  1.00  0.00     0.177 C 
BRANCH  24  25
ATOM     25  O   UNL     1       6.932  41.401  49.649  1.00  0.00    -0.395 OA
ATOM     26  H   UNL     1       7.366  41.172  50.491  1.00  0.00     0.210 HD
ENDBRANCH  24  25
ENDBRANCH  23  24
ENDBRANCH  21  23
ENDBRANCH   3  21
TORSDOF 7
ENDMDL
MODEL 14
REMARK VINA RESULT:    -7.118      3.673      6.857
REMARK INTER + INTRA:         -10.615
REMARK INTER:                 -10.027
REMARK INTRA:                  -0.588
REMARK UNBOUND:                -0.791
REMARK SMILES COc1ccc(Nc2nc(NCCO)nc3nccnc23)cc1
REMARK SMILES IDX 8 1 9 2 10 3 15 4 16 5 17 6 18 7 19 8 20 9 21 10 7 11 6 13
REMARK SMILES IDX 3 14 4 15 23 16 5 17 22 18 2 19 1 20 11 21 12 23 13 24 14 25
REMARK H PARENT 7 12 11 22 14 26
ROOT
ATOM      1  C   UNL     1       5.133  42.276  50.400  1.00  0.00     0.164 A 
ATOM      2  N   UNL     1       4.083  41.934  51.169  1.00  0.00    -0.193 NA
ATOM      3  C   UNL     1       3.750  42.749  52.166  1.00  0.00     0.226 A 
ATOM      4  N   UNL     1       4.384  43.885  52.439  1.00  0.00    -0.191 NA
ATOM      5  C   UNL     1       5.419  44.219  51.679  1.00  0.00     0.185 A 
ATOM      6  N   UNL     1       6.041  45.369  51.965  1.00  0.00    -0.233 NA
ATOM      7  C   UNL     1       7.095  45.730  51.197  1.00  0.00     0.133 A 
ATOM      8  C   UNL     1       7.531  44.965  50.140  1.00  0.00     0.132 A 
ATOM      9  N   UNL     1       6.926  43.808  49.815  1.00  0.00    -0.247 NA
ATOM     10  C   UNL     1       5.868  43.441  50.606  1.00  0.00     0.150 A 
ENDROOT
BRANCH   1  11
ATOM     11  N   UNL     1       5.567  41.425  49.344  1.00  0.00    -0.338 N 
ATOM     12  H   UNL     1       6.539  41.159  49.489  1.00  0.00     0.168 HD
BRANCH  11  13
ATOM     13  C   UNL     1       5.086  41.217  48.043  1.00  0.00     0.040 A 
ATOM     14  C   UNL     1       3.984  40.779  45.466  1.00  0.00     0.119 A 
ATOM     15  C   UNL     1       3.387  40.225  46.597  1.00  0.00     0.048 A 
ATOM     16  C   UNL     1       5.124  41.563  45.624  1.00  0.00     0.048 A 
ATOM     17  C   UNL     1       3.926  40.448  47.868  1.00  0.00     0.030 A 
ATOM     18  C   UNL     1       5.662  41.781  46.902  1.00  0.00     0.030 A 
BRANCH  14  19
ATOM     19  O   UNL     1       3.361  40.487  44.286  1.00  0.00    -0.497 OA
ATOM     20  C   UNL     1       1.938  40.492  44.294  1.00  0.00     0.278 C 
ENDBRANCH  14  19
ENDBRANCH  11  13
ENDBRANCH   1  11
BRANCH   3  21
ATOM     21  N   UNL     1       2.666  42.345  52.930  1.00  0.00    -0.352 N 
ATOM     22  H   UNL     1       2.750  41.339  53.037  1.00  0.00     0.163 HD
BRANCH  21  23
ATOM     23  C   UNL     1       1.365  42.819  52.488  1.00  0.00     0.144 C 
BRANCH  23  24
ATOM     24  C   UNL     1       0.273  42.558  53.530  1.00  0.00     0.177 C 
BRANCH  24  25
ATOM     25  O   UNL     1      -0.208  41.219  53.423  1.00  0.00    -0.395 OA
ATOM     26  H   UNL     1      -1.087  41.207  53.841  1.00  0.00     0.210 HD
ENDBRANCH  24  25
ENDBRANCH  23  24
ENDBRANCH  21  23
ENDBRANCH   3  21
TORSDOF 7
ENDMDL
MODEL 15
REMARK VINA RESULT:    -7.059      2.766      6.910
REMARK INTER + INTRA:         -10.533
REMARK INTER:                 -10.886
REMARK INTRA:                   0.353
REMARK UNBOUND:                -0.791
REMARK SMILES COc1ccc(Nc2nc(NCCO)nc3nccnc23)cc1
REMARK SMILES IDX 8 1 9 2 10 3 15 4 16 5 17 6 18 7 19 8 20 9 21 10 7 11 6 13
REMARK SMILES IDX 3 14 4 15 23 16 5 17 22 18 2 19 1 20 11 21 12 23 13 24 14 25
REMARK H PARENT 7 12 11 22 14 26
ROOT
ATOM      1  C   UNL     1       6.736  45.749  51.600  1.00  0.00     0.164 A 
ATOM      2  N   UNL     1       7.949  45.906  52.162  1.00  0.00    -0.193 NA
ATOM      3  C   UNL     1       8.060  46.754  53.181  1.00  0.00     0.226 A 
ATOM      4  N   UNL     1       7.041  47.444  53.684  1.00  0.00    -0.191 NA
ATOM      5  C   UNL     1       5.846  47.287  53.129  1.00  0.00     0.185 A 
ATOM      6  N   UNL     1       4.832  47.985  53.654  1.00  0.00    -0.233 NA
ATOM      7  C   UNL     1       3.605  47.833  53.106  1.00  0.00     0.133 A 
ATOM      8  C   UNL     1       3.372  46.986  52.046  1.00  0.00     0.132 A 
ATOM      9  N   UNL     1       4.363  46.261  51.498  1.00  0.00    -0.247 NA
ATOM     10  C   UNL     1       5.607  46.430  52.049  1.00  0.00     0.150 A 
ENDROOT
BRANCH   1  11
ATOM     11  N   UNL     1       6.561  44.890  50.479  1.00  0.00    -0.338 N 
ATOM     12  H   UNL     1       6.793  45.386  49.621  1.00  0.00     0.168 HD
BRANCH  11  13
ATOM     13  C   UNL     1       5.812  43.717  50.299  1.00  0.00     0.040 A 
ATOM     14  C   UNL     1       4.414  41.286  49.878  1.00  0.00     0.119 A 
ATOM     15  C   UNL     1       5.506  41.623  49.081  1.00  0.00     0.048 A 
ATOM     16  C   UNL     1       4.029  42.156  50.894  1.00  0.00     0.048 A 
ATOM     17  C   UNL     1       6.200  42.819  49.293  1.00  0.00     0.030 A 
ATOM     18  C   UNL     1       4.728  43.355  51.101  1.00  0.00     0.030 A 
BRANCH  14  19
ATOM     19  O   UNL     1       3.823  40.092  49.569  1.00  0.00    -0.497 OA
ATOM     20  C   UNL     1       3.459  39.892  48.209  1.00  0.00     0.278 C 
ENDBRANCH  14  19
ENDBRANCH  11  13
ENDBRANCH   1  11
BRANCH   3  21
ATOM     21  N   UNL     1       9.332  46.883  53.715  1.00  0.00    -0.352 N 
ATOM     22  H   UNL     1       9.656  45.941  53.914  1.00  0.00     0.163 HD
BRANCH  21  23
ATOM     23  C   UNL     1       9.468  47.832  54.809  1.00  0.00     0.144 C 
BRANCH  23  24
ATOM     24  C   UNL     1      10.624  47.466  55.745  1.00  0.00     0.177 C 
BRANCH  24  25
ATOM     25  O   UNL     1      10.540  48.218  56.956  1.00  0.00    -0.395 OA
ATOM     26  H   UNL     1      10.919  47.656  57.656  1.00  0.00     0.210 HD
ENDBRANCH  24  25
ENDBRANCH  23  24
ENDBRANCH  21  23
ENDBRANCH   3  21
TORSDOF 7
ENDMDL
MODEL 16
REMARK VINA RESULT:    -6.902      2.499      6.157
REMARK INTER + INTRA:         -10.316
REMARK INTER:                  -9.942
REMARK INTRA:                  -0.373
REMARK UNBOUND:                -0.791
REMARK SMILES COc1ccc(Nc2nc(NCCO)nc3nccnc23)cc1
REMARK SMILES IDX 8 1 9 2 10 3 15 4 16 5 17 6 18 7 19 8 20 9 21 10 7 11 6 13
REMARK SMILES IDX 3 14 4 15 23 16 5 17 22 18 2 19 1 20 11 21 12 23 13 24 14 25
REMARK H PARENT 7 12 11 22 14 26
ROOT
ATOM      1  C   UNL     1       5.744  44.982  51.802  1.00  0.00     0.164 A 
ATOM      2  N   UNL     1       4.495  45.169  52.267  1.00  0.00    -0.193 NA
ATOM      3  C   UNL     1       4.220  46.321  52.871  1.00  0.00     0.226 A 
ATOM      4  N   UNL     1       5.102  47.302  53.031  1.00  0.00    -0.191 NA
ATOM      5  C   UNL     1       6.333  47.116  52.572  1.00  0.00     0.185 A 
ATOM      6  N   UNL     1       7.206  48.118  52.737  1.00  0.00    -0.233 NA
ATOM      7  C   UNL     1       8.464  47.948  52.270  1.00  0.00     0.133 A 
ATOM      8  C   UNL     1       8.862  46.797  51.631  1.00  0.00     0.132 A 
ATOM      9  N   UNL     1       8.013  45.772  51.437  1.00  0.00    -0.247 NA
ATOM     10  C   UNL     1       6.743  45.944  51.926  1.00  0.00     0.150 A 
ENDROOT
BRANCH   1  11
ATOM     11  N   UNL     1       6.113  43.753  51.185  1.00  0.00    -0.338 N 
ATOM     12  H   UNL     1       7.112  43.748  50.990  1.00  0.00     0.168 HD
BRANCH  11  13
ATOM     13  C   UNL     1       5.371  42.789  50.487  1.00  0.00     0.040 A 
ATOM     14  C   UNL     1       3.989  40.795  49.017  1.00  0.00     0.119 A 
ATOM     15  C   UNL     1       5.199  41.307  48.554  1.00  0.00     0.048 A 
ATOM     16  C   UNL     1       3.475  41.269  50.222  1.00  0.00     0.048 A 
ATOM     17  C   UNL     1       5.884  42.285  49.282  1.00  0.00     0.030 A 
ATOM     18  C   UNL     1       4.166  42.252  50.947  1.00  0.00     0.030 A 
BRANCH  14  19
ATOM     19  O   UNL     1       3.421  39.846  48.214  1.00  0.00    -0.497 OA
ATOM     20  C   UNL     1       3.357  40.138  46.824  1.00  0.00     0.278 C 
ENDBRANCH  14  19
ENDBRANCH  11  13
ENDBRANCH   1  11
BRANCH   3  21
ATOM     21  N   UNL     1       2.922  46.457  53.336  1.00  0.00    -0.352 N 
ATOM     22  H   UNL     1       2.959  47.124  54.100  1.00  0.00     0.163 HD
BRANCH  21  23
ATOM     23  C   UNL     1       2.218  45.218  53.625  1.00  0.00     0.144 C 
BRANCH  23  24
ATOM     24  C   UNL     1       1.556  45.242  55.007  1.00  0.00     0.177 C 
BRANCH  24  25
ATOM     25  O   UNL     1       2.391  44.599  55.969  1.00  0.00    -0.395 OA
ATOM     26  H   UNL     1       2.669  45.288  56.598  1.00  0.00     0.210 HD
ENDBRANCH  24  25
ENDBRANCH  23  24
ENDBRANCH  21  23
ENDBRANCH   3  21
TORSDOF 7
ENDMDL
MODEL 17
REMARK VINA RESULT:    -6.901      1.992      5.949
REMARK INTER + INTRA:         -10.315
REMARK INTER:                  -9.754
REMARK INTRA:                  -0.561
REMARK UNBOUND:                -0.791
REMARK SMILES COc1ccc(Nc2nc(NCCO)nc3nccnc23)cc1
REMARK SMILES IDX 8 1 9 2 10 3 15 4 16 5 17 6 18 7 19 8 20 9 21 10 7 11 6 13
REMARK SMILES IDX 3 14 4 15 23 16 5 17 22 18 2 19 1 20 11 21 12 23 13 24 14 25
REMARK H PARENT 7 12 11 22 14 26
ROOT
ATOM      1  C   UNL     1       5.976  46.054  51.598  1.00  0.00     0.164 A 
ATOM      2  N   UNL     1       6.709  47.010  52.197  1.00  0.00    -0.193 NA
ATOM      3  C   UNL     1       8.019  47.027  51.969  1.00  0.00     0.226 A 
ATOM      4  N   UNL     1       8.644  46.164  51.174  1.00  0.00    -0.191 NA
ATOM      5  C   UNL     1       7.919  45.222  50.584  1.00  0.00     0.185 A 
ATOM      6  N   UNL     1       8.564  44.366  49.783  1.00  0.00    -0.233 NA
ATOM      7  C   UNL     1       7.841  43.402  49.167  1.00  0.00     0.133 A 
ATOM      8  C   UNL     1       6.479  43.287  49.332  1.00  0.00     0.132 A 
ATOM      9  N   UNL     1       5.794  44.134  50.120  1.00  0.00    -0.247 NA
ATOM     10  C   UNL     1       6.535  45.099  50.753  1.00  0.00     0.150 A 
ENDROOT
BRANCH   1  11
ATOM     11  N   UNL     1       4.576  45.956  51.836  1.00  0.00    -0.338 N 
ATOM     12  H   UNL     1       4.061  46.359  51.057  1.00  0.00     0.168 HD
BRANCH  11  13
ATOM     13  C   UNL     1       3.830  45.788  53.013  1.00  0.00     0.040 A 
ATOM     14  C   UNL     1       2.213  45.408  55.312  1.00  0.00     0.119 A 
ATOM     15  C   UNL     1       1.634  45.693  54.077  1.00  0.00     0.048 A 
ATOM     16  C   UNL     1       3.599  45.300  55.396  1.00  0.00     0.048 A 
ATOM     17  C   UNL     1       2.431  45.873  52.942  1.00  0.00     0.030 A 
ATOM     18  C   UNL     1       4.394  45.484  54.254  1.00  0.00     0.030 A 
BRANCH  14  19
ATOM     19  O   UNL     1       1.326  45.255  56.341  1.00  0.00    -0.497 OA
ATOM     20  C   UNL     1      -0.046  45.124  55.989  1.00  0.00     0.278 C 
ENDBRANCH  14  19
ENDBRANCH  11  13
ENDBRANCH   1  11
BRANCH   3  21
ATOM     21  N   UNL     1       8.726  48.028  52.617  1.00  0.00    -0.352 N 
ATOM     22  H   UNL     1       9.616  48.107  52.136  1.00  0.00     0.163 HD
BRANCH  21  23
ATOM     23  C   UNL     1       8.807  47.913  54.064  1.00  0.00     0.144 C 
BRANCH  23  24
ATOM     24  C   UNL     1      10.037  47.115  54.509  1.00  0.00     0.177 C 
BRANCH  24  25
ATOM     25  O   UNL     1      10.462  47.537  55.804  1.00  0.00    -0.395 OA
ATOM     26  H   UNL     1       9.670  47.529  56.370  1.00  0.00     0.210 HD
ENDBRANCH  24  25
ENDBRANCH  23  24
ENDBRANCH  21  23
ENDBRANCH   3  21
TORSDOF 7
ENDMDL
MODEL 18
REMARK VINA RESULT:    -6.872      2.880      6.335
REMARK INTER + INTRA:         -10.275
REMARK INTER:                  -9.647
REMARK INTRA:                  -0.629
REMARK UNBOUND:                -0.791
REMARK SMILES COc1ccc(Nc2nc(NCCO)nc3nccnc23)cc1
REMARK SMILES IDX 8 1 9 2 10 3 15 4 16 5 17 6 18 7 19 8 20 9 21 10 7 11 6 13
REMARK SMILES IDX 3 14 4 15 23 16 5 17 22 18 2 19 1 20 11 21 12 23 13 24 14 25
REMARK H PARENT 7 12 11 22 14 26
ROOT
ATOM      1  C   UNL     1       5.928  45.836  51.310  1.00  0.00     0.164 A 
ATOM      2  N   UNL     1       5.900  44.785  50.469  1.00  0.00    -0.193 NA
ATOM      3  C   UNL     1       7.061  44.306  50.032  1.00  0.00     0.226 A 
ATOM      4  N   UNL     1       8.245  44.795  50.386  1.00  0.00    -0.191 NA
ATOM      5  C   UNL     1       8.270  45.830  51.216  1.00  0.00     0.185 A 
ATOM      6  N   UNL     1       9.471  46.305  51.567  1.00  0.00    -0.233 NA
ATOM      7  C   UNL     1       9.516  47.356  52.417  1.00  0.00     0.133 A 
ATOM      8  C   UNL     1       8.379  47.935  52.931  1.00  0.00     0.132 A 
ATOM      9  N   UNL     1       7.154  47.481  52.611  1.00  0.00    -0.247 NA
ATOM     10  C   UNL     1       7.115  46.425  51.737  1.00  0.00     0.150 A 
ENDROOT
BRANCH   1  11
ATOM     11  N   UNL     1       4.718  46.422  51.780  1.00  0.00    -0.338 N 
ATOM     12  H   UNL     1       4.721  47.422  51.592  1.00  0.00     0.168 HD
BRANCH  11  13
ATOM     13  C   UNL     1       3.773  46.001  52.728  1.00  0.00     0.040 A 
ATOM     14  C   UNL     1       1.957  45.182  54.746  1.00  0.00     0.119 A 
ATOM     15  C   UNL     1       3.332  45.136  54.968  1.00  0.00     0.048 A 
ATOM     16  C   UNL     1       1.489  45.650  53.521  1.00  0.00     0.048 A 
ATOM     17  C   UNL     1       4.227  45.546  53.975  1.00  0.00     0.030 A 
ATOM     18  C   UNL     1       2.392  46.059  52.528  1.00  0.00     0.030 A 
BRANCH  14  19
ATOM     19  O   UNL     1       1.191  44.753  55.794  1.00  0.00    -0.497 OA
ATOM     20  C   UNL     1       0.913  45.704  56.815  1.00  0.00     0.278 C 
ENDBRANCH  14  19
ENDBRANCH  11  13
ENDBRANCH   1  11
BRANCH   3  21
ATOM     21  N   UNL     1       6.974  43.230  49.163  1.00  0.00    -0.352 N 
ATOM     22  H   UNL     1       6.427  43.547  48.368  1.00  0.00     0.163 HD
BRANCH  21  23
ATOM     23  C   UNL     1       6.545  41.971  49.751  1.00  0.00     0.144 C 
BRANCH  23  24
ATOM     24  C   UNL     1       5.403  41.327  48.959  1.00  0.00     0.177 C 
BRANCH  24  25
ATOM     25  O   UNL     1       5.776  41.164  47.591  1.00  0.00    -0.395 OA
ATOM     26  H   UNL     1       5.607  40.231  47.368  1.00  0.00     0.210 HD
ENDBRANCH  24  25
ENDBRANCH  23  24
ENDBRANCH  21  23
ENDBRANCH   3  21
TORSDOF 7
ENDMDL
MODEL 19
REMARK VINA RESULT:    -6.813      2.508      5.571
REMARK INTER + INTRA:         -10.193
REMARK INTER:                  -9.643
REMARK INTRA:                  -0.550
REMARK UNBOUND:                -0.791
REMARK SMILES COc1ccc(Nc2nc(NCCO)nc3nccnc23)cc1
REMARK SMILES IDX 8 1 9 2 10 3 15 4 16 5 17 6 18 7 19 8 20 9 21 10 7 11 6 13
REMARK SMILES IDX 3 14 4 15 23 16 5 17 22 18 2 19 1 20 11 21 12 23 13 24 14 25
REMARK H PARENT 7 12 11 22 14 26
ROOT
ATOM      1  C   UNL     1       2.639  43.742  53.397  1.00  0.00     0.164 A 
ATOM      2  N   UNL     1       3.511  44.587  53.978  1.00  0.00    -0.193 NA
ATOM      3  C   UNL     1       3.030  45.501  54.816  1.00  0.00     0.226 A 
ATOM      4  N   UNL     1       1.743  45.620  55.123  1.00  0.00    -0.191 NA
ATOM      5  C   UNL     1       0.885  44.785  54.550  1.00  0.00     0.185 A 
ATOM      6  N   UNL     1      -0.407  44.916  54.876  1.00  0.00    -0.233 NA
ATOM      7  C   UNL     1      -1.295  44.070  54.306  1.00  0.00     0.133 A 
ATOM      8  C   UNL     1      -0.913  43.087  53.423  1.00  0.00     0.132 A 
ATOM      9  N   UNL     1       0.376  42.917  53.078  1.00  0.00    -0.247 NA
ATOM     10  C   UNL     1       1.270  43.788  53.647  1.00  0.00     0.150 A 
ENDROOT
BRANCH   1  11
ATOM     11  N   UNL     1       3.086  42.769  52.458  1.00  0.00    -0.338 N 
ATOM     12  H   UNL     1       2.749  41.847  52.726  1.00  0.00     0.168 HD
BRANCH  11  13
ATOM     13  C   UNL     1       4.142  42.767  51.534  1.00  0.00     0.040 A 
ATOM     14  C   UNL     1       6.328  42.876  49.731  1.00  0.00     0.119 A 
ATOM     15  C   UNL     1       5.889  44.026  50.384  1.00  0.00     0.048 A 
ATOM     16  C   UNL     1       5.684  41.669  49.989  1.00  0.00     0.048 A 
ATOM     17  C   UNL     1       4.815  43.971  51.278  1.00  0.00     0.030 A 
ATOM     18  C   UNL     1       4.606  41.620  50.886  1.00  0.00     0.030 A 
BRANCH  14  19
ATOM     19  O   UNL     1       7.385  43.063  48.884  1.00  0.00    -0.497 OA
ATOM     20  C   UNL     1       8.308  44.089  49.229  1.00  0.00     0.278 C 
ENDBRANCH  14  19
ENDBRANCH  11  13
ENDBRANCH   1  11
BRANCH   3  21
ATOM     21  N   UNL     1       3.971  46.349  55.378  1.00  0.00    -0.352 N 
ATOM     22  H   UNL     1       3.487  46.877  56.097  1.00  0.00     0.163 HD
BRANCH  21  23
ATOM     23  C   UNL     1       4.752  47.142  54.442  1.00  0.00     0.144 C 
BRANCH  23  24
ATOM     24  C   UNL     1       6.243  46.795  54.499  1.00  0.00     0.177 C 
BRANCH  24  25
ATOM     25  O   UNL     1       6.458  45.454  54.062  1.00  0.00    -0.395 OA
ATOM     26  H   UNL     1       7.198  45.486  53.429  1.00  0.00     0.210 HD
ENDBRANCH  24  25
ENDBRANCH  23  24
ENDBRANCH  21  23
ENDBRANCH   3  21
TORSDOF 7
ENDMDL
MODEL 20
REMARK VINA RESULT:    -6.691      2.438      6.344
REMARK INTER + INTRA:         -10.026
REMARK INTER:                  -9.463
REMARK INTRA:                  -0.562
REMARK UNBOUND:                -0.791
REMARK SMILES COc1ccc(Nc2nc(NCCO)nc3nccnc23)cc1
REMARK SMILES IDX 8 1 9 2 10 3 15 4 16 5 17 6 18 7 19 8 20 9 21 10 7 11 6 13
REMARK SMILES IDX 3 14 4 15 23 16 5 17 22 18 2 19 1 20 11 21 12 23 13 24 14 25
REMARK H PARENT 7 12 11 22 14 26
ROOT
ATOM      1  C   UNL     1       4.607  44.228  51.474  1.00  0.00     0.164 A 
ATOM      2  N   UNL     1       4.357  45.330  52.206  1.00  0.00    -0.193 NA
ATOM      3  C   UNL     1       5.263  46.303  52.197  1.00  0.00     0.226 A 
ATOM      4  N   UNL     1       6.393  46.257  51.497  1.00  0.00    -0.191 NA
ATOM      5  C   UNL     1       6.636  45.171  50.775  1.00  0.00     0.185 A 
ATOM      6  N   UNL     1       7.775  45.146  50.072  1.00  0.00    -0.233 NA
ATOM      7  C   UNL     1       8.037  44.049  49.326  1.00  0.00     0.133 A 
ATOM      8  C   UNL     1       7.174  42.979  49.261  1.00  0.00     0.132 A 
ATOM      9  N   UNL     1       6.016  42.971  49.945  1.00  0.00    -0.247 NA
ATOM     10  C   UNL     1       5.763  44.079  50.711  1.00  0.00     0.150 A 
ENDROOT
BRANCH   1  11
ATOM     11  N   UNL     1       3.697  43.133  51.477  1.00  0.00    -0.338 N 
ATOM     12  H   UNL     1       4.057  42.381  50.893  1.00  0.00     0.168 HD
BRANCH  11  13
ATOM     13  C   UNL     1       2.329  43.045  51.777  1.00  0.00     0.040 A 
ATOM     14  C   UNL     1      -0.405  42.902  52.516  1.00  0.00     0.119 A 
ATOM     15  C   UNL     1       0.597  42.701  53.463  1.00  0.00     0.048 A 
ATOM     16  C   UNL     1      -0.042  43.188  51.202  1.00  0.00     0.048 A 
ATOM     17  C   UNL     1       1.946  42.778  53.100  1.00  0.00     0.030 A 
ATOM     18  C   UNL     1       1.313  43.262  50.843  1.00  0.00     0.030 A 
BRANCH  14  19
ATOM     19  O   UNL     1      -1.680  42.799  52.997  1.00  0.00    -0.497 OA
ATOM     20  C   UNL     1      -2.176  43.908  53.737  1.00  0.00     0.278 C 
ENDBRANCH  14  19
ENDBRANCH  11  13
ENDBRANCH   1  11
BRANCH   3  21
ATOM     21  N   UNL     1       4.959  47.409  52.974  1.00  0.00    -0.352 N 
ATOM     22  H   UNL     1       5.573  48.156  52.663  1.00  0.00     0.163 HD
BRANCH  21  23
ATOM     23  C   UNL     1       4.928  47.187  54.411  1.00  0.00     0.144 C 
BRANCH  23  24
ATOM     24  C   UNL     1       6.190  46.477  54.910  1.00  0.00     0.177 C 
BRANCH  24  25
ATOM     25  O   UNL     1       7.301  47.372  54.901  1.00  0.00    -0.395 OA
ATOM     26  H   UNL     1       7.260  47.871  55.736  1.00  0.00     0.210 HD
ENDBRANCH  24  25
ENDBRANCH  23  24
ENDBRANCH  21  23
ENDBRANCH   3  21
TORSDOF 7
ENDMDL
