MODEL 1
REMARK VINA RESULT:    -8.105      0.000      0.000
REMARK INTER + INTRA:         -12.940
REMARK INTER:                 -11.896
REMARK INTRA:                  -1.044
REMARK UNBOUND:                -1.044
REMARK SMILES CCCCNc1nc(Nc2ccc(OC)cc2OC)c2cnn(C)c2n1
REMARK SMILES IDX 6 1 7 2 8 3 20 4 21 5 22 6 23 7 24 8 25 9 26 10 5 11 4 13
REMARK SMILES IDX 3 14 2 15 1 16 9 17 10 19 11 20 17 21 12 22 16 23 13 24
REMARK SMILES IDX 18 25 19 26 14 27 15 28
REMARK H PARENT 5 12 9 18
ROOT
ATOM      1  C   UNL     1       3.692  42.692  51.622  1.00  0.00     0.226 A 
ATOM      2  N   UNL     1       4.446  43.774  51.354  1.00  0.00    -0.195 NA
ATOM      3  C   UNL     1       4.062  45.004  51.780  1.00  0.00     0.147 A 
ATOM      4  C   UNL     1       2.827  45.106  52.423  1.00  0.00     0.082 A 
ATOM      5  C   UNL     1       1.973  46.109  52.930  1.00  0.00     0.149 A 
ATOM      6  N   UNL     1       0.851  45.616  53.469  1.00  0.00    -0.179 NA
ATOM      7  N   UNL     1       0.977  44.283  53.274  1.00  0.00    -0.250 N 
ATOM      8  C   UNL     1      -0.072  43.400  53.717  1.00  0.00     0.176 C 
ATOM      9  C   UNL     1       2.132  43.931  52.631  1.00  0.00     0.165 A 
ATOM     10  N   UNL     1       2.518  42.699  52.266  1.00  0.00    -0.193 NA
ENDROOT
BRANCH   1  11
ATOM     11  N   UNL     1       4.121  41.435  51.212  1.00  0.00    -0.354 N 
ATOM     12  H   UNL     1       3.767  40.781  51.902  1.00  0.00     0.163 HD
BRANCH  11  13
ATOM     13  C   UNL     1       3.827  41.108  49.829  1.00  0.00     0.116 C 
BRANCH  13  14
ATOM     14  C   UNL     1       5.113  41.091  48.996  1.00  0.00     0.021 C 
BRANCH  14  15
ATOM     15  C   UNL     1       6.395  41.350  49.794  1.00  0.00    -0.002 C 
ATOM     16  C   UNL     1       7.125  42.629  49.417  1.00  0.00     0.004 C 
ENDBRANCH  14  15
ENDBRANCH  13  14
ENDBRANCH  11  13
ENDBRANCH   1  11
BRANCH   3  17
ATOM     17  N   UNL     1       4.900  46.073  51.459  1.00  0.00    -0.336 N 
ATOM     18  H   UNL     1       4.701  46.412  50.520  1.00  0.00     0.168 HD
BRANCH  17  19
ATOM     19  C   UNL     1       6.230  46.373  51.828  1.00  0.00     0.083 A 
ATOM     20  C   UNL     1       7.343  45.882  51.139  1.00  0.00     0.034 A 
ATOM     21  C   UNL     1       6.448  47.164  52.979  1.00  0.00     0.146 A 
ATOM     22  C   UNL     1       8.644  46.159  51.573  1.00  0.00     0.049 A 
ATOM     23  C   UNL     1       7.751  47.438  53.407  1.00  0.00     0.095 A 
ATOM     24  C   UNL     1       8.852  46.934  52.710  1.00  0.00     0.122 A 
BRANCH  21  25
ATOM     25  O   UNL     1       5.308  47.631  53.595  1.00  0.00    -0.494 OA
ATOM     26  C   UNL     1       4.962  47.051  54.845  1.00  0.00     0.278 C 
ENDBRANCH  21  25
BRANCH  24  27
ATOM     27  O   UNL     1      10.067  47.277  53.237  1.00  0.00    -0.497 OA
ATOM     28  C   UNL     1      10.167  47.309  54.657  1.00  0.00     0.278 C 
ENDBRANCH  24  27
ENDBRANCH  17  19
ENDBRANCH   3  17
TORSDOF 8
ENDMDL
MODEL 2
REMARK VINA RESULT:    -8.018      2.446      6.587
REMARK INTER + INTRA:         -12.813
REMARK INTER:                 -12.031
REMARK INTRA:                  -0.782
REMARK UNBOUND:                -1.044
REMARK SMILES CCCCNc1nc(Nc2ccc(OC)cc2OC)c2cnn(C)c2n1
REMARK SMILES IDX 6 1 7 2 8 3 20 4 21 5 22 6 23 7 24 8 25 9 26 10 5 11 4 13
REMARK SMILES IDX 3 14 2 15 1 16 9 17 10 19 11 20 17 21 12 22 16 23 13 24
REMARK SMILES IDX 18 25 19 26 14 27 15 28
REMARK H PARENT 5 12 9 18
ROOT
ATOM      1  C   UNL     1       7.660  46.771  51.596  1.00  0.00     0.226 A 
ATOM      2  N   UNL     1       6.529  47.172  52.207  1.00  0.00    -0.195 NA
ATOM      3  C   UNL     1       5.407  46.412  52.145  1.00  0.00     0.147 A 
ATOM      4  C   UNL     1       5.453  45.257  51.360  1.00  0.00     0.082 A 
ATOM      5  C   UNL     1       4.580  44.245  50.907  1.00  0.00     0.149 A 
ATOM      6  N   UNL     1       5.189  43.337  50.136  1.00  0.00    -0.179 NA
ATOM      7  N   UNL     1       6.461  43.793  50.071  1.00  0.00    -0.250 N 
ATOM      8  C   UNL     1       7.435  43.068  49.295  1.00  0.00     0.176 C 
ATOM      9  C   UNL     1       6.663  44.952  50.768  1.00  0.00     0.165 A 
ATOM     10  N   UNL     1       7.799  45.661  50.860  1.00  0.00    -0.193 NA
ENDROOT
BRANCH   1  11
ATOM     11  N   UNL     1       8.812  47.542  51.704  1.00  0.00    -0.354 N 
ATOM     12  H   UNL     1       8.562  48.337  52.283  1.00  0.00     0.163 HD
BRANCH  11  13
ATOM     13  C   UNL     1       9.999  46.815  52.113  1.00  0.00     0.116 C 
BRANCH  13  14
ATOM     14  C   UNL     1       9.889  46.391  53.581  1.00  0.00     0.021 C 
BRANCH  14  15
ATOM     15  C   UNL     1       9.684  47.545  54.567  1.00  0.00    -0.002 C 
ATOM     16  C   UNL     1      10.630  47.533  55.757  1.00  0.00     0.004 C 
ENDBRANCH  14  15
ENDBRANCH  13  14
ENDBRANCH  11  13
ENDBRANCH   1  11
BRANCH   3  17
ATOM     17  N   UNL     1       4.278  46.900  52.804  1.00  0.00    -0.336 N 
ATOM     18  H   UNL     1       4.504  47.750  53.317  1.00  0.00     0.168 HD
BRANCH  17  19
ATOM     19  C   UNL     1       3.167  46.247  53.382  1.00  0.00     0.083 A 
ATOM     20  C   UNL     1       1.960  46.048  52.704  1.00  0.00     0.034 A 
ATOM     21  C   UNL     1       3.261  45.820  54.727  1.00  0.00     0.146 A 
ATOM     22  C   UNL     1       0.865  45.446  53.335  1.00  0.00     0.049 A 
ATOM     23  C   UNL     1       2.163  45.219  55.350  1.00  0.00     0.095 A 
ATOM     24  C   UNL     1       0.962  45.033  54.660  1.00  0.00     0.122 A 
BRANCH  21  25
ATOM     25  O   UNL     1       4.484  46.028  55.324  1.00  0.00    -0.494 OA
ATOM     26  C   UNL     1       5.370  44.919  55.389  1.00  0.00     0.278 C 
ENDBRANCH  21  25
BRANCH  24  27
ATOM     27  O   UNL     1      -0.028  44.434  55.390  1.00  0.00    -0.497 OA
ATOM     28  C   UNL     1      -0.414  45.075  56.601  1.00  0.00     0.278 C 
ENDBRANCH  24  27
ENDBRANCH  17  19
ENDBRANCH   3  17
TORSDOF 8
ENDMDL
MODEL 3
REMARK VINA RESULT:    -7.885      2.229      6.195
REMARK INTER + INTRA:         -12.617
REMARK INTER:                 -11.773
REMARK INTRA:                  -0.844
REMARK UNBOUND:                -1.044
REMARK SMILES CCCCNc1nc(Nc2ccc(OC)cc2OC)c2cnn(C)c2n1
REMARK SMILES IDX 6 1 7 2 8 3 20 4 21 5 22 6 23 7 24 8 25 9 26 10 5 11 4 13
REMARK SMILES IDX 3 14 2 15 1 16 9 17 10 19 11 20 17 21 12 22 16 23 13 24
REMARK SMILES IDX 18 25 19 26 14 27 15 28
REMARK H PARENT 5 12 9 18
ROOT
ATOM      1  C   UNL     1       6.908  45.590  50.907  1.00  0.00     0.226 A 
ATOM      2  N   UNL     1       5.903  46.202  51.563  1.00  0.00    -0.195 NA
ATOM      3  C   UNL     1       4.763  45.528  51.857  1.00  0.00     0.147 A 
ATOM      4  C   UNL     1       4.644  44.222  51.378  1.00  0.00     0.082 A 
ATOM      5  C   UNL     1       3.678  43.195  51.321  1.00  0.00     0.149 A 
ATOM      6  N   UNL     1       4.126  42.090  50.712  1.00  0.00    -0.179 NA
ATOM      7  N   UNL     1       5.384  42.428  50.348  1.00  0.00    -0.250 N 
ATOM      8  C   UNL     1       6.197  41.475  49.636  1.00  0.00     0.176 C 
ATOM      9  C   UNL     1       5.733  43.702  50.705  1.00  0.00     0.165 A 
ATOM     10  N   UNL     1       6.890  44.331  50.451  1.00  0.00    -0.193 NA
ENDROOT
BRANCH   1  11
ATOM     11  N   UNL     1       8.085  46.283  50.651  1.00  0.00    -0.354 N 
ATOM     12  H   UNL     1       7.971  46.698  49.732  1.00  0.00     0.163 HD
BRANCH  11  13
ATOM     13  C   UNL     1       8.500  47.194  51.702  1.00  0.00     0.116 C 
BRANCH  13  14
ATOM     14  C   UNL     1       9.854  46.767  52.278  1.00  0.00     0.021 C 
BRANCH  14  15
ATOM     15  C   UNL     1       9.911  46.720  53.809  1.00  0.00    -0.002 C 
ATOM     16  C   UNL     1       9.174  47.854  54.502  1.00  0.00     0.004 C 
ENDBRANCH  14  15
ENDBRANCH  13  14
ENDBRANCH  11  13
ENDBRANCH   1  11
BRANCH   3  17
ATOM     17  N   UNL     1       3.770  46.235  52.537  1.00  0.00    -0.336 N 
ATOM     18  H   UNL     1       4.022  47.219  52.612  1.00  0.00     0.168 HD
BRANCH  17  19
ATOM     19  C   UNL     1       2.892  45.862  53.579  1.00  0.00     0.083 A 
ATOM     20  C   UNL     1       1.542  45.563  53.369  1.00  0.00     0.034 A 
ATOM     21  C   UNL     1       3.387  45.841  54.903  1.00  0.00     0.146 A 
ATOM     22  C   UNL     1       0.694  45.253  54.438  1.00  0.00     0.049 A 
ATOM     23  C   UNL     1       2.534  45.529  55.966  1.00  0.00     0.095 A 
ATOM     24  C   UNL     1       1.186  45.239  55.739  1.00  0.00     0.122 A 
BRANCH  21  25
ATOM     25  O   UNL     1       4.728  46.124  55.033  1.00  0.00    -0.494 OA
ATOM     26  C   UNL     1       5.588  45.048  55.383  1.00  0.00     0.278 C 
ENDBRANCH  21  25
BRANCH  24  27
ATOM     27  O   UNL     1       0.467  44.952  56.868  1.00  0.00    -0.497 OA
ATOM     28  C   UNL     1      -0.945  44.840  56.720  1.00  0.00     0.278 C 
ENDBRANCH  24  27
ENDBRANCH  17  19
ENDBRANCH   3  17
TORSDOF 8
ENDMDL
MODEL 4
REMARK VINA RESULT:    -7.863      2.626      6.358
REMARK INTER + INTRA:         -12.585
REMARK INTER:                 -11.578
REMARK INTRA:                  -1.007
REMARK UNBOUND:                -1.044
REMARK SMILES CCCCNc1nc(Nc2ccc(OC)cc2OC)c2cnn(C)c2n1
REMARK SMILES IDX 6 1 7 2 8 3 20 4 21 5 22 6 23 7 24 8 25 9 26 10 5 11 4 13
REMARK SMILES IDX 3 14 2 15 1 16 9 17 10 19 11 20 17 21 12 22 16 23 13 24
REMARK SMILES IDX 18 25 19 26 14 27 15 28
REMARK H PARENT 5 12 9 18
ROOT
ATOM      1  C   UNL     1       6.901  45.674  50.999  1.00  0.00     0.226 A 
ATOM      2  N   UNL     1       5.870  46.282  51.616  1.00  0.00    -0.195 NA
ATOM      3  C   UNL     1       4.727  45.601  51.879  1.00  0.00     0.147 A 
ATOM      4  C   UNL     1       4.636  44.289  51.409  1.00  0.00     0.082 A 
ATOM      5  C   UNL     1       3.681  43.253  51.330  1.00  0.00     0.149 A 
ATOM      6  N   UNL     1       4.159  42.146  50.747  1.00  0.00    -0.179 NA
ATOM      7  N   UNL     1       5.425  42.493  50.421  1.00  0.00    -0.250 N 
ATOM      8  C   UNL     1       6.269  41.541  49.745  1.00  0.00     0.176 C 
ATOM      9  C   UNL     1       5.750  43.773  50.777  1.00  0.00     0.165 A 
ATOM     10  N   UNL     1       6.910  44.411  50.555  1.00  0.00    -0.193 NA
ENDROOT
BRANCH   1  11
ATOM     11  N   UNL     1       8.080  46.376  50.775  1.00  0.00    -0.354 N 
ATOM     12  H   UNL     1       7.972  46.822  49.870  1.00  0.00     0.163 HD
BRANCH  11  13
ATOM     13  C   UNL     1       8.488  47.249  51.859  1.00  0.00     0.116 C 
BRANCH  13  14
ATOM     14  C   UNL     1       9.843  46.810  52.422  1.00  0.00     0.021 C 
BRANCH  14  15
ATOM     15  C   UNL     1       9.913  46.756  53.952  1.00  0.00    -0.002 C 
ATOM     16  C   UNL     1       9.224  47.913  54.656  1.00  0.00     0.004 C 
ENDBRANCH  14  15
ENDBRANCH  13  14
ENDBRANCH  11  13
ENDBRANCH   1  11
BRANCH   3  17
ATOM     17  N   UNL     1       3.706  46.305  52.520  1.00  0.00    -0.336 N 
ATOM     18  H   UNL     1       3.850  47.308  52.422  1.00  0.00     0.168 HD
BRANCH  17  19
ATOM     19  C   UNL     1       2.943  46.019  53.673  1.00  0.00     0.083 A 
ATOM     20  C   UNL     1       3.481  46.018  54.964  1.00  0.00     0.034 A 
ATOM     21  C   UNL     1       1.584  45.665  53.511  1.00  0.00     0.146 A 
ATOM     22  C   UNL     1       2.701  45.673  56.074  1.00  0.00     0.049 A 
ATOM     23  C   UNL     1       0.810  45.322  54.625  1.00  0.00     0.095 A 
ATOM     24  C   UNL     1       1.366  45.320  55.907  1.00  0.00     0.122 A 
BRANCH  21  25
ATOM     25  O   UNL     1       1.116  45.708  52.217  1.00  0.00    -0.494 OA
ATOM     26  C   UNL     1       0.215  44.684  51.819  1.00  0.00     0.278 C 
ENDBRANCH  21  25
BRANCH  24  27
ATOM     27  O   UNL     1       0.498  44.965  56.904  1.00  0.00    -0.497 OA
ATOM     28  C   UNL     1      -0.846  45.418  56.780  1.00  0.00     0.278 C 
ENDBRANCH  24  27
ENDBRANCH  17  19
ENDBRANCH   3  17
TORSDOF 8
ENDMDL
MODEL 5
REMARK VINA RESULT:    -7.787      2.660      7.053
REMARK INTER + INTRA:         -12.473
REMARK INTER:                 -11.486
REMARK INTRA:                  -0.987
REMARK UNBOUND:                -1.044
REMARK SMILES CCCCNc1nc(Nc2ccc(OC)cc2OC)c2cnn(C)c2n1
REMARK SMILES IDX 6 1 7 2 8 3 20 4 21 5 22 6 23 7 24 8 25 9 26 10 5 11 4 13
REMARK SMILES IDX 3 14 2 15 1 16 9 17 10 19 11 20 17 21 12 22 16 23 13 24
REMARK SMILES IDX 18 25 19 26 14 27 15 28
REMARK H PARENT 5 12 9 18
ROOT
ATOM      1  C   UNL     1       6.155  46.150  52.237  1.00  0.00     0.226 A 
ATOM      2  N   UNL     1       5.132  45.501  52.824  1.00  0.00    -0.195 NA
ATOM      3  C   UNL     1       4.780  44.256  52.414  1.00  0.00     0.147 A 
ATOM      4  C   UNL     1       5.459  43.723  51.316  1.00  0.00     0.082 A 
ATOM      5  C   UNL     1       5.404  42.586  50.483  1.00  0.00     0.149 A 
ATOM      6  N   UNL     1       6.346  42.589  49.532  1.00  0.00    -0.179 NA
ATOM      7  N   UNL     1       6.990  43.760  49.742  1.00  0.00    -0.250 N 
ATOM      8  C   UNL     1       8.085  44.131  48.881  1.00  0.00     0.176 C 
ATOM      9  C   UNL     1       6.482  44.485  50.785  1.00  0.00     0.165 A 
ATOM     10  N   UNL     1       6.881  45.693  51.208  1.00  0.00    -0.193 NA
ENDROOT
BRANCH   1  11
ATOM     11  N   UNL     1       6.528  47.407  52.697  1.00  0.00    -0.354 N 
ATOM     12  H   UNL     1       6.381  47.392  53.701  1.00  0.00     0.163 HD
BRANCH  11  13
ATOM     13  C   UNL     1       7.838  47.854  52.262  1.00  0.00     0.116 C 
BRANCH  13  14
ATOM     14  C   UNL     1       8.826  47.844  53.433  1.00  0.00     0.021 C 
BRANCH  14  15
ATOM     15  C   UNL     1       9.933  46.790  53.328  1.00  0.00    -0.002 C 
ATOM     16  C   UNL     1      10.258  46.358  51.907  1.00  0.00     0.004 C 
ENDBRANCH  14  15
ENDBRANCH  13  14
ENDBRANCH  11  13
ENDBRANCH   1  11
BRANCH   3  17
ATOM     17  N   UNL     1       3.708  43.654  53.074  1.00  0.00    -0.336 N 
ATOM     18  H   UNL     1       3.992  42.763  53.475  1.00  0.00     0.168 HD
BRANCH  17  19
ATOM     19  C   UNL     1       2.317  43.672  52.826  1.00  0.00     0.083 A 
ATOM     20  C   UNL     1       1.751  43.243  51.622  1.00  0.00     0.034 A 
ATOM     21  C   UNL     1       1.462  44.197  53.822  1.00  0.00     0.146 A 
ATOM     22  C   UNL     1       0.372  43.331  51.398  1.00  0.00     0.049 A 
ATOM     23  C   UNL     1       0.085  44.281  53.592  1.00  0.00     0.095 A 
ATOM     24  C   UNL     1      -0.464  43.854  52.380  1.00  0.00     0.122 A 
BRANCH  21  25
ATOM     25  O   UNL     1       2.085  44.580  54.989  1.00  0.00    -0.494 OA
ATOM     26  C   UNL     1       1.290  45.246  55.961  1.00  0.00     0.278 C 
ENDBRANCH  21  25
BRANCH  24  27
ATOM     27  O   UNL     1      -1.822  43.994  52.288  1.00  0.00    -0.497 OA
ATOM     28  C   UNL     1      -2.329  45.321  52.212  1.00  0.00     0.278 C 
ENDBRANCH  24  27
ENDBRANCH  17  19
ENDBRANCH   3  17
TORSDOF 8
ENDMDL
MODEL 6
REMARK VINA RESULT:    -7.774      1.653      2.076
REMARK INTER + INTRA:         -12.454
REMARK INTER:                 -11.537
REMARK INTRA:                  -0.917
REMARK UNBOUND:                -1.044
REMARK SMILES CCCCNc1nc(Nc2ccc(OC)cc2OC)c2cnn(C)c2n1
REMARK SMILES IDX 6 1 7 2 8 3 20 4 21 5 22 6 23 7 24 8 25 9 26 10 5 11 4 13
REMARK SMILES IDX 3 14 2 15 1 16 9 17 10 19 11 20 17 21 12 22 16 23 13 24
REMARK SMILES IDX 18 25 19 26 14 27 15 28
REMARK H PARENT 5 12 9 18
ROOT
ATOM      1  C   UNL     1       5.461  42.782  50.361  1.00  0.00     0.226 A 
ATOM      2  N   UNL     1       6.169  43.919  50.505  1.00  0.00    -0.195 NA
ATOM      3  C   UNL     1       5.625  44.992  51.132  1.00  0.00     0.147 A 
ATOM      4  C   UNL     1       4.292  44.896  51.536  1.00  0.00     0.082 A 
ATOM      5  C   UNL     1       3.290  45.716  52.098  1.00  0.00     0.149 A 
ATOM      6  N   UNL     1       2.131  45.073  52.283  1.00  0.00    -0.179 NA
ATOM      7  N   UNL     1       2.388  43.834  51.803  1.00  0.00    -0.250 N 
ATOM      8  C   UNL     1       1.347  42.838  51.818  1.00  0.00     0.176 C 
ATOM      9  C   UNL     1       3.661  43.686  51.324  1.00  0.00     0.165 A 
ATOM     10  N   UNL     1       4.195  42.595  50.755  1.00  0.00    -0.193 NA
ENDROOT
BRANCH   1  11
ATOM     11  N   UNL     1       6.048  41.679  49.752  1.00  0.00    -0.354 N 
ATOM     12  H   UNL     1       6.210  41.005  50.493  1.00  0.00     0.163 HD
BRANCH  11  13
ATOM     13  C   UNL     1       5.343  41.174  48.589  1.00  0.00     0.116 C 
BRANCH  13  14
ATOM     14  C   UNL     1       5.769  41.937  47.330  1.00  0.00     0.021 C 
BRANCH  14  15
ATOM     15  C   UNL     1       5.047  41.509  46.048  1.00  0.00    -0.002 C 
ATOM     16  C   UNL     1       5.313  42.401  44.847  1.00  0.00     0.004 C 
ENDBRANCH  14  15
ENDBRANCH  13  14
ENDBRANCH  11  13
ENDBRANCH   1  11
BRANCH   3  17
ATOM     17  N   UNL     1       6.424  46.132  51.238  1.00  0.00    -0.336 N 
ATOM     18  H   UNL     1       6.488  46.607  50.340  1.00  0.00     0.168 HD
BRANCH  17  19
ATOM     19  C   UNL     1       7.550  46.424  52.040  1.00  0.00     0.083 A 
ATOM     20  C   UNL     1       8.861  46.129  51.652  1.00  0.00     0.034 A 
ATOM     21  C   UNL     1       7.338  46.992  53.317  1.00  0.00     0.146 A 
ATOM     22  C   UNL     1       9.942  46.385  52.503  1.00  0.00     0.049 A 
ATOM     23  C   UNL     1       8.424  47.245  54.162  1.00  0.00     0.095 A 
ATOM     24  C   UNL     1       9.727  46.939  53.761  1.00  0.00     0.122 A 
BRANCH  21  25
ATOM     25  O   UNL     1       6.025  47.275  53.624  1.00  0.00    -0.494 OA
ATOM     26  C   UNL     1       5.489  46.674  54.795  1.00  0.00     0.278 C 
ENDBRANCH  21  25
BRANCH  24  27
ATOM     27  O   UNL     1      10.692  47.237  54.684  1.00  0.00    -0.497 OA
ATOM     28  C   UNL     1      10.275  47.946  55.846  1.00  0.00     0.278 C 
ENDBRANCH  24  27
ENDBRANCH  17  19
ENDBRANCH   3  17
TORSDOF 8
ENDMDL
MODEL 7
REMARK VINA RESULT:    -7.718      1.787      4.611
REMARK INTER + INTRA:         -12.371
REMARK INTER:                 -11.546
REMARK INTRA:                  -0.825
REMARK UNBOUND:                -1.044
REMARK SMILES CCCCNc1nc(Nc2ccc(OC)cc2OC)c2cnn(C)c2n1
REMARK SMILES IDX 6 1 7 2 8 3 20 4 21 5 22 6 23 7 24 8 25 9 26 10 5 11 4 13
REMARK SMILES IDX 3 14 2 15 1 16 9 17 10 19 11 20 17 21 12 22 16 23 13 24
REMARK SMILES IDX 18 25 19 26 14 27 15 28
REMARK H PARENT 5 12 9 18
ROOT
ATOM      1  C   UNL     1       4.702  43.912  52.144  1.00  0.00     0.226 A 
ATOM      2  N   UNL     1       5.480  45.005  52.257  1.00  0.00    -0.195 NA
ATOM      3  C   UNL     1       6.453  45.255  51.346  1.00  0.00     0.147 A 
ATOM      4  C   UNL     1       6.665  44.298  50.351  1.00  0.00     0.082 A 
ATOM      5  C   UNL     1       7.567  44.045  49.295  1.00  0.00     0.149 A 
ATOM      6  N   UNL     1       7.286  42.919  48.628  1.00  0.00    -0.179 NA
ATOM      7  N   UNL     1       6.211  42.430  49.287  1.00  0.00    -0.250 N 
ATOM      8  C   UNL     1       5.620  41.188  48.859  1.00  0.00     0.176 C 
ATOM      9  C   UNL     1       5.815  43.209  50.341  1.00  0.00     0.165 A 
ATOM     10  N   UNL     1       4.813  42.969  51.200  1.00  0.00    -0.193 NA
ENDROOT
BRANCH   1  11
ATOM     11  N   UNL     1       3.683  43.694  53.064  1.00  0.00    -0.354 N 
ATOM     12  H   UNL     1       4.040  44.017  53.958  1.00  0.00     0.163 HD
BRANCH  11  13
ATOM     13  C   UNL     1       2.387  44.221  52.679  1.00  0.00     0.116 C 
BRANCH  13  14
ATOM     14  C   UNL     1       2.006  45.411  53.565  1.00  0.00     0.021 C 
BRANCH  14  15
ATOM     15  C   UNL     1       2.418  45.272  55.034  1.00  0.00    -0.002 C 
ATOM     16  C   UNL     1       1.272  44.964  55.984  1.00  0.00     0.004 C 
ENDBRANCH  14  15
ENDBRANCH  13  14
ENDBRANCH  11  13
ENDBRANCH   1  11
BRANCH   3  17
ATOM     17  N   UNL     1       7.216  46.408  51.537  1.00  0.00    -0.336 N 
ATOM     18  H   UNL     1       7.565  46.755  50.646  1.00  0.00     0.168 HD
BRANCH  17  19
ATOM     19  C   UNL     1       8.051  46.822  52.598  1.00  0.00     0.083 A 
ATOM     20  C   UNL     1       9.404  46.478  52.683  1.00  0.00     0.034 A 
ATOM     21  C   UNL     1       7.480  47.574  53.650  1.00  0.00     0.146 A 
ATOM     22  C   UNL     1      10.181  46.863  53.782  1.00  0.00     0.049 A 
ATOM     23  C   UNL     1       8.263  47.956  54.745  1.00  0.00     0.095 A 
ATOM     24  C   UNL     1       9.612  47.599  54.817  1.00  0.00     0.122 A 
BRANCH  21  25
ATOM     25  O   UNL     1       6.151  47.894  53.489  1.00  0.00    -0.494 OA
ATOM     26  C   UNL     1       5.261  47.513  54.530  1.00  0.00     0.278 C 
ENDBRANCH  21  25
BRANCH  24  27
ATOM     27  O   UNL     1      10.258  48.036  55.942  1.00  0.00    -0.497 OA
ATOM     28  C   UNL     1      11.364  47.262  56.392  1.00  0.00     0.278 C 
ENDBRANCH  24  27
ENDBRANCH  17  19
ENDBRANCH   3  17
TORSDOF 8
ENDMDL
MODEL 8
REMARK VINA RESULT:    -7.696      2.932      6.910
REMARK INTER + INTRA:         -12.339
REMARK INTER:                 -11.710
REMARK INTRA:                  -0.628
REMARK UNBOUND:                -1.044
REMARK SMILES CCCCNc1nc(Nc2ccc(OC)cc2OC)c2cnn(C)c2n1
REMARK SMILES IDX 6 1 7 2 8 3 20 4 21 5 22 6 23 7 24 8 25 9 26 10 5 11 4 13
REMARK SMILES IDX 3 14 2 15 1 16 9 17 10 19 11 20 17 21 12 22 16 23 13 24
REMARK SMILES IDX 18 25 19 26 14 27 15 28
REMARK H PARENT 5 12 9 18
ROOT
ATOM      1  C   UNL     1       6.122  46.019  52.048  1.00  0.00     0.226 A 
ATOM      2  N   UNL     1       5.079  45.416  52.647  1.00  0.00    -0.195 NA
ATOM      3  C   UNL     1       4.709  44.161  52.287  1.00  0.00     0.147 A 
ATOM      4  C   UNL     1       5.393  43.567  51.224  1.00  0.00     0.082 A 
ATOM      5  C   UNL     1       5.329  42.395  50.441  1.00  0.00     0.149 A 
ATOM      6  N   UNL     1       6.285  42.339  49.506  1.00  0.00    -0.179 NA
ATOM      7  N   UNL     1       6.948  43.506  49.674  1.00  0.00    -0.250 N 
ATOM      8  C   UNL     1       8.062  43.818  48.815  1.00  0.00     0.176 C 
ATOM      9  C   UNL     1       6.438  44.286  50.675  1.00  0.00     0.165 A 
ATOM     10  N   UNL     1       6.854  45.504  51.051  1.00  0.00    -0.193 NA
ENDROOT
BRANCH   1  11
ATOM     11  N   UNL     1       6.512  47.289  52.458  1.00  0.00    -0.354 N 
ATOM     12  H   UNL     1       6.342  47.324  53.457  1.00  0.00     0.163 HD
BRANCH  11  13
ATOM     13  C   UNL     1       7.841  47.687  52.034  1.00  0.00     0.116 C 
BRANCH  13  14
ATOM     14  C   UNL     1       8.767  47.846  53.245  1.00  0.00     0.021 C 
BRANCH  14  15
ATOM     15  C   UNL     1       9.891  46.809  53.331  1.00  0.00    -0.002 C 
ATOM     16  C   UNL     1      10.264  46.172  52.003  1.00  0.00     0.004 C 
ENDBRANCH  14  15
ENDBRANCH  13  14
ENDBRANCH  11  13
ENDBRANCH   1  11
BRANCH   3  17
ATOM     17  N   UNL     1       3.616  43.609  52.957  1.00  0.00    -0.336 N 
ATOM     18  H   UNL     1       3.243  42.817  52.437  1.00  0.00     0.168 HD
BRANCH  17  19
ATOM     19  C   UNL     1       2.618  44.187  53.772  1.00  0.00     0.083 A 
ATOM     20  C   UNL     1       2.908  44.976  54.890  1.00  0.00     0.034 A 
ATOM     21  C   UNL     1       1.263  43.913  53.475  1.00  0.00     0.146 A 
ATOM     22  C   UNL     1       1.888  45.483  55.702  1.00  0.00     0.049 A 
ATOM     23  C   UNL     1       0.249  44.424  54.292  1.00  0.00     0.095 A 
ATOM     24  C   UNL     1       0.556  45.206  55.409  1.00  0.00     0.122 A 
BRANCH  21  25
ATOM     25  O   UNL     1       1.051  43.149  52.350  1.00  0.00    -0.494 OA
ATOM     26  C   UNL     1       0.503  43.805  51.214  1.00  0.00     0.278 C 
ENDBRANCH  21  25
BRANCH  24  27
ATOM     27  O   UNL     1      -0.530  45.638  56.118  1.00  0.00    -0.497 OA
ATOM     28  C   UNL     1      -1.402  44.639  56.635  1.00  0.00     0.278 C 
ENDBRANCH  24  27
ENDBRANCH  17  19
ENDBRANCH   3  17
TORSDOF 8
ENDMDL
MODEL 9
REMARK VINA RESULT:    -7.670      2.531      6.160
REMARK INTER + INTRA:         -12.302
REMARK INTER:                 -11.127
REMARK INTRA:                  -1.175
REMARK UNBOUND:                -1.044
REMARK SMILES CCCCNc1nc(Nc2ccc(OC)cc2OC)c2cnn(C)c2n1
REMARK SMILES IDX 6 1 7 2 8 3 20 4 21 5 22 6 23 7 24 8 25 9 26 10 5 11 4 13
REMARK SMILES IDX 3 14 2 15 1 16 9 17 10 19 11 20 17 21 12 22 16 23 13 24
REMARK SMILES IDX 18 25 19 26 14 27 15 28
REMARK H PARENT 5 12 9 18
ROOT
ATOM      1  C   UNL     1       7.264  45.600  50.769  1.00  0.00     0.226 A 
ATOM      2  N   UNL     1       5.937  45.668  50.990  1.00  0.00    -0.195 NA
ATOM      3  C   UNL     1       5.458  46.206  52.140  1.00  0.00     0.147 A 
ATOM      4  C   UNL     1       6.388  46.599  53.105  1.00  0.00     0.082 A 
ATOM      5  C   UNL     1       6.403  47.084  54.430  1.00  0.00     0.149 A 
ATOM      6  N   UNL     1       7.641  47.302  54.891  1.00  0.00    -0.179 NA
ATOM      7  N   UNL     1       8.426  46.919  53.858  1.00  0.00    -0.250 N 
ATOM      8  C   UNL     1       9.859  46.995  53.990  1.00  0.00     0.176 C 
ATOM      9  C   UNL     1       7.723  46.469  52.774  1.00  0.00     0.165 A 
ATOM     10  N   UNL     1       8.218  45.991  51.623  1.00  0.00    -0.193 NA
ENDROOT
BRANCH   1  11
ATOM     11  N   UNL     1       7.736  45.083  49.568  1.00  0.00    -0.354 N 
ATOM     12  H   UNL     1       8.537  45.652  49.316  1.00  0.00     0.163 HD
BRANCH  11  13
ATOM     13  C   UNL     1       7.957  43.649  49.564  1.00  0.00     0.116 C 
BRANCH  13  14
ATOM     14  C   UNL     1       6.711  42.914  49.060  1.00  0.00     0.021 C 
BRANCH  14  15
ATOM     15  C   UNL     1       6.215  41.792  49.979  1.00  0.00    -0.002 C 
ATOM     16  C   UNL     1       4.869  42.060  50.631  1.00  0.00     0.004 C 
ENDBRANCH  14  15
ENDBRANCH  13  14
ENDBRANCH  11  13
ENDBRANCH   1  11
BRANCH   3  17
ATOM     17  N   UNL     1       4.071  46.237  52.291  1.00  0.00    -0.336 N 
ATOM     18  H   UNL     1       3.802  46.946  52.971  1.00  0.00     0.168 HD
BRANCH  17  19
ATOM     19  C   UNL     1       3.089  45.224  52.210  1.00  0.00     0.083 A 
ATOM     20  C   UNL     1       2.405  44.917  51.030  1.00  0.00     0.034 A 
ATOM     21  C   UNL     1       2.746  44.524  53.390  1.00  0.00     0.146 A 
ATOM     22  C   UNL     1       1.400  43.943  51.009  1.00  0.00     0.049 A 
ATOM     23  C   UNL     1       1.741  43.551  53.360  1.00  0.00     0.095 A 
ATOM     24  C   UNL     1       1.062  43.261  52.174  1.00  0.00     0.122 A 
BRANCH  21  25
ATOM     25  O   UNL     1       3.475  44.863  54.507  1.00  0.00    -0.494 OA
ATOM     26  C   UNL     1       2.816  45.637  55.500  1.00  0.00     0.278 C 
ENDBRANCH  21  25
BRANCH  24  27
ATOM     27  O   UNL     1       0.104  42.290  52.288  1.00  0.00    -0.497 OA
ATOM     28  C   UNL     1      -1.249  42.698  52.117  1.00  0.00     0.278 C 
ENDBRANCH  24  27
ENDBRANCH  17  19
ENDBRANCH   3  17
TORSDOF 8
ENDMDL
MODEL 10
REMARK VINA RESULT:    -7.662      2.617      7.177
REMARK INTER + INTRA:         -12.289
REMARK INTER:                 -11.513
REMARK INTRA:                  -0.776
REMARK UNBOUND:                -1.044
REMARK SMILES CCCCNc1nc(Nc2ccc(OC)cc2OC)c2cnn(C)c2n1
REMARK SMILES IDX 6 1 7 2 8 3 20 4 21 5 22 6 23 7 24 8 25 9 26 10 5 11 4 13
REMARK SMILES IDX 3 14 2 15 1 16 9 17 10 19 11 20 17 21 12 22 16 23 13 24
REMARK SMILES IDX 18 25 19 26 14 27 15 28
REMARK H PARENT 5 12 9 18
ROOT
ATOM      1  C   UNL     1       5.315  45.780  52.174  1.00  0.00     0.226 A 
ATOM      2  N   UNL     1       4.339  45.409  53.025  1.00  0.00    -0.195 NA
ATOM      3  C   UNL     1       3.830  44.152  52.981  1.00  0.00     0.147 A 
ATOM      4  C   UNL     1       4.295  43.303  51.974  1.00  0.00     0.082 A 
ATOM      5  C   UNL     1       4.025  42.016  51.462  1.00  0.00     0.149 A 
ATOM      6  N   UNL     1       4.815  41.688  50.432  1.00  0.00    -0.179 NA
ATOM      7  N   UNL     1       5.577  42.793  50.266  1.00  0.00    -0.250 N 
ATOM      8  C   UNL     1       6.561  42.824  49.213  1.00  0.00     0.176 C 
ATOM      9  C   UNL     1       5.288  43.796  51.150  1.00  0.00     0.165 A 
ATOM     10  N   UNL     1       5.843  45.016  51.210  1.00  0.00    -0.193 NA
ENDROOT
BRANCH   1  11
ATOM     11  N   UNL     1       5.854  47.059  52.260  1.00  0.00    -0.354 N 
ATOM     12  H   UNL     1       5.094  47.662  52.557  1.00  0.00     0.163 HD
BRANCH  11  13
ATOM     13  C   UNL     1       7.074  47.158  53.039  1.00  0.00     0.116 C 
BRANCH  13  14
ATOM     14  C   UNL     1       8.233  47.646  52.163  1.00  0.00     0.021 C 
BRANCH  14  15
ATOM     15  C   UNL     1       9.603  47.069  52.535  1.00  0.00    -0.002 C 
ATOM     16  C   UNL     1       9.924  47.117  54.020  1.00  0.00     0.004 C 
ENDBRANCH  14  15
ENDBRANCH  13  14
ENDBRANCH  11  13
ENDBRANCH   1  11
BRANCH   3  17
ATOM     17  N   UNL     1       2.820  43.849  53.895  1.00  0.00    -0.336 N 
ATOM     18  H   UNL     1       3.184  43.268  54.648  1.00  0.00     0.168 HD
BRANCH  17  19
ATOM     19  C   UNL     1       1.431  43.649  53.735  1.00  0.00     0.083 A 
ATOM     20  C   UNL     1       0.893  42.629  52.943  1.00  0.00     0.034 A 
ATOM     21  C   UNL     1       0.543  44.553  54.361  1.00  0.00     0.146 A 
ATOM     22  C   UNL     1      -0.489  42.502  52.767  1.00  0.00     0.049 A 
ATOM     23  C   UNL     1      -0.837  44.419  54.181  1.00  0.00     0.095 A 
ATOM     24  C   UNL     1      -1.358  43.398  53.381  1.00  0.00     0.122 A 
BRANCH  21  25
ATOM     25  O   UNL     1       1.141  45.518  55.141  1.00  0.00    -0.494 OA
ATOM     26  C   UNL     1       0.884  45.472  56.538  1.00  0.00     0.278 C 
ENDBRANCH  21  25
BRANCH  24  27
ATOM     27  O   UNL     1      -2.723  43.385  53.291  1.00  0.00    -0.497 OA
ATOM     28  C   UNL     1      -3.440  44.151  54.253  1.00  0.00     0.278 C 
ENDBRANCH  24  27
ENDBRANCH  17  19
ENDBRANCH   3  17
TORSDOF 8
ENDMDL
MODEL 11
REMARK VINA RESULT:    -7.653      1.343      2.159
REMARK INTER + INTRA:         -12.276
REMARK INTER:                 -11.268
REMARK INTRA:                  -1.008
REMARK UNBOUND:                -1.044
REMARK SMILES CCCCNc1nc(Nc2ccc(OC)cc2OC)c2cnn(C)c2n1
REMARK SMILES IDX 6 1 7 2 8 3 20 4 21 5 22 6 23 7 24 8 25 9 26 10 5 11 4 13
REMARK SMILES IDX 3 14 2 15 1 16 9 17 10 19 11 20 17 21 12 22 16 23 13 24
REMARK SMILES IDX 18 25 19 26 14 27 15 28
REMARK H PARENT 5 12 9 18
ROOT
ATOM      1  C   UNL     1       3.966  42.645  51.187  1.00  0.00     0.226 A 
ATOM      2  N   UNL     1       4.784  43.713  51.129  1.00  0.00    -0.195 NA
ATOM      3  C   UNL     1       4.346  44.937  51.519  1.00  0.00     0.147 A 
ATOM      4  C   UNL     1       3.006  45.053  51.895  1.00  0.00     0.082 A 
ATOM      5  C   UNL     1       2.088  46.061  52.257  1.00  0.00     0.149 A 
ATOM      6  N   UNL     1       0.868  45.583  52.529  1.00  0.00    -0.179 NA
ATOM      7  N   UNL     1       1.002  44.255  52.307  1.00  0.00    -0.250 N 
ATOM      8  C   UNL     1      -0.136  43.388  52.484  1.00  0.00     0.176 C 
ATOM      9  C   UNL     1       2.258  43.892  51.903  1.00  0.00     0.165 A 
ATOM     10  N   UNL     1       2.684  42.663  51.573  1.00  0.00    -0.193 NA
ENDROOT
BRANCH   1  11
ATOM     11  N   UNL     1       4.444  41.392  50.822  1.00  0.00    -0.354 N 
ATOM     12  H   UNL     1       3.633  40.860  50.523  1.00  0.00     0.163 HD
BRANCH  11  13
ATOM     13  C   UNL     1       5.559  41.408  49.894  1.00  0.00     0.116 C 
BRANCH  13  14
ATOM     14  C   UNL     1       5.070  41.175  48.461  1.00  0.00     0.021 C 
BRANCH  14  15
ATOM     15  C   UNL     1       5.809  41.987  47.393  1.00  0.00    -0.002 C 
ATOM     16  C   UNL     1       5.390  41.679  45.965  1.00  0.00     0.004 C 
ENDBRANCH  14  15
ENDBRANCH  13  14
ENDBRANCH  11  13
ENDBRANCH   1  11
BRANCH   3  17
ATOM     17  N   UNL     1       5.256  45.991  51.426  1.00  0.00    -0.336 N 
ATOM     18  H   UNL     1       5.282  46.356  50.475  1.00  0.00     0.168 HD
BRANCH  17  19
ATOM     19  C   UNL     1       6.473  46.249  52.095  1.00  0.00     0.083 A 
ATOM     20  C   UNL     1       6.537  46.680  53.424  1.00  0.00     0.034 A 
ATOM     21  C   UNL     1       7.681  46.117  51.371  1.00  0.00     0.146 A 
ATOM     22  C   UNL     1       7.763  46.978  54.030  1.00  0.00     0.049 A 
ATOM     23  C   UNL     1       8.902  46.417  51.984  1.00  0.00     0.095 A 
ATOM     24  C   UNL     1       8.948  46.852  53.311  1.00  0.00     0.122 A 
BRANCH  21  25
ATOM     25  O   UNL     1       7.544  45.669  50.077  1.00  0.00    -0.494 OA
ATOM     26  C   UNL     1       8.203  44.457  49.737  1.00  0.00     0.278 C 
ENDBRANCH  21  25
BRANCH  24  27
ATOM     27  O   UNL     1      10.206  47.109  53.784  1.00  0.00    -0.497 OA
ATOM     28  C   UNL     1      10.323  47.424  55.167  1.00  0.00     0.278 C 
ENDBRANCH  24  27
ENDBRANCH  17  19
ENDBRANCH   3  17
TORSDOF 8
ENDMDL
MODEL 12
REMARK VINA RESULT:    -7.571      2.895      6.705
REMARK INTER + INTRA:         -12.156
REMARK INTER:                 -11.382
REMARK INTRA:                  -0.774
REMARK UNBOUND:                -1.044
REMARK SMILES CCCCNc1nc(Nc2ccc(OC)cc2OC)c2cnn(C)c2n1
REMARK SMILES IDX 6 1 7 2 8 3 20 4 21 5 22 6 23 7 24 8 25 9 26 10 5 11 4 13
REMARK SMILES IDX 3 14 2 15 1 16 9 17 10 19 11 20 17 21 12 22 16 23 13 24
REMARK SMILES IDX 18 25 19 26 14 27 15 28
REMARK H PARENT 5 12 9 18
ROOT
ATOM      1  C   UNL     1       5.718  45.449  51.387  1.00  0.00     0.226 A 
ATOM      2  N   UNL     1       4.450  45.669  51.783  1.00  0.00    -0.195 NA
ATOM      3  C   UNL     1       3.547  44.656  51.794  1.00  0.00     0.147 A 
ATOM      4  C   UNL     1       3.963  43.417  51.303  1.00  0.00     0.082 A 
ATOM      5  C   UNL     1       3.413  42.149  51.016  1.00  0.00     0.149 A 
ATOM      6  N   UNL     1       4.316  41.286  50.535  1.00  0.00    -0.179 NA
ATOM      7  N   UNL     1       5.449  42.023  50.483  1.00  0.00    -0.250 N 
ATOM      8  C   UNL     1       6.663  41.424  49.988  1.00  0.00     0.176 C 
ATOM      9  C   UNL     1       5.283  43.311  50.912  1.00  0.00     0.165 A 
ATOM     10  N   UNL     1       6.206  44.285  50.942  1.00  0.00    -0.193 NA
ENDROOT
BRANCH   1  11
ATOM     11  N   UNL     1       6.640  46.490  51.421  1.00  0.00    -0.354 N 
ATOM     12  H   UNL     1       6.458  46.996  52.281  1.00  0.00     0.163 HD
BRANCH  11  13
ATOM     13  C   UNL     1       8.019  46.092  51.206  1.00  0.00     0.116 C 
BRANCH  13  14
ATOM     14  C   UNL     1       8.976  47.137  51.790  1.00  0.00     0.021 C 
BRANCH  14  15
ATOM     15  C   UNL     1       9.955  46.594  52.835  1.00  0.00    -0.002 C 
ATOM     16  C   UNL     1       9.877  47.280  54.189  1.00  0.00     0.004 C 
ENDBRANCH  14  15
ENDBRANCH  13  14
ENDBRANCH  11  13
ENDBRANCH   1  11
BRANCH   3  17
ATOM     17  N   UNL     1       2.254  44.969  52.216  1.00  0.00    -0.336 N 
ATOM     18  H   UNL     1       1.845  45.681  51.613  1.00  0.00     0.168 HD
BRANCH  17  19
ATOM     19  C   UNL     1       1.660  44.995  53.497  1.00  0.00     0.083 A 
ATOM     20  C   UNL     1       2.367  45.316  54.660  1.00  0.00     0.034 A 
ATOM     21  C   UNL     1       0.299  44.629  53.616  1.00  0.00     0.146 A 
ATOM     22  C   UNL     1       1.751  45.276  55.916  1.00  0.00     0.049 A 
ATOM     23  C   UNL     1      -0.309  44.592  54.875  1.00  0.00     0.095 A 
ATOM     24  C   UNL     1       0.413  44.909  56.028  1.00  0.00     0.122 A 
BRANCH  21  25
ATOM     25  O   UNL     1      -0.340  44.347  52.429  1.00  0.00    -0.494 OA
ATOM     26  C   UNL     1      -1.393  45.217  52.038  1.00  0.00     0.278 C 
ENDBRANCH  21  25
BRANCH  24  27
ATOM     27  O   UNL     1      -0.304  44.831  57.190  1.00  0.00    -0.497 OA
ATOM     28  C   UNL     1      -1.715  44.983  57.088  1.00  0.00     0.278 C 
ENDBRANCH  24  27
ENDBRANCH  17  19
ENDBRANCH   3  17
TORSDOF 8
ENDMDL
MODEL 13
REMARK VINA RESULT:    -7.557      2.722      5.861
REMARK INTER + INTRA:         -12.135
REMARK INTER:                 -11.033
REMARK INTRA:                  -1.102
REMARK UNBOUND:                -1.044
REMARK SMILES CCCCNc1nc(Nc2ccc(OC)cc2OC)c2cnn(C)c2n1
REMARK SMILES IDX 6 1 7 2 8 3 20 4 21 5 22 6 23 7 24 8 25 9 26 10 5 11 4 13
REMARK SMILES IDX 3 14 2 15 1 16 9 17 10 19 11 20 17 21 12 22 16 23 13 24
REMARK SMILES IDX 18 25 19 26 14 27 15 28
REMARK H PARENT 5 12 9 18
ROOT
ATOM      1  C   UNL     1       6.609  44.510  50.260  1.00  0.00     0.226 A 
ATOM      2  N   UNL     1       5.480  45.028  50.779  1.00  0.00    -0.195 NA
ATOM      3  C   UNL     1       5.532  46.096  51.613  1.00  0.00     0.147 A 
ATOM      4  C   UNL     1       6.795  46.572  51.973  1.00  0.00     0.082 A 
ATOM      5  C   UNL     1       7.362  47.529  52.841  1.00  0.00     0.149 A 
ATOM      6  N   UNL     1       8.699  47.562  52.780  1.00  0.00    -0.179 NA
ATOM      7  N   UNL     1       8.990  46.591  51.883  1.00  0.00    -0.250 N 
ATOM      8  C   UNL     1      10.366  46.313  51.561  1.00  0.00     0.176 C 
ATOM      9  C   UNL     1       7.884  45.954  51.389  1.00  0.00     0.165 A 
ATOM     10  N   UNL     1       7.853  44.932  50.521  1.00  0.00    -0.193 NA
ENDROOT
BRANCH   1  11
ATOM     11  N   UNL     1       6.534  43.441  49.375  1.00  0.00    -0.354 N 
ATOM     12  H   UNL     1       7.334  43.532  48.758  1.00  0.00     0.163 HD
BRANCH  11  13
ATOM     13  C   UNL     1       6.367  42.141  49.998  1.00  0.00     0.116 C 
BRANCH  13  14
ATOM     14  C   UNL     1       5.282  41.335  49.276  1.00  0.00     0.021 C 
BRANCH  14  15
ATOM     15  C   UNL     1       3.986  41.150  50.071  1.00  0.00    -0.002 C 
ATOM     16  C   UNL     1       3.950  41.892  51.398  1.00  0.00     0.004 C 
ENDBRANCH  14  15
ENDBRANCH  13  14
ENDBRANCH  11  13
ENDBRANCH   1  11
BRANCH   3  17
ATOM     17  N   UNL     1       4.316  46.570  52.108  1.00  0.00    -0.336 N 
ATOM     18  H   UNL     1       4.212  47.562  51.906  1.00  0.00     0.168 HD
BRANCH  17  19
ATOM     19  C   UNL     1       3.552  46.206  53.239  1.00  0.00     0.083 A 
ATOM     20  C   UNL     1       4.045  46.270  54.547  1.00  0.00     0.034 A 
ATOM     21  C   UNL     1       2.246  45.705  53.037  1.00  0.00     0.146 A 
ATOM     22  C   UNL     1       3.272  45.846  55.633  1.00  0.00     0.049 A 
ATOM     23  C   UNL     1       1.479  45.284  54.128  1.00  0.00     0.095 A 
ATOM     24  C   UNL     1       1.989  45.348  55.427  1.00  0.00     0.122 A 
BRANCH  21  25
ATOM     25  O   UNL     1       1.819  45.691  51.728  1.00  0.00    -0.494 OA
ATOM     26  C   UNL     1       1.239  44.486  51.248  1.00  0.00     0.278 C 
ENDBRANCH  21  25
BRANCH  24  27
ATOM     27  O   UNL     1       1.133  44.904  56.398  1.00  0.00    -0.497 OA
ATOM     28  C   UNL     1       0.628  45.877  57.306  1.00  0.00     0.278 C 
ENDBRANCH  24  27
ENDBRANCH  17  19
ENDBRANCH   3  17
TORSDOF 8
ENDMDL
MODEL 14
REMARK VINA RESULT:    -7.539      2.376      5.921
REMARK INTER + INTRA:         -12.110
REMARK INTER:                 -10.848
REMARK INTRA:                  -1.262
REMARK UNBOUND:                -1.044
REMARK SMILES CCCCNc1nc(Nc2ccc(OC)cc2OC)c2cnn(C)c2n1
REMARK SMILES IDX 6 1 7 2 8 3 20 4 21 5 22 6 23 7 24 8 25 9 26 10 5 11 4 13
REMARK SMILES IDX 3 14 2 15 1 16 9 17 10 19 11 20 17 21 12 22 16 23 13 24
REMARK SMILES IDX 18 25 19 26 14 27 15 28
REMARK H PARENT 5 12 9 18
ROOT
ATOM      1  C   UNL     1       6.506  44.719  50.441  1.00  0.00     0.226 A 
ATOM      2  N   UNL     1       5.451  45.303  51.042  1.00  0.00    -0.195 NA
ATOM      3  C   UNL     1       5.634  46.332  51.907  1.00  0.00     0.147 A 
ATOM      4  C   UNL     1       6.949  46.694  52.209  1.00  0.00     0.082 A 
ATOM      5  C   UNL     1       7.637  47.570  53.074  1.00  0.00     0.149 A 
ATOM      6  N   UNL     1       8.967  47.502  52.937  1.00  0.00    -0.179 NA
ATOM      7  N   UNL     1       9.130  46.546  51.993  1.00  0.00    -0.250 N 
ATOM      8  C   UNL     1      10.460  46.175  51.582  1.00  0.00     0.176 C 
ATOM      9  C   UNL     1       7.952  46.016  51.543  1.00  0.00     0.165 A 
ATOM     10  N   UNL     1       7.792  45.033  50.644  1.00  0.00    -0.193 NA
ENDROOT
BRANCH   1  11
ATOM     11  N   UNL     1       6.297  43.694  49.527  1.00  0.00    -0.354 N 
ATOM     12  H   UNL     1       6.918  43.883  48.748  1.00  0.00     0.163 HD
BRANCH  11  13
ATOM     13  C   UNL     1       6.375  42.355  50.080  1.00  0.00     0.116 C 
BRANCH  13  14
ATOM     14  C   UNL     1       5.003  41.674  50.036  1.00  0.00     0.021 C 
BRANCH  14  15
ATOM     15  C   UNL     1       4.151  41.871  51.294  1.00  0.00    -0.002 C 
ATOM     16  C   UNL     1       2.879  42.673  51.074  1.00  0.00     0.004 C 
ENDBRANCH  14  15
ENDBRANCH  13  14
ENDBRANCH  11  13
ENDBRANCH   1  11
BRANCH   3  17
ATOM     17  N   UNL     1       4.489  46.879  52.487  1.00  0.00    -0.336 N 
ATOM     18  H   UNL     1       4.698  47.786  52.901  1.00  0.00     0.168 HD
BRANCH  17  19
ATOM     19  C   UNL     1       3.376  46.284  53.121  1.00  0.00     0.083 A 
ATOM     20  C   UNL     1       2.151  46.079  52.479  1.00  0.00     0.034 A 
ATOM     21  C   UNL     1       3.489  45.927  54.485  1.00  0.00     0.146 A 
ATOM     22  C   UNL     1       1.057  45.537  53.162  1.00  0.00     0.049 A 
ATOM     23  C   UNL     1       2.391  45.385  55.161  1.00  0.00     0.095 A 
ATOM     24  C   UNL     1       1.172  45.193  54.506  1.00  0.00     0.122 A 
BRANCH  21  25
ATOM     25  O   UNL     1       4.728  46.136  55.046  1.00  0.00    -0.494 OA
ATOM     26  C   UNL     1       5.483  44.985  55.400  1.00  0.00     0.278 C 
ENDBRANCH  21  25
BRANCH  24  27
ATOM     27  O   UNL     1       0.184  44.656  55.286  1.00  0.00    -0.497 OA
ATOM     28  C   UNL     1      -0.008  45.236  56.571  1.00  0.00     0.278 C 
ENDBRANCH  24  27
ENDBRANCH  17  19
ENDBRANCH   3  17
TORSDOF 8
ENDMDL
MODEL 15
REMARK VINA RESULT:    -7.468      2.547      5.100
REMARK INTER + INTRA:         -12.005
REMARK INTER:                 -11.226
REMARK INTRA:                  -0.779
REMARK UNBOUND:                -1.044
REMARK SMILES CCCCNc1nc(Nc2ccc(OC)cc2OC)c2cnn(C)c2n1
REMARK SMILES IDX 6 1 7 2 8 3 20 4 21 5 22 6 23 7 24 8 25 9 26 10 5 11 4 13
REMARK SMILES IDX 3 14 2 15 1 16 9 17 10 19 11 20 17 21 12 22 16 23 13 24
REMARK SMILES IDX 18 25 19 26 14 27 15 28
REMARK H PARENT 5 12 9 18
ROOT
ATOM      1  C   UNL     1       2.959  44.997  54.831  1.00  0.00     0.226 A 
ATOM      2  N   UNL     1       3.414  44.351  53.740  1.00  0.00    -0.195 NA
ATOM      3  C   UNL     1       2.570  43.613  52.976  1.00  0.00     0.147 A 
ATOM      4  C   UNL     1       1.249  43.485  53.412  1.00  0.00     0.082 A 
ATOM      5  C   UNL     1       0.077  42.785  53.059  1.00  0.00     0.149 A 
ATOM      6  N   UNL     1      -0.955  43.051  53.869  1.00  0.00    -0.179 NA
ATOM      7  N   UNL     1      -0.424  43.909  54.771  1.00  0.00    -0.250 N 
ATOM      8  C   UNL     1      -1.249  44.416  55.838  1.00  0.00     0.176 C 
ATOM      9  C   UNL     1       0.899  44.182  54.553  1.00  0.00     0.165 A 
ATOM     10  N   UNL     1       1.703  44.959  55.293  1.00  0.00    -0.193 NA
ENDROOT
BRANCH   1  11
ATOM     11  N   UNL     1       3.830  45.781  55.579  1.00  0.00    -0.354 N 
ATOM     12  H   UNL     1       3.536  45.680  56.545  1.00  0.00     0.163 HD
BRANCH  11  13
ATOM     13  C   UNL     1       5.238  45.546  55.324  1.00  0.00     0.116 C 
BRANCH  13  14
ATOM     14  C   UNL     1       5.857  46.737  54.586  1.00  0.00     0.021 C 
BRANCH  14  15
ATOM     15  C   UNL     1       7.037  46.382  53.674  1.00  0.00    -0.002 C 
ATOM     16  C   UNL     1       7.365  47.437  52.630  1.00  0.00     0.004 C 
ENDBRANCH  14  15
ENDBRANCH  13  14
ENDBRANCH  11  13
ENDBRANCH   1  11
BRANCH   3  17
ATOM     17  N   UNL     1       3.121  42.974  51.864  1.00  0.00    -0.336 N 
ATOM     18  H   UNL     1       2.824  42.001  51.829  1.00  0.00     0.168 HD
BRANCH  17  19
ATOM     19  C   UNL     1       4.351  43.147  51.190  1.00  0.00     0.083 A 
ATOM     20  C   UNL     1       5.052  44.357  51.179  1.00  0.00     0.034 A 
ATOM     21  C   UNL     1       4.871  42.061  50.449  1.00  0.00     0.146 A 
ATOM     22  C   UNL     1       6.238  44.499  50.451  1.00  0.00     0.049 A 
ATOM     23  C   UNL     1       6.057  42.211  49.724  1.00  0.00     0.095 A 
ATOM     24  C   UNL     1       6.742  43.429  49.718  1.00  0.00     0.122 A 
BRANCH  21  25
ATOM     25  O   UNL     1       4.140  40.896  50.523  1.00  0.00    -0.494 OA
ATOM     26  C   UNL     1       3.526  40.439  49.326  1.00  0.00     0.278 C 
ENDBRANCH  21  25
BRANCH  24  27
ATOM     27  O   UNL     1       7.887  43.436  48.968  1.00  0.00    -0.497 OA
ATOM     28  C   UNL     1       8.937  44.292  49.404  1.00  0.00     0.278 C 
ENDBRANCH  24  27
ENDBRANCH  17  19
ENDBRANCH   3  17
TORSDOF 8
ENDMDL
MODEL 16
REMARK VINA RESULT:    -7.377      3.009      6.945
REMARK INTER + INTRA:         -11.871
REMARK INTER:                 -10.917
REMARK INTRA:                  -0.954
REMARK UNBOUND:                -1.044
REMARK SMILES CCCCNc1nc(Nc2ccc(OC)cc2OC)c2cnn(C)c2n1
REMARK SMILES IDX 6 1 7 2 8 3 20 4 21 5 22 6 23 7 24 8 25 9 26 10 5 11 4 13
REMARK SMILES IDX 3 14 2 15 1 16 9 17 10 19 11 20 17 21 12 22 16 23 13 24
REMARK SMILES IDX 18 25 19 26 14 27 15 28
REMARK H PARENT 5 12 9 18
ROOT
ATOM      1  C   UNL     1       5.917  46.820  54.287  1.00  0.00     0.226 A 
ATOM      2  N   UNL     1       5.808  46.341  53.034  1.00  0.00    -0.195 NA
ATOM      3  C   UNL     1       6.914  46.150  52.272  1.00  0.00     0.147 A 
ATOM      4  C   UNL     1       8.142  46.550  52.805  1.00  0.00     0.082 A 
ATOM      5  C   UNL     1       9.490  46.660  52.403  1.00  0.00     0.149 A 
ATOM      6  N   UNL     1      10.287  47.130  53.370  1.00  0.00    -0.179 NA
ATOM      7  N   UNL     1       9.430  47.352  54.393  1.00  0.00    -0.250 N 
ATOM      8  C   UNL     1       9.930  47.888  55.634  1.00  0.00     0.176 C 
ATOM      9  C   UNL     1       8.131  47.041  54.096  1.00  0.00     0.165 A 
ATOM     10  N   UNL     1       7.057  47.188  54.887  1.00  0.00    -0.193 NA
ENDROOT
BRANCH   1  11
ATOM     11  N   UNL     1       4.777  46.970  55.069  1.00  0.00    -0.354 N 
ATOM     12  H   UNL     1       4.223  47.691  54.618  1.00  0.00     0.163 HD
BRANCH  11  13
ATOM     13  C   UNL     1       4.076  45.737  55.371  1.00  0.00     0.116 C 
BRANCH  13  14
ATOM     14  C   UNL     1       2.608  45.833  54.940  1.00  0.00     0.021 C 
BRANCH  14  15
ATOM     15  C   UNL     1       2.300  45.209  53.576  1.00  0.00    -0.002 C 
ATOM     16  C   UNL     1       2.125  46.213  52.448  1.00  0.00     0.004 C 
ENDBRANCH  14  15
ENDBRANCH  13  14
ENDBRANCH  11  13
ENDBRANCH   1  11
BRANCH   3  17
ATOM     17  N   UNL     1       6.715  45.651  50.984  1.00  0.00    -0.336 N 
ATOM     18  H   UNL     1       6.486  46.407  50.341  1.00  0.00     0.168 HD
BRANCH  17  19
ATOM     19  C   UNL     1       6.196  44.423  50.517  1.00  0.00     0.083 A 
ATOM     20  C   UNL     1       5.021  43.851  51.018  1.00  0.00     0.034 A 
ATOM     21  C   UNL     1       6.925  43.713  49.536  1.00  0.00     0.146 A 
ATOM     22  C   UNL     1       4.574  42.605  50.566  1.00  0.00     0.049 A 
ATOM     23  C   UNL     1       6.471  42.468  49.089  1.00  0.00     0.095 A 
ATOM     24  C   UNL     1       5.299  41.908  49.604  1.00  0.00     0.122 A 
BRANCH  21  25
ATOM     25  O   UNL     1       8.057  44.345  49.074  1.00  0.00    -0.494 OA
ATOM     26  C   UNL     1       9.285  44.028  49.717  1.00  0.00     0.278 C 
ENDBRANCH  21  25
BRANCH  24  27
ATOM     27  O   UNL     1       4.972  40.687  49.079  1.00  0.00    -0.497 OA
ATOM     28  C   UNL     1       3.587  40.366  49.009  1.00  0.00     0.278 C 
ENDBRANCH  24  27
ENDBRANCH  17  19
ENDBRANCH   3  17
TORSDOF 8
ENDMDL
MODEL 17
REMARK VINA RESULT:    -7.339      2.796      6.342
REMARK INTER + INTRA:         -11.815
REMARK INTER:                 -10.719
REMARK INTRA:                  -1.096
REMARK UNBOUND:                -1.044
REMARK SMILES CCCCNc1nc(Nc2ccc(OC)cc2OC)c2cnn(C)c2n1
REMARK SMILES IDX 6 1 7 2 8 3 20 4 21 5 22 6 23 7 24 8 25 9 26 10 5 11 4 13
REMARK SMILES IDX 3 14 2 15 1 16 9 17 10 19 11 20 17 21 12 22 16 23 13 24
REMARK SMILES IDX 18 25 19 26 14 27 15 28
REMARK H PARENT 5 12 9 18
ROOT
ATOM      1  C   UNL     1       6.107  44.694  51.002  1.00  0.00     0.226 A 
ATOM      2  N   UNL     1       5.198  44.122  51.814  1.00  0.00    -0.195 NA
ATOM      3  C   UNL     1       5.028  44.573  53.082  1.00  0.00     0.147 A 
ATOM      4  C   UNL     1       5.883  45.583  53.528  1.00  0.00     0.082 A 
ATOM      5  C   UNL     1       6.172  46.282  54.719  1.00  0.00     0.149 A 
ATOM      6  N   UNL     1       7.139  47.194  54.568  1.00  0.00    -0.179 NA
ATOM      7  N   UNL     1       7.494  47.053  53.270  1.00  0.00    -0.250 N 
ATOM      8  C   UNL     1       8.546  47.877  52.729  1.00  0.00     0.176 C 
ATOM      9  C   UNL     1       6.786  46.086  52.611  1.00  0.00     0.165 A 
ATOM     10  N   UNL     1       6.935  45.692  51.337  1.00  0.00    -0.193 NA
ENDROOT
BRANCH   1  11
ATOM     11  N   UNL     1       6.240  44.246  49.693  1.00  0.00    -0.354 N 
ATOM     12  H   UNL     1       6.234  45.077  49.111  1.00  0.00     0.163 HD
BRANCH  11  13
ATOM     13  C   UNL     1       7.344  43.331  49.469  1.00  0.00     0.116 C 
BRANCH  13  14
ATOM     14  C   UNL     1       6.908  41.887  49.739  1.00  0.00     0.021 C 
BRANCH  14  15
ATOM     15  C   UNL     1       5.575  41.490  49.097  1.00  0.00    -0.002 C 
ATOM     16  C   UNL     1       4.478  41.139  50.089  1.00  0.00     0.004 C 
ENDBRANCH  14  15
ENDBRANCH  13  14
ENDBRANCH  11  13
ENDBRANCH   1  11
BRANCH   3  17
ATOM     17  N   UNL     1       4.067  43.923  53.858  1.00  0.00    -0.336 N 
ATOM     18  H   UNL     1       4.173  42.913  53.785  1.00  0.00     0.168 HD
BRANCH  17  19
ATOM     19  C   UNL     1       2.738  44.264  54.195  1.00  0.00     0.083 A 
ATOM     20  C   UNL     1       2.414  45.122  55.251  1.00  0.00     0.034 A 
ATOM     21  C   UNL     1       1.684  43.669  53.464  1.00  0.00     0.146 A 
ATOM     22  C   UNL     1       1.081  45.388  55.585  1.00  0.00     0.049 A 
ATOM     23  C   UNL     1       0.354  43.940  53.804  1.00  0.00     0.095 A 
ATOM     24  C   UNL     1       0.048  44.795  54.866  1.00  0.00     0.122 A 
BRANCH  21  25
ATOM     25  O   UNL     1       2.076  42.853  52.427  1.00  0.00    -0.494 OA
ATOM     26  C   UNL     1       1.500  43.103  51.152  1.00  0.00     0.278 C 
ENDBRANCH  21  25
BRANCH  24  27
ATOM     27  O   UNL     1      -1.291  44.971  55.088  1.00  0.00    -0.497 OA
ATOM     28  C   UNL     1      -1.871  44.221  56.150  1.00  0.00     0.278 C 
ENDBRANCH  24  27
ENDBRANCH  17  19
ENDBRANCH   3  17
TORSDOF 8
ENDMDL
MODEL 18
REMARK VINA RESULT:    -7.281      2.893      6.939
REMARK INTER + INTRA:         -11.730
REMARK INTER:                 -11.411
REMARK INTRA:                  -0.319
REMARK UNBOUND:                -1.044
REMARK SMILES CCCCNc1nc(Nc2ccc(OC)cc2OC)c2cnn(C)c2n1
REMARK SMILES IDX 6 1 7 2 8 3 20 4 21 5 22 6 23 7 24 8 25 9 26 10 5 11 4 13
REMARK SMILES IDX 3 14 2 15 1 16 9 17 10 19 11 20 17 21 12 22 16 23 13 24
REMARK SMILES IDX 18 25 19 26 14 27 15 28
REMARK H PARENT 5 12 9 18
ROOT
ATOM      1  C   UNL     1       6.022  46.911  54.156  1.00  0.00     0.226 A 
ATOM      2  N   UNL     1       5.739  46.337  52.971  1.00  0.00    -0.195 NA
ATOM      3  C   UNL     1       6.738  45.929  52.149  1.00  0.00     0.147 A 
ATOM      4  C   UNL     1       8.050  46.206  52.540  1.00  0.00     0.082 A 
ATOM      5  C   UNL     1       9.358  46.096  52.025  1.00  0.00     0.149 A 
ATOM      6  N   UNL     1      10.293  46.541  52.873  1.00  0.00    -0.179 NA
ATOM      7  N   UNL     1       9.568  46.970  53.932  1.00  0.00    -0.250 N 
ATOM      8  C   UNL     1      10.243  47.546  55.067  1.00  0.00     0.176 C 
ATOM      9  C   UNL     1       8.219  46.812  53.770  1.00  0.00     0.165 A 
ATOM     10  N   UNL     1       7.249  47.175  54.623  1.00  0.00    -0.193 NA
ENDROOT
BRANCH   1  11
ATOM     11  N   UNL     1       4.986  47.286  55.004  1.00  0.00    -0.354 N 
ATOM     12  H   UNL     1       5.056  48.293  55.103  1.00  0.00     0.163 HD
BRANCH  11  13
ATOM     13  C   UNL     1       3.677  46.782  54.630  1.00  0.00     0.116 C 
BRANCH  13  14
ATOM     14  C   UNL     1       3.349  45.505  55.411  1.00  0.00     0.021 C 
BRANCH  14  15
ATOM     15  C   UNL     1       1.860  45.149  55.458  1.00  0.00    -0.002 C 
ATOM     16  C   UNL     1       1.410  44.177  54.379  1.00  0.00     0.004 C 
ENDBRANCH  14  15
ENDBRANCH  13  14
ENDBRANCH  11  13
ENDBRANCH   1  11
BRANCH   3  17
ATOM     17  N   UNL     1       6.360  45.345  50.938  1.00  0.00    -0.336 N 
ATOM     18  H   UNL     1       5.989  46.050  50.304  1.00  0.00     0.168 HD
BRANCH  17  19
ATOM     19  C   UNL     1       5.842  44.069  50.628  1.00  0.00     0.083 A 
ATOM     20  C   UNL     1       6.557  43.109  49.904  1.00  0.00     0.034 A 
ATOM     21  C   UNL     1       4.518  43.765  51.022  1.00  0.00     0.146 A 
ATOM     22  C   UNL     1       5.983  41.877  49.571  1.00  0.00     0.049 A 
ATOM     23  C   UNL     1       3.952  42.531  50.685  1.00  0.00     0.095 A 
ATOM     24  C   UNL     1       4.678  41.586  49.956  1.00  0.00     0.122 A 
BRANCH  21  25
ATOM     25  O   UNL     1       3.882  44.746  51.749  1.00  0.00    -0.494 OA
ATOM     26  C   UNL     1       2.787  45.407  51.128  1.00  0.00     0.278 C 
ENDBRANCH  21  25
BRANCH  24  27
ATOM     27  O   UNL     1       4.003  40.425  49.696  1.00  0.00    -0.497 OA
ATOM     28  C   UNL     1       3.659  40.170  48.338  1.00  0.00     0.278 C 
ENDBRANCH  24  27
ENDBRANCH  17  19
ENDBRANCH   3  17
TORSDOF 8
ENDMDL
MODEL 19
REMARK VINA RESULT:    -7.247      2.114      3.072
REMARK INTER + INTRA:         -11.680
REMARK INTER:                 -10.452
REMARK INTRA:                  -1.227
REMARK UNBOUND:                -1.044
REMARK SMILES CCCCNc1nc(Nc2ccc(OC)cc2OC)c2cnn(C)c2n1
REMARK SMILES IDX 6 1 7 2 8 3 20 4 21 5 22 6 23 7 24 8 25 9 26 10 5 11 4 13
REMARK SMILES IDX 3 14 2 15 1 16 9 17 10 19 11 20 17 21 12 22 16 23 13 24
REMARK SMILES IDX 18 25 19 26 14 27 15 28
REMARK H PARENT 5 12 9 18
ROOT
ATOM      1  C   UNL     1       1.502  43.517  53.567  1.00  0.00     0.226 A 
ATOM      2  N   UNL     1       2.549  44.273  53.951  1.00  0.00    -0.195 NA
ATOM      3  C   UNL     1       2.474  45.033  55.072  1.00  0.00     0.147 A 
ATOM      4  C   UNL     1       1.254  45.064  55.750  1.00  0.00     0.082 A 
ATOM      5  C   UNL     1       0.660  45.738  56.838  1.00  0.00     0.149 A 
ATOM      6  N   UNL     1      -0.604  45.358  57.061  1.00  0.00    -0.179 NA
ATOM      7  N   UNL     1      -0.830  44.453  56.082  1.00  0.00    -0.250 N 
ATOM      8  C   UNL     1      -2.121  43.821  55.984  1.00  0.00     0.176 C 
ATOM      9  C   UNL     1       0.245  44.259  55.258  1.00  0.00     0.165 A 
ATOM     10  N   UNL     1       0.314  43.459  54.183  1.00  0.00    -0.193 NA
ENDROOT
BRANCH   1  11
ATOM     11  N   UNL     1       1.610  42.713  52.439  1.00  0.00    -0.354 N 
ATOM     12  H   UNL     1       0.661  42.543  52.125  1.00  0.00     0.163 HD
BRANCH  11  13
ATOM     13  C   UNL     1       2.527  43.201  51.425  1.00  0.00     0.116 C 
BRANCH  13  14
ATOM     14  C   UNL     1       3.658  42.194  51.194  1.00  0.00     0.021 C 
BRANCH  14  15
ATOM     15  C   UNL     1       5.010  42.821  50.836  1.00  0.00    -0.002 C 
ATOM     16  C   UNL     1       5.186  44.253  51.314  1.00  0.00     0.004 C 
ENDBRANCH  14  15
ENDBRANCH  13  14
ENDBRANCH  11  13
ENDBRANCH   1  11
BRANCH   3  17
ATOM     17  N   UNL     1       3.602  45.788  55.398  1.00  0.00    -0.336 N 
ATOM     18  H   UNL     1       3.345  46.573  55.993  1.00  0.00     0.168 HD
BRANCH  17  19
ATOM     19  C   UNL     1       4.789  46.067  54.685  1.00  0.00     0.083 A 
ATOM     20  C   UNL     1       6.003  45.421  54.941  1.00  0.00     0.034 A 
ATOM     21  C   UNL     1       4.762  47.084  53.703  1.00  0.00     0.146 A 
ATOM     22  C   UNL     1       7.168  45.769  54.248  1.00  0.00     0.049 A 
ATOM     23  C   UNL     1       5.930  47.425  53.014  1.00  0.00     0.095 A 
ATOM     24  C   UNL     1       7.136  46.774  53.287  1.00  0.00     0.122 A 
BRANCH  21  25
ATOM     25  O   UNL     1       3.530  47.660  53.489  1.00  0.00    -0.494 OA
ATOM     26  C   UNL     1       2.896  47.393  52.246  1.00  0.00     0.278 C 
ENDBRANCH  21  25
BRANCH  24  27
ATOM     27  O   UNL     1       8.199  47.208  52.541  1.00  0.00    -0.497 OA
ATOM     28  C   UNL     1       9.435  47.384  53.224  1.00  0.00     0.278 C 
ENDBRANCH  24  27
ENDBRANCH  17  19
ENDBRANCH   3  17
TORSDOF 8
ENDMDL
MODEL 20
REMARK VINA RESULT:    -7.169      1.773      2.287
REMARK INTER + INTRA:         -11.565
REMARK INTER:                 -10.569
REMARK INTRA:                  -0.996
REMARK UNBOUND:                -1.044
REMARK SMILES CCCCNc1nc(Nc2ccc(OC)cc2OC)c2cnn(C)c2n1
REMARK SMILES IDX 6 1 7 2 8 3 20 4 21 5 22 6 23 7 24 8 25 9 26 10 5 11 4 13
REMARK SMILES IDX 3 14 2 15 1 16 9 17 10 19 11 20 17 21 12 22 16 23 13 24
REMARK SMILES IDX 18 25 19 26 14 27 15 28
REMARK H PARENT 5 12 9 18
ROOT
ATOM      1  C   UNL     1       2.346  42.667  51.777  1.00  0.00     0.226 A 
ATOM      2  N   UNL     1       3.134  43.354  52.626  1.00  0.00    -0.195 NA
ATOM      3  C   UNL     1       2.589  44.084  53.631  1.00  0.00     0.147 A 
ATOM      4  C   UNL     1       1.196  44.160  53.692  1.00  0.00     0.082 A 
ATOM      5  C   UNL     1       0.199  44.832  54.431  1.00  0.00     0.149 A 
ATOM      6  N   UNL     1      -1.042  44.513  54.044  1.00  0.00    -0.179 NA
ATOM      7  N   UNL     1      -0.834  43.650  53.024  1.00  0.00    -0.250 N 
ATOM      8  C   UNL     1      -1.964  43.090  52.327  1.00  0.00     0.176 C 
ATOM      9  C   UNL     1       0.490  43.424  52.760  1.00  0.00     0.165 A 
ATOM     10  N   UNL     1       1.007  42.653  51.792  1.00  0.00    -0.193 NA
ENDROOT
BRANCH   1  11
ATOM     11  N   UNL     1       2.923  41.891  50.778  1.00  0.00    -0.354 N 
ATOM     12  H   UNL     1       2.733  42.373  49.906  1.00  0.00     0.163 HD
BRANCH  11  13
ATOM     13  C   UNL     1       4.310  41.531  51.007  1.00  0.00     0.116 C 
BRANCH  13  14
ATOM     14  C   UNL     1       5.094  41.548  49.690  1.00  0.00     0.021 C 
BRANCH  14  15
ATOM     15  C   UNL     1       6.206  42.600  49.621  1.00  0.00    -0.002 C 
ATOM     16  C   UNL     1       5.923  43.868  50.410  1.00  0.00     0.004 C 
ENDBRANCH  14  15
ENDBRANCH  13  14
ENDBRANCH  11  13
ENDBRANCH   1  11
BRANCH   3  17
ATOM     17  N   UNL     1       3.475  44.768  54.465  1.00  0.00    -0.336 N 
ATOM     18  H   UNL     1       2.976  45.183  55.251  1.00  0.00     0.168 HD
BRANCH  17  19
ATOM     19  C   UNL     1       4.665  45.479  54.197  1.00  0.00     0.083 A 
ATOM     20  C   UNL     1       5.933  45.007  54.552  1.00  0.00     0.034 A 
ATOM     21  C   UNL     1       4.568  46.751  53.588  1.00  0.00     0.146 A 
ATOM     22  C   UNL     1       7.082  45.770  54.317  1.00  0.00     0.049 A 
ATOM     23  C   UNL     1       5.721  47.508  53.355  1.00  0.00     0.095 A 
ATOM     24  C   UNL     1       6.979  47.024  53.722  1.00  0.00     0.122 A 
BRANCH  21  25
ATOM     25  O   UNL     1       3.293  47.142  53.246  1.00  0.00    -0.494 OA
ATOM     26  C   UNL     1       2.964  47.145  51.863  1.00  0.00     0.278 C 
ENDBRANCH  21  25
BRANCH  24  27
ATOM     27  O   UNL     1       8.019  47.867  53.438  1.00  0.00    -0.497 OA
ATOM     28  C   UNL     1       9.308  47.478  53.900  1.00  0.00     0.278 C 
ENDBRANCH  24  27
ENDBRANCH  17  19
ENDBRANCH   3  17
TORSDOF 8
ENDMDL
