MODEL 1
REMARK VINA RESULT:    -8.147      0.000      0.000
REMARK INTER + INTRA:         -12.516
REMARK INTER:                 -11.481
REMARK INTRA:                  -1.036
REMARK UNBOUND:                -1.036
REMARK SMILES COc1ccc(Nc2nc(NCC(C)C)nc3c2cnn3C)c(OC)c1
REMARK SMILES IDX 8 1 9 2 10 3 16 4 17 5 18 6 19 7 20 8 21 9 22 10 7 11 6 13
REMARK SMILES IDX 3 14 4 15 26 16 5 17 23 18 2 19 1 20 24 21 25 22 11 23 12 25
REMARK SMILES IDX 13 26 14 27 15 28
REMARK H PARENT 7 12 11 24
ROOT
ATOM      1  C   UNL     1       4.657  45.556  51.870  1.00  0.00     0.147 A 
ATOM      2  N   UNL     1       5.789  46.256  51.601  1.00  0.00    -0.195 NA
ATOM      3  C   UNL     1       6.824  45.665  50.975  1.00  0.00     0.226 A 
ATOM      4  N   UNL     1       6.856  44.396  50.548  1.00  0.00    -0.193 NA
ATOM      5  C   UNL     1       5.708  43.741  50.773  1.00  0.00     0.165 A 
ATOM      6  C   UNL     1       4.586  44.240  51.406  1.00  0.00     0.082 A 
ATOM      7  C   UNL     1       3.651  43.187  51.336  1.00  0.00     0.149 A 
ATOM      8  N   UNL     1       4.146  42.086  50.757  1.00  0.00    -0.179 NA
ATOM      9  N   UNL     1       5.401  42.457  50.417  1.00  0.00    -0.250 N 
ATOM     10  C   UNL     1       6.254  41.525  49.724  1.00  0.00     0.176 C 
ENDROOT
BRANCH   1  11
ATOM     11  N   UNL     1       3.630  46.244  52.516  1.00  0.00    -0.336 N 
ATOM     12  H   UNL     1       3.714  47.246  52.363  1.00  0.00     0.168 HD
BRANCH  11  13
ATOM     13  C   UNL     1       2.897  45.971  53.692  1.00  0.00     0.083 A 
ATOM     14  C   UNL     1       1.377  45.296  55.973  1.00  0.00     0.122 A 
ATOM     15  C   UNL     1       2.724  45.622  56.098  1.00  0.00     0.049 A 
ATOM     16  C   UNL     1       0.782  45.312  54.708  1.00  0.00     0.095 A 
ATOM     17  C   UNL     1       3.476  45.955  54.965  1.00  0.00     0.034 A 
ATOM     18  C   UNL     1       1.528  45.642  53.571  1.00  0.00     0.146 A 
BRANCH  14  19
ATOM     19  O   UNL     1       0.534  44.955  56.994  1.00  0.00    -0.497 OA
ATOM     20  C   UNL     1      -0.862  45.045  56.735  1.00  0.00     0.278 C 
ENDBRANCH  14  19
BRANCH  18  21
ATOM     21  O   UNL     1       1.022  45.699  52.292  1.00  0.00    -0.494 OA
ATOM     22  C   UNL     1      -0.123  44.904  52.013  1.00  0.00     0.278 C 
ENDBRANCH  18  21
ENDBRANCH  11  13
ENDBRANCH   1  11
BRANCH   3  23
ATOM     23  N   UNL     1       7.925  46.483  50.791  1.00  0.00    -0.354 N 
ATOM     24  H   UNL     1       7.755  47.028  49.953  1.00  0.00     0.163 HD
BRANCH  23  25
ATOM     25  C   UNL     1       8.422  47.211  51.946  1.00  0.00     0.119 C 
BRANCH  25  26
ATOM     26  C   UNL     1       9.448  46.406  52.768  1.00  0.00     0.002 C 
ATOM     27  C   UNL     1      10.627  46.008  51.877  1.00  0.00     0.009 C 
ATOM     28  C   UNL     1       9.957  47.194  53.977  1.00  0.00     0.009 C 
ENDBRANCH  25  26
ENDBRANCH  23  25
ENDBRANCH   3  23
TORSDOF 7
ENDMDL
MODEL 2
REMARK VINA RESULT:    -8.122      2.591      6.279
REMARK INTER + INTRA:         -12.481
REMARK INTER:                 -11.449
REMARK INTRA:                  -1.031
REMARK UNBOUND:                -1.036
REMARK SMILES COc1ccc(Nc2nc(NCC(C)C)nc3c2cnn3C)c(OC)c1
REMARK SMILES IDX 8 1 9 2 10 3 16 4 17 5 18 6 19 7 20 8 21 9 22 10 7 11 6 13
REMARK SMILES IDX 3 14 4 15 26 16 5 17 23 18 2 19 1 20 24 21 25 22 11 23 12 25
REMARK SMILES IDX 13 26 14 27 15 28
REMARK H PARENT 7 12 11 24
ROOT
ATOM      1  C   UNL     1       4.228  44.984  51.610  1.00  0.00     0.147 A 
ATOM      2  N   UNL     1       4.623  43.746  51.218  1.00  0.00    -0.195 NA
ATOM      3  C   UNL     1       3.849  42.673  51.466  1.00  0.00     0.226 A 
ATOM      4  N   UNL     1       2.657  42.694  52.076  1.00  0.00    -0.193 NA
ATOM      5  C   UNL     1       2.262  43.932  52.404  1.00  0.00     0.165 A 
ATOM      6  C   UNL     1       2.969  45.102  52.204  1.00  0.00     0.082 A 
ATOM      7  C   UNL     1       2.101  46.115  52.664  1.00  0.00     0.149 A 
ATOM      8  N   UNL     1       0.958  45.635  53.169  1.00  0.00    -0.179 NA
ATOM      9  N   UNL     1       1.081  44.300  52.988  1.00  0.00    -0.250 N 
ATOM     10  C   UNL     1       0.005  43.427  53.386  1.00  0.00     0.176 C 
ENDROOT
BRANCH   1  11
ATOM     11  N   UNL     1       5.085  46.043  51.310  1.00  0.00    -0.336 N 
ATOM     12  H   UNL     1       4.922  46.383  50.366  1.00  0.00     0.168 HD
BRANCH  11  13
ATOM     13  C   UNL     1       6.391  46.360  51.746  1.00  0.00     0.083 A 
ATOM     14  C   UNL     1       8.959  46.948  52.759  1.00  0.00     0.122 A 
ATOM     15  C   UNL     1       8.818  46.193  51.598  1.00  0.00     0.049 A 
ATOM     16  C   UNL     1       7.817  47.417  53.415  1.00  0.00     0.095 A 
ATOM     17  C   UNL     1       7.543  45.902  51.098  1.00  0.00     0.034 A 
ATOM     18  C   UNL     1       6.540  47.129  52.922  1.00  0.00     0.146 A 
BRANCH  14  19
ATOM     19  O   UNL     1      10.141  47.302  53.349  1.00  0.00    -0.497 OA
ATOM     20  C   UNL     1      10.178  47.297  54.771  1.00  0.00     0.278 C 
ENDBRANCH  14  19
BRANCH  18  21
ATOM     21  O   UNL     1       5.365  47.562  53.493  1.00  0.00    -0.494 OA
ATOM     22  C   UNL     1       5.045  47.054  54.782  1.00  0.00     0.278 C 
ENDBRANCH  18  21
ENDBRANCH  11  13
ENDBRANCH   1  11
BRANCH   3  23
ATOM     23  N   UNL     1       4.385  41.469  51.039  1.00  0.00    -0.354 N 
ATOM     24  H   UNL     1       4.017  40.747  51.648  1.00  0.00     0.163 HD
BRANCH  23  25
ATOM     25  C   UNL     1       4.356  41.190  49.614  1.00  0.00     0.119 C 
BRANCH  25  26
ATOM     26  C   UNL     1       5.761  41.142  48.982  1.00  0.00     0.002 C 
ATOM     27  C   UNL     1       5.890  42.241  47.923  1.00  0.00     0.009 C 
ATOM     28  C   UNL     1       6.866  41.302  50.028  1.00  0.00     0.009 C 
ENDBRANCH  25  26
ENDBRANCH  23  25
ENDBRANCH   3  23
TORSDOF 7
ENDMDL
MODEL 3
REMARK VINA RESULT:    -8.115      1.024      1.949
REMARK INTER + INTRA:         -12.472
REMARK INTER:                 -11.654
REMARK INTRA:                  -0.818
REMARK UNBOUND:                -1.036
REMARK SMILES COc1ccc(Nc2nc(NCC(C)C)nc3c2cnn3C)c(OC)c1
REMARK SMILES IDX 8 1 9 2 10 3 16 4 17 5 18 6 19 7 20 8 21 9 22 10 7 11 6 13
REMARK SMILES IDX 3 14 4 15 26 16 5 17 23 18 2 19 1 20 24 21 25 22 11 23 12 25
REMARK SMILES IDX 13 26 14 27 15 28
REMARK H PARENT 7 12 11 24
ROOT
ATOM      1  C   UNL     1       4.379  45.424  51.966  1.00  0.00     0.147 A 
ATOM      2  N   UNL     1       5.512  46.152  51.795  1.00  0.00    -0.195 NA
ATOM      3  C   UNL     1       6.593  45.605  51.209  1.00  0.00     0.226 A 
ATOM      4  N   UNL     1       6.674  44.356  50.732  1.00  0.00    -0.193 NA
ATOM      5  C   UNL     1       5.528  43.673  50.862  1.00  0.00     0.165 A 
ATOM      6  C   UNL     1       4.361  44.127  51.446  1.00  0.00     0.082 A 
ATOM      7  C   UNL     1       3.451  43.062  51.276  1.00  0.00     0.149 A 
ATOM      8  N   UNL     1       4.001  41.995  50.684  1.00  0.00    -0.179 NA
ATOM      9  N   UNL     1       5.267  42.401  50.435  1.00  0.00    -0.250 N 
ATOM     10  C   UNL     1       6.177  41.512  49.758  1.00  0.00     0.176 C 
ENDROOT
BRANCH   1  11
ATOM     11  N   UNL     1       3.304  46.067  52.577  1.00  0.00    -0.336 N 
ATOM     12  H   UNL     1       3.427  47.077  52.556  1.00  0.00     0.168 HD
BRANCH  11  13
ATOM     13  C   UNL     1       2.439  45.683  53.626  1.00  0.00     0.083 A 
ATOM     14  C   UNL     1       0.751  45.045  55.798  1.00  0.00     0.122 A 
ATOM     15  C   UNL     1       0.270  44.986  54.493  1.00  0.00     0.049 A 
ATOM     16  C   UNL     1       2.080  45.418  56.022  1.00  0.00     0.095 A 
ATOM     17  C   UNL     1       1.109  45.304  53.418  1.00  0.00     0.034 A 
ATOM     18  C   UNL     1       2.924  45.738  54.952  1.00  0.00     0.146 A 
BRANCH  14  19
ATOM     19  O   UNL     1       0.040  44.760  56.930  1.00  0.00    -0.497 OA
ATOM     20  C   UNL     1      -1.354  44.528  56.774  1.00  0.00     0.278 C 
ENDBRANCH  14  19
BRANCH  18  21
ATOM     21  O   UNL     1       4.246  46.099  55.079  1.00  0.00    -0.494 OA
ATOM     22  C   UNL     1       5.166  45.075  55.436  1.00  0.00     0.278 C 
ENDBRANCH  18  21
ENDBRANCH  11  13
ENDBRANCH   1  11
BRANCH   3  23
ATOM     23  N   UNL     1       7.688  46.448  51.124  1.00  0.00    -0.354 N 
ATOM     24  H   UNL     1       7.574  47.001  50.282  1.00  0.00     0.163 HD
BRANCH  23  25
ATOM     25  C   UNL     1       8.074  47.169  52.325  1.00  0.00     0.119 C 
BRANCH  25  26
ATOM     26  C   UNL     1       9.596  47.162  52.568  1.00  0.00     0.002 C 
ATOM     27  C   UNL     1       9.879  47.133  54.072  1.00  0.00     0.009 C 
ATOM     28  C   UNL     1      10.279  45.971  51.891  1.00  0.00     0.009 C 
ENDBRANCH  25  26
ENDBRANCH  23  25
ENDBRANCH   3  23
TORSDOF 7
ENDMDL
MODEL 4
REMARK VINA RESULT:    -7.978      2.737      6.458
REMARK INTER + INTRA:         -12.278
REMARK INTER:                 -11.443
REMARK INTRA:                  -0.835
REMARK UNBOUND:                -1.036
REMARK SMILES COc1ccc(Nc2nc(NCC(C)C)nc3c2cnn3C)c(OC)c1
REMARK SMILES IDX 8 1 9 2 10 3 16 4 17 5 18 6 19 7 20 8 21 9 22 10 7 11 6 13
REMARK SMILES IDX 3 14 4 15 26 16 5 17 23 18 2 19 1 20 24 21 25 22 11 23 12 25
REMARK SMILES IDX 13 26 14 27 15 28
REMARK H PARENT 7 12 11 24
ROOT
ATOM      1  C   UNL     1       5.740  45.205  51.593  1.00  0.00     0.147 A 
ATOM      2  N   UNL     1       4.673  44.849  52.353  1.00  0.00    -0.195 NA
ATOM      3  C   UNL     1       4.012  43.703  52.107  1.00  0.00     0.226 A 
ATOM      4  N   UNL     1       4.318  42.815  51.153  1.00  0.00    -0.193 NA
ATOM      5  C   UNL     1       5.407  43.159  50.451  1.00  0.00     0.165 A 
ATOM      6  C   UNL     1       6.160  44.306  50.610  1.00  0.00     0.082 A 
ATOM      7  C   UNL     1       7.212  44.161  49.681  1.00  0.00     0.149 A 
ATOM      8  N   UNL     1       7.114  43.045  48.949  1.00  0.00    -0.179 NA
ATOM      9  N   UNL     1       6.006  42.449  49.448  1.00  0.00    -0.250 N 
ATOM     10  C   UNL     1       5.588  41.174  48.921  1.00  0.00     0.176 C 
ENDROOT
BRANCH   1  11
ATOM     11  N   UNL     1       6.372  46.406  51.917  1.00  0.00    -0.336 N 
ATOM     12  H   UNL     1       6.196  47.110  51.205  1.00  0.00     0.168 HD
BRANCH  11  13
ATOM     13  C   UNL     1       7.554  46.693  52.634  1.00  0.00     0.083 A 
ATOM     14  C   UNL     1       9.865  47.176  54.182  1.00  0.00     0.122 A 
ATOM     15  C   UNL     1       9.980  46.800  52.846  1.00  0.00     0.049 A 
ATOM     16  C   UNL     1       8.595  47.318  54.747  1.00  0.00     0.095 A 
ATOM     17  C   UNL     1       8.833  46.560  52.081  1.00  0.00     0.034 A 
ATOM     18  C   UNL     1       7.443  47.078  53.989  1.00  0.00     0.146 A 
BRANCH  14  19
ATOM     19  O   UNL     1      10.901  47.440  55.034  1.00  0.00    -0.497 OA
ATOM     20  C   UNL     1      10.563  47.929  56.327  1.00  0.00     0.278 C 
ENDBRANCH  14  19
BRANCH  18  21
ATOM     21  O   UNL     1       6.156  47.208  54.458  1.00  0.00    -0.494 OA
ATOM     22  C   UNL     1       5.650  46.152  55.264  1.00  0.00     0.278 C 
ENDBRANCH  18  21
ENDBRANCH  11  13
ENDBRANCH   1  11
BRANCH   3  23
ATOM     23  N   UNL     1       2.928  43.477  52.938  1.00  0.00    -0.354 N 
ATOM     24  H   UNL     1       3.135  42.647  53.480  1.00  0.00     0.163 HD
BRANCH  23  25
ATOM     25  C   UNL     1       2.397  44.613  53.672  1.00  0.00     0.119 C 
BRANCH  25  26
ATOM     26  C   UNL     1       1.267  44.226  54.647  1.00  0.00     0.002 C 
ATOM     27  C   UNL     1       1.378  45.062  55.924  1.00  0.00     0.009 C 
ATOM     28  C   UNL     1      -0.117  44.415  54.024  1.00  0.00     0.009 C 
ENDBRANCH  25  26
ENDBRANCH  23  25
ENDBRANCH   3  23
TORSDOF 7
ENDMDL
MODEL 5
REMARK VINA RESULT:    -7.896      2.980      6.426
REMARK INTER + INTRA:         -12.162
REMARK INTER:                 -11.151
REMARK INTRA:                  -1.011
REMARK UNBOUND:                -1.036
REMARK SMILES COc1ccc(Nc2nc(NCC(C)C)nc3c2cnn3C)c(OC)c1
REMARK SMILES IDX 8 1 9 2 10 3 16 4 17 5 18 6 19 7 20 8 21 9 22 10 7 11 6 13
REMARK SMILES IDX 3 14 4 15 26 16 5 17 23 18 2 19 1 20 24 21 25 22 11 23 12 25
REMARK SMILES IDX 13 26 14 27 15 28
REMARK H PARENT 7 12 11 24
ROOT
ATOM      1  C   UNL     1       4.345  44.889  51.856  1.00  0.00     0.147 A 
ATOM      2  N   UNL     1       4.680  43.652  51.406  1.00  0.00    -0.195 NA
ATOM      3  C   UNL     1       3.832  42.618  51.559  1.00  0.00     0.226 A 
ATOM      4  N   UNL     1       2.619  42.680  52.122  1.00  0.00    -0.193 NA
ATOM      5  C   UNL     1       2.287  43.920  52.508  1.00  0.00     0.165 A 
ATOM      6  C   UNL     1       3.072  45.052  52.406  1.00  0.00     0.082 A 
ATOM      7  C   UNL     1       2.249  46.089  52.893  1.00  0.00     0.149 A 
ATOM      8  N   UNL     1       1.058  45.654  53.324  1.00  0.00    -0.179 NA
ATOM      9  N   UNL     1       1.107  44.327  53.068  1.00  0.00    -0.250 N 
ATOM     10  C   UNL     1      -0.036  43.503  53.371  1.00  0.00     0.176 C 
ENDROOT
BRANCH   1  11
ATOM     11  N   UNL     1       5.277  45.906  51.653  1.00  0.00    -0.336 N 
ATOM     12  H   UNL     1       5.287  46.199  50.679  1.00  0.00     0.168 HD
BRANCH  11  13
ATOM     13  C   UNL     1       6.501  46.212  52.288  1.00  0.00     0.083 A 
ATOM     14  C   UNL     1       8.981  46.918  53.437  1.00  0.00     0.122 A 
ATOM     15  C   UNL     1       7.817  46.957  54.200  1.00  0.00     0.049 A 
ATOM     16  C   UNL     1       8.911  46.521  52.099  1.00  0.00     0.095 A 
ATOM     17  C   UNL     1       6.588  46.607  53.627  1.00  0.00     0.034 A 
ATOM     18  C   UNL     1       7.687  46.171  51.519  1.00  0.00     0.146 A 
BRANCH  14  19
ATOM     19  O   UNL     1      10.238  47.233  53.874  1.00  0.00    -0.497 OA
ATOM     20  C   UNL     1      10.417  47.370  55.278  1.00  0.00     0.278 C 
ENDBRANCH  14  19
BRANCH  18  21
ATOM     21  O   UNL     1       7.528  45.754  50.217  1.00  0.00    -0.494 OA
ATOM     22  C   UNL     1       8.272  44.614  49.807  1.00  0.00     0.278 C 
ENDBRANCH  18  21
ENDBRANCH  11  13
ENDBRANCH   1  11
BRANCH   3  23
ATOM     23  N   UNL     1       4.311  41.409  51.081  1.00  0.00    -0.354 N 
ATOM     24  H   UNL     1       3.900  40.680  51.652  1.00  0.00     0.163 HD
BRANCH  23  25
ATOM     25  C   UNL     1       4.285  41.198  49.644  1.00  0.00     0.119 C 
BRANCH  25  26
ATOM     26  C   UNL     1       5.693  41.146  49.018  1.00  0.00     0.002 C 
ATOM     27  C   UNL     1       5.855  42.290  48.014  1.00  0.00     0.009 C 
ATOM     28  C   UNL     1       6.794  41.229  50.077  1.00  0.00     0.009 C 
ENDBRANCH  25  26
ENDBRANCH  23  25
ENDBRANCH   3  23
TORSDOF 7
ENDMDL
MODEL 6
REMARK VINA RESULT:    -7.875      1.630      2.865
REMARK INTER + INTRA:         -12.133
REMARK INTER:                 -11.323
REMARK INTRA:                  -0.810
REMARK UNBOUND:                -1.036
REMARK SMILES COc1ccc(Nc2nc(NCC(C)C)nc3c2cnn3C)c(OC)c1
REMARK SMILES IDX 8 1 9 2 10 3 16 4 17 5 18 6 19 7 20 8 21 9 22 10 7 11 6 13
REMARK SMILES IDX 3 14 4 15 26 16 5 17 23 18 2 19 1 20 24 21 25 22 11 23 12 25
REMARK SMILES IDX 13 26 14 27 15 28
REMARK H PARENT 7 12 11 24
ROOT
ATOM      1  C   UNL     1       4.767  44.296  52.356  1.00  0.00     0.147 A 
ATOM      2  N   UNL     1       5.227  45.514  52.742  1.00  0.00    -0.195 NA
ATOM      3  C   UNL     1       6.300  46.060  52.141  1.00  0.00     0.226 A 
ATOM      4  N   UNL     1       6.994  45.513  51.134  1.00  0.00    -0.193 NA
ATOM      5  C   UNL     1       6.489  44.338  50.732  1.00  0.00     0.165 A 
ATOM      6  C   UNL     1       5.401  43.681  51.273  1.00  0.00     0.082 A 
ATOM      7  C   UNL     1       5.251  42.535  50.465  1.00  0.00     0.149 A 
ATOM      8  N   UNL     1       6.194  42.433  49.521  1.00  0.00    -0.179 NA
ATOM      9  N   UNL     1       6.931  43.553  49.704  1.00  0.00    -0.250 N 
ATOM     10  C   UNL     1       8.046  43.819  48.830  1.00  0.00     0.176 C 
ENDROOT
BRANCH   1  11
ATOM     11  N   UNL     1       3.648  43.804  53.027  1.00  0.00    -0.336 N 
ATOM     12  H   UNL     1       3.885  42.975  53.566  1.00  0.00     0.168 HD
BRANCH  11  13
ATOM     13  C   UNL     1       2.269  43.833  52.721  1.00  0.00     0.083 A 
ATOM     14  C   UNL     1      -0.476  44.046  52.097  1.00  0.00     0.122 A 
ATOM     15  C   UNL     1       0.324  43.114  51.440  1.00  0.00     0.049 A 
ATOM     16  C   UNL     1       0.092  44.870  53.072  1.00  0.00     0.095 A 
ATOM     17  C   UNL     1       1.685  43.012  51.751  1.00  0.00     0.034 A 
ATOM     18  C   UNL     1       1.452  44.774  53.387  1.00  0.00     0.146 A 
BRANCH  14  19
ATOM     19  O   UNL     1      -1.812  44.246  51.888  1.00  0.00    -0.497 OA
ATOM     20  C   UNL     1      -2.263  45.594  51.844  1.00  0.00     0.278 C 
ENDBRANCH  14  19
BRANCH  18  21
ATOM     21  O   UNL     1       2.089  45.533  54.343  1.00  0.00    -0.494 OA
ATOM     22  C   UNL     1       1.728  45.305  55.699  1.00  0.00     0.278 C 
ENDBRANCH  18  21
ENDBRANCH  11  13
ENDBRANCH   1  11
BRANCH   3  23
ATOM     23  N   UNL     1       6.679  47.290  52.651  1.00  0.00    -0.354 N 
ATOM     24  H   UNL     1       6.331  47.338  53.602  1.00  0.00     0.163 HD
BRANCH  23  25
ATOM     25  C   UNL     1       8.055  47.708  52.444  1.00  0.00     0.119 C 
BRANCH  25  26
ATOM     26  C   UNL     1       9.066  46.869  53.250  1.00  0.00     0.002 C 
ATOM     27  C   UNL     1      10.248  46.485  52.355  1.00  0.00     0.009 C 
ATOM     28  C   UNL     1       9.575  47.616  54.485  1.00  0.00     0.009 C 
ENDBRANCH  25  26
ENDBRANCH  23  25
ENDBRANCH   3  23
TORSDOF 7
ENDMDL
MODEL 7
REMARK VINA RESULT:    -7.843      1.775      2.367
REMARK INTER + INTRA:         -12.087
REMARK INTER:                 -11.267
REMARK INTRA:                  -0.821
REMARK UNBOUND:                -1.036
REMARK SMILES COc1ccc(Nc2nc(NCC(C)C)nc3c2cnn3C)c(OC)c1
REMARK SMILES IDX 8 1 9 2 10 3 16 4 17 5 18 6 19 7 20 8 21 9 22 10 7 11 6 13
REMARK SMILES IDX 3 14 4 15 26 16 5 17 23 18 2 19 1 20 24 21 25 22 11 23 12 25
REMARK SMILES IDX 13 26 14 27 15 28
REMARK H PARENT 7 12 11 24
ROOT
ATOM      1  C   UNL     1       4.468  43.811  52.370  1.00  0.00     0.147 A 
ATOM      2  N   UNL     1       5.262  44.908  52.267  1.00  0.00    -0.195 NA
ATOM      3  C   UNL     1       6.145  45.019  51.258  1.00  0.00     0.226 A 
ATOM      4  N   UNL     1       6.326  44.124  50.277  1.00  0.00    -0.193 NA
ATOM      5  C   UNL     1       5.494  43.077  50.367  1.00  0.00     0.165 A 
ATOM      6  C   UNL     1       4.554  42.855  51.355  1.00  0.00     0.082 A 
ATOM      7  C   UNL     1       3.913  41.662  50.961  1.00  0.00     0.149 A 
ATOM      8  N   UNL     1       4.432  41.132  49.847  1.00  0.00    -0.179 NA
ATOM      9  N   UNL     1       5.390  42.023  49.503  1.00  0.00    -0.250 N 
ATOM     10  C   UNL     1       6.164  41.807  48.306  1.00  0.00     0.176 C 
ENDROOT
BRANCH   1  11
ATOM     11  N   UNL     1       3.577  43.777  53.442  1.00  0.00    -0.336 N 
ATOM     12  H   UNL     1       3.985  43.292  54.237  1.00  0.00     0.168 HD
BRANCH  11  13
ATOM     13  C   UNL     1       2.166  43.753  53.503  1.00  0.00     0.083 A 
ATOM     14  C   UNL     1      -0.657  43.811  53.514  1.00  0.00     0.122 A 
ATOM     15  C   UNL     1       0.020  42.597  53.449  1.00  0.00     0.049 A 
ATOM     16  C   UNL     1       0.074  45.001  53.580  1.00  0.00     0.095 A 
ATOM     17  C   UNL     1       1.420  42.571  53.443  1.00  0.00     0.034 A 
ATOM     18  C   UNL     1       1.473  44.983  53.573  1.00  0.00     0.146 A 
BRANCH  14  19
ATOM     19  O   UNL     1      -2.014  43.975  53.528  1.00  0.00    -0.497 OA
ATOM     20  C   UNL     1      -2.529  45.013  54.353  1.00  0.00     0.278 C 
ENDBRANCH  14  19
BRANCH  18  21
ATOM     21  O   UNL     1       2.271  46.102  53.650  1.00  0.00    -0.494 OA
ATOM     22  C   UNL     1       2.415  46.878  52.468  1.00  0.00     0.278 C 
ENDBRANCH  18  21
ENDBRANCH  11  13
ENDBRANCH   1  11
BRANCH   3  23
ATOM     23  N   UNL     1       6.910  46.172  51.289  1.00  0.00    -0.354 N 
ATOM     24  H   UNL     1       6.538  46.756  52.030  1.00  0.00     0.163 HD
BRANCH  23  25
ATOM     25  C   UNL     1       8.354  46.021  51.248  1.00  0.00     0.119 C 
BRANCH  25  26
ATOM     26  C   UNL     1       9.104  47.233  51.834  1.00  0.00     0.002 C 
ATOM     27  C   UNL     1       8.107  48.348  52.162  1.00  0.00     0.009 C 
ATOM     28  C   UNL     1       9.897  46.865  53.089  1.00  0.00     0.009 C 
ENDBRANCH  25  26
ENDBRANCH  23  25
ENDBRANCH   3  23
TORSDOF 7
ENDMDL
MODEL 8
REMARK VINA RESULT:    -7.752      3.016      6.973
REMARK INTER + INTRA:         -11.960
REMARK INTER:                 -11.102
REMARK INTRA:                  -0.858
REMARK UNBOUND:                -1.036
REMARK SMILES COc1ccc(Nc2nc(NCC(C)C)nc3c2cnn3C)c(OC)c1
REMARK SMILES IDX 8 1 9 2 10 3 16 4 17 5 18 6 19 7 20 8 21 9 22 10 7 11 6 13
REMARK SMILES IDX 3 14 4 15 26 16 5 17 23 18 2 19 1 20 24 21 25 22 11 23 12 25
REMARK SMILES IDX 13 26 14 27 15 28
REMARK H PARENT 7 12 11 24
ROOT
ATOM      1  C   UNL     1       6.907  46.197  52.268  1.00  0.00     0.147 A 
ATOM      2  N   UNL     1       5.816  46.424  53.044  1.00  0.00    -0.195 NA
ATOM      3  C   UNL     1       5.956  46.912  54.290  1.00  0.00     0.226 A 
ATOM      4  N   UNL     1       7.116  47.233  54.878  1.00  0.00    -0.193 NA
ATOM      5  C   UNL     1       8.173  47.054  54.074  1.00  0.00     0.165 A 
ATOM      6  C   UNL     1       8.153  46.559  52.785  1.00  0.00     0.082 A 
ATOM      7  C   UNL     1       9.499  46.625  52.367  1.00  0.00     0.149 A 
ATOM      8  N   UNL     1      10.323  47.071  53.324  1.00  0.00    -0.179 NA
ATOM      9  N   UNL     1       9.483  47.333  54.352  1.00  0.00    -0.250 N 
ATOM     10  C   UNL     1      10.011  47.875  55.579  1.00  0.00     0.176 C 
ENDROOT
BRANCH   1  11
ATOM     11  N   UNL     1       6.675  45.696  50.987  1.00  0.00    -0.336 N 
ATOM     12  H   UNL     1       6.428  46.445  50.345  1.00  0.00     0.168 HD
BRANCH  11  13
ATOM     13  C   UNL     1       6.187  44.453  50.528  1.00  0.00     0.083 A 
ATOM     14  C   UNL     1       5.353  41.908  49.635  1.00  0.00     0.122 A 
ATOM     15  C   UNL     1       4.598  42.605  50.575  1.00  0.00     0.049 A 
ATOM     16  C   UNL     1       6.524  42.483  49.134  1.00  0.00     0.095 A 
ATOM     17  C   UNL     1       5.015  43.866  51.017  1.00  0.00     0.034 A 
ATOM     18  C   UNL     1       6.947  43.742  49.572  1.00  0.00     0.146 A 
BRANCH  14  19
ATOM     19  O   UNL     1       5.058  40.675  49.123  1.00  0.00    -0.497 OA
ATOM     20  C   UNL     1       3.707  40.442  48.742  1.00  0.00     0.278 C 
ENDBRANCH  14  19
BRANCH  18  21
ATOM     21  O   UNL     1       8.076  44.389  49.122  1.00  0.00    -0.494 OA
ATOM     22  C   UNL     1       9.313  44.028  49.723  1.00  0.00     0.278 C 
ENDBRANCH  18  21
ENDBRANCH  11  13
ENDBRANCH   1  11
BRANCH   3  23
ATOM     23  N   UNL     1       4.766  47.067  54.981  1.00  0.00    -0.354 N 
ATOM     24  H   UNL     1       4.211  47.745  54.471  1.00  0.00     0.163 HD
BRANCH  23  25
ATOM     25  C   UNL     1       4.079  45.863  55.414  1.00  0.00     0.119 C 
BRANCH  25  26
ATOM     26  C   UNL     1       2.680  45.709  54.786  1.00  0.00     0.002 C 
ATOM     27  C   UNL     1       2.723  44.645  53.685  1.00  0.00     0.009 C 
ATOM     28  C   UNL     1       1.623  45.333  55.826  1.00  0.00     0.009 C 
ENDBRANCH  25  26
ENDBRANCH  23  25
ENDBRANCH   3  23
TORSDOF 7
ENDMDL
MODEL 9
REMARK VINA RESULT:    -7.751      1.884      2.734
REMARK INTER + INTRA:         -11.959
REMARK INTER:                 -11.470
REMARK INTRA:                  -0.489
REMARK UNBOUND:                -1.036
REMARK SMILES COc1ccc(Nc2nc(NCC(C)C)nc3c2cnn3C)c(OC)c1
REMARK SMILES IDX 8 1 9 2 10 3 16 4 17 5 18 6 19 7 20 8 21 9 22 10 7 11 6 13
REMARK SMILES IDX 3 14 4 15 26 16 5 17 23 18 2 19 1 20 24 21 25 22 11 23 12 25
REMARK SMILES IDX 13 26 14 27 15 28
REMARK H PARENT 7 12 11 24
ROOT
ATOM      1  C   UNL     1       4.105  44.273  53.103  1.00  0.00     0.147 A 
ATOM      2  N   UNL     1       4.774  45.450  53.201  1.00  0.00    -0.195 NA
ATOM      3  C   UNL     1       5.774  45.740  52.348  1.00  0.00     0.226 A 
ATOM      4  N   UNL     1       6.194  44.959  51.344  1.00  0.00    -0.193 NA
ATOM      5  C   UNL     1       5.483  43.828  51.231  1.00  0.00     0.165 A 
ATOM      6  C   UNL     1       4.444  43.424  52.046  1.00  0.00     0.082 A 
ATOM      7  C   UNL     1       4.006  42.211  51.475  1.00  0.00     0.149 A 
ATOM      8  N   UNL     1       4.736  41.838  50.416  1.00  0.00    -0.179 NA
ATOM      9  N   UNL     1       5.625  42.850  50.286  1.00  0.00    -0.250 N 
ATOM     10  C   UNL     1       6.580  42.821  49.208  1.00  0.00     0.176 C 
ENDROOT
BRANCH   1  11
ATOM     11  N   UNL     1       3.080  44.053  54.023  1.00  0.00    -0.336 N 
ATOM     12  H   UNL     1       3.442  43.630  54.874  1.00  0.00     0.168 HD
BRANCH  11  13
ATOM     13  C   UNL     1       1.705  43.774  53.863  1.00  0.00     0.083 A 
ATOM     14  C   UNL     1      -1.067  43.367  53.511  1.00  0.00     0.122 A 
ATOM     15  C   UNL     1      -0.148  42.532  52.881  1.00  0.00     0.049 A 
ATOM     16  C   UNL     1      -0.604  44.405  54.324  1.00  0.00     0.095 A 
ATOM     17  C   UNL     1       1.226  42.737  53.056  1.00  0.00     0.034 A 
ATOM     18  C   UNL     1       0.768  44.617  54.503  1.00  0.00     0.146 A 
BRANCH  14  19
ATOM     19  O   UNL     1      -2.428  43.275  53.424  1.00  0.00    -0.497 OA
ATOM     20  C   UNL     1      -3.185  44.298  54.059  1.00  0.00     0.278 C 
ENDBRANCH  14  19
BRANCH  18  21
ATOM     21  O   UNL     1       1.311  45.602  55.296  1.00  0.00    -0.494 OA
ATOM     22  C   UNL     1       0.989  45.570  56.681  1.00  0.00     0.278 C 
ENDBRANCH  18  21
ENDBRANCH  11  13
ENDBRANCH   1  11
BRANCH   3  23
ATOM     23  N   UNL     1       6.389  46.959  52.578  1.00  0.00    -0.354 N 
ATOM     24  H   UNL     1       5.658  47.658  52.623  1.00  0.00     0.163 HD
BRANCH  23  25
ATOM     25  C   UNL     1       7.402  47.013  53.619  1.00  0.00     0.119 C 
BRANCH  25  26
ATOM     26  C   UNL     1       8.717  47.661  53.145  1.00  0.00     0.002 C 
ATOM     27  C   UNL     1       9.856  47.273  54.093  1.00  0.00     0.009 C 
ATOM     28  C   UNL     1       9.075  47.254  51.714  1.00  0.00     0.009 C 
ENDBRANCH  25  26
ENDBRANCH  23  25
ENDBRANCH   3  23
TORSDOF 7
ENDMDL
MODEL 10
REMARK VINA RESULT:    -7.737      1.497      1.687
REMARK INTER + INTRA:         -11.938
REMARK INTER:                 -11.432
REMARK INTRA:                  -0.506
REMARK UNBOUND:                -1.036
REMARK SMILES COc1ccc(Nc2nc(NCC(C)C)nc3c2cnn3C)c(OC)c1
REMARK SMILES IDX 8 1 9 2 10 3 16 4 17 5 18 6 19 7 20 8 21 9 22 10 7 11 6 13
REMARK SMILES IDX 3 14 4 15 26 16 5 17 23 18 2 19 1 20 24 21 25 22 11 23 12 25
REMARK SMILES IDX 13 26 14 27 15 28
REMARK H PARENT 7 12 11 24
ROOT
ATOM      1  C   UNL     1       4.949  44.205  52.313  1.00  0.00     0.147 A 
ATOM      2  N   UNL     1       5.347  45.457  52.656  1.00  0.00    -0.195 NA
ATOM      3  C   UNL     1       6.349  46.061  51.990  1.00  0.00     0.226 A 
ATOM      4  N   UNL     1       7.024  45.541  50.957  1.00  0.00    -0.193 NA
ATOM      5  C   UNL     1       6.577  44.329  50.600  1.00  0.00     0.165 A 
ATOM      6  C   UNL     1       5.564  43.613  51.207  1.00  0.00     0.082 A 
ATOM      7  C   UNL     1       5.447  42.444  50.426  1.00  0.00     0.149 A 
ATOM      8  N   UNL     1       6.345  42.387  49.434  1.00  0.00    -0.179 NA
ATOM      9  N   UNL     1       7.015  43.555  49.560  1.00  0.00    -0.250 N 
ATOM     10  C   UNL     1       8.064  43.877  48.625  1.00  0.00     0.176 C 
ENDROOT
BRANCH   1  11
ATOM     11  N   UNL     1       3.901  43.654  53.050  1.00  0.00    -0.336 N 
ATOM     12  H   UNL     1       3.610  42.763  52.654  1.00  0.00     0.168 HD
BRANCH  11  13
ATOM     13  C   UNL     1       2.859  44.240  53.802  1.00  0.00     0.083 A 
ATOM     14  C   UNL     1       0.711  45.269  55.317  1.00  0.00     0.122 A 
ATOM     15  C   UNL     1       2.024  45.576  55.663  1.00  0.00     0.049 A 
ATOM     16  C   UNL     1       0.466  44.452  54.210  1.00  0.00     0.095 A 
ATOM     17  C   UNL     1       3.088  45.063  54.910  1.00  0.00     0.034 A 
ATOM     18  C   UNL     1       1.524  43.935  53.454  1.00  0.00     0.146 A 
BRANCH  14  19
ATOM     19  O   UNL     1      -0.413  45.704  55.964  1.00  0.00    -0.497 OA
ATOM     20  C   UNL     1      -0.244  46.190  57.291  1.00  0.00     0.278 C 
ENDBRANCH  14  19
BRANCH  18  21
ATOM     21  O   UNL     1       1.375  43.138  52.342  1.00  0.00    -0.494 OA
ATOM     22  C   UNL     1       0.962  43.774  51.139  1.00  0.00     0.278 C 
ENDBRANCH  18  21
ENDBRANCH  11  13
ENDBRANCH   1  11
BRANCH   3  23
ATOM     23  N   UNL     1       6.673  47.322  52.462  1.00  0.00    -0.354 N 
ATOM     24  H   UNL     1       6.232  47.423  53.368  1.00  0.00     0.163 HD
BRANCH  23  25
ATOM     25  C   UNL     1       8.062  47.737  52.368  1.00  0.00     0.119 C 
BRANCH  25  26
ATOM     26  C   UNL     1       9.008  46.873  53.225  1.00  0.00     0.002 C 
ATOM     27  C   UNL     1      10.234  46.474  52.399  1.00  0.00     0.009 C 
ATOM     28  C   UNL     1       9.455  47.600  54.495  1.00  0.00     0.009 C 
ENDBRANCH  25  26
ENDBRANCH  23  25
ENDBRANCH   3  23
TORSDOF 7
ENDMDL
MODEL 11
REMARK VINA RESULT:    -7.699      3.165      6.499
REMARK INTER + INTRA:         -11.885
REMARK INTER:                 -11.157
REMARK INTRA:                  -0.728
REMARK UNBOUND:                -1.036
REMARK SMILES COc1ccc(Nc2nc(NCC(C)C)nc3c2cnn3C)c(OC)c1
REMARK SMILES IDX 8 1 9 2 10 3 16 4 17 5 18 6 19 7 20 8 21 9 22 10 7 11 6 13
REMARK SMILES IDX 3 14 4 15 26 16 5 17 23 18 2 19 1 20 24 21 25 22 11 23 12 25
REMARK SMILES IDX 13 26 14 27 15 28
REMARK H PARENT 7 12 11 24
ROOT
ATOM      1  C   UNL     1       2.527  43.500  52.962  1.00  0.00     0.147 A 
ATOM      2  N   UNL     1       3.314  44.287  53.741  1.00  0.00    -0.195 NA
ATOM      3  C   UNL     1       2.793  44.940  54.796  1.00  0.00     0.226 A 
ATOM      4  N   UNL     1       1.516  44.882  55.197  1.00  0.00    -0.193 NA
ATOM      5  C   UNL     1       0.772  44.057  54.448  1.00  0.00     0.165 A 
ATOM      6  C   UNL     1       1.193  43.341  53.345  1.00  0.00     0.082 A 
ATOM      7  C   UNL     1       0.059  42.594  52.961  1.00  0.00     0.149 A 
ATOM      8  N   UNL     1      -1.015  42.850  53.718  1.00  0.00    -0.179 NA
ATOM      9  N   UNL     1      -0.547  43.740  54.623  1.00  0.00    -0.250 N 
ATOM     10  C   UNL     1      -1.427  44.235  55.652  1.00  0.00     0.176 C 
ENDROOT
BRANCH   1  11
ATOM     11  N   UNL     1       3.146  42.856  51.891  1.00  0.00    -0.336 N 
ATOM     12  H   UNL     1       2.901  41.869  51.873  1.00  0.00     0.168 HD
BRANCH  11  13
ATOM     13  C   UNL     1       4.367  43.088  51.220  1.00  0.00     0.083 A 
ATOM     14  C   UNL     1       6.744  43.493  49.751  1.00  0.00     0.122 A 
ATOM     15  C   UNL     1       6.210  44.523  50.521  1.00  0.00     0.049 A 
ATOM     16  C   UNL     1       6.095  42.255  49.717  1.00  0.00     0.095 A 
ATOM     17  C   UNL     1       5.030  44.319  51.248  1.00  0.00     0.034 A 
ATOM     18  C   UNL     1       4.916  42.045  50.440  1.00  0.00     0.146 A 
BRANCH  14  19
ATOM     19  O   UNL     1       7.884  43.560  48.999  1.00  0.00    -0.497 OA
ATOM     20  C   UNL     1       8.977  44.286  49.550  1.00  0.00     0.278 C 
ENDBRANCH  14  19
BRANCH  18  21
ATOM     21  O   UNL     1       4.221  40.857  50.477  1.00  0.00    -0.494 OA
ATOM     22  C   UNL     1       3.555  40.459  49.286  1.00  0.00     0.278 C 
ENDBRANCH  18  21
ENDBRANCH  11  13
ENDBRANCH   1  11
BRANCH   3  23
ATOM     23  N   UNL     1       3.698  45.729  55.486  1.00  0.00    -0.354 N 
ATOM     24  H   UNL     1       3.380  45.776  56.447  1.00  0.00     0.163 HD
BRANCH  23  25
ATOM     25  C   UNL     1       5.112  45.461  55.283  1.00  0.00     0.119 C 
BRANCH  25  26
ATOM     26  C   UNL     1       5.864  46.647  54.648  1.00  0.00     0.002 C 
ATOM     27  C   UNL     1       7.115  46.138  53.927  1.00  0.00     0.009 C 
ATOM     28  C   UNL     1       4.983  47.425  53.668  1.00  0.00     0.009 C 
ENDBRANCH  25  26
ENDBRANCH  23  25
ENDBRANCH   3  23
TORSDOF 7
ENDMDL
MODEL 12
REMARK VINA RESULT:    -7.679      1.644      4.590
REMARK INTER + INTRA:         -11.857
REMARK INTER:                 -10.910
REMARK INTRA:                  -0.946
REMARK UNBOUND:                -1.036
REMARK SMILES COc1ccc(Nc2nc(NCC(C)C)nc3c2cnn3C)c(OC)c1
REMARK SMILES IDX 8 1 9 2 10 3 16 4 17 5 18 6 19 7 20 8 21 9 22 10 7 11 6 13
REMARK SMILES IDX 3 14 4 15 26 16 5 17 23 18 2 19 1 20 24 21 25 22 11 23 12 25
REMARK SMILES IDX 13 26 14 27 15 28
REMARK H PARENT 7 12 11 24
ROOT
ATOM      1  C   UNL     1       5.795  46.401  51.959  1.00  0.00     0.147 A 
ATOM      2  N   UNL     1       5.575  45.386  51.084  1.00  0.00    -0.195 NA
ATOM      3  C   UNL     1       6.608  44.782  50.466  1.00  0.00     0.226 A 
ATOM      4  N   UNL     1       7.902  45.076  50.642  1.00  0.00    -0.193 NA
ATOM      5  C   UNL     1       8.099  46.042  51.551  1.00  0.00     0.165 A 
ATOM      6  C   UNL     1       7.122  46.733  52.242  1.00  0.00     0.082 A 
ATOM      7  C   UNL     1       7.844  47.585  53.103  1.00  0.00     0.149 A 
ATOM      8  N   UNL     1       9.170  47.492  52.941  1.00  0.00    -0.179 NA
ATOM      9  N   UNL     1       9.295  46.535  51.992  1.00  0.00    -0.250 N 
ATOM     10  C   UNL     1      10.610  46.125  51.567  1.00  0.00     0.176 C 
ENDROOT
BRANCH   1  11
ATOM     11  N   UNL     1       4.671  46.969  52.559  1.00  0.00    -0.336 N 
ATOM     12  H   UNL     1       4.904  47.860  52.990  1.00  0.00     0.168 HD
BRANCH  11  13
ATOM     13  C   UNL     1       3.524  46.400  53.155  1.00  0.00     0.083 A 
ATOM     14  C   UNL     1       1.249  45.363  54.466  1.00  0.00     0.122 A 
ATOM     15  C   UNL     1       1.184  45.720  53.122  1.00  0.00     0.049 A 
ATOM     16  C   UNL     1       2.454  45.517  55.158  1.00  0.00     0.095 A 
ATOM     17  C   UNL     1       2.313  46.236  52.475  1.00  0.00     0.034 A 
ATOM     18  C   UNL     1       3.586  46.033  54.518  1.00  0.00     0.146 A 
BRANCH  14  19
ATOM     19  O   UNL     1       0.224  44.849  55.212  1.00  0.00    -0.497 OA
ATOM     20  C   UNL     1       0.290  45.047  56.619  1.00  0.00     0.278 C 
ENDBRANCH  14  19
BRANCH  18  21
ATOM     21  O   UNL     1       4.814  46.203  55.117  1.00  0.00    -0.494 OA
ATOM     22  C   UNL     1       5.560  45.029  55.411  1.00  0.00     0.278 C 
ENDBRANCH  18  21
ENDBRANCH  11  13
ENDBRANCH   1  11
BRANCH   3  23
ATOM     23  N   UNL     1       6.241  43.785  49.579  1.00  0.00    -0.354 N 
ATOM     24  H   UNL     1       6.274  44.186  48.649  1.00  0.00     0.163 HD
BRANCH  23  25
ATOM     25  C   UNL     1       6.858  42.480  49.745  1.00  0.00     0.119 C 
BRANCH  25  26
ATOM     26  C   UNL     1       5.845  41.320  49.662  1.00  0.00     0.002 C 
ATOM     27  C   UNL     1       4.724  41.540  50.680  1.00  0.00     0.009 C 
ATOM     28  C   UNL     1       5.249  41.179  48.260  1.00  0.00     0.009 C 
ENDBRANCH  25  26
ENDBRANCH  23  25
ENDBRANCH   3  23
TORSDOF 7
ENDMDL
MODEL 13
REMARK VINA RESULT:    -7.644      1.978      4.554
REMARK INTER + INTRA:         -11.808
REMARK INTER:                 -10.957
REMARK INTRA:                  -0.851
REMARK UNBOUND:                -1.036
REMARK SMILES COc1ccc(Nc2nc(NCC(C)C)nc3c2cnn3C)c(OC)c1
REMARK SMILES IDX 8 1 9 2 10 3 16 4 17 5 18 6 19 7 20 8 21 9 22 10 7 11 6 13
REMARK SMILES IDX 3 14 4 15 26 16 5 17 23 18 2 19 1 20 24 21 25 22 11 23 12 25
REMARK SMILES IDX 13 26 14 27 15 28
REMARK H PARENT 7 12 11 24
ROOT
ATOM      1  C   UNL     1       5.592  45.994  51.874  1.00  0.00     0.147 A 
ATOM      2  N   UNL     1       6.123  45.420  50.764  1.00  0.00    -0.195 NA
ATOM      3  C   UNL     1       7.457  45.376  50.590  1.00  0.00     0.226 A 
ATOM      4  N   UNL     1       8.372  45.846  51.447  1.00  0.00    -0.193 NA
ATOM      5  C   UNL     1       7.828  46.357  52.561  1.00  0.00     0.165 A 
ATOM      6  C   UNL     1       6.481  46.458  52.847  1.00  0.00     0.082 A 
ATOM      7  C   UNL     1       6.443  47.005  54.148  1.00  0.00     0.149 A 
ATOM      8  N   UNL     1       7.659  47.283  54.634  1.00  0.00    -0.179 NA
ATOM      9  N   UNL     1       8.485  46.868  53.646  1.00  0.00    -0.250 N 
ATOM     10  C   UNL     1       9.911  46.975  53.822  1.00  0.00     0.176 C 
ENDROOT
BRANCH   1  11
ATOM     11  N   UNL     1       4.202  45.994  51.980  1.00  0.00    -0.336 N 
ATOM     12  H   UNL     1       3.866  46.888  52.329  1.00  0.00     0.168 HD
BRANCH  11  13
ATOM     13  C   UNL     1       3.269  44.965  52.239  1.00  0.00     0.083 A 
ATOM     14  C   UNL     1       1.299  43.017  52.784  1.00  0.00     0.122 A 
ATOM     15  C   UNL     1       2.081  42.924  51.635  1.00  0.00     0.049 A 
ATOM     16  C   UNL     1       1.504  44.081  53.667  1.00  0.00     0.095 A 
ATOM     17  C   UNL     1       3.056  43.892  51.367  1.00  0.00     0.034 A 
ATOM     18  C   UNL     1       2.476  45.053  53.405  1.00  0.00     0.146 A 
BRANCH  14  19
ATOM     19  O   UNL     1       0.318  42.143  53.161  1.00  0.00    -0.497 OA
ATOM     20  C   UNL     1      -0.929  42.243  52.485  1.00  0.00     0.278 C 
ENDBRANCH  14  19
BRANCH  18  21
ATOM     21  O   UNL     1       2.755  46.122  54.225  1.00  0.00    -0.494 OA
ATOM     22  C   UNL     1       3.233  45.829  55.532  1.00  0.00     0.278 C 
ENDBRANCH  18  21
ENDBRANCH  11  13
ENDBRANCH   1  11
BRANCH   3  23
ATOM     23  N   UNL     1       7.861  44.791  49.402  1.00  0.00    -0.354 N 
ATOM     24  H   UNL     1       8.717  45.254  49.117  1.00  0.00     0.163 HD
BRANCH  23  25
ATOM     25  C   UNL     1       7.855  43.340  49.333  1.00  0.00     0.119 C 
BRANCH  25  26
ATOM     26  C   UNL     1       6.439  42.749  49.187  1.00  0.00     0.002 C 
ATOM     27  C   UNL     1       6.210  42.308  47.739  1.00  0.00     0.009 C 
ATOM     28  C   UNL     1       6.212  41.566  50.130  1.00  0.00     0.009 C 
ENDBRANCH  25  26
ENDBRANCH  23  25
ENDBRANCH   3  23
TORSDOF 7
ENDMDL
MODEL 14
REMARK VINA RESULT:    -7.596      1.454      4.193
REMARK INTER + INTRA:         -11.741
REMARK INTER:                 -10.689
REMARK INTRA:                  -1.051
REMARK UNBOUND:                -1.036
REMARK SMILES COc1ccc(Nc2nc(NCC(C)C)nc3c2cnn3C)c(OC)c1
REMARK SMILES IDX 8 1 9 2 10 3 16 4 17 5 18 6 19 7 20 8 21 9 22 10 7 11 6 13
REMARK SMILES IDX 3 14 4 15 26 16 5 17 23 18 2 19 1 20 24 21 25 22 11 23 12 25
REMARK SMILES IDX 13 26 14 27 15 28
REMARK H PARENT 7 12 11 24
ROOT
ATOM      1  C   UNL     1       5.516  46.106  51.586  1.00  0.00     0.147 A 
ATOM      2  N   UNL     1       5.505  45.047  50.737  1.00  0.00    -0.195 NA
ATOM      3  C   UNL     1       6.657  44.554  50.246  1.00  0.00     0.226 A 
ATOM      4  N   UNL     1       7.885  45.006  50.532  1.00  0.00    -0.193 NA
ATOM      5  C   UNL     1       7.875  46.014  51.416  1.00  0.00     0.165 A 
ATOM      6  C   UNL     1       6.761  46.603  51.982  1.00  0.00     0.082 A 
ATOM      7  C   UNL     1       7.289  47.560  52.873  1.00  0.00     0.149 A 
ATOM      8  N   UNL     1       8.626  47.622  52.842  1.00  0.00    -0.179 NA
ATOM      9  N   UNL     1       8.956  46.660  51.950  1.00  0.00    -0.250 N 
ATOM     10  C   UNL     1      10.345  46.398  51.669  1.00  0.00     0.176 C 
ENDROOT
BRANCH   1  11
ATOM     11  N   UNL     1       4.280  46.552  52.053  1.00  0.00    -0.336 N 
ATOM     12  H   UNL     1       4.124  47.523  51.791  1.00  0.00     0.168 HD
BRANCH  11  13
ATOM     13  C   UNL     1       3.508  46.201  53.182  1.00  0.00     0.083 A 
ATOM     14  C   UNL     1       1.939  45.360  55.374  1.00  0.00     0.122 A 
ATOM     15  C   UNL     1       3.192  45.930  55.584  1.00  0.00     0.049 A 
ATOM     16  C   UNL     1       1.463  45.214  54.067  1.00  0.00     0.095 A 
ATOM     17  C   UNL     1       3.969  46.345  54.495  1.00  0.00     0.034 A 
ATOM     18  C   UNL     1       2.234  45.626  52.975  1.00  0.00     0.146 A 
BRANCH  14  19
ATOM     19  O   UNL     1       1.085  44.917  56.345  1.00  0.00    -0.497 OA
ATOM     20  C   UNL     1       0.547  45.896  57.225  1.00  0.00     0.278 C 
ENDBRANCH  14  19
BRANCH  18  21
ATOM     21  O   UNL     1       1.839  45.534  51.659  1.00  0.00    -0.494 OA
ATOM     22  C   UNL     1       1.407  44.260  51.199  1.00  0.00     0.278 C 
ENDBRANCH  18  21
ENDBRANCH  11  13
ENDBRANCH   1  11
BRANCH   3  23
ATOM     23  N   UNL     1       6.499  43.494  49.369  1.00  0.00    -0.354 N 
ATOM     24  H   UNL     1       6.970  43.747  48.508  1.00  0.00     0.163 HD
BRANCH  23  25
ATOM     25  C   UNL     1       6.755  42.158  49.878  1.00  0.00     0.119 C 
BRANCH  25  26
ATOM     26  C   UNL     1       5.567  41.198  49.674  1.00  0.00     0.002 C 
ATOM     27  C   UNL     1       4.436  41.562  50.639  1.00  0.00     0.009 C 
ATOM     28  C   UNL     1       5.048  41.227  48.235  1.00  0.00     0.009 C 
ENDBRANCH  25  26
ENDBRANCH  23  25
ENDBRANCH   3  23
TORSDOF 7
ENDMDL
MODEL 15
REMARK VINA RESULT:    -7.524      2.905      6.517
REMARK INTER + INTRA:         -11.639
REMARK INTER:                 -11.195
REMARK INTRA:                  -0.444
REMARK UNBOUND:                -1.036
REMARK SMILES COc1ccc(Nc2nc(NCC(C)C)nc3c2cnn3C)c(OC)c1
REMARK SMILES IDX 8 1 9 2 10 3 16 4 17 5 18 6 19 7 20 8 21 9 22 10 7 11 6 13
REMARK SMILES IDX 3 14 4 15 26 16 5 17 23 18 2 19 1 20 24 21 25 22 11 23 12 25
REMARK SMILES IDX 13 26 14 27 15 28
REMARK H PARENT 7 12 11 24
ROOT
ATOM      1  C   UNL     1       5.741  44.413  51.358  1.00  0.00     0.147 A 
ATOM      2  N   UNL     1       4.831  44.447  52.365  1.00  0.00    -0.195 NA
ATOM      3  C   UNL     1       3.838  43.540  52.418  1.00  0.00     0.226 A 
ATOM      4  N   UNL     1       3.647  42.540  51.548  1.00  0.00    -0.193 NA
ATOM      5  C   UNL     1       4.589  42.491  50.595  1.00  0.00     0.165 A 
ATOM      6  C   UNL     1       5.647  43.365  50.438  1.00  0.00     0.082 A 
ATOM      7  C   UNL     1       6.364  42.848  49.338  1.00  0.00     0.149 A 
ATOM      8  N   UNL     1       5.786  41.768  48.799  1.00  0.00    -0.179 NA
ATOM      9  N   UNL     1       4.709  41.569  49.593  1.00  0.00    -0.250 N 
ATOM     10  C   UNL     1       3.839  40.448  49.341  1.00  0.00     0.176 C 
ENDROOT
BRANCH   1  11
ATOM     11  N   UNL     1       6.741  45.385  51.379  1.00  0.00    -0.336 N 
ATOM     12  H   UNL     1       7.347  45.298  50.567  1.00  0.00     0.168 HD
BRANCH  11  13
ATOM     13  C   UNL     1       7.403  46.042  52.439  1.00  0.00     0.083 A 
ATOM     14  C   UNL     1       8.783  47.458  54.455  1.00  0.00     0.122 A 
ATOM     15  C   UNL     1       7.441  47.128  54.622  1.00  0.00     0.049 A 
ATOM     16  C   UNL     1       9.442  47.076  53.283  1.00  0.00     0.095 A 
ATOM     17  C   UNL     1       6.759  46.427  53.620  1.00  0.00     0.034 A 
ATOM     18  C   UNL     1       8.767  46.377  52.277  1.00  0.00     0.146 A 
BRANCH  14  19
ATOM     19  O   UNL     1       9.561  48.135  55.353  1.00  0.00    -0.497 OA
ATOM     20  C   UNL     1      10.728  47.472  55.824  1.00  0.00     0.278 C 
ENDBRANCH  14  19
BRANCH  18  21
ATOM     21  O   UNL     1       9.340  45.949  51.101  1.00  0.00    -0.494 OA
ATOM     22  C   UNL     1      10.588  45.276  51.196  1.00  0.00     0.278 C 
ENDBRANCH  18  21
ENDBRANCH  11  13
ENDBRANCH   1  11
BRANCH   3  23
ATOM     23  N   UNL     1       2.965  43.708  53.479  1.00  0.00    -0.354 N 
ATOM     24  H   UNL     1       3.155  42.965  54.142  1.00  0.00     0.163 HD
BRANCH  23  25
ATOM     25  C   UNL     1       2.826  45.045  54.029  1.00  0.00     0.119 C 
BRANCH  25  26
ATOM     26  C   UNL     1       1.406  45.338  54.549  1.00  0.00     0.002 C 
ATOM     27  C   UNL     1       0.424  44.311  53.978  1.00  0.00     0.009 C 
ATOM     28  C   UNL     1       1.340  45.320  56.078  1.00  0.00     0.009 C 
ENDBRANCH  25  26
ENDBRANCH  23  25
ENDBRANCH   3  23
TORSDOF 7
ENDMDL
MODEL 16
REMARK VINA RESULT:    -7.487      1.938      4.365
REMARK INTER + INTRA:         -11.587
REMARK INTER:                 -10.532
REMARK INTRA:                  -1.054
REMARK UNBOUND:                -1.036
REMARK SMILES COc1ccc(Nc2nc(NCC(C)C)nc3c2cnn3C)c(OC)c1
REMARK SMILES IDX 8 1 9 2 10 3 16 4 17 5 18 6 19 7 20 8 21 9 22 10 7 11 6 13
REMARK SMILES IDX 3 14 4 15 26 16 5 17 23 18 2 19 1 20 24 21 25 22 11 23 12 25
REMARK SMILES IDX 13 26 14 27 15 28
REMARK H PARENT 7 12 11 24
ROOT
ATOM      1  C   UNL     1       4.890  44.571  52.975  1.00  0.00     0.147 A 
ATOM      2  N   UNL     1       5.142  43.964  51.787  1.00  0.00    -0.195 NA
ATOM      3  C   UNL     1       6.050  44.479  50.937  1.00  0.00     0.226 A 
ATOM      4  N   UNL     1       6.787  45.576  51.153  1.00  0.00    -0.193 NA
ATOM      5  C   UNL     1       6.563  46.126  52.355  1.00  0.00     0.165 A 
ATOM      6  C   UNL     1       5.658  45.691  53.304  1.00  0.00     0.082 A 
ATOM      7  C   UNL     1       5.850  46.566  54.394  1.00  0.00     0.149 A 
ATOM      8  N   UNL     1       6.760  47.516  54.147  1.00  0.00    -0.179 NA
ATOM      9  N   UNL     1       7.184  47.217  52.898  1.00  0.00    -0.250 N 
ATOM     10  C   UNL     1       8.215  48.018  52.287  1.00  0.00     0.176 C 
ENDROOT
BRANCH   1  11
ATOM     11  N   UNL     1       3.938  43.970  53.799  1.00  0.00    -0.336 N 
ATOM     12  H   UNL     1       4.099  42.968  53.866  1.00  0.00     0.168 HD
BRANCH  11  13
ATOM     13  C   UNL     1       2.592  44.289  54.084  1.00  0.00     0.083 A 
ATOM     14  C   UNL     1      -0.128  44.773  54.663  1.00  0.00     0.122 A 
ATOM     15  C   UNL     1       0.869  45.452  55.358  1.00  0.00     0.049 A 
ATOM     16  C   UNL     1       0.230  43.855  53.672  1.00  0.00     0.095 A 
ATOM     17  C   UNL     1       2.218  45.208  55.069  1.00  0.00     0.034 A 
ATOM     18  C   UNL     1       1.575  43.606  53.379  1.00  0.00     0.146 A 
BRANCH  14  19
ATOM     19  O   UNL     1      -1.476  44.918  54.846  1.00  0.00    -0.497 OA
ATOM     20  C   UNL     1      -2.323  44.398  53.829  1.00  0.00     0.278 C 
ENDBRANCH  14  19
BRANCH  18  21
ATOM     21  O   UNL     1       2.017  42.733  52.411  1.00  0.00    -0.494 OA
ATOM     22  C   UNL     1       1.649  43.015  51.067  1.00  0.00     0.278 C 
ENDBRANCH  18  21
ENDBRANCH  11  13
ENDBRANCH   1  11
BRANCH   3  23
ATOM     23  N   UNL     1       6.187  43.778  49.751  1.00  0.00    -0.354 N 
ATOM     24  H   UNL     1       6.604  44.410  49.078  1.00  0.00     0.163 HD
BRANCH  23  25
ATOM     25  C   UNL     1       6.755  42.442  49.823  1.00  0.00     0.119 C 
BRANCH  25  26
ATOM     26  C   UNL     1       5.976  41.412  48.982  1.00  0.00     0.002 C 
ATOM     27  C   UNL     1       4.597  41.174  49.603  1.00  0.00     0.009 C 
ATOM     28  C   UNL     1       5.817  41.861  47.528  1.00  0.00     0.009 C 
ENDBRANCH  25  26
ENDBRANCH  23  25
ENDBRANCH   3  23
TORSDOF 7
ENDMDL
MODEL 17
REMARK VINA RESULT:    -7.434      2.799      5.880
REMARK INTER + INTRA:         -11.511
REMARK INTER:                 -10.704
REMARK INTRA:                  -0.808
REMARK UNBOUND:                -1.036
REMARK SMILES COc1ccc(Nc2nc(NCC(C)C)nc3c2cnn3C)c(OC)c1
REMARK SMILES IDX 8 1 9 2 10 3 16 4 17 5 18 6 19 7 20 8 21 9 22 10 7 11 6 13
REMARK SMILES IDX 3 14 4 15 26 16 5 17 23 18 2 19 1 20 24 21 25 22 11 23 12 25
REMARK SMILES IDX 13 26 14 27 15 28
REMARK H PARENT 7 12 11 24
ROOT
ATOM      1  C   UNL     1       2.436  44.149  53.656  1.00  0.00     0.147 A 
ATOM      2  N   UNL     1       2.999  43.406  52.669  1.00  0.00    -0.195 NA
ATOM      3  C   UNL     1       2.228  42.690  51.830  1.00  0.00     0.226 A 
ATOM      4  N   UNL     1       0.890  42.638  51.851  1.00  0.00    -0.193 NA
ATOM      5  C   UNL     1       0.353  43.422  52.797  1.00  0.00     0.165 A 
ATOM      6  C   UNL     1       1.040  44.196  53.712  1.00  0.00     0.082 A 
ATOM      7  C   UNL     1       0.027  44.862  54.433  1.00  0.00     0.149 A 
ATOM      8  N   UNL     1      -1.206  44.505  54.052  1.00  0.00    -0.179 NA
ATOM      9  N   UNL     1      -0.975  43.632  53.046  1.00  0.00    -0.250 N 
ATOM     10  C   UNL     1      -2.089  43.045  52.345  1.00  0.00     0.176 C 
ENDROOT
BRANCH   1  11
ATOM     11  N   UNL     1       3.304  44.866  54.478  1.00  0.00    -0.336 N 
ATOM     12  H   UNL     1       2.800  45.292  55.253  1.00  0.00     0.168 HD
BRANCH  11  13
ATOM     13  C   UNL     1       4.507  45.557  54.215  1.00  0.00     0.083 A 
ATOM     14  C   UNL     1       6.838  47.071  53.716  1.00  0.00     0.122 A 
ATOM     15  C   UNL     1       6.883  45.974  54.572  1.00  0.00     0.049 A 
ATOM     16  C   UNL     1       5.630  47.412  53.102  1.00  0.00     0.095 A 
ATOM     17  C   UNL     1       5.725  45.225  54.819  1.00  0.00     0.034 A 
ATOM     18  C   UNL     1       4.469  46.669  53.344  1.00  0.00     0.146 A 
BRANCH  14  19
ATOM     19  O   UNL     1       7.891  47.880  53.392  1.00  0.00    -0.497 OA
ATOM     20  C   UNL     1       9.190  47.418  53.741  1.00  0.00     0.278 C 
ENDBRANCH  14  19
BRANCH  18  21
ATOM     21  O   UNL     1       3.243  46.923  52.772  1.00  0.00    -0.494 OA
ATOM     22  C   UNL     1       3.139  46.759  51.363  1.00  0.00     0.278 C 
ENDBRANCH  18  21
ENDBRANCH  11  13
ENDBRANCH   1  11
BRANCH   3  23
ATOM     23  N   UNL     1       2.932  41.956  50.891  1.00  0.00    -0.354 N 
ATOM     24  H   UNL     1       2.717  42.350  49.982  1.00  0.00     0.163 HD
BRANCH  23  25
ATOM     25  C   UNL     1       4.334  41.686  51.163  1.00  0.00     0.119 C 
BRANCH  25  26
ATOM     26  C   UNL     1       5.282  42.332  50.135  1.00  0.00     0.002 C 
ATOM     27  C   UNL     1       5.683  43.732  50.609  1.00  0.00     0.009 C 
ATOM     28  C   UNL     1       6.537  41.488  49.902  1.00  0.00     0.009 C 
ENDBRANCH  25  26
ENDBRANCH  23  25
ENDBRANCH   3  23
TORSDOF 7
ENDMDL
MODEL 18
REMARK VINA RESULT:    -7.426      3.109      6.720
REMARK INTER + INTRA:         -11.501
REMARK INTER:                 -10.454
REMARK INTRA:                  -1.047
REMARK UNBOUND:                -1.036
REMARK SMILES COc1ccc(Nc2nc(NCC(C)C)nc3c2cnn3C)c(OC)c1
REMARK SMILES IDX 8 1 9 2 10 3 16 4 17 5 18 6 19 7 20 8 21 9 22 10 7 11 6 13
REMARK SMILES IDX 3 14 4 15 26 16 5 17 23 18 2 19 1 20 24 21 25 22 11 23 12 25
REMARK SMILES IDX 13 26 14 27 15 28
REMARK H PARENT 7 12 11 24
ROOT
ATOM      1  C   UNL     1       2.230  45.033  55.207  1.00  0.00     0.147 A 
ATOM      2  N   UNL     1       2.321  44.194  54.142  1.00  0.00    -0.195 NA
ATOM      3  C   UNL     1       1.280  43.414  53.798  1.00  0.00     0.226 A 
ATOM      4  N   UNL     1       0.090  43.383  54.412  1.00  0.00    -0.193 NA
ATOM      5  C   UNL     1       0.004  44.258  55.424  1.00  0.00     0.165 A 
ATOM      6  C   UNL     1       1.002  45.103  55.869  1.00  0.00     0.082 A 
ATOM      7  C   UNL     1       0.392  45.846  56.902  1.00  0.00     0.149 A 
ATOM      8  N   UNL     1      -0.871  45.473  57.139  1.00  0.00    -0.179 NA
ATOM      9  N   UNL     1      -1.083  44.507  56.215  1.00  0.00    -0.250 N 
ATOM     10  C   UNL     1      -2.375  43.873  56.135  1.00  0.00     0.176 C 
ENDROOT
BRANCH   1  11
ATOM     11  N   UNL     1       3.351  45.810  55.493  1.00  0.00    -0.336 N 
ATOM     12  H   UNL     1       3.093  46.632  56.034  1.00  0.00     0.168 HD
BRANCH  11  13
ATOM     13  C   UNL     1       4.564  46.020  54.800  1.00  0.00     0.083 A 
ATOM     14  C   UNL     1       6.965  46.591  53.429  1.00  0.00     0.122 A 
ATOM     15  C   UNL     1       6.953  45.665  54.468  1.00  0.00     0.049 A 
ATOM     16  C   UNL     1       5.776  47.230  53.066  1.00  0.00     0.095 A 
ATOM     17  C   UNL     1       5.761  45.384  55.147  1.00  0.00     0.034 A 
ATOM     18  C   UNL     1       4.581  46.956  53.741  1.00  0.00     0.146 A 
BRANCH  14  19
ATOM     19  O   UNL     1       8.056  46.953  52.688  1.00  0.00    -0.497 OA
ATOM     20  C   UNL     1       9.269  47.179  53.396  1.00  0.00     0.278 C 
ENDBRANCH  14  19
BRANCH  18  21
ATOM     21  O   UNL     1       3.365  47.526  53.442  1.00  0.00    -0.494 OA
ATOM     22  C   UNL     1       2.779  47.184  52.192  1.00  0.00     0.278 C 
ENDBRANCH  18  21
ENDBRANCH  11  13
ENDBRANCH   1  11
BRANCH   3  23
ATOM     23  N   UNL     1       1.518  42.587  52.713  1.00  0.00    -0.354 N 
ATOM     24  H   UNL     1       0.623  42.205  52.427  1.00  0.00     0.163 HD
BRANCH  23  25
ATOM     25  C   UNL     1       2.371  43.098  51.654  1.00  0.00     0.119 C 
BRANCH  25  26
ATOM     26  C   UNL     1       3.805  42.535  51.712  1.00  0.00     0.002 C 
ATOM     27  C   UNL     1       4.004  41.514  50.588  1.00  0.00     0.009 C 
ATOM     28  C   UNL     1       4.859  43.638  51.600  1.00  0.00     0.009 C 
ENDBRANCH  25  26
ENDBRANCH  23  25
ENDBRANCH   3  23
TORSDOF 7
ENDMDL
MODEL 19
REMARK VINA RESULT:    -7.385      2.339      6.423
REMARK INTER + INTRA:         -11.443
REMARK INTER:                 -10.819
REMARK INTRA:                  -0.624
REMARK UNBOUND:                -1.036
REMARK SMILES COc1ccc(Nc2nc(NCC(C)C)nc3c2cnn3C)c(OC)c1
REMARK SMILES IDX 8 1 9 2 10 3 16 4 17 5 18 6 19 7 20 8 21 9 22 10 7 11 6 13
REMARK SMILES IDX 3 14 4 15 26 16 5 17 23 18 2 19 1 20 24 21 25 22 11 23 12 25
REMARK SMILES IDX 13 26 14 27 15 28
REMARK H PARENT 7 12 11 24
ROOT
ATOM      1  C   UNL     1       6.118  45.490  52.400  1.00  0.00     0.147 A 
ATOM      2  N   UNL     1       5.245  45.438  53.439  1.00  0.00    -0.195 NA
ATOM      3  C   UNL     1       5.590  45.929  54.644  1.00  0.00     0.226 A 
ATOM      4  N   UNL     1       6.757  46.512  54.945  1.00  0.00    -0.193 NA
ATOM      5  C   UNL     1       7.581  46.602  53.891  1.00  0.00     0.165 A 
ATOM      6  C   UNL     1       7.339  46.133  52.614  1.00  0.00     0.082 A 
ATOM      7  C   UNL     1       8.478  46.525  51.879  1.00  0.00     0.149 A 
ATOM      8  N   UNL     1       9.398  47.142  52.630  1.00  0.00    -0.179 NA
ATOM      9  N   UNL     1       8.818  47.182  53.852  1.00  0.00    -0.250 N 
ATOM     10  C   UNL     1       9.510  47.820  54.945  1.00  0.00     0.176 C 
ENDROOT
BRANCH   1  11
ATOM     11  N   UNL     1       5.681  44.964  51.185  1.00  0.00    -0.336 N 
ATOM     12  H   UNL     1       5.292  45.694  50.594  1.00  0.00     0.168 HD
BRANCH  11  13
ATOM     13  C   UNL     1       5.170  43.696  50.827  1.00  0.00     0.083 A 
ATOM     14  C   UNL     1       4.038  41.235  50.033  1.00  0.00     0.122 A 
ATOM     15  C   UNL     1       5.405  41.458  49.890  1.00  0.00     0.049 A 
ATOM     16  C   UNL     1       3.233  42.239  50.579  1.00  0.00     0.095 A 
ATOM     17  C   UNL     1       5.964  42.681  50.283  1.00  0.00     0.034 A 
ATOM     18  C   UNL     1       3.784  43.463  50.974  1.00  0.00     0.146 A 
BRANCH  14  19
ATOM     19  O   UNL     1       3.371  40.092  49.691  1.00  0.00    -0.497 OA
ATOM     20  C   UNL     1       3.403  39.713  48.320  1.00  0.00     0.278 C 
ENDBRANCH  14  19
BRANCH  18  21
ATOM     21  O   UNL     1       3.071  44.498  51.534  1.00  0.00    -0.494 OA
ATOM     22  C   UNL     1       1.726  44.666  51.104  1.00  0.00     0.278 C 
ENDBRANCH  18  21
ENDBRANCH  11  13
ENDBRANCH   1  11
BRANCH   3  23
ATOM     23  N   UNL     1       4.618  45.786  55.620  1.00  0.00    -0.354 N 
ATOM     24  H   UNL     1       4.960  46.255  56.452  1.00  0.00     0.163 HD
BRANCH  23  25
ATOM     25  C   UNL     1       3.242  46.060  55.242  1.00  0.00     0.119 C 
BRANCH  25  26
ATOM     26  C   UNL     1       2.247  45.025  55.802  1.00  0.00     0.002 C 
ATOM     27  C   UNL     1       1.283  45.708  56.775  1.00  0.00     0.009 C 
ATOM     28  C   UNL     1       1.455  44.332  54.691  1.00  0.00     0.009 C 
ENDBRANCH  25  26
ENDBRANCH  23  25
ENDBRANCH   3  23
TORSDOF 7
ENDMDL
