MODEL 1
REMARK VINA RESULT:    -8.594      0.000      0.000
REMARK INTER + INTRA:         -12.482
REMARK INTER:                 -11.608
REMARK INTRA:                  -0.873
REMARK UNBOUND:                -0.873
REMARK SMILES CCCCNc1nc(Nc2ccc3cn[nH]c3c2)c2cnn(C)c2n1
REMARK SMILES IDX 5 1 4 3 3 4 2 5 1 6 6 7 7 8 25 9 8 10 24 11 19 12 22 13
REMARK SMILES IDX 20 14 21 15 23 16 9 17 10 19 11 20 18 21 12 22 17 23 13 24
REMARK SMILES IDX 16 25 14 26 15 27
REMARK H PARENT 5 2 9 18 16 28
ROOT
ATOM      1  N   UNL     1       4.260  41.460  51.268  1.00  0.00    -0.354 N 
ATOM      2  H   UNL     1       4.014  40.743  51.943  1.00  0.00     0.163 HD
ENDROOT
BRANCH   1   3
ATOM      3  C   UNL     1       3.913  41.167  49.889  1.00  0.00     0.116 C 
BRANCH   3   4
ATOM      4  C   UNL     1       5.173  41.169  49.017  1.00  0.00     0.021 C 
BRANCH   4   5
ATOM      5  C   UNL     1       6.470  41.512  49.758  1.00  0.00    -0.002 C 
ATOM      6  C   UNL     1       7.085  42.835  49.330  1.00  0.00     0.004 C 
ENDBRANCH   4   5
ENDBRANCH   3   4
ENDBRANCH   1   3
BRANCH   1   7
ATOM      7  C   UNL     1       3.731  42.646  51.766  1.00  0.00     0.226 A 
ATOM      8  N   UNL     1       4.481  43.737  51.517  1.00  0.00    -0.195 NA
ATOM      9  N   UNL     1       2.568  42.630  52.432  1.00  0.00    -0.193 NA
ATOM     10  C   UNL     1       4.075  44.956  51.954  1.00  0.00     0.147 A 
ATOM     11  C   UNL     1       2.174  43.850  52.823  1.00  0.00     0.165 A 
ATOM     12  C   UNL     1       2.853  45.035  52.624  1.00  0.00     0.082 A 
ATOM     13  N   UNL     1       1.025  44.181  53.487  1.00  0.00    -0.250 N 
ATOM     14  C   UNL     1       2.016  46.019  53.191  1.00  0.00     0.149 A 
ATOM     15  N   UNL     1       0.906  45.506  53.734  1.00  0.00    -0.179 NA
ATOM     16  C   UNL     1      -0.020  43.284  53.910  1.00  0.00     0.176 C 
BRANCH  10  17
ATOM     17  N   UNL     1       4.898  46.049  51.641  1.00  0.00    -0.339 N 
ATOM     18  H   UNL     1       4.752  46.260  50.656  1.00  0.00     0.168 HD
BRANCH  17  19
ATOM     19  C   UNL     1       6.244  46.266  52.010  1.00  0.00     0.042 A 
ATOM     20  C   UNL     1       7.313  46.068  51.126  1.00  0.00     0.027 A 
ATOM     21  C   UNL     1       6.494  46.758  53.303  1.00  0.00     0.054 A 
ATOM     22  C   UNL     1       8.641  46.315  51.510  1.00  0.00     0.014 A 
ATOM     23  C   UNL     1       7.824  46.997  53.669  1.00  0.00     0.067 A 
ATOM     24  C   UNL     1       8.893  46.785  52.808  1.00  0.00     0.020 A 
ATOM     25  N   UNL     1       8.384  47.449  54.835  1.00  0.00    -0.278 N 
ATOM     26  C   UNL     1      10.031  47.146  53.563  1.00  0.00     0.143 A 
ATOM     27  N   UNL     1       9.724  47.551  54.797  1.00  0.00    -0.183 NA
ATOM     28  H   UNL     1       7.906  47.703  55.692  1.00  0.00     0.190 HD
ENDBRANCH  17  19
ENDBRANCH  10  17
ENDBRANCH   1   7
TORSDOF 6
ENDMDL
MODEL 2
REMARK VINA RESULT:    -8.552      1.224      1.324
REMARK INTER + INTRA:         -12.426
REMARK INTER:                 -11.501
REMARK INTRA:                  -0.925
REMARK UNBOUND:                -0.873
REMARK SMILES CCCCNc1nc(Nc2ccc3cn[nH]c3c2)c2cnn(C)c2n1
REMARK SMILES IDX 5 1 4 3 3 4 2 5 1 6 6 7 7 8 25 9 8 10 24 11 19 12 22 13
REMARK SMILES IDX 20 14 21 15 23 16 9 17 10 19 11 20 18 21 12 22 17 23 13 24
REMARK SMILES IDX 16 25 14 26 15 27
REMARK H PARENT 5 2 9 18 16 28
ROOT
ATOM      1  N   UNL     1       4.203  41.289  51.149  1.00  0.00    -0.354 N 
ATOM      2  H   UNL     1       3.606  40.511  51.411  1.00  0.00     0.163 HD
ENDROOT
BRANCH   1   3
ATOM      3  C   UNL     1       4.692  41.270  49.782  1.00  0.00     0.116 C 
BRANCH   3   4
ATOM      4  C   UNL     1       6.181  41.630  49.750  1.00  0.00     0.021 C 
BRANCH   4   5
ATOM      5  C   UNL     1       6.492  43.042  49.245  1.00  0.00    -0.002 C 
ATOM      6  C   UNL     1       7.978  43.361  49.202  1.00  0.00     0.004 C 
ENDBRANCH   4   5
ENDBRANCH   3   4
ENDBRANCH   1   3
BRANCH   1   7
ATOM      7  C   UNL     1       3.508  42.438  51.508  1.00  0.00     0.226 A 
ATOM      8  N   UNL     1       4.255  43.367  52.134  1.00  0.00    -0.195 NA
ATOM      9  N   UNL     1       2.202  42.543  51.225  1.00  0.00    -0.193 NA
ATOM     10  C   UNL     1       3.693  44.535  52.538  1.00  0.00     0.147 A 
ATOM     11  C   UNL     1       1.679  43.717  51.604  1.00  0.00     0.165 A 
ATOM     12  C   UNL     1       2.343  44.743  52.248  1.00  0.00     0.082 A 
ATOM     13  N   UNL     1       0.394  44.152  51.430  1.00  0.00    -0.250 N 
ATOM     14  C   UNL     1       1.369  45.752  52.398  1.00  0.00     0.149 A 
ATOM     15  N   UNL     1       0.173  45.395  51.916  1.00  0.00    -0.179 NA
ATOM     16  C   UNL     1      -0.684  43.437  50.794  1.00  0.00     0.176 C 
BRANCH  10  17
ATOM     17  N   UNL     1       4.536  45.462  53.166  1.00  0.00    -0.339 N 
ATOM     18  H   UNL     1       3.972  46.284  53.376  1.00  0.00     0.168 HD
BRANCH  17  19
ATOM     19  C   UNL     1       5.853  45.831  52.811  1.00  0.00     0.042 A 
ATOM     20  C   UNL     1       6.271  45.957  51.479  1.00  0.00     0.027 A 
ATOM     21  C   UNL     1       6.747  46.137  53.851  1.00  0.00     0.054 A 
ATOM     22  C   UNL     1       7.579  46.349  51.152  1.00  0.00     0.014 A 
ATOM     23  C   UNL     1       8.048  46.524  53.506  1.00  0.00     0.067 A 
ATOM     24  C   UNL     1       8.479  46.633  52.191  1.00  0.00     0.020 A 
ATOM     25  N   UNL     1       9.133  46.862  54.271  1.00  0.00    -0.278 N 
ATOM     26  C   UNL     1       9.826  47.043  52.293  1.00  0.00     0.143 A 
ATOM     27  N   UNL     1      10.227  47.185  53.559  1.00  0.00    -0.183 NA
ATOM     28  H   UNL     1       9.192  46.891  55.282  1.00  0.00     0.190 HD
ENDBRANCH  17  19
ENDBRANCH  10  17
ENDBRANCH   1   7
TORSDOF 6
ENDMDL
MODEL 3
REMARK VINA RESULT:    -8.538      1.936      6.909
REMARK INTER + INTRA:         -12.406
REMARK INTER:                 -11.768
REMARK INTRA:                  -0.638
REMARK UNBOUND:                -0.873
REMARK SMILES CCCCNc1nc(Nc2ccc3cn[nH]c3c2)c2cnn(C)c2n1
REMARK SMILES IDX 5 1 4 3 3 4 2 5 1 6 6 7 7 8 25 9 8 10 24 11 19 12 22 13
REMARK SMILES IDX 20 14 21 15 23 16 9 17 10 19 11 20 18 21 12 22 17 23 13 24
REMARK SMILES IDX 16 25 14 26 15 27
REMARK H PARENT 5 2 9 18 16 28
ROOT
ATOM      1  N   UNL     1       8.752  47.526  51.679  1.00  0.00    -0.354 N 
ATOM      2  H   UNL     1       8.458  48.331  52.224  1.00  0.00     0.163 HD
ENDROOT
BRANCH   1   3
ATOM      3  C   UNL     1       9.964  46.870  52.134  1.00  0.00     0.116 C 
BRANCH   3   4
ATOM      4  C   UNL     1       9.813  46.439  53.596  1.00  0.00     0.021 C 
BRANCH   4   5
ATOM      5  C   UNL     1       9.657  47.590  54.595  1.00  0.00    -0.002 C 
ATOM      6  C   UNL     1      10.644  47.534  55.750  1.00  0.00     0.004 C 
ENDBRANCH   4   5
ENDBRANCH   3   4
ENDBRANCH   1   3
BRANCH   1   7
ATOM      7  C   UNL     1       7.636  46.701  51.591  1.00  0.00     0.226 A 
ATOM      8  N   UNL     1       6.560  47.147  52.267  1.00  0.00    -0.195 NA
ATOM      9  N   UNL     1       7.699  45.569  50.876  1.00  0.00    -0.193 NA
ATOM     10  C   UNL     1       5.408  46.429  52.262  1.00  0.00     0.147 A 
ATOM     11  C   UNL     1       6.540  44.897  50.861  1.00  0.00     0.165 A 
ATOM     12  C   UNL     1       5.375  45.254  51.510  1.00  0.00     0.082 A 
ATOM     13  N   UNL     1       6.261  43.732  50.200  1.00  0.00    -0.250 N 
ATOM     14  C   UNL     1       4.454  44.245  51.158  1.00  0.00     0.149 A 
ATOM     15  N   UNL     1       4.989  43.304  50.372  1.00  0.00    -0.179 NA
ATOM     16  C   UNL     1       7.159  42.971  49.369  1.00  0.00     0.176 C 
BRANCH  10  17
ATOM     17  N   UNL     1       4.323  46.964  52.973  1.00  0.00    -0.339 N 
ATOM     18  H   UNL     1       4.700  47.663  53.611  1.00  0.00     0.168 HD
BRANCH  17  19
ATOM     19  C   UNL     1       3.237  46.280  53.560  1.00  0.00     0.042 A 
ATOM     20  C   UNL     1       3.308  45.693  54.831  1.00  0.00     0.027 A 
ATOM     21  C   UNL     1       2.025  46.248  52.848  1.00  0.00     0.054 A 
ATOM     22  C   UNL     1       2.205  45.038  55.403  1.00  0.00     0.014 A 
ATOM     23  C   UNL     1       0.937  45.590  53.433  1.00  0.00     0.067 A 
ATOM     24  C   UNL     1       1.002  44.988  54.683  1.00  0.00     0.020 A 
ATOM     25  N   UNL     1      -0.344  45.374  52.995  1.00  0.00    -0.278 N 
ATOM     26  C   UNL     1      -0.290  44.454  54.886  1.00  0.00     0.143 A 
ATOM     27  N   UNL     1      -1.112  44.689  53.860  1.00  0.00    -0.183 NA
ATOM     28  H   UNL     1      -0.754  45.669  52.117  1.00  0.00     0.190 HD
ENDBRANCH  17  19
ENDBRANCH  10  17
ENDBRANCH   1   7
TORSDOF 6
ENDMDL
MODEL 4
REMARK VINA RESULT:    -8.501      1.966      2.681
REMARK INTER + INTRA:         -12.356
REMARK INTER:                 -11.862
REMARK INTRA:                  -0.495
REMARK UNBOUND:                -0.873
REMARK SMILES CCCCNc1nc(Nc2ccc3cn[nH]c3c2)c2cnn(C)c2n1
REMARK SMILES IDX 5 1 4 3 3 4 2 5 1 6 6 7 7 8 25 9 8 10 24 11 19 12 22 13
REMARK SMILES IDX 20 14 21 15 23 16 9 17 10 19 11 20 18 21 12 22 17 23 13 24
REMARK SMILES IDX 16 25 14 26 15 27
REMARK H PARENT 5 2 9 18 16 28
ROOT
ATOM      1  N   UNL     1       5.940  41.220  48.760  1.00  0.00    -0.354 N 
ATOM      2  H   UNL     1       6.013  40.369  49.308  1.00  0.00     0.163 HD
ENDROOT
BRANCH   1   3
ATOM      3  C   UNL     1       5.097  41.136  47.581  1.00  0.00     0.116 C 
BRANCH   3   4
ATOM      4  C   UNL     1       5.714  41.943  46.434  1.00  0.00     0.021 C 
BRANCH   4   5
ATOM      5  C   UNL     1       4.925  41.904  45.122  1.00  0.00    -0.002 C 
ATOM      6  C   UNL     1       5.310  40.748  44.213  1.00  0.00     0.004 C 
ENDBRANCH   4   5
ENDBRANCH   3   4
ENDBRANCH   1   3
BRANCH   1   7
ATOM      7  C   UNL     1       5.590  42.220  49.661  1.00  0.00     0.226 A 
ATOM      8  N   UNL     1       6.417  43.283  49.661  1.00  0.00    -0.195 NA
ATOM      9  N   UNL     1       4.507  42.070  50.437  1.00  0.00    -0.193 NA
ATOM     10  C   UNL     1       6.185  44.326  50.498  1.00  0.00     0.147 A 
ATOM     11  C   UNL     1       4.282  43.127  51.229  1.00  0.00     0.165 A 
ATOM     12  C   UNL     1       5.054  44.269  51.314  1.00  0.00     0.082 A 
ATOM     13  N   UNL     1       3.248  43.306  52.106  1.00  0.00    -0.250 N 
ATOM     14  C   UNL     1       4.385  45.075  52.258  1.00  0.00     0.149 A 
ATOM     15  N   UNL     1       3.291  44.491  52.759  1.00  0.00    -0.179 NA
ATOM     16  C   UNL     1       2.167  42.390  52.369  1.00  0.00     0.176 C 
BRANCH  10  17
ATOM     17  N   UNL     1       7.078  45.406  50.429  1.00  0.00    -0.339 N 
ATOM     18  H   UNL     1       7.501  45.385  49.502  1.00  0.00     0.168 HD
BRANCH  17  19
ATOM     19  C   UNL     1       8.010  45.837  51.399  1.00  0.00     0.042 A 
ATOM     20  C   UNL     1       9.396  45.727  51.220  1.00  0.00     0.027 A 
ATOM     21  C   UNL     1       7.506  46.451  52.559  1.00  0.00     0.054 A 
ATOM     22  C   UNL     1      10.302  46.185  52.190  1.00  0.00     0.014 A 
ATOM     23  C   UNL     1       8.424  46.900  53.516  1.00  0.00     0.067 A 
ATOM     24  C   UNL     1       9.798  46.778  53.358  1.00  0.00     0.020 A 
ATOM     25  N   UNL     1       8.253  47.508  54.731  1.00  0.00    -0.278 N 
ATOM     26  C   UNL     1      10.341  47.348  54.531  1.00  0.00     0.143 A 
ATOM     27  N   UNL     1       9.401  47.795  55.369  1.00  0.00    -0.183 NA
ATOM     28  H   UNL     1       7.379  47.755  55.181  1.00  0.00     0.190 HD
ENDBRANCH  17  19
ENDBRANCH  10  17
ENDBRANCH   1   7
TORSDOF 6
ENDMDL
MODEL 5
REMARK VINA RESULT:    -8.412      1.835      6.846
REMARK INTER + INTRA:         -12.237
REMARK INTER:                 -11.434
REMARK INTRA:                  -0.802
REMARK UNBOUND:                -0.873
REMARK SMILES CCCCNc1nc(Nc2ccc3cn[nH]c3c2)c2cnn(C)c2n1
REMARK SMILES IDX 5 1 4 3 3 4 2 5 1 6 6 7 7 8 25 9 8 10 24 11 19 12 22 13
REMARK SMILES IDX 20 14 21 15 23 16 9 17 10 19 11 20 18 21 12 22 17 23 13 24
REMARK SMILES IDX 16 25 14 26 15 27
REMARK H PARENT 5 2 9 18 16 28
ROOT
ATOM      1  N   UNL     1       4.810  47.023  54.943  1.00  0.00    -0.354 N 
ATOM      2  H   UNL     1       4.206  47.576  54.344  1.00  0.00     0.163 HD
ENDROOT
BRANCH   1   3
ATOM      3  C   UNL     1       4.250  45.769  55.412  1.00  0.00     0.116 C 
BRANCH   3   4
ATOM      4  C   UNL     1       2.813  45.612  54.904  1.00  0.00     0.021 C 
BRANCH   4   5
ATOM      5  C   UNL     1       2.689  45.244  53.422  1.00  0.00    -0.002 C 
ATOM      6  C   UNL     1       2.060  46.337  52.574  1.00  0.00     0.004 C 
ENDBRANCH   4   5
ENDBRANCH   3   4
ENDBRANCH   1   3
BRANCH   1   7
ATOM      7  C   UNL     1       6.017  46.908  54.261  1.00  0.00     0.226 A 
ATOM      8  N   UNL     1       5.898  46.486  52.988  1.00  0.00    -0.195 NA
ATOM      9  N   UNL     1       7.166  47.205  54.884  1.00  0.00    -0.193 NA
ATOM     10  C   UNL     1       7.003  46.330  52.216  1.00  0.00     0.147 A 
ATOM     11  C   UNL     1       8.238  47.074  54.091  1.00  0.00     0.165 A 
ATOM     12  C   UNL     1       8.240  46.655  52.775  1.00  0.00     0.082 A 
ATOM     13  N   UNL     1       9.544  47.333  54.406  1.00  0.00    -0.250 N 
ATOM     14  C   UNL     1       9.596  46.715  52.390  1.00  0.00     0.149 A 
ATOM     15  N   UNL     1      10.401  47.112  53.382  1.00  0.00    -0.179 NA
ATOM     16  C   UNL     1      10.053  47.808  55.667  1.00  0.00     0.176 C 
BRANCH  10  17
ATOM     17  N   UNL     1       6.801  45.905  50.894  1.00  0.00    -0.339 N 
ATOM     18  H   UNL     1       6.264  46.634  50.426  1.00  0.00     0.168 HD
BRANCH  17  19
ATOM     19  C   UNL     1       6.422  44.625  50.433  1.00  0.00     0.042 A 
ATOM     20  C   UNL     1       7.206  43.878  49.542  1.00  0.00     0.027 A 
ATOM     21  C   UNL     1       5.237  44.071  50.947  1.00  0.00     0.054 A 
ATOM     22  C   UNL     1       6.820  42.597  49.118  1.00  0.00     0.014 A 
ATOM     23  C   UNL     1       4.867  42.793  50.511  1.00  0.00     0.067 A 
ATOM     24  C   UNL     1       5.625  42.053  49.614  1.00  0.00     0.020 A 
ATOM     25  N   UNL     1       3.784  42.006  50.805  1.00  0.00    -0.278 N 
ATOM     26  C   UNL     1       4.904  40.849  49.451  1.00  0.00     0.143 A 
ATOM     27  N   UNL     1       3.783  40.817  50.177  1.00  0.00    -0.183 NA
ATOM     28  H   UNL     1       3.013  42.222  51.425  1.00  0.00     0.190 HD
ENDBRANCH  17  19
ENDBRANCH  10  17
ENDBRANCH   1   7
TORSDOF 6
ENDMDL
MODEL 6
REMARK VINA RESULT:    -8.385      0.993      1.403
REMARK INTER + INTRA:         -12.199
REMARK INTER:                 -11.307
REMARK INTRA:                  -0.892
REMARK UNBOUND:                -0.873
REMARK SMILES CCCCNc1nc(Nc2ccc3cn[nH]c3c2)c2cnn(C)c2n1
REMARK SMILES IDX 5 1 4 3 3 4 2 5 1 6 6 7 7 8 25 9 8 10 24 11 19 12 22 13
REMARK SMILES IDX 20 14 21 15 23 16 9 17 10 19 11 20 18 21 12 22 17 23 13 24
REMARK SMILES IDX 16 25 14 26 15 27
REMARK H PARENT 5 2 9 18 16 28
ROOT
ATOM      1  N   UNL     1       4.187  41.432  51.286  1.00  0.00    -0.354 N 
ATOM      2  H   UNL     1       3.996  40.690  51.950  1.00  0.00     0.163 HD
ENDROOT
BRANCH   1   3
ATOM      3  C   UNL     1       3.854  41.137  49.904  1.00  0.00     0.116 C 
BRANCH   3   4
ATOM      4  C   UNL     1       5.120  41.155  49.041  1.00  0.00     0.021 C 
BRANCH   4   5
ATOM      5  C   UNL     1       6.412  41.478  49.798  1.00  0.00    -0.002 C 
ATOM      6  C   UNL     1       7.000  42.836  49.449  1.00  0.00     0.004 C 
ENDBRANCH   4   5
ENDBRANCH   3   4
ENDBRANCH   1   3
BRANCH   1   7
ATOM      7  C   UNL     1       3.581  42.571  51.805  1.00  0.00     0.226 A 
ATOM      8  N   UNL     1       4.294  43.702  51.648  1.00  0.00    -0.195 NA
ATOM      9  N   UNL     1       2.385  42.475  52.403  1.00  0.00    -0.193 NA
ATOM     10  C   UNL     1       3.812  44.882  52.114  1.00  0.00     0.147 A 
ATOM     11  C   UNL     1       1.917  43.658  52.824  1.00  0.00     0.165 A 
ATOM     12  C   UNL     1       2.553  44.879  52.717  1.00  0.00     0.082 A 
ATOM     13  N   UNL     1       0.719  43.910  53.436  1.00  0.00    -0.250 N 
ATOM     14  C   UNL     1       1.644  45.799  53.279  1.00  0.00     0.149 A 
ATOM     15  N   UNL     1       0.529  45.216  53.735  1.00  0.00    -0.179 NA
ATOM     16  C   UNL     1      -0.307  42.951  53.759  1.00  0.00     0.176 C 
BRANCH  10  17
ATOM     17  N   UNL     1       4.601  46.021  51.898  1.00  0.00    -0.339 N 
ATOM     18  H   UNL     1       4.540  46.242  50.906  1.00  0.00     0.168 HD
BRANCH  17  19
ATOM     19  C   UNL     1       5.892  46.301  52.398  1.00  0.00     0.042 A 
ATOM     20  C   UNL     1       6.115  46.772  53.699  1.00  0.00     0.027 A 
ATOM     21  C   UNL     1       6.988  46.032  51.560  1.00  0.00     0.054 A 
ATOM     22  C   UNL     1       7.411  47.019  54.181  1.00  0.00     0.014 A 
ATOM     23  C   UNL     1       8.272  46.286  52.056  1.00  0.00     0.067 A 
ATOM     24  C   UNL     1       8.504  46.772  53.336  1.00  0.00     0.020 A 
ATOM     25  N   UNL     1       9.514  46.148  51.492  1.00  0.00    -0.278 N 
ATOM     26  C   UNL     1       9.910  46.880  53.425  1.00  0.00     0.143 A 
ATOM     27  N   UNL     1      10.527  46.500  52.303  1.00  0.00    -0.183 NA
ATOM     28  H   UNL     1       9.736  45.821  50.560  1.00  0.00     0.190 HD
ENDBRANCH  17  19
ENDBRANCH  10  17
ENDBRANCH   1   7
TORSDOF 6
ENDMDL
MODEL 7
REMARK VINA RESULT:    -8.375      1.608      4.247
REMARK INTER + INTRA:         -12.186
REMARK INTER:                 -11.325
REMARK INTRA:                  -0.861
REMARK UNBOUND:                -0.873
REMARK SMILES CCCCNc1nc(Nc2ccc3cn[nH]c3c2)c2cnn(C)c2n1
REMARK SMILES IDX 5 1 4 3 3 4 2 5 1 6 6 7 7 8 25 9 8 10 24 11 19 12 22 13
REMARK SMILES IDX 20 14 21 15 23 16 9 17 10 19 11 20 18 21 12 22 17 23 13 24
REMARK SMILES IDX 16 25 14 26 15 27
REMARK H PARENT 5 2 9 18 16 28
ROOT
ATOM      1  N   UNL     1       3.065  44.775  52.924  1.00  0.00    -0.354 N 
ATOM      2  H   UNL     1       2.994  44.049  53.629  1.00  0.00     0.163 HD
ENDROOT
BRANCH   1   3
ATOM      3  C   UNL     1       3.392  46.100  53.421  1.00  0.00     0.116 C 
BRANCH   3   4
ATOM      4  C   UNL     1       3.673  46.043  54.926  1.00  0.00     0.021 C 
BRANCH   4   5
ATOM      5  C   UNL     1       5.156  45.973  55.303  1.00  0.00    -0.002 C 
ATOM      6  C   UNL     1       5.728  44.564  55.267  1.00  0.00     0.004 C 
ENDBRANCH   4   5
ENDBRANCH   3   4
ENDBRANCH   1   3
BRANCH   1   7
ATOM      7  C   UNL     1       3.933  44.281  51.957  1.00  0.00     0.226 A 
ATOM      8  N   UNL     1       4.998  45.067  51.711  1.00  0.00    -0.195 NA
ATOM      9  N   UNL     1       3.666  43.113  51.356  1.00  0.00    -0.193 NA
ATOM     10  C   UNL     1       5.919  44.697  50.785  1.00  0.00     0.147 A 
ATOM     11  C   UNL     1       4.607  42.755  50.471  1.00  0.00     0.165 A 
ATOM     12  C   UNL     1       5.738  43.473  50.139  1.00  0.00     0.082 A 
ATOM     13  N   UNL     1       4.654  41.611  49.722  1.00  0.00    -0.250 N 
ATOM     14  C   UNL     1       6.404  42.663  49.196  1.00  0.00     0.149 A 
ATOM     15  N   UNL     1       5.743  41.533  48.922  1.00  0.00    -0.179 NA
ATOM     16  C   UNL     1       3.696  40.535  49.724  1.00  0.00     0.176 C 
BRANCH  10  17
ATOM     17  N   UNL     1       7.012  45.557  50.597  1.00  0.00    -0.339 N 
ATOM     18  H   UNL     1       7.451  45.292  49.717  1.00  0.00     0.168 HD
BRANCH  17  19
ATOM     19  C   UNL     1       7.979  45.964  51.542  1.00  0.00     0.042 A 
ATOM     20  C   UNL     1       9.356  45.809  51.332  1.00  0.00     0.027 A 
ATOM     21  C   UNL     1       7.522  46.603  52.708  1.00  0.00     0.054 A 
ATOM     22  C   UNL     1      10.299  46.245  52.277  1.00  0.00     0.014 A 
ATOM     23  C   UNL     1       8.477  47.030  53.639  1.00  0.00     0.067 A 
ATOM     24  C   UNL     1       9.842  46.862  53.451  1.00  0.00     0.020 A 
ATOM     25  N   UNL     1       8.353  47.653  54.853  1.00  0.00    -0.278 N 
ATOM     26  C   UNL     1      10.430  47.424  54.606  1.00  0.00     0.143 A 
ATOM     27  N   UNL     1       9.525  47.907  55.462  1.00  0.00    -0.183 NA
ATOM     28  H   UNL     1       7.499  47.931  55.321  1.00  0.00     0.190 HD
ENDBRANCH  17  19
ENDBRANCH  10  17
ENDBRANCH   1   7
TORSDOF 6
ENDMDL
MODEL 8
REMARK VINA RESULT:    -8.363      1.918      7.355
REMARK INTER + INTRA:         -12.170
REMARK INTER:                 -11.289
REMARK INTRA:                  -0.881
REMARK UNBOUND:                -0.873
REMARK SMILES CCCCNc1nc(Nc2ccc3cn[nH]c3c2)c2cnn(C)c2n1
REMARK SMILES IDX 5 1 4 3 3 4 2 5 1 6 6 7 7 8 25 9 8 10 24 11 19 12 22 13
REMARK SMILES IDX 20 14 21 15 23 16 9 17 10 19 11 20 18 21 12 22 17 23 13 24
REMARK SMILES IDX 16 25 14 26 15 27
REMARK H PARENT 5 2 9 18 16 28
ROOT
ATOM      1  N   UNL     1       6.691  47.577  52.555  1.00  0.00    -0.354 N 
ATOM      2  H   UNL     1       6.476  47.651  53.544  1.00  0.00     0.163 HD
ENDROOT
BRANCH   1   3
ATOM      3  C   UNL     1       8.051  47.919  52.183  1.00  0.00     0.116 C 
BRANCH   3   4
ATOM      4  C   UNL     1       8.980  47.785  53.394  1.00  0.00     0.021 C 
BRANCH   4   5
ATOM      5  C   UNL     1       9.921  46.577  53.354  1.00  0.00    -0.002 C 
ATOM      6  C   UNL     1      10.323  46.163  51.948  1.00  0.00     0.004 C 
ENDBRANCH   4   5
ENDBRANCH   3   4
ENDBRANCH   1   3
BRANCH   1   7
ATOM      7  C   UNL     1       6.282  46.303  52.174  1.00  0.00     0.226 A 
ATOM      8  N   UNL     1       5.274  45.799  52.911  1.00  0.00    -0.195 NA
ATOM      9  N   UNL     1       6.888  45.688  51.149  1.00  0.00    -0.193 NA
ATOM     10  C   UNL     1       4.786  44.562  52.641  1.00  0.00     0.147 A 
ATOM     11  C   UNL     1       6.365  44.483  50.882  1.00  0.00     0.165 A 
ATOM     12  C   UNL     1       5.335  43.865  51.563  1.00  0.00     0.082 A 
ATOM     13  N   UNL     1       6.728  43.620  49.884  1.00  0.00    -0.250 N 
ATOM     14  C   UNL     1       5.146  42.645  50.881  1.00  0.00     0.149 A 
ATOM     15  N   UNL     1       6.001  42.478  49.866  1.00  0.00    -0.179 NA
ATOM     16  C   UNL     1       7.756  43.822  48.896  1.00  0.00     0.176 C 
BRANCH  10  17
ATOM     17  N   UNL     1       3.724  44.110  53.438  1.00  0.00    -0.339 N 
ATOM     18  H   UNL     1       4.045  43.267  53.912  1.00  0.00     0.168 HD
BRANCH  17  19
ATOM     19  C   UNL     1       2.356  44.010  53.101  1.00  0.00     0.042 A 
ATOM     20  C   UNL     1       1.593  45.113  52.694  1.00  0.00     0.027 A 
ATOM     21  C   UNL     1       1.771  42.732  53.126  1.00  0.00     0.054 A 
ATOM     22  C   UNL     1       0.240  44.983  52.341  1.00  0.00     0.014 A 
ATOM     23  C   UNL     1       0.421  42.621  52.772  1.00  0.00     0.067 A 
ATOM     24  C   UNL     1      -0.350  43.710  52.387  1.00  0.00     0.020 A 
ATOM     25  N   UNL     1      -0.424  41.543  52.715  1.00  0.00    -0.278 N 
ATOM     26  C   UNL     1      -1.626  43.164  52.122  1.00  0.00     0.143 A 
ATOM     27  N   UNL     1      -1.673  41.844  52.320  1.00  0.00    -0.183 NA
ATOM     28  H   UNL     1      -0.208  40.578  52.933  1.00  0.00     0.190 HD
ENDBRANCH  17  19
ENDBRANCH  10  17
ENDBRANCH   1   7
TORSDOF 6
ENDMDL
MODEL 9
REMARK VINA RESULT:    -8.303      1.804      7.244
REMARK INTER + INTRA:         -12.088
REMARK INTER:                 -11.299
REMARK INTRA:                  -0.789
REMARK UNBOUND:                -0.873
REMARK SMILES CCCCNc1nc(Nc2ccc3cn[nH]c3c2)c2cnn(C)c2n1
REMARK SMILES IDX 5 1 4 3 3 4 2 5 1 6 6 7 7 8 25 9 8 10 24 11 19 12 22 13
REMARK SMILES IDX 20 14 21 15 23 16 9 17 10 19 11 20 18 21 12 22 17 23 13 24
REMARK SMILES IDX 16 25 14 26 15 27
REMARK H PARENT 5 2 9 18 16 28
ROOT
ATOM      1  N   UNL     1       6.454  47.216  52.473  1.00  0.00    -0.354 N 
ATOM      2  H   UNL     1       6.376  47.362  53.474  1.00  0.00     0.163 HD
ENDROOT
BRANCH   1   3
ATOM      3  C   UNL     1       7.779  47.407  51.913  1.00  0.00     0.116 C 
BRANCH   3   4
ATOM      4  C   UNL     1       8.768  47.789  53.018  1.00  0.00     0.021 C 
BRANCH   4   5
ATOM      5  C   UNL     1       9.945  46.823  53.194  1.00  0.00    -0.002 C 
ATOM      6  C   UNL     1      10.331  46.095  51.917  1.00  0.00     0.004 C 
ENDBRANCH   4   5
ENDBRANCH   3   4
ENDBRANCH   1   3
BRANCH   1   7
ATOM      7  C   UNL     1       5.886  45.971  52.226  1.00  0.00     0.226 A 
ATOM      8  N   UNL     1       4.878  45.645  53.057  1.00  0.00    -0.195 NA
ATOM      9  N   UNL     1       6.357  45.209  51.229  1.00  0.00    -0.193 NA
ATOM     10  C   UNL     1       4.243  44.453  52.923  1.00  0.00     0.147 A 
ATOM     11  C   UNL     1       5.692  44.053  51.097  1.00  0.00     0.165 A 
ATOM     12  C   UNL     1       4.646  43.613  51.883  1.00  0.00     0.082 A 
ATOM     13  N   UNL     1       5.897  43.076  50.161  1.00  0.00    -0.250 N 
ATOM     14  C   UNL     1       4.284  42.370  51.322  1.00  0.00     0.149 A 
ATOM     15  N   UNL     1       5.052  42.026  50.282  1.00  0.00    -0.179 NA
ATOM     16  C   UNL     1       6.878  43.080  49.106  1.00  0.00     0.176 C 
BRANCH  10  17
ATOM     17  N   UNL     1       3.190  44.190  53.812  1.00  0.00    -0.339 N 
ATOM     18  H   UNL     1       3.536  43.515  54.492  1.00  0.00     0.168 HD
BRANCH  17  19
ATOM     19  C   UNL     1       1.830  43.954  53.514  1.00  0.00     0.042 A 
ATOM     20  C   UNL     1       1.255  42.677  53.556  1.00  0.00     0.027 A 
ATOM     21  C   UNL     1       1.024  45.069  53.224  1.00  0.00     0.054 A 
ATOM     22  C   UNL     1      -0.107  42.472  53.279  1.00  0.00     0.014 A 
ATOM     23  C   UNL     1      -0.330  44.846  52.949  1.00  0.00     0.067 A 
ATOM     24  C   UNL     1      -0.906  43.582  52.967  1.00  0.00     0.020 A 
ATOM     25  N   UNL     1      -1.349  45.702  52.620  1.00  0.00    -0.278 N 
ATOM     26  C   UNL     1      -2.262  43.807  52.642  1.00  0.00     0.143 A 
ATOM     27  N   UNL     1      -2.535  45.098  52.431  1.00  0.00    -0.183 NA
ATOM     28  H   UNL     1      -1.299  46.708  52.509  1.00  0.00     0.190 HD
ENDBRANCH  17  19
ENDBRANCH  10  17
ENDBRANCH   1   7
TORSDOF 6
ENDMDL
MODEL 10
REMARK VINA RESULT:    -8.296      2.690      7.454
REMARK INTER + INTRA:         -12.080
REMARK INTER:                 -11.392
REMARK INTRA:                  -0.688
REMARK UNBOUND:                -0.873
REMARK SMILES CCCCNc1nc(Nc2ccc3cn[nH]c3c2)c2cnn(C)c2n1
REMARK SMILES IDX 5 1 4 3 3 4 2 5 1 6 6 7 7 8 25 9 8 10 24 11 19 12 22 13
REMARK SMILES IDX 20 14 21 15 23 16 9 17 10 19 11 20 18 21 12 22 17 23 13 24
REMARK SMILES IDX 16 25 14 26 15 27
REMARK H PARENT 5 2 9 18 16 28
ROOT
ATOM      1  N   UNL     1       7.487  45.868  50.801  1.00  0.00    -0.354 N 
ATOM      2  H   UNL     1       7.365  46.284  49.883  1.00  0.00     0.163 HD
ENDROOT
BRANCH   1   3
ATOM      3  C   UNL     1       7.515  46.801  51.913  1.00  0.00     0.116 C 
BRANCH   3   4
ATOM      4  C   UNL     1       8.856  47.541  51.947  1.00  0.00     0.021 C 
BRANCH   4   5
ATOM      5  C   UNL     1       9.966  46.829  52.725  1.00  0.00    -0.002 C 
ATOM      6  C   UNL     1       9.918  47.079  54.224  1.00  0.00     0.004 C 
ENDBRANCH   4   5
ENDBRANCH   3   4
ENDBRANCH   1   3
BRANCH   1   7
ATOM      7  C   UNL     1       6.523  44.871  50.896  1.00  0.00     0.226 A 
ATOM      8  N   UNL     1       6.697  43.846  50.040  1.00  0.00    -0.195 NA
ATOM      9  N   UNL     1       5.528  44.988  51.787  1.00  0.00    -0.193 NA
ATOM     10  C   UNL     1       5.820  42.810  50.032  1.00  0.00     0.147 A 
ATOM     11  C   UNL     1       4.697  43.937  51.781  1.00  0.00     0.165 A 
ATOM     12  C   UNL     1       4.774  42.833  50.956  1.00  0.00     0.082 A 
ATOM     13  N   UNL     1       3.611  43.730  52.587  1.00  0.00    -0.250 N 
ATOM     14  C   UNL     1       3.699  42.016  51.361  1.00  0.00     0.149 A 
ATOM     15  N   UNL     1       2.973  42.561  52.345  1.00  0.00    -0.179 NA
ATOM     16  C   UNL     1       3.124  44.601  53.626  1.00  0.00     0.176 C 
BRANCH  10  17
ATOM     17  N   UNL     1       6.075  41.769  49.126  1.00  0.00    -0.339 N 
ATOM     18  H   UNL     1       7.084  41.733  48.990  1.00  0.00     0.168 HD
BRANCH  17  19
ATOM     19  C   UNL     1       5.392  41.462  47.928  1.00  0.00     0.042 A 
ATOM     20  C   UNL     1       5.782  41.972  46.682  1.00  0.00     0.027 A 
ATOM     21  C   UNL     1       4.317  40.561  48.004  1.00  0.00     0.054 A 
ATOM     22  C   UNL     1       5.101  41.632  45.502  1.00  0.00     0.014 A 
ATOM     23  C   UNL     1       3.649  40.235  46.818  1.00  0.00     0.067 A 
ATOM     24  C   UNL     1       4.014  40.749  45.581  1.00  0.00     0.020 A 
ATOM     25  N   UNL     1       2.576  39.420  46.568  1.00  0.00    -0.278 N 
ATOM     26  C   UNL     1       3.097  40.172  44.674  1.00  0.00     0.143 A 
ATOM     27  N   UNL     1       2.221  39.361  45.272  1.00  0.00    -0.183 NA
ATOM     28  H   UNL     1       2.043  38.877  47.237  1.00  0.00     0.190 HD
ENDBRANCH  17  19
ENDBRANCH  10  17
ENDBRANCH   1   7
TORSDOF 6
ENDMDL
MODEL 11
REMARK VINA RESULT:    -8.260      2.176      6.690
REMARK INTER + INTRA:         -12.030
REMARK INTER:                 -11.746
REMARK INTRA:                  -0.284
REMARK UNBOUND:                -0.873
REMARK SMILES CCCCNc1nc(Nc2ccc3cn[nH]c3c2)c2cnn(C)c2n1
REMARK SMILES IDX 5 1 4 3 3 4 2 5 1 6 6 7 7 8 25 9 8 10 24 11 19 12 22 13
REMARK SMILES IDX 20 14 21 15 23 16 9 17 10 19 11 20 18 21 12 22 17 23 13 24
REMARK SMILES IDX 16 25 14 26 15 27
REMARK H PARENT 5 2 9 18 16 28
ROOT
ATOM      1  N   UNL     1       5.478  46.864  52.797  1.00  0.00    -0.354 N 
ATOM      2  H   UNL     1       4.659  47.244  53.259  1.00  0.00     0.163 HD
ENDROOT
BRANCH   1   3
ATOM      3  C   UNL     1       6.718  46.955  53.547  1.00  0.00     0.116 C 
BRANCH   3   4
ATOM      4  C   UNL     1       7.778  47.695  52.724  1.00  0.00     0.021 C 
BRANCH   4   5
ATOM      5  C   UNL     1       9.223  47.468  53.180  1.00  0.00    -0.002 C 
ATOM      6  C   UNL     1       9.976  46.453  52.336  1.00  0.00     0.004 C 
ENDBRANCH   4   5
ENDBRANCH   3   4
ENDBRANCH   1   3
BRANCH   1   7
ATOM      7  C   UNL     1       5.126  45.578  52.401  1.00  0.00     0.226 A 
ATOM      8  N   UNL     1       4.040  45.082  53.023  1.00  0.00    -0.195 NA
ATOM      9  N   UNL     1       5.856  44.944  51.472  1.00  0.00    -0.193 NA
ATOM     10  C   UNL     1       3.596  43.834  52.725  1.00  0.00     0.147 A 
ATOM     11  C   UNL     1       5.377  43.729  51.173  1.00  0.00     0.165 A 
ATOM     12  C   UNL     1       4.276  43.117  51.739  1.00  0.00     0.082 A 
ATOM     13  N   UNL     1       5.863  42.846  50.248  1.00  0.00    -0.250 N 
ATOM     14  C   UNL     1       4.179  41.880  51.071  1.00  0.00     0.149 A 
ATOM     15  N   UNL     1       5.152  41.697  50.170  1.00  0.00    -0.179 NA
ATOM     16  C   UNL     1       7.003  43.034  49.387  1.00  0.00     0.176 C 
BRANCH  10  17
ATOM     17  N   UNL     1       2.448  43.391  53.399  1.00  0.00    -0.339 N 
ATOM     18  H   UNL     1       1.899  42.853  52.732  1.00  0.00     0.168 HD
BRANCH  17  19
ATOM     19  C   UNL     1       1.609  44.119  54.272  1.00  0.00     0.042 A 
ATOM     20  C   UNL     1       0.226  44.233  54.074  1.00  0.00     0.027 A 
ATOM     21  C   UNL     1       2.197  44.694  55.412  1.00  0.00     0.054 A 
ATOM     22  C   UNL     1      -0.590  44.941  54.971  1.00  0.00     0.014 A 
ATOM     23  C   UNL     1       1.368  45.398  56.294  1.00  0.00     0.067 A 
ATOM     24  C   UNL     1       0.000  45.535  56.097  1.00  0.00     0.020 A 
ATOM     25  N   UNL     1       1.635  46.072  57.457  1.00  0.00    -0.278 N 
ATOM     26  C   UNL     1      -0.441  46.300  57.199  1.00  0.00     0.143 A 
ATOM     27  N   UNL     1       0.553  46.628  58.030  1.00  0.00    -0.183 NA
ATOM     28  H   UNL     1       2.533  46.190  57.911  1.00  0.00     0.190 HD
ENDBRANCH  17  19
ENDBRANCH  10  17
ENDBRANCH   1   7
TORSDOF 6
ENDMDL
MODEL 12
REMARK VINA RESULT:    -8.124      1.882      6.486
REMARK INTER + INTRA:         -11.847
REMARK INTER:                 -11.158
REMARK INTRA:                  -0.689
REMARK UNBOUND:                -0.873
REMARK SMILES CCCCNc1nc(Nc2ccc3cn[nH]c3c2)c2cnn(C)c2n1
REMARK SMILES IDX 5 1 4 3 3 4 2 5 1 6 6 7 7 8 25 9 8 10 24 11 19 12 22 13
REMARK SMILES IDX 20 14 21 15 23 16 9 17 10 19 11 20 18 21 12 22 17 23 13 24
REMARK SMILES IDX 16 25 14 26 15 27
REMARK H PARENT 5 2 9 18 16 28
ROOT
ATOM      1  N   UNL     1       6.675  46.485  51.574  1.00  0.00    -0.354 N 
ATOM      2  H   UNL     1       6.525  46.845  52.511  1.00  0.00     0.163 HD
ENDROOT
BRANCH   1   3
ATOM      3  C   UNL     1       8.047  46.142  51.248  1.00  0.00     0.116 C 
BRANCH   3   4
ATOM      4  C   UNL     1       8.993  47.254  51.712  1.00  0.00     0.021 C 
BRANCH   4   5
ATOM      5  C   UNL     1       9.908  46.877  52.881  1.00  0.00    -0.002 C 
ATOM      6  C   UNL     1       9.518  47.532  54.196  1.00  0.00     0.004 C 
ENDBRANCH   4   5
ENDBRANCH   3   4
ENDBRANCH   1   3
BRANCH   1   7
ATOM      7  C   UNL     1       5.758  45.452  51.415  1.00  0.00     0.226 A 
ATOM      8  N   UNL     1       4.482  45.795  51.677  1.00  0.00    -0.195 NA
ATOM      9  N   UNL     1       6.181  44.239  51.032  1.00  0.00    -0.193 NA
ATOM     10  C   UNL     1       3.492  44.874  51.561  1.00  0.00     0.147 A 
ATOM     11  C   UNL     1       5.180  43.358  50.893  1.00  0.00     0.165 A 
ATOM     12  C   UNL     1       3.840  43.593  51.129  1.00  0.00     0.082 A 
ATOM     13  N   UNL     1       5.268  42.056  50.483  1.00  0.00    -0.250 N 
ATOM     14  C   UNL     1       3.209  42.372  50.814  1.00  0.00     0.149 A 
ATOM     15  N   UNL     1       4.073  41.423  50.434  1.00  0.00    -0.179 NA
ATOM     16  C   UNL     1       6.463  41.344  50.107  1.00  0.00     0.176 C 
BRANCH  10  17
ATOM     17  N   UNL     1       2.186  45.308  51.833  1.00  0.00    -0.339 N 
ATOM     18  H   UNL     1       2.105  46.255  51.468  1.00  0.00     0.168 HD
BRANCH  17  19
ATOM     19  C   UNL     1       1.444  45.160  53.025  1.00  0.00     0.042 A 
ATOM     20  C   UNL     1       0.160  44.598  53.054  1.00  0.00     0.027 A 
ATOM     21  C   UNL     1       2.060  45.545  54.228  1.00  0.00     0.054 A 
ATOM     22  C   UNL     1      -0.548  44.440  54.257  1.00  0.00     0.014 A 
ATOM     23  C   UNL     1       1.339  45.381  55.417  1.00  0.00     0.067 A 
ATOM     24  C   UNL     1       0.059  44.845  55.455  1.00  0.00     0.020 A 
ATOM     25  N   UNL     1       1.648  45.670  56.721  1.00  0.00    -0.278 N 
ATOM     26  C   UNL     1      -0.290  44.858  56.824  1.00  0.00     0.143 A 
ATOM     27  N   UNL     1       0.677  45.360  57.597  1.00  0.00    -0.183 NA
ATOM     28  H   UNL     1       2.504  46.080  57.076  1.00  0.00     0.190 HD
ENDBRANCH  17  19
ENDBRANCH  10  17
ENDBRANCH   1   7
TORSDOF 6
ENDMDL
MODEL 13
REMARK VINA RESULT:    -8.039      1.587      6.326
REMARK INTER + INTRA:         -11.732
REMARK INTER:                 -10.894
REMARK INTRA:                  -0.838
REMARK UNBOUND:                -0.873
REMARK SMILES CCCCNc1nc(Nc2ccc3cn[nH]c3c2)c2cnn(C)c2n1
REMARK SMILES IDX 5 1 4 3 3 4 2 5 1 6 6 7 7 8 25 9 8 10 24 11 19 12 22 13
REMARK SMILES IDX 20 14 21 15 23 16 9 17 10 19 11 20 18 21 12 22 17 23 13 24
REMARK SMILES IDX 16 25 14 26 15 27
REMARK H PARENT 5 2 9 18 16 28
ROOT
ATOM      1  N   UNL     1       7.560  45.143  49.569  1.00  0.00    -0.354 N 
ATOM      2  H   UNL     1       8.240  45.788  49.180  1.00  0.00     0.163 HD
ENDROOT
BRANCH   1   3
ATOM      3  C   UNL     1       7.949  43.744  49.562  1.00  0.00     0.116 C 
BRANCH   3   4
ATOM      4  C   UNL     1       6.798  42.879  49.038  1.00  0.00     0.021 C 
BRANCH   4   5
ATOM      5  C   UNL     1       6.342  41.767  49.988  1.00  0.00    -0.002 C 
ATOM      6  C   UNL     1       4.911  41.313  49.752  1.00  0.00     0.004 C 
ENDBRANCH   4   5
ENDBRANCH   3   4
ENDBRANCH   1   3
BRANCH   1   7
ATOM      7  C   UNL     1       7.227  45.653  50.819  1.00  0.00     0.226 A 
ATOM      8  N   UNL     1       5.905  45.693  51.069  1.00  0.00    -0.195 NA
ATOM      9  N   UNL     1       8.195  46.056  51.655  1.00  0.00    -0.193 NA
ATOM     10  C   UNL     1       5.450  46.173  52.255  1.00  0.00     0.147 A 
ATOM     11  C   UNL     1       7.721  46.494  52.829  1.00  0.00     0.165 A 
ATOM     12  C   UNL     1       6.394  46.579  53.199  1.00  0.00     0.082 A 
ATOM     13  N   UNL     1       8.441  46.937  53.905  1.00  0.00    -0.250 N 
ATOM     14  C   UNL     1       6.429  47.068  54.521  1.00  0.00     0.149 A 
ATOM     15  N   UNL     1       7.672  47.305  54.956  1.00  0.00    -0.179 NA
ATOM     16  C   UNL     1       9.876  47.027  54.009  1.00  0.00     0.176 C 
BRANCH  10  17
ATOM     17  N   UNL     1       4.061  46.167  52.452  1.00  0.00    -0.339 N 
ATOM     18  H   UNL     1       3.852  46.900  53.127  1.00  0.00     0.168 HD
BRANCH  17  19
ATOM     19  C   UNL     1       3.206  45.056  52.631  1.00  0.00     0.042 A 
ATOM     20  C   UNL     1       3.561  43.756  52.245  1.00  0.00     0.027 A 
ATOM     21  C   UNL     1       1.979  45.277  53.279  1.00  0.00     0.054 A 
ATOM     22  C   UNL     1       2.703  42.665  52.457  1.00  0.00     0.014 A 
ATOM     23  C   UNL     1       1.135  44.178  53.481  1.00  0.00     0.067 A 
ATOM     24  C   UNL     1       1.468  42.889  53.084  1.00  0.00     0.020 A 
ATOM     25  N   UNL     1      -0.106  44.071  54.051  1.00  0.00    -0.278 N 
ATOM     26  C   UNL     1       0.360  42.103  53.472  1.00  0.00     0.143 A 
ATOM     27  N   UNL     1      -0.599  42.820  54.062  1.00  0.00    -0.183 NA
ATOM     28  H   UNL     1      -0.668  44.813  54.451  1.00  0.00     0.190 HD
ENDBRANCH  17  19
ENDBRANCH  10  17
ENDBRANCH   1   7
TORSDOF 6
ENDMDL
MODEL 14
REMARK VINA RESULT:    -8.035      1.420      4.199
REMARK INTER + INTRA:         -11.726
REMARK INTER:                 -10.920
REMARK INTRA:                  -0.806
REMARK UNBOUND:                -0.873
REMARK SMILES CCCCNc1nc(Nc2ccc3cn[nH]c3c2)c2cnn(C)c2n1
REMARK SMILES IDX 5 1 4 3 3 4 2 5 1 6 6 7 7 8 25 9 8 10 24 11 19 12 22 13
REMARK SMILES IDX 20 14 21 15 23 16 9 17 10 19 11 20 18 21 12 22 17 23 13 24
REMARK SMILES IDX 16 25 14 26 15 27
REMARK H PARENT 5 2 9 18 16 28
ROOT
ATOM      1  N   UNL     1       2.401  46.156  51.890  1.00  0.00    -0.354 N 
ATOM      2  H   UNL     1       2.194  46.830  51.160  1.00  0.00     0.163 HD
ENDROOT
BRANCH   1   3
ATOM      3  C   UNL     1       1.270  45.376  52.360  1.00  0.00     0.116 C 
BRANCH   3   4
ATOM      4  C   UNL     1       1.281  45.303  53.891  1.00  0.00     0.021 C 
BRANCH   4   5
ATOM      5  C   UNL     1       0.827  43.962  54.476  1.00  0.00    -0.002 C 
ATOM      6  C   UNL     1       1.007  42.790  53.525  1.00  0.00     0.004 C 
ENDBRANCH   4   5
ENDBRANCH   3   4
ENDBRANCH   1   3
BRANCH   1   7
ATOM      7  C   UNL     1       3.475  45.408  51.421  1.00  0.00     0.226 A 
ATOM      8  N   UNL     1       4.621  46.102  51.289  1.00  0.00    -0.195 NA
ATOM      9  N   UNL     1       3.310  44.107  51.141  1.00  0.00    -0.193 NA
ATOM     10  C   UNL     1       5.743  45.486  50.837  1.00  0.00     0.147 A 
ATOM     11  C   UNL     1       4.440  43.515  50.729  1.00  0.00     0.165 A 
ATOM     12  C   UNL     1       5.669  44.120  50.558  1.00  0.00     0.082 A 
ATOM     13  N   UNL     1       4.619  42.199  50.402  1.00  0.00    -0.250 N 
ATOM     14  C   UNL     1       6.520  43.075  50.143  1.00  0.00     0.149 A 
ATOM     15  N   UNL     1       5.885  41.902  50.029  1.00  0.00    -0.179 NA
ATOM     16  C   UNL     1       3.625  41.156  50.431  1.00  0.00     0.176 C 
BRANCH  10  17
ATOM     17  N   UNL     1       6.903  46.268  50.743  1.00  0.00    -0.339 N 
ATOM     18  H   UNL     1       7.304  46.097  49.822  1.00  0.00     0.168 HD
BRANCH  17  19
ATOM     19  C   UNL     1       7.917  46.451  51.709  1.00  0.00     0.042 A 
ATOM     20  C   UNL     1       9.226  45.982  51.532  1.00  0.00     0.027 A 
ATOM     21  C   UNL     1       7.594  47.189  52.861  1.00  0.00     0.054 A 
ATOM     22  C   UNL     1      10.223  46.199  52.497  1.00  0.00     0.014 A 
ATOM     23  C   UNL     1       8.599  47.394  53.813  1.00  0.00     0.067 A 
ATOM     24  C   UNL     1       9.894  46.916  53.658  1.00  0.00     0.020 A 
ATOM     25  N   UNL     1       8.595  48.040  55.022  1.00  0.00    -0.278 N 
ATOM     26  C   UNL     1      10.569  47.338  54.825  1.00  0.00     0.143 A 
ATOM     27  N   UNL     1       9.780  48.024  55.657  1.00  0.00    -0.183 NA
ATOM     28  H   UNL     1       7.817  48.510  55.468  1.00  0.00     0.190 HD
ENDBRANCH  17  19
ENDBRANCH  10  17
ENDBRANCH   1   7
TORSDOF 6
ENDMDL
MODEL 15
REMARK VINA RESULT:    -8.030      2.329      4.764
REMARK INTER + INTRA:         -11.720
REMARK INTER:                 -11.189
REMARK INTRA:                  -0.532
REMARK UNBOUND:                -0.873
REMARK SMILES CCCCNc1nc(Nc2ccc3cn[nH]c3c2)c2cnn(C)c2n1
REMARK SMILES IDX 5 1 4 3 3 4 2 5 1 6 6 7 7 8 25 9 8 10 24 11 19 12 22 13
REMARK SMILES IDX 20 14 21 15 23 16 9 17 10 19 11 20 18 21 12 22 17 23 13 24
REMARK SMILES IDX 16 25 14 26 15 27
REMARK H PARENT 5 2 9 18 16 28
ROOT
ATOM      1  N   UNL     1       3.633  45.965  55.695  1.00  0.00    -0.354 N 
ATOM      2  H   UNL     1       3.314  45.891  56.656  1.00  0.00     0.163 HD
ENDROOT
BRANCH   1   3
ATOM      3  C   UNL     1       5.039  45.678  55.478  1.00  0.00     0.116 C 
BRANCH   3   4
ATOM      4  C   UNL     1       5.675  46.777  54.621  1.00  0.00     0.021 C 
BRANCH   4   5
ATOM      5  C   UNL     1       7.141  46.536  54.245  1.00  0.00    -0.002 C 
ATOM      6  C   UNL     1       7.671  47.507  53.203  1.00  0.00     0.004 C 
ENDBRANCH   4   5
ENDBRANCH   3   4
ENDBRANCH   1   3
BRANCH   1   7
ATOM      7  C   UNL     1       2.754  45.193  54.944  1.00  0.00     0.226 A 
ATOM      8  N   UNL     1       3.282  44.693  53.811  1.00  0.00    -0.195 NA
ATOM      9  N   UNL     1       1.497  45.007  55.372  1.00  0.00    -0.193 NA
ATOM     10  C   UNL     1       2.524  43.925  52.987  1.00  0.00     0.147 A 
ATOM     11  C   UNL     1       0.781  44.218  54.559  1.00  0.00     0.165 A 
ATOM     12  C   UNL     1       1.213  43.648  53.377  1.00  0.00     0.082 A 
ATOM     13  N   UNL     1      -0.512  43.805  54.726  1.00  0.00    -0.250 N 
ATOM     14  C   UNL     1       0.107  42.899  52.925  1.00  0.00     0.149 A 
ATOM     15  N   UNL     1      -0.955  43.000  53.732  1.00  0.00    -0.179 NA
ATOM     16  C   UNL     1      -1.391  44.129  55.821  1.00  0.00     0.176 C 
BRANCH  10  17
ATOM     17  N   UNL     1       3.147  43.424  51.835  1.00  0.00    -0.339 N 
ATOM     18  H   UNL     1       3.091  42.408  51.883  1.00  0.00     0.168 HD
BRANCH  17  19
ATOM     19  C   UNL     1       4.364  43.834  51.247  1.00  0.00     0.042 A 
ATOM     20  C   UNL     1       4.809  45.164  51.275  1.00  0.00     0.027 A 
ATOM     21  C   UNL     1       5.175  42.843  50.668  1.00  0.00     0.054 A 
ATOM     22  C   UNL     1       6.035  45.542  50.705  1.00  0.00     0.014 A 
ATOM     23  C   UNL     1       6.393  43.239  50.103  1.00  0.00     0.067 A 
ATOM     24  C   UNL     1       6.834  44.556  50.106  1.00  0.00     0.020 A 
ATOM     25  N   UNL     1       7.376  42.531  49.461  1.00  0.00    -0.278 N 
ATOM     26  C   UNL     1       8.083  44.512  49.449  1.00  0.00     0.143 A 
ATOM     27  N   UNL     1       8.416  43.280  49.056  1.00  0.00    -0.183 NA
ATOM     28  H   UNL     1       7.395  41.537  49.269  1.00  0.00     0.190 HD
ENDBRANCH  17  19
ENDBRANCH  10  17
ENDBRANCH   1   7
TORSDOF 6
ENDMDL
MODEL 16
REMARK VINA RESULT:    -7.976      2.532      7.103
REMARK INTER + INTRA:         -11.647
REMARK INTER:                 -10.912
REMARK INTRA:                  -0.734
REMARK UNBOUND:                -0.873
REMARK SMILES CCCCNc1nc(Nc2ccc3cn[nH]c3c2)c2cnn(C)c2n1
REMARK SMILES IDX 5 1 4 3 3 4 2 5 1 6 6 7 7 8 25 9 8 10 24 11 19 12 22 13
REMARK SMILES IDX 20 14 21 15 23 16 9 17 10 19 11 20 18 21 12 22 17 23 13 24
REMARK SMILES IDX 16 25 14 26 15 27
REMARK H PARENT 5 2 9 18 16 28
ROOT
ATOM      1  N   UNL     1       7.477  46.028  50.928  1.00  0.00    -0.354 N 
ATOM      2  H   UNL     1       7.413  46.269  49.944  1.00  0.00     0.163 HD
ENDROOT
BRANCH   1   3
ATOM      3  C   UNL     1       7.605  47.150  51.841  1.00  0.00     0.116 C 
BRANCH   3   4
ATOM      4  C   UNL     1       9.078  47.545  51.987  1.00  0.00     0.021 C 
BRANCH   4   5
ATOM      5  C   UNL     1       9.889  46.667  52.945  1.00  0.00    -0.002 C 
ATOM      6  C   UNL     1       9.905  47.179  54.376  1.00  0.00     0.004 C 
ENDBRANCH   4   5
ENDBRANCH   3   4
ENDBRANCH   1   3
BRANCH   1   7
ATOM      7  C   UNL     1       6.401  45.185  51.182  1.00  0.00     0.226 A 
ATOM      8  N   UNL     1       6.497  43.971  50.606  1.00  0.00    -0.195 NA
ATOM      9  N   UNL     1       5.384  45.613  51.943  1.00  0.00    -0.193 NA
ATOM     10  C   UNL     1       5.509  43.057  50.775  1.00  0.00     0.147 A 
ATOM     11  C   UNL     1       4.438  44.680  52.121  1.00  0.00     0.165 A 
ATOM     12  C   UNL     1       4.428  43.407  51.587  1.00  0.00     0.082 A 
ATOM     13  N   UNL     1       3.297  44.784  52.869  1.00  0.00    -0.250 N 
ATOM     14  C   UNL     1       3.247  42.824  52.090  1.00  0.00     0.149 A 
ATOM     15  N   UNL     1       2.542  43.660  52.861  1.00  0.00    -0.179 NA
ATOM     16  C   UNL     1       2.863  45.925  53.634  1.00  0.00     0.176 C 
BRANCH  10  17
ATOM     17  N   UNL     1       5.687  41.808  50.162  1.00  0.00    -0.339 N 
ATOM     18  H   UNL     1       6.687  41.615  50.163  1.00  0.00     0.168 HD
BRANCH  17  19
ATOM     19  C   UNL     1       5.079  41.315  48.986  1.00  0.00     0.042 A 
ATOM     20  C   UNL     1       3.888  40.575  49.000  1.00  0.00     0.027 A 
ATOM     21  C   UNL     1       5.678  41.641  47.757  1.00  0.00     0.054 A 
ATOM     22  C   UNL     1       3.291  40.117  47.815  1.00  0.00     0.014 A 
ATOM     23  C   UNL     1       5.070  41.174  46.585  1.00  0.00     0.067 A 
ATOM     24  C   UNL     1       3.902  40.424  46.589  1.00  0.00     0.020 A 
ATOM     25  N   UNL     1       5.411  41.304  45.264  1.00  0.00    -0.278 N 
ATOM     26  C   UNL     1       3.640  40.169  45.225  1.00  0.00     0.143 A 
ATOM     27  N   UNL     1       4.558  40.705  44.415  1.00  0.00    -0.183 NA
ATOM     28  H   UNL     1       6.213  41.788  44.878  1.00  0.00     0.190 HD
ENDBRANCH  17  19
ENDBRANCH  10  17
ENDBRANCH   1   7
TORSDOF 6
ENDMDL
MODEL 17
REMARK VINA RESULT:    -7.932      2.141      4.903
REMARK INTER + INTRA:         -11.587
REMARK INTER:                 -11.387
REMARK INTRA:                  -0.200
REMARK UNBOUND:                -0.873
REMARK SMILES CCCCNc1nc(Nc2ccc3cn[nH]c3c2)c2cnn(C)c2n1
REMARK SMILES IDX 5 1 4 3 3 4 2 5 1 6 6 7 7 8 25 9 8 10 24 11 19 12 22 13
REMARK SMILES IDX 20 14 21 15 23 16 9 17 10 19 11 20 18 21 12 22 17 23 13 24
REMARK SMILES IDX 16 25 14 26 15 27
REMARK H PARENT 5 2 9 18 16 28
ROOT
ATOM      1  N   UNL     1       5.579  46.649  54.961  1.00  0.00    -0.354 N 
ATOM      2  H   UNL     1       6.005  46.171  55.748  1.00  0.00     0.163 HD
ENDROOT
BRANCH   1   3
ATOM      3  C   UNL     1       6.432  46.826  53.800  1.00  0.00     0.116 C 
BRANCH   3   4
ATOM      4  C   UNL     1       7.896  46.947  54.234  1.00  0.00     0.021 C 
BRANCH   4   5
ATOM      5  C   UNL     1       8.791  47.737  53.274  1.00  0.00    -0.002 C 
ATOM      6  C   UNL     1       9.750  46.866  52.479  1.00  0.00     0.004 C 
ENDBRANCH   4   5
ENDBRANCH   3   4
ENDBRANCH   1   3
BRANCH   1   7
ATOM      7  C   UNL     1       4.384  45.983  54.715  1.00  0.00     0.226 A 
ATOM      8  N   UNL     1       4.373  45.260  53.579  1.00  0.00    -0.195 NA
ATOM      9  N   UNL     1       3.366  46.099  55.579  1.00  0.00    -0.193 NA
ATOM     10  C   UNL     1       3.263  44.565  53.224  1.00  0.00     0.147 A 
ATOM     11  C   UNL     1       2.294  45.377  55.223  1.00  0.00     0.165 A 
ATOM     12  C   UNL     1       2.168  44.599  54.089  1.00  0.00     0.082 A 
ATOM     13  N   UNL     1       1.113  45.249  55.901  1.00  0.00    -0.250 N 
ATOM     14  C   UNL     1       0.880  44.034  54.193  1.00  0.00     0.149 A 
ATOM     15  N   UNL     1       0.222  44.436  55.286  1.00  0.00    -0.179 NA
ATOM     16  C   UNL     1       0.763  45.865  57.156  1.00  0.00     0.176 C 
BRANCH  10  17
ATOM     17  N   UNL     1       3.332  43.820  52.038  1.00  0.00    -0.339 N 
ATOM     18  H   UNL     1       2.727  43.009  52.159  1.00  0.00     0.168 HD
BRANCH  17  19
ATOM     19  C   UNL     1       4.475  43.488  51.277  1.00  0.00     0.042 A 
ATOM     20  C   UNL     1       4.664  42.221  50.706  1.00  0.00     0.027 A 
ATOM     21  C   UNL     1       5.420  44.502  51.045  1.00  0.00     0.054 A 
ATOM     22  C   UNL     1       5.798  41.924  49.933  1.00  0.00     0.014 A 
ATOM     23  C   UNL     1       6.545  44.186  50.273  1.00  0.00     0.067 A 
ATOM     24  C   UNL     1       6.753  42.929  49.720  1.00  0.00     0.020 A 
ATOM     25  N   UNL     1       7.630  44.932  49.892  1.00  0.00    -0.278 N 
ATOM     26  C   UNL     1       7.981  43.044  49.033  1.00  0.00     0.143 A 
ATOM     27  N   UNL     1       8.517  44.263  49.135  1.00  0.00    -0.183 NA
ATOM     28  H   UNL     1       7.823  45.901  50.116  1.00  0.00     0.190 HD
ENDBRANCH  17  19
ENDBRANCH  10  17
ENDBRANCH   1   7
TORSDOF 6
ENDMDL
MODEL 18
REMARK VINA RESULT:    -7.882      1.726      6.292
REMARK INTER + INTRA:         -11.520
REMARK INTER:                 -10.392
REMARK INTRA:                  -1.129
REMARK UNBOUND:                -0.873
REMARK SMILES CCCCNc1nc(Nc2ccc3cn[nH]c3c2)c2cnn(C)c2n1
REMARK SMILES IDX 5 1 4 3 3 4 2 5 1 6 6 7 7 8 25 9 8 10 24 11 19 12 22 13
REMARK SMILES IDX 20 14 21 15 23 16 9 17 10 19 11 20 18 21 12 22 17 23 13 24
REMARK SMILES IDX 16 25 14 26 15 27
REMARK H PARENT 5 2 9 18 16 28
ROOT
ATOM      1  N   UNL     1       6.241  43.831  49.552  1.00  0.00    -0.354 N 
ATOM      2  H   UNL     1       6.809  43.970  48.723  1.00  0.00     0.163 HD
ENDROOT
BRANCH   1   3
ATOM      3  C   UNL     1       6.260  42.489  50.105  1.00  0.00     0.116 C 
BRANCH   3   4
ATOM      4  C   UNL     1       4.880  41.839  49.959  1.00  0.00     0.021 C 
BRANCH   4   5
ATOM      5  C   UNL     1       4.152  41.568  51.279  1.00  0.00    -0.002 C 
ATOM      6  C   UNL     1       3.417  42.780  51.829  1.00  0.00     0.004 C 
ENDBRANCH   4   5
ENDBRANCH   3   4
ENDBRANCH   1   3
BRANCH   1   7
ATOM      7  C   UNL     1       6.611  44.836  50.438  1.00  0.00     0.226 A 
ATOM      8  N   UNL     1       5.578  45.455  51.040  1.00  0.00    -0.195 NA
ATOM      9  N   UNL     1       7.909  45.114  50.626  1.00  0.00    -0.193 NA
ATOM     10  C   UNL     1       5.807  46.458  51.926  1.00  0.00     0.147 A 
ATOM     11  C   UNL     1       8.109  46.084  51.530  1.00  0.00     0.165 A 
ATOM     12  C   UNL     1       7.134  46.786  52.210  1.00  0.00     0.082 A 
ATOM     13  N   UNL     1       9.306  46.575  51.973  1.00  0.00    -0.250 N 
ATOM     14  C   UNL     1       7.854  47.661  53.050  1.00  0.00     0.149 A 
ATOM     15  N   UNL     1       9.179  47.552  52.902  1.00  0.00    -0.179 NA
ATOM     16  C   UNL     1      10.621  46.151  51.565  1.00  0.00     0.176 C 
BRANCH  10  17
ATOM     17  N   UNL     1       4.684  47.043  52.528  1.00  0.00    -0.339 N 
ATOM     18  H   UNL     1       5.006  47.881  53.009  1.00  0.00     0.168 HD
BRANCH  17  19
ATOM     19  C   UNL     1       3.648  46.412  53.251  1.00  0.00     0.042 A 
ATOM     20  C   UNL     1       3.811  45.954  54.566  1.00  0.00     0.027 A 
ATOM     21  C   UNL     1       2.392  46.301  52.629  1.00  0.00     0.054 A 
ATOM     22  C   UNL     1       2.758  45.351  55.272  1.00  0.00     0.014 A 
ATOM     23  C   UNL     1       1.354  45.696  53.348  1.00  0.00     0.067 A 
ATOM     24  C   UNL     1       1.511  45.221  54.643  1.00  0.00     0.020 A 
ATOM     25  N   UNL     1       0.051  45.429  53.020  1.00  0.00    -0.278 N 
ATOM     26  C   UNL     1       0.243  44.700  54.984  1.00  0.00     0.143 A 
ATOM     27  N   UNL     1      -0.648  44.826  53.997  1.00  0.00    -0.183 NA
ATOM     28  H   UNL     1      -0.421  45.632  52.147  1.00  0.00     0.190 HD
ENDBRANCH  17  19
ENDBRANCH  10  17
ENDBRANCH   1   7
TORSDOF 6
ENDMDL
MODEL 19
REMARK VINA RESULT:    -7.861      1.553      6.226
REMARK INTER + INTRA:         -11.492
REMARK INTER:                 -10.519
REMARK INTRA:                  -0.972
REMARK UNBOUND:                -0.873
REMARK SMILES CCCCNc1nc(Nc2ccc3cn[nH]c3c2)c2cnn(C)c2n1
REMARK SMILES IDX 5 1 4 3 3 4 2 5 1 6 6 7 7 8 25 9 8 10 24 11 19 12 22 13
REMARK SMILES IDX 20 14 21 15 23 16 9 17 10 19 11 20 18 21 12 22 17 23 13 24
REMARK SMILES IDX 16 25 14 26 15 27
REMARK H PARENT 5 2 9 18 16 28
ROOT
ATOM      1  N   UNL     1       7.766  44.652  49.422  1.00  0.00    -0.354 N 
ATOM      2  H   UNL     1       8.687  45.025  49.215  1.00  0.00     0.163 HD
ENDROOT
BRANCH   1   3
ATOM      3  C   UNL     1       7.679  43.205  49.494  1.00  0.00     0.116 C 
BRANCH   3   4
ATOM      4  C   UNL     1       6.565  42.698  48.572  1.00  0.00     0.021 C 
BRANCH   4   5
ATOM      5  C   UNL     1       5.797  41.481  49.096  1.00  0.00    -0.002 C 
ATOM      6  C   UNL     1       5.190  41.690  50.474  1.00  0.00     0.004 C 
ENDBRANCH   4   5
ENDBRANCH   3   4
ENDBRANCH   1   3
BRANCH   1   7
ATOM      7  C   UNL     1       7.333  45.323  50.561  1.00  0.00     0.226 A 
ATOM      8  N   UNL     1       6.005  45.535  50.610  1.00  0.00    -0.195 NA
ATOM      9  N   UNL     1       8.223  45.702  51.490  1.00  0.00    -0.193 NA
ATOM     10  C   UNL     1       5.457  46.184  51.670  1.00  0.00     0.147 A 
ATOM     11  C   UNL     1       7.653  46.309  52.540  1.00  0.00     0.165 A 
ATOM     12  C   UNL     1       6.309  46.579  52.703  1.00  0.00     0.082 A 
ATOM     13  N   UNL     1       8.271  46.780  53.666  1.00  0.00    -0.250 N 
ATOM     14  C   UNL     1       6.226  47.196  53.968  1.00  0.00     0.149 A 
ATOM     15  N   UNL     1       7.419  47.338  54.557  1.00  0.00    -0.179 NA
ATOM     16  C   UNL     1       9.678  46.721  53.970  1.00  0.00     0.176 C 
BRANCH  10  17
ATOM     17  N   UNL     1       4.065  46.351  51.661  1.00  0.00    -0.339 N 
ATOM     18  H   UNL     1       3.885  47.352  51.714  1.00  0.00     0.168 HD
BRANCH  17  19
ATOM     19  C   UNL     1       3.090  45.625  52.381  1.00  0.00     0.042 A 
ATOM     20  C   UNL     1       2.432  46.145  53.504  1.00  0.00     0.027 A 
ATOM     21  C   UNL     1       2.739  44.352  51.898  1.00  0.00     0.054 A 
ATOM     22  C   UNL     1       1.449  45.411  54.187  1.00  0.00     0.014 A 
ATOM     23  C   UNL     1       1.758  43.634  52.593  1.00  0.00     0.067 A 
ATOM     24  C   UNL     1       1.114  44.132  53.718  1.00  0.00     0.020 A 
ATOM     25  N   UNL     1       1.221  42.390  52.390  1.00  0.00    -0.278 N 
ATOM     26  C   UNL     1       0.218  43.106  54.095  1.00  0.00     0.143 A 
ATOM     27  N   UNL     1       0.281  42.045  53.287  1.00  0.00    -0.183 NA
ATOM     28  H   UNL     1       1.454  41.728  51.659  1.00  0.00     0.190 HD
ENDBRANCH  17  19
ENDBRANCH  10  17
ENDBRANCH   1   7
TORSDOF 6
ENDMDL
MODEL 20
REMARK VINA RESULT:    -7.688      2.734      5.392
REMARK INTER + INTRA:         -11.258
REMARK INTER:                 -10.594
REMARK INTRA:                  -0.664
REMARK UNBOUND:                -0.873
REMARK SMILES CCCCNc1nc(Nc2ccc3cn[nH]c3c2)c2cnn(C)c2n1
REMARK SMILES IDX 5 1 4 3 3 4 2 5 1 6 6 7 7 8 25 9 8 10 24 11 19 12 22 13
REMARK SMILES IDX 20 14 21 15 23 16 9 17 10 19 11 20 18 21 12 22 17 23 13 24
REMARK SMILES IDX 16 25 14 26 15 27
REMARK H PARENT 5 2 9 18 16 28
ROOT
ATOM      1  N   UNL     1       1.904  45.304  56.567  1.00  0.00    -0.354 N 
ATOM      2  H   UNL     1       2.702  45.882  56.809  1.00  0.00     0.163 HD
ENDROOT
BRANCH   1   3
ATOM      3  C   UNL     1       0.625  45.753  57.088  1.00  0.00     0.116 C 
BRANCH   3   4
ATOM      4  C   UNL     1       0.843  46.771  58.213  1.00  0.00     0.021 C 
BRANCH   4   5
ATOM      5  C   UNL     1      -0.417  47.522  58.655  1.00  0.00    -0.002 C 
ATOM      6  C   UNL     1      -0.260  48.246  59.983  1.00  0.00     0.004 C 
ENDBRANCH   4   5
ENDBRANCH   3   4
ENDBRANCH   1   3
BRANCH   1   7
ATOM      7  C   UNL     1       1.952  45.150  55.186  1.00  0.00     0.226 A 
ATOM      8  N   UNL     1       2.800  45.989  54.562  1.00  0.00    -0.195 NA
ATOM      9  N   UNL     1       1.187  44.223  54.591  1.00  0.00    -0.193 NA
ATOM     10  C   UNL     1       2.936  45.941  53.212  1.00  0.00     0.147 A 
ATOM     11  C   UNL     1       1.365  44.174  53.264  1.00  0.00     0.165 A 
ATOM     12  C   UNL     1       2.204  44.977  52.517  1.00  0.00     0.082 A 
ATOM     13  N   UNL     1       0.769  43.323  52.375  1.00  0.00    -0.250 N 
ATOM     14  C   UNL     1       2.049  44.513  51.195  1.00  0.00     0.149 A 
ATOM     15  N   UNL     1       1.164  43.514  51.094  1.00  0.00    -0.179 NA
ATOM     16  C   UNL     1      -0.185  42.285  52.675  1.00  0.00     0.176 C 
BRANCH  10  17
ATOM     17  N   UNL     1       3.852  46.833  52.634  1.00  0.00    -0.339 N 
ATOM     18  H   UNL     1       3.366  47.308  51.875  1.00  0.00     0.168 HD
BRANCH  17  19
ATOM     19  C   UNL     1       5.206  46.607  52.304  1.00  0.00     0.042 A 
ATOM     20  C   UNL     1       5.599  45.834  51.202  1.00  0.00     0.027 A 
ATOM     21  C   UNL     1       6.183  47.240  53.091  1.00  0.00     0.054 A 
ATOM     22  C   UNL     1       6.953  45.644  50.880  1.00  0.00     0.014 A 
ATOM     23  C   UNL     1       7.528  47.039  52.756  1.00  0.00     0.067 A 
ATOM     24  C   UNL     1       7.929  46.258  51.680  1.00  0.00     0.020 A 
ATOM     25  N   UNL     1       8.689  47.492  53.325  1.00  0.00    -0.278 N 
ATOM     26  C   UNL     1       9.340  46.324  51.702  1.00  0.00     0.143 A 
ATOM     27  N   UNL     1       9.805  47.075  52.703  1.00  0.00    -0.183 NA
ATOM     28  H   UNL     1       8.786  48.089  54.139  1.00  0.00     0.190 HD
ENDBRANCH  17  19
ENDBRANCH  10  17
ENDBRANCH   1   7
TORSDOF 6
ENDMDL
