MODEL 1
REMARK VINA RESULT:    -7.924      0.000      0.000
REMARK INTER + INTRA:         -12.252
REMARK INTER:                 -11.167
REMARK INTRA:                  -1.085
REMARK UNBOUND:                -1.085
REMARK SMILES CCCOCCNc1cc(-c2ccc(F)cc2)nc2ccnn12
REMARK SMILES IDX 5 1 4 2 3 3 2 4 1 5 6 6 7 7 8 9 9 10 23 11 10 12 22 13 19 14
REMARK SMILES IDX 18 15 21 16 20 17 11 18 12 19 17 20 13 21 16 22 14 23 15 24
REMARK H PARENT 7 8
ROOT
ATOM      1  C   UNL     1       3.730  41.164  50.010  1.00  0.00     0.181 C 
ENDROOT
BRANCH   1   2
ATOM      2  O   UNL     1       4.964  41.162  50.728  1.00  0.00    -0.380 OA
BRANCH   2   3
ATOM      3  C   UNL     1       6.093  41.463  49.910  1.00  0.00     0.160 C 
BRANCH   3   4
ATOM      4  C   UNL     1       6.251  42.960  49.648  1.00  0.00     0.025 C 
ATOM      5  C   UNL     1       7.673  43.334  49.257  1.00  0.00     0.006 C 
ENDBRANCH   3   4
ENDBRANCH   2   3
ENDBRANCH   1   2
BRANCH   1   6
ATOM      6  C   UNL     1       2.763  42.143  50.684  1.00  0.00     0.143 C 
BRANCH   6   7
ATOM      7  N   UNL     1       3.032  42.241  52.113  1.00  0.00    -0.368 N 
ATOM      8  H   UNL     1       3.552  41.442  52.496  1.00  0.00     0.162 HD
BRANCH   7   9
ATOM      9  C   UNL     1       3.435  43.410  52.772  1.00  0.00     0.132 A 
ATOM     10  C   UNL     1       4.643  43.989  52.659  1.00  0.00     0.075 A 
ATOM     11  N   UNL     1       2.476  44.036  53.609  1.00  0.00    -0.199 N 
ATOM     12  C   UNL     1       4.873  45.251  53.439  1.00  0.00     0.076 A 
ATOM     13  N   UNL     1       1.205  43.601  53.878  1.00  0.00    -0.173 NA
ATOM     14  C   UNL     1       2.768  45.220  54.287  1.00  0.00     0.157 A 
ATOM     15  N   UNL     1       3.982  45.835  54.191  1.00  0.00    -0.228 NA
ATOM     16  C   UNL     1       0.714  44.526  54.704  1.00  0.00     0.138 A 
ATOM     17  C   UNL     1       1.633  45.547  54.991  1.00  0.00     0.071 A 
BRANCH  12  18
ATOM     18  C   UNL     1       6.222  45.877  53.308  1.00  0.00     0.001 A 
ATOM     19  C   UNL     1       6.872  46.469  54.400  1.00  0.00     0.013 A 
ATOM     20  C   UNL     1       6.829  45.898  52.044  1.00  0.00     0.013 A 
ATOM     21  C   UNL     1       8.131  47.052  54.229  1.00  0.00     0.040 A 
ATOM     22  C   UNL     1       8.088  46.481  51.878  1.00  0.00     0.040 A 
ATOM     23  C   UNL     1       8.727  47.050  52.973  1.00  0.00     0.123 A 
ATOM     24  F   UNL     1       9.933  47.611  52.815  1.00  0.00    -0.207 F 
ENDBRANCH  12  18
ENDBRANCH   7   9
ENDBRANCH   6   7
ENDBRANCH   1   6
TORSDOF 7
ENDMDL
MODEL 2
REMARK VINA RESULT:    -7.864      0.144      1.019
REMARK INTER + INTRA:         -12.167
REMARK INTER:                 -11.071
REMARK INTRA:                  -1.096
REMARK UNBOUND:                -1.085
REMARK SMILES CCCOCCNc1cc(-c2ccc(F)cc2)nc2ccnn12
REMARK SMILES IDX 5 1 4 2 3 3 2 4 1 5 6 6 7 7 8 9 9 10 23 11 10 12 22 13 19 14
REMARK SMILES IDX 18 15 21 16 20 17 11 18 12 19 17 20 13 21 16 22 14 23 15 24
REMARK H PARENT 7 8
ROOT
ATOM      1  C   UNL     1       3.633  41.019  50.073  1.00  0.00     0.181 C 
ENDROOT
BRANCH   1   2
ATOM      2  O   UNL     1       4.971  41.167  50.551  1.00  0.00    -0.380 OA
BRANCH   2   3
ATOM      3  C   UNL     1       5.884  41.606  49.547  1.00  0.00     0.160 C 
BRANCH   3   4
ATOM      4  C   UNL     1       6.180  43.103  49.631  1.00  0.00     0.025 C 
ATOM      5  C   UNL     1       7.640  43.422  49.345  1.00  0.00     0.006 C 
ENDBRANCH   3   4
ENDBRANCH   2   3
ENDBRANCH   1   2
BRANCH   1   6
ATOM      6  C   UNL     1       2.768  42.141  50.655  1.00  0.00     0.143 C 
BRANCH   6   7
ATOM      7  N   UNL     1       2.970  42.263  52.093  1.00  0.00    -0.368 N 
ATOM      8  H   UNL     1       3.448  41.459  52.517  1.00  0.00     0.162 HD
BRANCH   7   9
ATOM      9  C   UNL     1       3.372  43.434  52.746  1.00  0.00     0.132 A 
ATOM     10  C   UNL     1       4.572  44.028  52.612  1.00  0.00     0.075 A 
ATOM     11  N   UNL     1       2.423  44.048  53.603  1.00  0.00    -0.199 N 
ATOM     12  C   UNL     1       4.803  45.290  53.390  1.00  0.00     0.076 A 
ATOM     13  N   UNL     1       1.163  43.599  53.897  1.00  0.00    -0.173 NA
ATOM     14  C   UNL     1       2.715  45.234  54.279  1.00  0.00     0.157 A 
ATOM     15  N   UNL     1       3.921  45.863  54.161  1.00  0.00    -0.228 NA
ATOM     16  C   UNL     1       0.678  44.517  54.734  1.00  0.00     0.138 A 
ATOM     17  C   UNL     1       1.590  45.547  55.006  1.00  0.00     0.071 A 
BRANCH  12  18
ATOM     18  C   UNL     1       6.142  45.932  53.234  1.00  0.00     0.001 A 
ATOM     19  C   UNL     1       6.777  46.027  51.987  1.00  0.00     0.013 A 
ATOM     20  C   UNL     1       6.788  46.417  54.381  1.00  0.00     0.013 A 
ATOM     21  C   UNL     1       8.035  46.628  51.891  1.00  0.00     0.040 A 
ATOM     22  C   UNL     1       8.045  47.018  54.278  1.00  0.00     0.040 A 
ATOM     23  C   UNL     1       8.655  47.120  53.034  1.00  0.00     0.123 A 
ATOM     24  F   UNL     1       9.860  47.694  52.935  1.00  0.00    -0.207 F 
ENDBRANCH  12  18
ENDBRANCH   7   9
ENDBRANCH   6   7
ENDBRANCH   1   6
TORSDOF 7
ENDMDL
MODEL 3
REMARK VINA RESULT:    -7.804      2.037      4.351
REMARK INTER + INTRA:         -12.082
REMARK INTER:                 -10.811
REMARK INTRA:                  -1.271
REMARK UNBOUND:                -1.085
REMARK SMILES CCCOCCNc1cc(-c2ccc(F)cc2)nc2ccnn12
REMARK SMILES IDX 5 1 4 2 3 3 2 4 1 5 6 6 7 7 8 9 9 10 23 11 10 12 22 13 19 14
REMARK SMILES IDX 18 15 21 16 20 17 11 18 12 19 17 20 13 21 16 22 14 23 15 24
REMARK H PARENT 7 8
ROOT
ATOM      1  C   UNL     1       0.925  43.610  51.504  1.00  0.00     0.181 C 
ENDROOT
BRANCH   1   2
ATOM      2  O   UNL     1       1.203  45.009  51.434  1.00  0.00    -0.380 OA
BRANCH   2   3
ATOM      3  C   UNL     1       1.416  45.608  52.710  1.00  0.00     0.160 C 
BRANCH   3   4
ATOM      4  C   UNL     1       2.440  46.741  52.668  1.00  0.00     0.025 C 
ATOM      5  C   UNL     1       3.218  46.771  51.360  1.00  0.00     0.006 C 
ENDBRANCH   3   4
ENDBRANCH   2   3
ENDBRANCH   1   2
BRANCH   1   6
ATOM      6  C   UNL     1       1.470  43.059  52.825  1.00  0.00     0.143 C 
BRANCH   6   7
ATOM      7  N   UNL     1       2.678  42.274  52.605  1.00  0.00    -0.368 N 
ATOM      8  H   UNL     1       2.498  41.298  52.339  1.00  0.00     0.162 HD
BRANCH   7   9
ATOM      9  C   UNL     1       3.817  42.732  51.931  1.00  0.00     0.132 A 
ATOM     10  C   UNL     1       4.588  43.763  52.319  1.00  0.00     0.075 A 
ATOM     11  N   UNL     1       4.189  42.033  50.755  1.00  0.00    -0.199 N 
ATOM     12  C   UNL     1       5.778  44.088  51.463  1.00  0.00     0.076 A 
ATOM     13  N   UNL     1       3.533  40.978  50.178  1.00  0.00    -0.173 NA
ATOM     14  C   UNL     1       5.324  42.391  50.026  1.00  0.00     0.157 A 
ATOM     15  N   UNL     1       6.129  43.429  50.394  1.00  0.00    -0.228 NA
ATOM     16  C   UNL     1       4.273  40.679  49.110  1.00  0.00     0.138 A 
ATOM     17  C   UNL     1       5.389  41.517  48.966  1.00  0.00     0.071 A 
BRANCH  12  18
ATOM     18  C   UNL     1       6.620  45.239  51.904  1.00  0.00     0.001 A 
ATOM     19  C   UNL     1       7.504  45.888  51.030  1.00  0.00     0.013 A 
ATOM     20  C   UNL     1       6.541  45.651  53.243  1.00  0.00     0.013 A 
ATOM     21  C   UNL     1       8.279  46.956  51.489  1.00  0.00     0.040 A 
ATOM     22  C   UNL     1       7.317  46.720  53.696  1.00  0.00     0.040 A 
ATOM     23  C   UNL     1       8.177  47.364  52.814  1.00  0.00     0.123 A 
ATOM     24  F   UNL     1       8.923  48.387  53.248  1.00  0.00    -0.207 F 
ENDBRANCH  12  18
ENDBRANCH   7   9
ENDBRANCH   6   7
ENDBRANCH   1   6
TORSDOF 7
ENDMDL
MODEL 4
REMARK VINA RESULT:    -7.796      2.054      4.217
REMARK INTER + INTRA:         -12.071
REMARK INTER:                 -10.892
REMARK INTRA:                  -1.180
REMARK UNBOUND:                -1.085
REMARK SMILES CCCOCCNc1cc(-c2ccc(F)cc2)nc2ccnn12
REMARK SMILES IDX 5 1 4 2 3 3 2 4 1 5 6 6 7 7 8 9 9 10 23 11 10 12 22 13 19 14
REMARK SMILES IDX 18 15 21 16 20 17 11 18 12 19 17 20 13 21 16 22 14 23 15 24
REMARK H PARENT 7 8
ROOT
ATOM      1  C   UNL     1       0.769  43.503  51.699  1.00  0.00     0.181 C 
ENDROOT
BRANCH   1   2
ATOM      2  O   UNL     1       1.046  44.888  51.484  1.00  0.00    -0.380 OA
BRANCH   2   3
ATOM      3  C   UNL     1       1.402  45.584  52.677  1.00  0.00     0.160 C 
BRANCH   3   4
ATOM      4  C   UNL     1       2.388  46.724  52.423  1.00  0.00     0.025 C 
ATOM      5  C   UNL     1       3.150  46.553  51.117  1.00  0.00     0.006 C 
ENDBRANCH   3   4
ENDBRANCH   2   3
ENDBRANCH   1   2
BRANCH   1   6
ATOM      6  C   UNL     1       1.497  43.040  52.964  1.00  0.00     0.143 C 
BRANCH   6   7
ATOM      7  N   UNL     1       2.669  42.240  52.629  1.00  0.00    -0.368 N 
ATOM      8  H   UNL     1       2.445  41.313  52.246  1.00  0.00     0.162 HD
BRANCH   7   9
ATOM      9  C   UNL     1       3.820  42.732  52.001  1.00  0.00     0.132 A 
ATOM     10  C   UNL     1       4.553  43.776  52.428  1.00  0.00     0.075 A 
ATOM     11  N   UNL     1       4.249  42.055  50.831  1.00  0.00    -0.199 N 
ATOM     12  C   UNL     1       5.764  44.138  51.619  1.00  0.00     0.076 A 
ATOM     13  N   UNL     1       3.639  40.993  50.220  1.00  0.00    -0.173 NA
ATOM     14  C   UNL     1       5.401  42.448  50.147  1.00  0.00     0.157 A 
ATOM     15  N   UNL     1       6.168  43.501  50.555  1.00  0.00    -0.228 NA
ATOM     16  C   UNL     1       4.424  40.724  49.176  1.00  0.00     0.138 A 
ATOM     17  C   UNL     1       5.524  41.589  49.080  1.00  0.00     0.071 A 
BRANCH  12  18
ATOM     18  C   UNL     1       6.562  45.303  52.102  1.00  0.00     0.001 A 
ATOM     19  C   UNL     1       6.486  45.754  53.428  1.00  0.00     0.013 A 
ATOM     20  C   UNL     1       7.381  45.979  51.185  1.00  0.00     0.013 A 
ATOM     21  C   UNL     1       7.245  46.856  53.833  1.00  0.00     0.040 A 
ATOM     22  C   UNL     1       8.139  47.078  51.596  1.00  0.00     0.040 A 
ATOM     23  C   UNL     1       8.065  47.504  52.917  1.00  0.00     0.123 A 
ATOM     24  F   UNL     1       8.789  48.559  53.312  1.00  0.00    -0.207 F 
ENDBRANCH  12  18
ENDBRANCH   7   9
ENDBRANCH   6   7
ENDBRANCH   1   6
TORSDOF 7
ENDMDL
MODEL 5
REMARK VINA RESULT:    -7.643      3.280      6.217
REMARK INTER + INTRA:         -11.855
REMARK INTER:                 -10.713
REMARK INTRA:                  -1.143
REMARK UNBOUND:                -1.085
REMARK SMILES CCCOCCNc1cc(-c2ccc(F)cc2)nc2ccnn12
REMARK SMILES IDX 5 1 4 2 3 3 2 4 1 5 6 6 7 7 8 9 9 10 23 11 10 12 22 13 19 14
REMARK SMILES IDX 18 15 21 16 20 17 11 18 12 19 17 20 13 21 16 22 14 23 15 24
REMARK H PARENT 7 8
ROOT
ATOM      1  C   UNL     1       3.252  46.396  54.584  1.00  0.00     0.181 C 
ENDROOT
BRANCH   1   2
ATOM      2  O   UNL     1       2.469  45.450  53.855  1.00  0.00    -0.380 OA
BRANCH   2   3
ATOM      3  C   UNL     1       1.763  46.027  52.758  1.00  0.00     0.160 C 
BRANCH   3   4
ATOM      4  C   UNL     1       2.262  45.526  51.404  1.00  0.00     0.025 C 
ATOM      5  C   UNL     1       3.342  46.423  50.816  1.00  0.00     0.006 C 
ENDBRANCH   3   4
ENDBRANCH   2   3
ENDBRANCH   1   2
BRANCH   1   6
ATOM      6  C   UNL     1       4.299  45.644  55.412  1.00  0.00     0.143 C 
BRANCH   6   7
ATOM      7  N   UNL     1       5.641  45.881  54.895  1.00  0.00    -0.368 N 
ATOM      8  H   UNL     1       6.390  45.624  55.550  1.00  0.00     0.162 HD
BRANCH   7   9
ATOM      9  C   UNL     1       6.056  45.599  53.588  1.00  0.00     0.132 A 
ATOM     10  C   UNL     1       5.623  44.568  52.840  1.00  0.00     0.075 A 
ATOM     11  N   UNL     1       6.995  46.489  53.008  1.00  0.00    -0.199 N 
ATOM     12  C   UNL     1       6.180  44.448  51.451  1.00  0.00     0.076 A 
ATOM     13  N   UNL     1       7.576  47.578  53.601  1.00  0.00    -0.173 NA
ATOM     14  C   UNL     1       7.450  46.313  51.700  1.00  0.00     0.157 A 
ATOM     15  N   UNL     1       7.027  45.281  50.914  1.00  0.00    -0.228 NA
ATOM     16  C   UNL     1       8.370  48.079  52.653  1.00  0.00     0.138 A 
ATOM     17  C   UNL     1       8.333  47.340  51.461  1.00  0.00     0.071 A 
BRANCH  12  18
ATOM     18  C   UNL     1       5.694  43.295  50.637  1.00  0.00     0.001 A 
ATOM     19  C   UNL     1       6.323  42.915  49.442  1.00  0.00     0.013 A 
ATOM     20  C   UNL     1       4.555  42.602  51.073  1.00  0.00     0.013 A 
ATOM     21  C   UNL     1       5.827  41.835  48.708  1.00  0.00     0.040 A 
ATOM     22  C   UNL     1       4.065  41.522  50.335  1.00  0.00     0.040 A 
ATOM     23  C   UNL     1       4.707  41.147  49.161  1.00  0.00     0.123 A 
ATOM     24  F   UNL     1       4.237  40.113  48.452  1.00  0.00    -0.207 F 
ENDBRANCH  12  18
ENDBRANCH   7   9
ENDBRANCH   6   7
ENDBRANCH   1   6
TORSDOF 7
ENDMDL
MODEL 6
REMARK VINA RESULT:    -7.533      2.865      5.501
REMARK INTER + INTRA:         -11.700
REMARK INTER:                 -11.195
REMARK INTRA:                  -0.505
REMARK UNBOUND:                -1.085
REMARK SMILES CCCOCCNc1cc(-c2ccc(F)cc2)nc2ccnn12
REMARK SMILES IDX 5 1 4 2 3 3 2 4 1 5 6 6 7 7 8 9 9 10 23 11 10 12 22 13 19 14
REMARK SMILES IDX 18 15 21 16 20 17 11 18 12 19 17 20 13 21 16 22 14 23 15 24
REMARK H PARENT 7 8
ROOT
ATOM      1  C   UNL     1       7.165  46.824  54.235  1.00  0.00     0.181 C 
ENDROOT
BRANCH   1   2
ATOM      2  O   UNL     1       8.050  47.683  54.954  1.00  0.00    -0.380 OA
BRANCH   2   3
ATOM      3  C   UNL     1       9.385  47.666  54.453  1.00  0.00     0.160 C 
BRANCH   3   4
ATOM      4  C   UNL     1       9.686  46.423  53.616  1.00  0.00     0.025 C 
ATOM      5  C   UNL     1       9.973  46.761  52.160  1.00  0.00     0.006 C 
ENDBRANCH   3   4
ENDBRANCH   2   3
ENDBRANCH   1   2
BRANCH   1   6
ATOM      6  C   UNL     1       5.719  47.206  54.567  1.00  0.00     0.143 C 
BRANCH   6   7
ATOM      7  N   UNL     1       4.977  46.056  55.069  1.00  0.00    -0.368 N 
ATOM      8  H   UNL     1       4.481  46.233  55.950  1.00  0.00     0.162 HD
BRANCH   7   9
ATOM      9  C   UNL     1       4.214  45.190  54.276  1.00  0.00     0.132 A 
ATOM     10  C   UNL     1       4.671  44.497  53.218  1.00  0.00     0.075 A 
ATOM     11  N   UNL     1       2.853  45.023  54.639  1.00  0.00    -0.199 N 
ATOM     12  C   UNL     1       3.693  43.608  52.507  1.00  0.00     0.076 A 
ATOM     13  N   UNL     1       2.187  45.649  55.660  1.00  0.00    -0.173 NA
ATOM     14  C   UNL     1       2.014  44.160  53.932  1.00  0.00     0.157 A 
ATOM     15  N   UNL     1       2.447  43.440  52.857  1.00  0.00    -0.228 NA
ATOM     16  C   UNL     1       0.950  45.156  55.590  1.00  0.00     0.138 A 
ATOM     17  C   UNL     1       0.785  44.235  54.544  1.00  0.00     0.071 A 
BRANCH  12  18
ATOM     18  C   UNL     1       4.215  42.850  51.331  1.00  0.00     0.001 A 
ATOM     19  C   UNL     1       3.517  41.766  50.780  1.00  0.00     0.013 A 
ATOM     20  C   UNL     1       5.456  43.222  50.795  1.00  0.00     0.013 A 
ATOM     21  C   UNL     1       4.049  41.081  49.684  1.00  0.00     0.040 A 
ATOM     22  C   UNL     1       5.982  42.535  49.699  1.00  0.00     0.040 A 
ATOM     23  C   UNL     1       5.272  41.472  49.153  1.00  0.00     0.123 A 
ATOM     24  F   UNL     1       5.776  40.811  48.103  1.00  0.00    -0.207 F 
ENDBRANCH  12  18
ENDBRANCH   7   9
ENDBRANCH   6   7
ENDBRANCH   1   6
TORSDOF 7
ENDMDL
MODEL 7
REMARK VINA RESULT:    -7.346      3.177      5.647
REMARK INTER + INTRA:         -11.436
REMARK INTER:                 -10.276
REMARK INTRA:                  -1.160
REMARK UNBOUND:                -1.085
REMARK SMILES CCCOCCNc1cc(-c2ccc(F)cc2)nc2ccnn12
REMARK SMILES IDX 5 1 4 2 3 3 2 4 1 5 6 6 7 7 8 9 9 10 23 11 10 12 22 13 19 14
REMARK SMILES IDX 18 15 21 16 20 17 11 18 12 19 17 20 13 21 16 22 14 23 15 24
REMARK H PARENT 7 8
ROOT
ATOM      1  C   UNL     1       6.990  43.059  49.029  1.00  0.00     0.181 C 
ENDROOT
BRANCH   1   2
ATOM      2  O   UNL     1       6.773  42.104  50.069  1.00  0.00    -0.380 OA
BRANCH   2   3
ATOM      3  C   UNL     1       5.418  41.671  50.164  1.00  0.00     0.160 C 
BRANCH   3   4
ATOM      4  C   UNL     1       4.484  42.762  50.687  1.00  0.00     0.025 C 
ATOM      5  C   UNL     1       3.794  42.363  51.983  1.00  0.00     0.006 C 
ENDBRANCH   3   4
ENDBRANCH   2   3
ENDBRANCH   1   2
BRANCH   1   6
ATOM      6  C   UNL     1       8.217  43.906  49.379  1.00  0.00     0.143 C 
BRANCH   6   7
ATOM      7  N   UNL     1       7.827  45.255  49.771  1.00  0.00    -0.368 N 
ATOM      8  H   UNL     1       7.250  45.741  49.073  1.00  0.00     0.162 HD
BRANCH   7   9
ATOM      9  C   UNL     1       7.405  45.624  51.054  1.00  0.00     0.132 A 
ATOM     10  C   UNL     1       6.145  45.534  51.515  1.00  0.00     0.075 A 
ATOM     11  N   UNL     1       8.400  46.114  51.939  1.00  0.00    -0.199 N 
ATOM     12  C   UNL     1       5.900  45.968  52.931  1.00  0.00     0.076 A 
ATOM     13  N   UNL     1       9.728  46.305  51.664  1.00  0.00    -0.173 NA
ATOM     14  C   UNL     1       8.089  46.481  53.249  1.00  0.00     0.157 A 
ATOM     15  N   UNL     1       6.822  46.398  53.748  1.00  0.00    -0.228 NA
ATOM     16  C   UNL     1      10.232  46.770  52.808  1.00  0.00     0.138 A 
ATOM     17  C   UNL     1       9.268  46.899  53.819  1.00  0.00     0.071 A 
BRANCH  12  18
ATOM     18  C   UNL     1       4.495  45.868  53.424  1.00  0.00     0.001 A 
ATOM     19  C   UNL     1       3.400  46.198  52.613  1.00  0.00     0.013 A 
ATOM     20  C   UNL     1       4.280  45.463  54.750  1.00  0.00     0.013 A 
ATOM     21  C   UNL     1       2.102  46.098  53.120  1.00  0.00     0.040 A 
ATOM     22  C   UNL     1       2.980  45.363  55.252  1.00  0.00     0.040 A 
ATOM     23  C   UNL     1       1.904  45.679  54.431  1.00  0.00     0.123 A 
ATOM     24  F   UNL     1       0.657  45.586  54.912  1.00  0.00    -0.207 F 
ENDBRANCH  12  18
ENDBRANCH   7   9
ENDBRANCH   6   7
ENDBRANCH   1   6
TORSDOF 7
ENDMDL
MODEL 8
REMARK VINA RESULT:    -7.343      1.362      1.894
REMARK INTER + INTRA:         -11.433
REMARK INTER:                 -10.468
REMARK INTRA:                  -0.965
REMARK UNBOUND:                -1.085
REMARK SMILES CCCOCCNc1cc(-c2ccc(F)cc2)nc2ccnn12
REMARK SMILES IDX 5 1 4 2 3 3 2 4 1 5 6 6 7 7 8 9 9 10 23 11 10 12 22 13 19 14
REMARK SMILES IDX 18 15 21 16 20 17 11 18 12 19 17 20 13 21 16 22 14 23 15 24
REMARK H PARENT 7 8
ROOT
ATOM      1  C   UNL     1       2.767  42.531  51.150  1.00  0.00     0.181 C 
ENDROOT
BRANCH   1   2
ATOM      2  O   UNL     1       2.824  41.560  50.104  1.00  0.00    -0.380 OA
BRANCH   2   3
ATOM      3  C   UNL     1       4.152  41.145  49.791  1.00  0.00     0.160 C 
BRANCH   3   4
ATOM      4  C   UNL     1       5.215  41.963  50.522  1.00  0.00     0.025 C 
ATOM      5  C   UNL     1       6.214  42.601  49.567  1.00  0.00     0.006 C 
ENDBRANCH   3   4
ENDBRANCH   2   3
ENDBRANCH   1   2
BRANCH   1   6
ATOM      6  C   UNL     1       1.683  43.560  50.816  1.00  0.00     0.143 C 
BRANCH   6   7
ATOM      7  N   UNL     1       2.120  44.908  51.157  1.00  0.00    -0.368 N 
ATOM      8  H   UNL     1       1.352  45.582  51.261  1.00  0.00     0.162 HD
BRANCH   7   9
ATOM      9  C   UNL     1       3.127  45.212  52.082  1.00  0.00     0.132 A 
ATOM     10  C   UNL     1       4.422  45.419  51.783  1.00  0.00     0.075 A 
ATOM     11  N   UNL     1       2.734  45.327  53.440  1.00  0.00    -0.199 N 
ATOM     12  C   UNL     1       5.343  45.749  52.921  1.00  0.00     0.076 A 
ATOM     13  N   UNL     1       1.481  45.133  53.956  1.00  0.00    -0.173 NA
ATOM     14  C   UNL     1       3.655  45.655  54.436  1.00  0.00     0.157 A 
ATOM     15  N   UNL     1       4.974  45.874  54.166  1.00  0.00    -0.228 NA
ATOM     16  C   UNL     1       1.629  45.360  55.262  1.00  0.00     0.138 A 
ATOM     17  C   UNL     1       2.948  45.685  55.615  1.00  0.00     0.071 A 
BRANCH  12  18
ATOM     18  C   UNL     1       6.778  45.969  52.574  1.00  0.00     0.001 A 
ATOM     19  C   UNL     1       7.264  45.764  51.274  1.00  0.00     0.013 A 
ATOM     20  C   UNL     1       7.660  46.358  53.592  1.00  0.00     0.013 A 
ATOM     21  C   UNL     1       8.618  45.974  50.997  1.00  0.00     0.040 A 
ATOM     22  C   UNL     1       9.012  46.568  53.309  1.00  0.00     0.040 A 
ATOM     23  C   UNL     1       9.477  46.376  52.013  1.00  0.00     0.123 A 
ATOM     24  F   UNL     1      10.773  46.574  51.741  1.00  0.00    -0.207 F 
ENDBRANCH  12  18
ENDBRANCH   7   9
ENDBRANCH   6   7
ENDBRANCH   1   6
TORSDOF 7
ENDMDL
MODEL 9
REMARK VINA RESULT:    -7.298      3.363      6.532
REMARK INTER + INTRA:         -11.369
REMARK INTER:                 -10.758
REMARK INTRA:                  -0.611
REMARK UNBOUND:                -1.085
REMARK SMILES CCCOCCNc1cc(-c2ccc(F)cc2)nc2ccnn12
REMARK SMILES IDX 5 1 4 2 3 3 2 4 1 5 6 6 7 7 8 9 9 10 23 11 10 12 22 13 19 14
REMARK SMILES IDX 18 15 21 16 20 17 11 18 12 19 17 20 13 21 16 22 14 23 15 24
REMARK H PARENT 7 8
ROOT
ATOM      1  C   UNL     1       6.862  46.487  54.035  1.00  0.00     0.181 C 
ENDROOT
BRANCH   1   2
ATOM      2  O   UNL     1       7.763  47.530  54.410  1.00  0.00    -0.380 OA
BRANCH   2   3
ATOM      3  C   UNL     1       8.685  47.879  53.380  1.00  0.00     0.160 C 
BRANCH   3   4
ATOM      4  C   UNL     1       9.918  46.976  53.359  1.00  0.00     0.025 C 
ATOM      5  C   UNL     1      10.183  46.388  51.981  1.00  0.00     0.006 C 
ENDBRANCH   3   4
ENDBRANCH   2   3
ENDBRANCH   1   2
BRANCH   1   6
ATOM      6  C   UNL     1       6.269  46.811  52.661  1.00  0.00     0.143 C 
BRANCH   6   7
ATOM      7  N   UNL     1       5.991  45.592  51.911  1.00  0.00    -0.368 N 
ATOM      8  H   UNL     1       6.828  45.040  51.688  1.00  0.00     0.162 HD
BRANCH   7   9
ATOM      9  C   UNL     1       4.922  44.724  52.166  1.00  0.00     0.132 A 
ATOM     10  C   UNL     1       3.902  44.971  53.008  1.00  0.00     0.075 A 
ATOM     11  N   UNL     1       4.914  43.494  51.460  1.00  0.00    -0.199 N 
ATOM     12  C   UNL     1       2.843  43.914  53.131  1.00  0.00     0.076 A 
ATOM     13  N   UNL     1       5.861  43.040  50.581  1.00  0.00    -0.173 NA
ATOM     14  C   UNL     1       3.879  42.572  51.621  1.00  0.00     0.157 A 
ATOM     15  N   UNL     1       2.828  42.794  52.464  1.00  0.00    -0.228 NA
ATOM     16  C   UNL     1       5.398  41.851  50.191  1.00  0.00     0.138 A 
ATOM     17  C   UNL     1       4.180  41.511  50.799  1.00  0.00     0.071 A 
BRANCH  12  18
ATOM     18  C   UNL     1       1.723  44.202  54.074  1.00  0.00     0.001 A 
ATOM     19  C   UNL     1       0.409  43.788  53.811  1.00  0.00     0.013 A 
ATOM     20  C   UNL     1       1.999  44.939  55.235  1.00  0.00     0.013 A 
ATOM     21  C   UNL     1      -0.611  44.088  54.719  1.00  0.00     0.040 A 
ATOM     22  C   UNL     1       0.976  45.234  56.140  1.00  0.00     0.040 A 
ATOM     23  C   UNL     1      -0.318  44.804  55.873  1.00  0.00     0.123 A 
ATOM     24  F   UNL     1      -1.299  45.089  56.739  1.00  0.00    -0.207 F 
ENDBRANCH  12  18
ENDBRANCH   7   9
ENDBRANCH   6   7
ENDBRANCH   1   6
TORSDOF 7
ENDMDL
MODEL 10
REMARK VINA RESULT:    -7.292      3.235      6.367
REMARK INTER + INTRA:         -11.361
REMARK INTER:                 -10.528
REMARK INTRA:                  -0.833
REMARK UNBOUND:                -1.085
REMARK SMILES CCCOCCNc1cc(-c2ccc(F)cc2)nc2ccnn12
REMARK SMILES IDX 5 1 4 2 3 3 2 4 1 5 6 6 7 7 8 9 9 10 23 11 10 12 22 13 19 14
REMARK SMILES IDX 18 15 21 16 20 17 11 18 12 19 17 20 13 21 16 22 14 23 15 24
REMARK H PARENT 7 8
ROOT
ATOM      1  C   UNL     1       7.991  47.534  51.830  1.00  0.00     0.181 C 
ENDROOT
BRANCH   1   2
ATOM      2  O   UNL     1       7.196  47.644  53.011  1.00  0.00    -0.380 OA
BRANCH   2   3
ATOM      3  C   UNL     1       7.839  47.129  54.175  1.00  0.00     0.160 C 
BRANCH   3   4
ATOM      4  C   UNL     1       9.039  47.969  54.608  1.00  0.00     0.025 C 
ATOM      5  C   UNL     1      10.296  47.132  54.797  1.00  0.00     0.006 C 
ENDBRANCH   3   4
ENDBRANCH   2   3
ENDBRANCH   1   2
BRANCH   1   6
ATOM      6  C   UNL     1       8.072  46.061  51.417  1.00  0.00     0.143 C 
BRANCH   6   7
ATOM      7  N   UNL     1       6.888  45.664  50.665  1.00  0.00    -0.368 N 
ATOM      8  H   UNL     1       7.074  45.452  49.678  1.00  0.00     0.162 HD
BRANCH   7   9
ATOM      9  C   UNL     1       5.891  44.803  51.141  1.00  0.00     0.132 A 
ATOM     10  C   UNL     1       5.018  45.091  52.123  1.00  0.00     0.075 A 
ATOM     11  N   UNL     1       5.789  43.534  50.516  1.00  0.00    -0.199 N 
ATOM     12  C   UNL     1       4.013  44.034  52.477  1.00  0.00     0.076 A 
ATOM     13  N   UNL     1       6.588  43.037  49.520  1.00  0.00    -0.173 NA
ATOM     14  C   UNL     1       4.811  42.614  50.896  1.00  0.00     0.157 A 
ATOM     15  N   UNL     1       3.909  42.876  51.885  1.00  0.00    -0.228 NA
ATOM     16  C   UNL     1       6.088  41.824  49.278  1.00  0.00     0.138 A 
ATOM     17  C   UNL     1       4.993  41.510  50.096  1.00  0.00     0.071 A 
BRANCH  12  18
ATOM     18  C   UNL     1       3.056  44.367  53.574  1.00  0.00     0.001 A 
ATOM     19  C   UNL     1       1.762  43.827  53.617  1.00  0.00     0.013 A 
ATOM     20  C   UNL     1       3.463  45.274  54.563  1.00  0.00     0.013 A 
ATOM     21  C   UNL     1       0.897  44.174  54.658  1.00  0.00     0.040 A 
ATOM     22  C   UNL     1       2.595  45.616  55.603  1.00  0.00     0.040 A 
ATOM     23  C   UNL     1       1.322  45.061  55.641  1.00  0.00     0.123 A 
ATOM     24  F   UNL     1       0.488  45.390  56.636  1.00  0.00    -0.207 F 
ENDBRANCH  12  18
ENDBRANCH   7   9
ENDBRANCH   6   7
ENDBRANCH   1   6
TORSDOF 7
ENDMDL
MODEL 11
REMARK VINA RESULT:    -7.282      2.325      4.638
REMARK INTER + INTRA:         -11.346
REMARK INTER:                 -10.989
REMARK INTRA:                  -0.357
REMARK UNBOUND:                -1.085
REMARK SMILES CCCOCCNc1cc(-c2ccc(F)cc2)nc2ccnn12
REMARK SMILES IDX 5 1 4 2 3 3 2 4 1 5 6 6 7 7 8 9 9 10 23 11 10 12 22 13 19 14
REMARK SMILES IDX 18 15 21 16 20 17 11 18 12 19 17 20 13 21 16 22 14 23 15 24
REMARK H PARENT 7 8
ROOT
ATOM      1  C   UNL     1       5.068  46.953  54.820  1.00  0.00     0.181 C 
ENDROOT
BRANCH   1   2
ATOM      2  O   UNL     1       6.456  46.643  54.951  1.00  0.00    -0.380 OA
BRANCH   2   3
ATOM      3  C   UNL     1       7.247  47.117  53.864  1.00  0.00     0.160 C 
BRANCH   3   4
ATOM      4  C   UNL     1       8.728  47.239  54.219  1.00  0.00     0.025 C 
ATOM      5  C   UNL     1       9.636  46.847  53.062  1.00  0.00     0.006 C 
ENDBRANCH   3   4
ENDBRANCH   2   3
ENDBRANCH   1   2
BRANCH   1   6
ATOM      6  C   UNL     1       4.254  45.958  55.652  1.00  0.00     0.143 C 
BRANCH   6   7
ATOM      7  N   UNL     1       3.175  45.376  54.863  1.00  0.00    -0.368 N 
ATOM      8  H   UNL     1       2.331  45.960  54.818  1.00  0.00     0.162 HD
BRANCH   7   9
ATOM      9  C   UNL     1       3.346  44.719  53.639  1.00  0.00     0.132 A 
ATOM     10  C   UNL     1       4.468  44.732  52.898  1.00  0.00     0.075 A 
ATOM     11  N   UNL     1       2.245  43.964  53.159  1.00  0.00    -0.199 N 
ATOM     12  C   UNL     1       4.454  43.948  51.618  1.00  0.00     0.076 A 
ATOM     13  N   UNL     1       1.012  43.838  53.742  1.00  0.00    -0.173 NA
ATOM     14  C   UNL     1       2.322  43.248  51.963  1.00  0.00     0.157 A 
ATOM     15  N   UNL     1       3.447  43.238  51.190  1.00  0.00    -0.228 NA
ATOM     16  C   UNL     1       0.343  43.032  52.916  1.00  0.00     0.138 A 
ATOM     17  C   UNL     1       1.100  42.637  51.803  1.00  0.00     0.071 A 
BRANCH  12  18
ATOM     18  C   UNL     1       5.705  43.979  50.805  1.00  0.00     0.001 A 
ATOM     19  C   UNL     1       6.121  42.878  50.043  1.00  0.00     0.013 A 
ATOM     20  C   UNL     1       6.497  45.137  50.840  1.00  0.00     0.013 A 
ATOM     21  C   UNL     1       7.305  42.949  49.304  1.00  0.00     0.040 A 
ATOM     22  C   UNL     1       7.679  45.203  50.099  1.00  0.00     0.040 A 
ATOM     23  C   UNL     1       8.070  44.109  49.336  1.00  0.00     0.123 A 
ATOM     24  F   UNL     1       9.204  44.171  48.626  1.00  0.00    -0.207 F 
ENDBRANCH  12  18
ENDBRANCH   7   9
ENDBRANCH   6   7
ENDBRANCH   1   6
TORSDOF 7
ENDMDL
MODEL 12
REMARK VINA RESULT:    -7.275      3.225      6.422
REMARK INTER + INTRA:         -11.336
REMARK INTER:                 -10.456
REMARK INTRA:                  -0.881
REMARK UNBOUND:                -1.085
REMARK SMILES CCCOCCNc1cc(-c2ccc(F)cc2)nc2ccnn12
REMARK SMILES IDX 5 1 4 2 3 3 2 4 1 5 6 6 7 7 8 9 9 10 23 11 10 12 22 13 19 14
REMARK SMILES IDX 18 15 21 16 20 17 11 18 12 19 17 20 13 21 16 22 14 23 15 24
REMARK H PARENT 7 8
ROOT
ATOM      1  C   UNL     1       2.902  45.840  55.317  1.00  0.00     0.181 C 
ENDROOT
BRANCH   1   2
ATOM      2  O   UNL     1       2.274  44.558  55.373  1.00  0.00    -0.380 OA
BRANCH   2   3
ATOM      3  C   UNL     1       1.133  44.451  54.524  1.00  0.00     0.160 C 
BRANCH   3   4
ATOM      4  C   UNL     1       1.328  43.438  53.397  1.00  0.00     0.025 C 
ATOM      5  C   UNL     1       0.322  42.298  53.460  1.00  0.00     0.006 C 
ENDBRANCH   3   4
ENDBRANCH   2   3
ENDBRANCH   1   2
BRANCH   1   6
ATOM      6  C   UNL     1       4.402  45.672  55.577  1.00  0.00     0.143 C 
BRANCH   6   7
ATOM      7  N   UNL     1       5.187  46.455  54.630  1.00  0.00    -0.368 N 
ATOM      8  H   UNL     1       5.878  47.072  55.073  1.00  0.00     0.162 HD
BRANCH   7   9
ATOM      9  C   UNL     1       5.711  45.964  53.428  1.00  0.00     0.132 A 
ATOM     10  C   UNL     1       5.249  44.893  52.758  1.00  0.00     0.075 A 
ATOM     11  N   UNL     1       6.806  46.672  52.871  1.00  0.00    -0.199 N 
ATOM     12  C   UNL     1       5.943  44.537  51.475  1.00  0.00     0.076 A 
ATOM     13  N   UNL     1       7.438  47.765  53.401  1.00  0.00    -0.173 NA
ATOM     14  C   UNL     1       7.383  46.282  51.661  1.00  0.00     0.157 A 
ATOM     15  N   UNL     1       6.936  45.203  50.955  1.00  0.00    -0.228 NA
ATOM     16  C   UNL     1       8.387  48.055  52.509  1.00  0.00     0.138 A 
ATOM     17  C   UNL     1       8.400  47.175  51.417  1.00  0.00     0.071 A 
BRANCH  12  18
ATOM     18  C   UNL     1       5.422  43.342  50.747  1.00  0.00     0.001 A 
ATOM     19  C   UNL     1       4.234  42.703  51.128  1.00  0.00     0.013 A 
ATOM     20  C   UNL     1       6.172  42.834  49.675  1.00  0.00     0.013 A 
ATOM     21  C   UNL     1       3.790  41.581  50.422  1.00  0.00     0.040 A 
ATOM     22  C   UNL     1       5.722  41.713  48.973  1.00  0.00     0.040 A 
ATOM     23  C   UNL     1       4.534  41.099  49.352  1.00  0.00     0.123 A 
ATOM     24  F   UNL     1       4.104  40.024  48.680  1.00  0.00    -0.207 F 
ENDBRANCH  12  18
ENDBRANCH   7   9
ENDBRANCH   6   7
ENDBRANCH   1   6
TORSDOF 7
ENDMDL
MODEL 13
REMARK VINA RESULT:    -7.268      3.178      6.068
REMARK INTER + INTRA:         -11.327
REMARK INTER:                 -10.243
REMARK INTRA:                  -1.085
REMARK UNBOUND:                -1.085
REMARK SMILES CCCOCCNc1cc(-c2ccc(F)cc2)nc2ccnn12
REMARK SMILES IDX 5 1 4 2 3 3 2 4 1 5 6 6 7 7 8 9 9 10 23 11 10 12 22 13 19 14
REMARK SMILES IDX 18 15 21 16 20 17 11 18 12 19 17 20 13 21 16 22 14 23 15 24
REMARK H PARENT 7 8
ROOT
ATOM      1  C   UNL     1       3.359  46.043  55.393  1.00  0.00     0.181 C 
ENDROOT
BRANCH   1   2
ATOM      2  O   UNL     1       3.343  44.804  54.683  1.00  0.00    -0.380 OA
BRANCH   2   3
ATOM      3  C   UNL     1       2.260  44.696  53.761  1.00  0.00     0.160 C 
BRANCH   3   4
ATOM      4  C   UNL     1       2.700  44.180  52.391  1.00  0.00     0.025 C 
ATOM      5  C   UNL     1       1.956  44.859  51.250  1.00  0.00     0.006 C 
ENDBRANCH   3   4
ENDBRANCH   2   3
ENDBRANCH   1   2
BRANCH   1   6
ATOM      6  C   UNL     1       3.991  47.119  54.505  1.00  0.00     0.143 C 
BRANCH   6   7
ATOM      7  N   UNL     1       5.434  47.177  54.701  1.00  0.00    -0.368 N 
ATOM      8  H   UNL     1       5.734  46.956  55.658  1.00  0.00     0.162 HD
BRANCH   7   9
ATOM      9  C   UNL     1       6.384  46.686  53.797  1.00  0.00     0.132 A 
ATOM     10  C   UNL     1       6.122  45.873  52.758  1.00  0.00     0.075 A 
ATOM     11  N   UNL     1       7.726  47.102  53.990  1.00  0.00    -0.199 N 
ATOM     12  C   UNL     1       7.281  45.470  51.894  1.00  0.00     0.076 A 
ATOM     13  N   UNL     1       8.207  47.902  54.991  1.00  0.00    -0.173 NA
ATOM     14  C   UNL     1       8.744  46.693  53.126  1.00  0.00     0.157 A 
ATOM     15  N   UNL     1       8.510  45.871  52.062  1.00  0.00    -0.228 NA
ATOM     16  C   UNL     1       9.512  47.998  54.732  1.00  0.00     0.138 A 
ATOM     17  C   UNL     1       9.899  47.273  53.595  1.00  0.00     0.071 A 
BRANCH  12  18
ATOM     18  C   UNL     1       6.974  44.562  50.749  1.00  0.00     0.001 A 
ATOM     19  C   UNL     1       5.809  43.782  50.715  1.00  0.00     0.013 A 
ATOM     20  C   UNL     1       7.902  44.470  49.702  1.00  0.00     0.013 A 
ATOM     21  C   UNL     1       5.567  42.939  49.627  1.00  0.00     0.040 A 
ATOM     22  C   UNL     1       7.655  43.626  48.616  1.00  0.00     0.040 A 
ATOM     23  C   UNL     1       6.488  42.871  48.589  1.00  0.00     0.123 A 
ATOM     24  F   UNL     1       6.251  42.061  47.549  1.00  0.00    -0.207 F 
ENDBRANCH  12  18
ENDBRANCH   7   9
ENDBRANCH   6   7
ENDBRANCH   1   6
TORSDOF 7
ENDMDL
MODEL 14
REMARK VINA RESULT:    -7.247      3.367      6.454
REMARK INTER + INTRA:         -11.297
REMARK INTER:                 -10.738
REMARK INTRA:                  -0.559
REMARK UNBOUND:                -1.085
REMARK SMILES CCCOCCNc1cc(-c2ccc(F)cc2)nc2ccnn12
REMARK SMILES IDX 5 1 4 2 3 3 2 4 1 5 6 6 7 7 8 9 9 10 23 11 10 12 22 13 19 14
REMARK SMILES IDX 18 15 21 16 20 17 11 18 12 19 17 20 13 21 16 22 14 23 15 24
REMARK H PARENT 7 8
ROOT
ATOM      1  C   UNL     1       8.907  46.133  51.833  1.00  0.00     0.181 C 
ENDROOT
BRANCH   1   2
ATOM      2  O   UNL     1       9.331  47.202  52.680  1.00  0.00    -0.380 OA
BRANCH   2   3
ATOM      3  C   UNL     1       9.958  46.757  53.881  1.00  0.00     0.160 C 
BRANCH   3   4
ATOM      4  C   UNL     1       9.832  47.766  55.022  1.00  0.00     0.025 C 
ATOM      5  C   UNL     1      10.876  47.546  56.107  1.00  0.00     0.006 C 
ENDBRANCH   3   4
ENDBRANCH   2   3
ENDBRANCH   1   2
BRANCH   1   6
ATOM      6  C   UNL     1       7.579  46.515  51.173  1.00  0.00     0.143 C 
BRANCH   6   7
ATOM      7  N   UNL     1       6.999  45.378  50.470  1.00  0.00    -0.368 N 
ATOM      8  H   UNL     1       7.691  44.781  50.001  1.00  0.00     0.162 HD
BRANCH   7   9
ATOM      9  C   UNL     1       5.960  44.579  50.963  1.00  0.00     0.132 A 
ATOM     10  C   UNL     1       5.113  44.925  51.949  1.00  0.00     0.075 A 
ATOM     11  N   UNL     1       5.783  43.311  50.353  1.00  0.00    -0.199 N 
ATOM     12  C   UNL     1       4.054  43.929  52.323  1.00  0.00     0.076 A 
ATOM     13  N   UNL     1       6.544  42.760  49.356  1.00  0.00    -0.173 NA
ATOM     14  C   UNL     1       4.758  42.450  50.751  1.00  0.00     0.157 A 
ATOM     15  N   UNL     1       3.881  42.773  51.745  1.00  0.00    -0.228 NA
ATOM     16  C   UNL     1       5.976  41.574  49.132  1.00  0.00     0.138 A 
ATOM     17  C   UNL     1       4.872  41.329  49.963  1.00  0.00     0.071 A 
BRANCH  12  18
ATOM     18  C   UNL     1       3.127  44.326  53.423  1.00  0.00     0.001 A 
ATOM     19  C   UNL     1       3.527  45.189  54.454  1.00  0.00     0.013 A 
ATOM     20  C   UNL     1       1.832  43.786  53.434  1.00  0.00     0.013 A 
ATOM     21  C   UNL     1       2.628  45.525  55.469  1.00  0.00     0.040 A 
ATOM     22  C   UNL     1       0.937  44.127  54.451  1.00  0.00     0.040 A 
ATOM     23  C   UNL     1       1.343  44.995  55.457  1.00  0.00     0.123 A 
ATOM     24  F   UNL     1       0.486  45.321  56.433  1.00  0.00    -0.207 F 
ENDBRANCH  12  18
ENDBRANCH   7   9
ENDBRANCH   6   7
ENDBRANCH   1   6
TORSDOF 7
ENDMDL
MODEL 15
REMARK VINA RESULT:    -7.180      1.930      2.357
REMARK INTER + INTRA:         -11.204
REMARK INTER:                 -10.694
REMARK INTRA:                  -0.509
REMARK UNBOUND:                -1.085
REMARK SMILES CCCOCCNc1cc(-c2ccc(F)cc2)nc2ccnn12
REMARK SMILES IDX 5 1 4 2 3 3 2 4 1 5 6 6 7 7 8 9 9 10 23 11 10 12 22 13 19 14
REMARK SMILES IDX 18 15 21 16 20 17 11 18 12 19 17 20 13 21 16 22 14 23 15 24
REMARK H PARENT 7 8
ROOT
ATOM      1  C   UNL     1       3.536  40.380  48.892  1.00  0.00     0.181 C 
ENDROOT
BRANCH   1   2
ATOM      2  O   UNL     1       4.167  40.807  47.684  1.00  0.00    -0.380 OA
BRANCH   2   3
ATOM      3  C   UNL     1       3.523  40.320  46.508  1.00  0.00     0.160 C 
BRANCH   3   4
ATOM      4  C   UNL     1       3.848  41.153  45.269  1.00  0.00     0.025 C 
ATOM      5  C   UNL     1       5.231  41.785  45.340  1.00  0.00     0.006 C 
ENDBRANCH   3   4
ENDBRANCH   2   3
ENDBRANCH   1   2
BRANCH   1   6
ATOM      6  C   UNL     1       4.227  41.054  50.081  1.00  0.00     0.143 C 
BRANCH   6   7
ATOM      7  N   UNL     1       3.284  41.863  50.843  1.00  0.00    -0.368 N 
ATOM      8  H   UNL     1       2.532  41.320  51.284  1.00  0.00     0.162 HD
BRANCH   7   9
ATOM      9  C   UNL     1       3.640  42.925  51.684  1.00  0.00     0.132 A 
ATOM     10  C   UNL     1       4.803  43.598  51.638  1.00  0.00     0.075 A 
ATOM     11  N   UNL     1       2.679  43.328  52.646  1.00  0.00    -0.199 N 
ATOM     12  C   UNL     1       4.986  44.719  52.620  1.00  0.00     0.076 A 
ATOM     13  N   UNL     1       1.451  42.766  52.874  1.00  0.00    -0.173 NA
ATOM     14  C   UNL     1       2.924  44.395  53.513  1.00  0.00     0.157 A 
ATOM     15  N   UNL     1       4.092  45.100  53.489  1.00  0.00    -0.228 NA
ATOM     16  C   UNL     1       0.938  43.498  53.864  1.00  0.00     0.138 A 
ATOM     17  C   UNL     1       1.801  44.516  54.297  1.00  0.00     0.071 A 
BRANCH  12  18
ATOM     18  C   UNL     1       6.285  45.451  52.560  1.00  0.00     0.001 A 
ATOM     19  C   UNL     1       6.936  45.706  51.344  1.00  0.00     0.013 A 
ATOM     20  C   UNL     1       6.879  45.859  53.764  1.00  0.00     0.013 A 
ATOM     21  C   UNL     1       8.156  46.387  51.337  1.00  0.00     0.040 A 
ATOM     22  C   UNL     1       8.098  46.540  53.751  1.00  0.00     0.040 A 
ATOM     23  C   UNL     1       8.723  46.800  52.537  1.00  0.00     0.123 A 
ATOM     24  F   UNL     1       9.893  47.451  52.524  1.00  0.00    -0.207 F 
ENDBRANCH  12  18
ENDBRANCH   7   9
ENDBRANCH   6   7
ENDBRANCH   1   6
TORSDOF 7
ENDMDL
MODEL 16
REMARK VINA RESULT:    -7.151      2.022      4.722
REMARK INTER + INTRA:         -11.162
REMARK INTER:                 -10.422
REMARK INTRA:                  -0.741
REMARK UNBOUND:                -1.085
REMARK SMILES CCCOCCNc1cc(-c2ccc(F)cc2)nc2ccnn12
REMARK SMILES IDX 5 1 4 2 3 3 2 4 1 5 6 6 7 7 8 9 9 10 23 11 10 12 22 13 19 14
REMARK SMILES IDX 18 15 21 16 20 17 11 18 12 19 17 20 13 21 16 22 14 23 15 24
REMARK H PARENT 7 8
ROOT
ATOM      1  C   UNL     1       1.140  44.269  52.088  1.00  0.00     0.181 C 
ENDROOT
BRANCH   1   2
ATOM      2  O   UNL     1       0.741  44.779  53.360  1.00  0.00    -0.380 OA
BRANCH   2   3
ATOM      3  C   UNL     1       1.730  45.602  53.975  1.00  0.00     0.160 C 
BRANCH   3   4
ATOM      4  C   UNL     1       2.088  45.141  55.387  1.00  0.00     0.025 C 
ATOM      5  C   UNL     1       0.910  45.240  56.345  1.00  0.00     0.006 C 
ENDBRANCH   3   4
ENDBRANCH   2   3
ENDBRANCH   1   2
BRANCH   1   6
ATOM      6  C   UNL     1       1.255  42.744  52.175  1.00  0.00     0.143 C 
BRANCH   6   7
ATOM      7  N   UNL     1       2.614  42.341  52.515  1.00  0.00    -0.368 N 
ATOM      8  H   UNL     1       2.717  41.335  52.696  1.00  0.00     0.162 HD
BRANCH   7   9
ATOM      9  C   UNL     1       3.770  42.815  51.882  1.00  0.00     0.132 A 
ATOM     10  C   UNL     1       4.497  43.873  52.283  1.00  0.00     0.075 A 
ATOM     11  N   UNL     1       4.211  42.103  50.738  1.00  0.00    -0.199 N 
ATOM     12  C   UNL     1       5.716  44.212  51.474  1.00  0.00     0.076 A 
ATOM     13  N   UNL     1       3.608  41.020  50.155  1.00  0.00    -0.173 NA
ATOM     14  C   UNL     1       5.369  42.476  50.053  1.00  0.00     0.157 A 
ATOM     15  N   UNL     1       6.130  43.542  50.435  1.00  0.00    -0.228 NA
ATOM     16  C   UNL     1       4.403  40.720  49.127  1.00  0.00     0.138 A 
ATOM     17  C   UNL     1       5.503  41.584  49.015  1.00  0.00     0.071 A 
BRANCH  12  18
ATOM     18  C   UNL     1       6.508  45.393  51.928  1.00  0.00     0.001 A 
ATOM     19  C   UNL     1       6.229  46.053  53.134  1.00  0.00     0.013 A 
ATOM     20  C   UNL     1       7.535  45.867  51.099  1.00  0.00     0.013 A 
ATOM     21  C   UNL     1       6.991  47.161  53.514  1.00  0.00     0.040 A 
ATOM     22  C   UNL     1       8.295  46.974  51.484  1.00  0.00     0.040 A 
ATOM     23  C   UNL     1       8.017  47.608  52.689  1.00  0.00     0.123 A 
ATOM     24  F   UNL     1       8.743  48.671  53.059  1.00  0.00    -0.207 F 
ENDBRANCH  12  18
ENDBRANCH   7   9
ENDBRANCH   6   7
ENDBRANCH   1   6
TORSDOF 7
ENDMDL
MODEL 17
REMARK VINA RESULT:    -6.996      3.683      6.854
REMARK INTER + INTRA:         -10.943
REMARK INTER:                  -9.867
REMARK INTRA:                  -1.076
REMARK UNBOUND:                -1.085
REMARK SMILES CCCOCCNc1cc(-c2ccc(F)cc2)nc2ccnn12
REMARK SMILES IDX 5 1 4 2 3 3 2 4 1 5 6 6 7 7 8 9 9 10 23 11 10 12 22 13 19 14
REMARK SMILES IDX 18 15 21 16 20 17 11 18 12 19 17 20 13 21 16 22 14 23 15 24
REMARK H PARENT 7 8
ROOT
ATOM      1  C   UNL     1       8.062  46.849  53.901  1.00  0.00     0.181 C 
ENDROOT
BRANCH   1   2
ATOM      2  O   UNL     1       7.067  47.183  54.869  1.00  0.00    -0.380 OA
BRANCH   2   3
ATOM      3  C   UNL     1       6.021  46.217  54.961  1.00  0.00     0.160 C 
BRANCH   3   4
ATOM      4  C   UNL     1       4.629  46.844  54.890  1.00  0.00     0.025 C 
ATOM      5  C   UNL     1       3.555  45.940  55.476  1.00  0.00     0.006 C 
ENDBRANCH   3   4
ENDBRANCH   2   3
ENDBRANCH   1   2
BRANCH   1   6
ATOM      6  C   UNL     1       7.886  47.747  52.674  1.00  0.00     0.143 C 
BRANCH   6   7
ATOM      7  N   UNL     1       7.793  46.954  51.454  1.00  0.00    -0.368 N 
ATOM      8  H   UNL     1       8.703  46.650  51.085  1.00  0.00     0.162 HD
BRANCH   7   9
ATOM      9  C   UNL     1       6.845  45.950  51.224  1.00  0.00     0.132 A 
ATOM     10  C   UNL     1       5.601  45.922  51.737  1.00  0.00     0.075 A 
ATOM     11  N   UNL     1       7.230  44.890  50.364  1.00  0.00    -0.199 N 
ATOM     12  C   UNL     1       4.729  44.762  51.355  1.00  0.00     0.076 A 
ATOM     13  N   UNL     1       8.447  44.717  49.761  1.00  0.00    -0.173 NA
ATOM     14  C   UNL     1       6.348  43.856  50.047  1.00  0.00     0.157 A 
ATOM     15  N   UNL     1       5.079  43.800  50.547  1.00  0.00    -0.228 NA
ATOM     16  C   UNL     1       8.305  43.590  49.062  1.00  0.00     0.138 A 
ATOM     17  C   UNL     1       7.033  43.015  49.201  1.00  0.00     0.071 A 
BRANCH  12  18
ATOM     18  C   UNL     1       3.355  44.743  51.938  1.00  0.00     0.001 A 
ATOM     19  C   UNL     1       2.479  45.830  51.805  1.00  0.00     0.013 A 
ATOM     20  C   UNL     1       2.953  43.613  52.667  1.00  0.00     0.013 A 
ATOM     21  C   UNL     1       1.204  45.771  52.375  1.00  0.00     0.040 A 
ATOM     22  C   UNL     1       1.678  43.560  53.234  1.00  0.00     0.040 A 
ATOM     23  C   UNL     1       0.815  44.638  53.080  1.00  0.00     0.123 A 
ATOM     24  F   UNL     1      -0.407  44.589  53.625  1.00  0.00    -0.207 F 
ENDBRANCH  12  18
ENDBRANCH   7   9
ENDBRANCH   6   7
ENDBRANCH   1   6
TORSDOF 7
ENDMDL
MODEL 18
REMARK VINA RESULT:    -6.776      3.049      5.898
REMARK INTER + INTRA:         -10.633
REMARK INTER:                  -9.993
REMARK INTRA:                  -0.640
REMARK UNBOUND:                -1.085
REMARK SMILES CCCOCCNc1cc(-c2ccc(F)cc2)nc2ccnn12
REMARK SMILES IDX 5 1 4 2 3 3 2 4 1 5 6 6 7 7 8 9 9 10 23 11 10 12 22 13 19 14
REMARK SMILES IDX 18 15 21 16 20 17 11 18 12 19 17 20 13 21 16 22 14 23 15 24
REMARK H PARENT 7 8
ROOT
ATOM      1  C   UNL     1      -0.023  45.563  56.359  1.00  0.00     0.181 C 
ENDROOT
BRANCH   1   2
ATOM      2  O   UNL     1      -0.640  45.915  57.598  1.00  0.00    -0.380 OA
BRANCH   2   3
ATOM      3  C   UNL     1      -1.145  47.249  57.618  1.00  0.00     0.160 C 
BRANCH   3   4
ATOM      4  C   UNL     1      -0.965  47.928  58.975  1.00  0.00     0.025 C 
ATOM      5  C   UNL     1       0.440  47.749  59.532  1.00  0.00     0.006 C 
ENDBRANCH   3   4
ENDBRANCH   2   3
ENDBRANCH   1   2
BRANCH   1   6
ATOM      6  C   UNL     1       1.498  45.646  56.518  1.00  0.00     0.143 C 
BRANCH   6   7
ATOM      7  N   UNL     1       2.165  44.651  55.687  1.00  0.00    -0.368 N 
ATOM      8  H   UNL     1       1.629  43.784  55.565  1.00  0.00     0.162 HD
BRANCH   7   9
ATOM      9  C   UNL     1       2.859  44.934  54.504  1.00  0.00     0.132 A 
ATOM     10  C   UNL     1       4.133  45.358  54.431  1.00  0.00     0.075 A 
ATOM     11  N   UNL     1       2.157  44.736  53.288  1.00  0.00    -0.199 N 
ATOM     12  C   UNL     1       4.701  45.591  53.061  1.00  0.00     0.076 A 
ATOM     13  N   UNL     1       0.856  44.335  53.141  1.00  0.00    -0.173 NA
ATOM     14  C   UNL     1       2.767  44.961  52.052  1.00  0.00     0.157 A 
ATOM     15  N   UNL     1       4.059  45.387  51.945  1.00  0.00    -0.228 NA
ATOM     16  C   UNL     1       0.675  44.296  51.820  1.00  0.00     0.138 A 
ATOM     17  C   UNL     1       1.819  44.672  51.099  1.00  0.00     0.071 A 
BRANCH  12  18
ATOM     18  C   UNL     1       6.114  46.067  52.999  1.00  0.00     0.001 A 
ATOM     19  C   UNL     1       6.818  46.140  51.788  1.00  0.00     0.013 A 
ATOM     20  C   UNL     1       6.755  46.416  54.197  1.00  0.00     0.013 A 
ATOM     21  C   UNL     1       8.143  46.583  51.779  1.00  0.00     0.040 A 
ATOM     22  C   UNL     1       8.080  46.860  54.181  1.00  0.00     0.040 A 
ATOM     23  C   UNL     1       8.760  46.942  52.972  1.00  0.00     0.123 A 
ATOM     24  F   UNL     1      10.030  47.365  52.957  1.00  0.00    -0.207 F 
ENDBRANCH  12  18
ENDBRANCH   7   9
ENDBRANCH   6   7
ENDBRANCH   1   6
TORSDOF 7
ENDMDL
MODEL 19
REMARK VINA RESULT:    -6.712      2.601      5.586
REMARK INTER + INTRA:         -10.543
REMARK INTER:                  -9.990
REMARK INTRA:                  -0.552
REMARK UNBOUND:                -1.085
REMARK SMILES CCCOCCNc1cc(-c2ccc(F)cc2)nc2ccnn12
REMARK SMILES IDX 5 1 4 2 3 3 2 4 1 5 6 6 7 7 8 9 9 10 23 11 10 12 22 13 19 14
REMARK SMILES IDX 18 15 21 16 20 17 11 18 12 19 17 20 13 21 16 22 14 23 15 24
REMARK H PARENT 7 8
ROOT
ATOM      1  C   UNL     1       0.890  45.620  57.200  1.00  0.00     0.181 C 
ENDROOT
BRANCH   1   2
ATOM      2  O   UNL     1      -0.159  44.663  57.354  1.00  0.00    -0.380 OA
BRANCH   2   3
ATOM      3  C   UNL     1      -1.392  45.076  56.766  1.00  0.00     0.160 C 
BRANCH   3   4
ATOM      4  C   UNL     1      -2.175  43.914  56.158  1.00  0.00     0.025 C 
ATOM      5  C   UNL     1      -2.962  43.135  57.201  1.00  0.00     0.006 C 
ENDBRANCH   3   4
ENDBRANCH   2   3
ENDBRANCH   1   2
BRANCH   1   6
ATOM      6  C   UNL     1       1.312  45.665  55.728  1.00  0.00     0.143 C 
BRANCH   6   7
ATOM      7  N   UNL     1       2.332  44.663  55.447  1.00  0.00    -0.368 N 
ATOM      8  H   UNL     1       2.107  43.727  55.805  1.00  0.00     0.162 HD
BRANCH   7   9
ATOM      9  C   UNL     1       3.016  44.538  54.231  1.00  0.00     0.132 A 
ATOM     10  C   UNL     1       4.229  45.055  53.964  1.00  0.00     0.075 A 
ATOM     11  N   UNL     1       2.376  43.788  53.212  1.00  0.00    -0.199 N 
ATOM     12  C   UNL     1       4.798  44.795  52.600  1.00  0.00     0.076 A 
ATOM     13  N   UNL     1       1.140  43.202  53.269  1.00  0.00    -0.173 NA
ATOM     14  C   UNL     1       2.986  43.580  51.973  1.00  0.00     0.157 A 
ATOM     15  N   UNL     1       4.216  44.087  51.672  1.00  0.00    -0.228 NA
ATOM     16  C   UNL     1       1.000  42.621  52.077  1.00  0.00     0.138 A 
ATOM     17  C   UNL     1       2.106  42.821  51.237  1.00  0.00     0.071 A 
BRANCH  12  18
ATOM     18  C   UNL     1       6.142  45.381  52.317  1.00  0.00     0.001 A 
ATOM     19  C   UNL     1       6.708  45.350  51.034  1.00  0.00     0.013 A 
ATOM     20  C   UNL     1       6.863  45.944  53.381  1.00  0.00     0.013 A 
ATOM     21  C   UNL     1       7.974  45.902  50.819  1.00  0.00     0.040 A 
ATOM     22  C   UNL     1       8.126  46.496  53.159  1.00  0.00     0.040 A 
ATOM     23  C   UNL     1       8.668  46.472  51.880  1.00  0.00     0.123 A 
ATOM     24  F   UNL     1       9.880  46.999  51.666  1.00  0.00    -0.207 F 
ENDBRANCH  12  18
ENDBRANCH   7   9
ENDBRANCH   6   7
ENDBRANCH   1   6
TORSDOF 7
ENDMDL
