MODEL 1
REMARK VINA RESULT:    -8.876      0.000      0.000
REMARK INTER + INTRA:         -13.132
REMARK INTER:                 -12.508
REMARK INTRA:                  -0.624
REMARK UNBOUND:                -0.624
REMARK SMILES COC(=O)CCCNc1nc(-c2ccc(Cl)cc2)nc2c1CCCC2
REMARK SMILES IDX 6 1 5 2 3 3 4 4 2 5 1 6 7 7 8 8 9 10 10 11 21 12 11 13 20 14
REMARK SMILES IDX 22 15 19 16 25 17 23 18 24 19 12 20 13 21 18 22 14 23 17 24
REMARK SMILES IDX 15 25 16 26
REMARK H PARENT 8 9
ROOT
ATOM      1  C   UNL     1       8.339  47.406  52.284  1.00  0.00     0.033 C 
ENDROOT
BRANCH   1   2
ATOM      2  C   UNL     1       9.622  47.144  53.071  1.00  0.00     0.124 C 
BRANCH   2   3
ATOM      3  C   UNL     1       9.500  47.610  54.501  1.00  0.00     0.305 C 
ATOM      4  O   UNL     1       8.797  48.532  54.892  1.00  0.00    -0.252 OA
BRANCH   3   5
ATOM      5  O   UNL     1      10.292  46.838  55.300  1.00  0.00    -0.469 OA
ATOM      6  C   UNL     1      11.051  47.579  56.255  1.00  0.00     0.282 C 
ENDBRANCH   3   5
ENDBRANCH   2   3
ENDBRANCH   1   2
BRANCH   1   7
ATOM      7  C   UNL     1       7.166  46.528  52.714  1.00  0.00     0.115 C 
BRANCH   7   8
ATOM      8  N   UNL     1       6.360  46.118  51.565  1.00  0.00    -0.370 N 
ATOM      9  H   UNL     1       5.894  46.915  51.138  1.00  0.00     0.162 HD
BRANCH   8  10
ATOM     10  C   UNL     1       5.412  45.099  51.764  1.00  0.00     0.133 A 
ATOM     11  N   UNL     1       4.431  45.279  52.661  1.00  0.00    -0.211 NA
ATOM     12  C   UNL     1       5.546  43.904  51.058  1.00  0.00     0.016 A 
ATOM     13  C   UNL     1       3.545  44.285  52.840  1.00  0.00     0.161 A 
ATOM     14  C   UNL     1       4.573  42.941  51.292  1.00  0.00     0.050 A 
ATOM     15  C   UNL     1       6.649  43.683  50.057  1.00  0.00     0.041 C 
ATOM     16  N   UNL     1       3.576  43.115  52.180  1.00  0.00    -0.233 NA
ATOM     17  C   UNL     1       4.607  41.598  50.608  1.00  0.00     0.057 C 
ATOM     18  C   UNL     1       6.821  42.223  49.642  1.00  0.00     0.005 C 
ATOM     19  C   UNL     1       5.469  41.587  49.350  1.00  0.00     0.007 C 
BRANCH  13  20
ATOM     20  C   UNL     1       2.467  44.491  53.830  1.00  0.00     0.019 A 
ATOM     21  C   UNL     1       2.691  45.204  55.025  1.00  0.00     0.013 A 
ATOM     22  C   UNL     1       1.167  43.984  53.620  1.00  0.00     0.013 A 
ATOM     23  C   UNL     1       1.672  45.402  55.964  1.00  0.00     0.021 A 
ATOM     24  C   UNL     1       0.144  44.180  54.556  1.00  0.00     0.021 A 
ATOM     25  C   UNL     1       0.402  44.888  55.724  1.00  0.00     0.041 A 
ATOM     26  Cl  UNL     1      -0.853  45.130  56.875  1.00  0.00    -0.084 Cl
ENDBRANCH  13  20
ENDBRANCH   8  10
ENDBRANCH   7   8
ENDBRANCH   1   7
TORSDOF 7
ENDMDL
MODEL 2
REMARK VINA RESULT:    -8.677      3.320      5.813
REMARK INTER + INTRA:         -12.851
REMARK INTER:                 -11.985
REMARK INTRA:                  -0.866
REMARK UNBOUND:                -0.624
REMARK SMILES COC(=O)CCCNc1nc(-c2ccc(Cl)cc2)nc2c1CCCC2
REMARK SMILES IDX 6 1 5 2 3 3 4 4 2 5 1 6 7 7 8 8 9 10 10 11 21 12 11 13 20 14
REMARK SMILES IDX 22 15 19 16 25 17 23 18 24 19 12 20 13 21 18 22 14 23 17 24
REMARK SMILES IDX 15 25 16 26
REMARK H PARENT 8 9
ROOT
ATOM      1  C   UNL     1       6.862  42.961  48.996  1.00  0.00     0.033 C 
ENDROOT
BRANCH   1   2
ATOM      2  C   UNL     1       6.399  41.845  49.932  1.00  0.00     0.124 C 
BRANCH   2   3
ATOM      3  C   UNL     1       5.130  41.197  49.436  1.00  0.00     0.305 C 
ATOM      4  O   UNL     1       4.837  41.010  48.264  1.00  0.00    -0.252 OA
BRANCH   3   5
ATOM      5  O   UNL     1       4.355  40.842  50.502  1.00  0.00    -0.469 OA
ATOM      6  C   UNL     1       3.934  41.942  51.307  1.00  0.00     0.282 C 
ENDBRANCH   3   5
ENDBRANCH   2   3
ENDBRANCH   1   2
BRANCH   1   7
ATOM      7  C   UNL     1       8.090  43.715  49.502  1.00  0.00     0.115 C 
BRANCH   7   8
ATOM      8  N   UNL     1       7.804  45.138  49.678  1.00  0.00    -0.370 N 
ATOM      9  H   UNL     1       8.639  45.702  49.541  1.00  0.00     0.162 HD
BRANCH   8  10
ATOM     10  C   UNL     1       7.187  45.536  50.877  1.00  0.00     0.133 A 
ATOM     11  N   UNL     1       5.856  45.416  51.002  1.00  0.00    -0.211 NA
ATOM     12  C   UNL     1       7.969  46.091  51.888  1.00  0.00     0.016 A 
ATOM     13  C   UNL     1       5.290  45.814  52.154  1.00  0.00     0.161 A 
ATOM     14  C   UNL     1       7.301  46.455  53.050  1.00  0.00     0.050 A 
ATOM     15  C   UNL     1       9.461  46.243  51.756  1.00  0.00     0.041 C 
ATOM     16  N   UNL     1       5.968  46.328  53.193  1.00  0.00    -0.233 NA
ATOM     17  C   UNL     1       8.022  47.083  54.215  1.00  0.00     0.057 C 
ATOM     18  C   UNL     1      10.083  47.158  52.809  1.00  0.00     0.005 C 
ATOM     19  C   UNL     1       9.528  46.839  54.191  1.00  0.00     0.007 C 
BRANCH  13  20
ATOM     20  C   UNL     1       3.824  45.679  52.285  1.00  0.00     0.019 A 
ATOM     21  C   UNL     1       3.005  45.419  51.167  1.00  0.00     0.013 A 
ATOM     22  C   UNL     1       3.181  45.804  53.534  1.00  0.00     0.013 A 
ATOM     23  C   UNL     1       1.616  45.290  51.287  1.00  0.00     0.021 A 
ATOM     24  C   UNL     1       1.792  45.675  53.660  1.00  0.00     0.021 A 
ATOM     25  C   UNL     1       1.017  45.419  52.535  1.00  0.00     0.041 A 
ATOM     26  Cl  UNL     1      -0.689  45.259  52.688  1.00  0.00    -0.084 Cl
ENDBRANCH  13  20
ENDBRANCH   8  10
ENDBRANCH   7   8
ENDBRANCH   1   7
TORSDOF 7
ENDMDL
MODEL 3
REMARK VINA RESULT:    -8.662      0.962      1.536
REMARK INTER + INTRA:         -12.830
REMARK INTER:                 -12.106
REMARK INTRA:                  -0.724
REMARK UNBOUND:                -0.624
REMARK SMILES COC(=O)CCCNc1nc(-c2ccc(Cl)cc2)nc2c1CCCC2
REMARK SMILES IDX 6 1 5 2 3 3 4 4 2 5 1 6 7 7 8 8 9 10 10 11 21 12 11 13 20 14
REMARK SMILES IDX 22 15 19 16 25 17 23 18 24 19 12 20 13 21 18 22 14 23 17 24
REMARK SMILES IDX 15 25 16 26
REMARK H PARENT 8 9
ROOT
ATOM      1  C   UNL     1       6.878  47.569  52.714  1.00  0.00     0.033 C 
ENDROOT
BRANCH   1   2
ATOM      2  C   UNL     1       8.351  47.936  52.537  1.00  0.00     0.124 C 
BRANCH   2   3
ATOM      3  C   UNL     1       9.143  47.673  53.794  1.00  0.00     0.305 C 
ATOM      4  O   UNL     1       8.845  48.056  54.917  1.00  0.00    -0.252 OA
BRANCH   3   5
ATOM      5  O   UNL     1      10.246  46.931  53.489  1.00  0.00    -0.469 OA
ATOM      6  C   UNL     1      10.263  46.439  52.150  1.00  0.00     0.282 C 
ENDBRANCH   3   5
ENDBRANCH   2   3
ENDBRANCH   1   2
BRANCH   1   7
ATOM      7  C   UNL     1       6.643  46.081  52.964  1.00  0.00     0.115 C 
BRANCH   7   8
ATOM      8  N   UNL     1       6.180  45.405  51.753  1.00  0.00    -0.370 N 
ATOM      9  H   UNL     1       5.964  46.074  51.018  1.00  0.00     0.162 HD
BRANCH   8  10
ATOM     10  C   UNL     1       5.103  44.511  51.877  1.00  0.00     0.133 A 
ATOM     11  N   UNL     1       4.129  44.774  52.763  1.00  0.00    -0.211 NA
ATOM     12  C   UNL     1       5.098  43.348  51.110  1.00  0.00     0.016 A 
ATOM     13  C   UNL     1       3.116  43.897  52.870  1.00  0.00     0.161 A 
ATOM     14  C   UNL     1       4.001  42.511  51.272  1.00  0.00     0.050 A 
ATOM     15  C   UNL     1       6.190  43.034  50.121  1.00  0.00     0.041 C 
ATOM     16  N   UNL     1       3.012  42.769  52.148  1.00  0.00    -0.233 NA
ATOM     17  C   UNL     1       3.878  41.212  50.517  1.00  0.00     0.057 C 
ATOM     18  C   UNL     1       6.181  41.587  49.631  1.00  0.00     0.005 C 
ATOM     19  C   UNL     1       4.765  41.151  49.278  1.00  0.00     0.007 C 
BRANCH  13  20
ATOM     20  C   UNL     1       2.048  44.193  53.847  1.00  0.00     0.019 A 
ATOM     21  C   UNL     1       0.743  43.682  53.690  1.00  0.00     0.013 A 
ATOM     22  C   UNL     1       2.288  44.998  54.980  1.00  0.00     0.013 A 
ATOM     23  C   UNL     1      -0.271  43.960  54.615  1.00  0.00     0.021 A 
ATOM     24  C   UNL     1       1.278  45.278  55.909  1.00  0.00     0.021 A 
ATOM     25  C   UNL     1       0.003  44.758  55.721  1.00  0.00     0.041 A 
ATOM     26  Cl  UNL     1      -1.239  45.100  56.860  1.00  0.00    -0.084 Cl
ENDBRANCH  13  20
ENDBRANCH   8  10
ENDBRANCH   7   8
ENDBRANCH   1   7
TORSDOF 7
ENDMDL
MODEL 4
REMARK VINA RESULT:    -8.652      3.456      6.382
REMARK INTER + INTRA:         -12.816
REMARK INTER:                 -11.593
REMARK INTRA:                  -1.223
REMARK UNBOUND:                -0.624
REMARK SMILES COC(=O)CCCNc1nc(-c2ccc(Cl)cc2)nc2c1CCCC2
REMARK SMILES IDX 6 1 5 2 3 3 4 4 2 5 1 6 7 7 8 8 9 10 10 11 21 12 11 13 20 14
REMARK SMILES IDX 22 15 19 16 25 17 23 18 24 19 12 20 13 21 18 22 14 23 17 24
REMARK SMILES IDX 15 25 16 26
REMARK H PARENT 8 9
ROOT
ATOM      1  C   UNL     1       3.459  46.409  54.852  1.00  0.00     0.033 C 
ENDROOT
BRANCH   1   2
ATOM      2  C   UNL     1       2.423  46.071  53.780  1.00  0.00     0.124 C 
BRANCH   2   3
ATOM      3  C   UNL     1       2.687  46.822  52.498  1.00  0.00     0.305 C 
ATOM      4  O   UNL     1       3.000  48.001  52.415  1.00  0.00    -0.252 OA
BRANCH   3   5
ATOM      5  O   UNL     1       2.531  45.978  51.437  1.00  0.00    -0.469 OA
ATOM      6  C   UNL     1       1.413  45.098  51.555  1.00  0.00     0.282 C 
ENDBRANCH   3   5
ENDBRANCH   2   3
ENDBRANCH   1   2
BRANCH   1   7
ATOM      7  C   UNL     1       4.181  45.186  55.415  1.00  0.00     0.115 C 
BRANCH   7   8
ATOM      8  N   UNL     1       5.602  45.203  55.071  1.00  0.00    -0.370 N 
ATOM      9  H   UNL     1       6.069  46.012  55.474  1.00  0.00     0.162 HD
BRANCH   8  10
ATOM     10  C   UNL     1       5.944  45.120  53.710  1.00  0.00     0.133 A 
ATOM     11  N   UNL     1       5.419  44.139  52.959  1.00  0.00    -0.211 NA
ATOM     12  C   UNL     1       6.861  46.030  53.187  1.00  0.00     0.016 A 
ATOM     13  C   UNL     1       5.773  44.075  51.664  1.00  0.00     0.161 A 
ATOM     14  C   UNL     1       7.150  45.899  51.834  1.00  0.00     0.050 A 
ATOM     15  C   UNL     1       7.467  47.128  54.021  1.00  0.00     0.041 C 
ATOM     16  N   UNL     1       6.621  44.928  51.067  1.00  0.00    -0.233 NA
ATOM     17  C   UNL     1       8.136  46.807  51.145  1.00  0.00     0.057 C 
ATOM     18  C   UNL     1       8.674  47.801  53.370  1.00  0.00     0.005 C 
ATOM     19  C   UNL     1       8.392  48.104  51.905  1.00  0.00     0.007 C 
BRANCH  13  20
ATOM     20  C   UNL     1       5.190  42.992  50.844  1.00  0.00     0.019 A 
ATOM     21  C   UNL     1       5.895  42.428  49.761  1.00  0.00     0.013 A 
ATOM     22  C   UNL     1       3.905  42.475  51.110  1.00  0.00     0.013 A 
ATOM     23  C   UNL     1       5.348  41.402  48.982  1.00  0.00     0.021 A 
ATOM     24  C   UNL     1       3.352  41.448  50.335  1.00  0.00     0.021 A 
ATOM     25  C   UNL     1       4.077  40.917  49.274  1.00  0.00     0.041 A 
ATOM     26  Cl  UNL     1       3.401  39.655  48.321  1.00  0.00    -0.084 Cl
ENDBRANCH  13  20
ENDBRANCH   8  10
ENDBRANCH   7   8
ENDBRANCH   1   7
TORSDOF 7
ENDMDL
MODEL 5
REMARK VINA RESULT:    -8.593      0.944      1.590
REMARK INTER + INTRA:         -12.733
REMARK INTER:                 -12.005
REMARK INTRA:                  -0.729
REMARK UNBOUND:                -0.624
REMARK SMILES COC(=O)CCCNc1nc(-c2ccc(Cl)cc2)nc2c1CCCC2
REMARK SMILES IDX 6 1 5 2 3 3 4 4 2 5 1 6 7 7 8 8 9 10 10 11 21 12 11 13 20 14
REMARK SMILES IDX 22 15 19 16 25 17 23 18 24 19 12 20 13 21 18 22 14 23 17 24
REMARK SMILES IDX 15 25 16 26
REMARK H PARENT 8 9
ROOT
ATOM      1  C   UNL     1       7.520  47.907  52.423  1.00  0.00     0.033 C 
ENDROOT
BRANCH   1   2
ATOM      2  C   UNL     1       8.535  47.214  51.515  1.00  0.00     0.124 C 
BRANCH   2   3
ATOM      3  C   UNL     1       9.761  46.783  52.283  1.00  0.00     0.305 C 
ATOM      4  O   UNL     1      10.511  45.868  51.971  1.00  0.00    -0.252 OA
BRANCH   3   5
ATOM      5  O   UNL     1       9.912  47.578  53.381  1.00  0.00    -0.469 OA
ATOM      6  C   UNL     1      10.034  46.859  54.607  1.00  0.00     0.282 C 
ENDBRANCH   3   5
ENDBRANCH   2   3
ENDBRANCH   1   2
BRANCH   1   7
ATOM      7  C   UNL     1       6.236  47.106  52.631  1.00  0.00     0.115 C 
BRANCH   7   8
ATOM      8  N   UNL     1       6.057  46.107  51.578  1.00  0.00    -0.370 N 
ATOM      9  H   UNL     1       5.835  46.545  50.688  1.00  0.00     0.162 HD
BRANCH   8  10
ATOM     10  C   UNL     1       5.133  45.073  51.811  1.00  0.00     0.133 A 
ATOM     11  N   UNL     1       4.146  45.262  52.700  1.00  0.00    -0.211 NA
ATOM     12  C   UNL     1       5.297  43.859  51.147  1.00  0.00     0.016 A 
ATOM     13  C   UNL     1       3.284  44.253  52.913  1.00  0.00     0.161 A 
ATOM     14  C   UNL     1       4.346  42.881  51.414  1.00  0.00     0.050 A 
ATOM     15  C   UNL     1       6.407  43.629  50.156  1.00  0.00     0.041 C 
ATOM     16  N   UNL     1       3.344  43.063  52.294  1.00  0.00    -0.233 NA
ATOM     17  C   UNL     1       4.413  41.517  50.777  1.00  0.00     0.057 C 
ATOM     18  C   UNL     1       6.614  42.160  49.792  1.00  0.00     0.005 C 
ATOM     19  C   UNL     1       5.278  41.482  49.521  1.00  0.00     0.007 C 
BRANCH  13  20
ATOM     20  C   UNL     1       2.199  44.468  53.894  1.00  0.00     0.019 A 
ATOM     21  C   UNL     1       0.902  43.959  53.682  1.00  0.00     0.013 A 
ATOM     22  C   UNL     1       2.416  45.191  55.085  1.00  0.00     0.013 A 
ATOM     23  C   UNL     1      -0.127  44.160  54.609  1.00  0.00     0.021 A 
ATOM     24  C   UNL     1       1.391  45.395  56.017  1.00  0.00     0.021 A 
ATOM     25  C   UNL     1       0.123  44.878  55.774  1.00  0.00     0.041 A 
ATOM     26  Cl  UNL     1      -1.138  45.126  56.916  1.00  0.00    -0.084 Cl
ENDBRANCH  13  20
ENDBRANCH   8  10
ENDBRANCH   7   8
ENDBRANCH   1   7
TORSDOF 7
ENDMDL
MODEL 6
REMARK VINA RESULT:    -8.591      3.359      6.290
REMARK INTER + INTRA:         -12.730
REMARK INTER:                 -11.439
REMARK INTRA:                  -1.292
REMARK UNBOUND:                -0.624
REMARK SMILES COC(=O)CCCNc1nc(-c2ccc(Cl)cc2)nc2c1CCCC2
REMARK SMILES IDX 6 1 5 2 3 3 4 4 2 5 1 6 7 7 8 8 9 10 10 11 21 12 11 13 20 14
REMARK SMILES IDX 22 15 19 16 25 17 23 18 24 19 12 20 13 21 18 22 14 23 17 24
REMARK SMILES IDX 15 25 16 26
REMARK H PARENT 8 9
ROOT
ATOM      1  C   UNL     1       3.239  46.152  55.073  1.00  0.00     0.033 C 
ENDROOT
BRANCH   1   2
ATOM      2  C   UNL     1       2.556  46.173  53.706  1.00  0.00     0.124 C 
BRANCH   2   3
ATOM      3  C   UNL     1       3.203  47.173  52.779  1.00  0.00     0.305 C 
ATOM      4  O   UNL     1       3.538  48.310  53.080  1.00  0.00    -0.252 OA
BRANCH   3   5
ATOM      5  O   UNL     1       3.368  46.610  51.547  1.00  0.00    -0.469 OA
ATOM      6  C   UNL     1       2.419  45.588  51.244  1.00  0.00     0.282 C 
ENDBRANCH   3   5
ENDBRANCH   2   3
ENDBRANCH   1   2
BRANCH   1   7
ATOM      7  C   UNL     1       4.190  44.973  55.266  1.00  0.00     0.115 C 
BRANCH   7   8
ATOM      8  N   UNL     1       5.566  45.341  54.933  1.00  0.00    -0.370 N 
ATOM      9  H   UNL     1       5.782  46.283  55.248  1.00  0.00     0.162 HD
BRANCH   8  10
ATOM     10  C   UNL     1       5.968  45.214  53.592  1.00  0.00     0.133 A 
ATOM     11  N   UNL     1       5.454  44.226  52.842  1.00  0.00    -0.211 NA
ATOM     12  C   UNL     1       6.930  46.088  53.089  1.00  0.00     0.016 A 
ATOM     13  C   UNL     1       5.865  44.120  51.567  1.00  0.00     0.161 A 
ATOM     14  C   UNL     1       7.278  45.916  51.755  1.00  0.00     0.050 A 
ATOM     15  C   UNL     1       7.523  47.193  53.923  1.00  0.00     0.041 C 
ATOM     16  N   UNL     1       6.760  44.938  50.989  1.00  0.00    -0.233 NA
ATOM     17  C   UNL     1       8.316  46.782  51.090  1.00  0.00     0.057 C 
ATOM     18  C   UNL     1       8.776  47.821  53.312  1.00  0.00     0.005 C 
ATOM     19  C   UNL     1       8.568  48.093  51.828  1.00  0.00     0.007 C 
BRANCH  13  20
ATOM     20  C   UNL     1       5.295  43.030  50.747  1.00  0.00     0.019 A 
ATOM     21  C   UNL     1       4.062  42.430  51.075  1.00  0.00     0.013 A 
ATOM     22  C   UNL     1       5.959  42.545  49.602  1.00  0.00     0.013 A 
ATOM     23  C   UNL     1       3.519  41.398  50.301  1.00  0.00     0.021 A 
ATOM     24  C   UNL     1       5.421  41.513  48.823  1.00  0.00     0.021 A 
ATOM     25  C   UNL     1       4.202  40.945  49.177  1.00  0.00     0.041 A 
ATOM     26  Cl  UNL     1       3.538  39.678  48.222  1.00  0.00    -0.084 Cl
ENDBRANCH  13  20
ENDBRANCH   8  10
ENDBRANCH   7   8
ENDBRANCH   1   7
TORSDOF 7
ENDMDL
MODEL 7
REMARK VINA RESULT:    -8.529      3.039      5.527
REMARK INTER + INTRA:         -12.643
REMARK INTER:                 -11.695
REMARK INTRA:                  -0.948
REMARK UNBOUND:                -0.624
REMARK SMILES COC(=O)CCCNc1nc(-c2ccc(Cl)cc2)nc2c1CCCC2
REMARK SMILES IDX 6 1 5 2 3 3 4 4 2 5 1 6 7 7 8 8 9 10 10 11 21 12 11 13 20 14
REMARK SMILES IDX 22 15 19 16 25 17 23 18 24 19 12 20 13 21 18 22 14 23 17 24
REMARK SMILES IDX 15 25 16 26
REMARK H PARENT 8 9
ROOT
ATOM      1  C   UNL     1       6.159  42.760  49.362  1.00  0.00     0.033 C 
ENDROOT
BRANCH   1   2
ATOM      2  C   UNL     1       5.877  41.590  50.303  1.00  0.00     0.124 C 
BRANCH   2   3
ATOM      3  C   UNL     1       4.395  41.360  50.473  1.00  0.00     0.305 C 
ATOM      4  O   UNL     1       3.723  40.553  49.846  1.00  0.00    -0.252 OA
BRANCH   3   5
ATOM      5  O   UNL     1       3.915  42.189  51.444  1.00  0.00    -0.469 OA
ATOM      6  C   UNL     1       2.572  42.620  51.229  1.00  0.00     0.282 C 
ENDBRANCH   3   5
ENDBRANCH   2   3
ENDBRANCH   1   2
BRANCH   1   7
ATOM      7  C   UNL     1       7.320  43.644  49.814  1.00  0.00     0.115 C 
BRANCH   7   8
ATOM      8  N   UNL     1       6.886  45.026  50.020  1.00  0.00    -0.370 N 
ATOM      9  H   UNL     1       7.534  45.683  49.593  1.00  0.00     0.162 HD
BRANCH   8  10
ATOM     10  C   UNL     1       6.632  45.440  51.339  1.00  0.00     0.133 A 
ATOM     11  N   UNL     1       5.392  45.321  51.838  1.00  0.00    -0.211 NA
ATOM     12  C   UNL     1       7.666  46.009  52.080  1.00  0.00     0.016 A 
ATOM     13  C   UNL     1       5.173  45.735  53.098  1.00  0.00     0.161 A 
ATOM     14  C   UNL     1       7.353  46.389  53.379  1.00  0.00     0.050 A 
ATOM     15  C   UNL     1       9.060  46.158  51.528  1.00  0.00     0.041 C 
ATOM     16  N   UNL     1       6.116  46.264  53.895  1.00  0.00    -0.233 NA
ATOM     17  C   UNL     1       8.373  47.032  54.283  1.00  0.00     0.057 C 
ATOM     18  C   UNL     1       9.951  47.088  52.350  1.00  0.00     0.005 C 
ATOM     19  C   UNL     1       9.811  46.788  53.836  1.00  0.00     0.007 C 
BRANCH  13  20
ATOM     20  C   UNL     1       3.805  45.602  53.640  1.00  0.00     0.019 A 
ATOM     21  C   UNL     1       3.576  45.208  54.974  1.00  0.00     0.013 A 
ATOM     22  C   UNL     1       2.669  45.866  52.846  1.00  0.00     0.013 A 
ATOM     23  C   UNL     1       2.282  45.082  55.491  1.00  0.00     0.021 A 
ATOM     24  C   UNL     1       1.372  45.742  53.358  1.00  0.00     0.021 A 
ATOM     25  C   UNL     1       1.185  45.350  54.679  1.00  0.00     0.041 A 
ATOM     26  Cl  UNL     1      -0.408  45.198  55.310  1.00  0.00    -0.084 Cl
ENDBRANCH  13  20
ENDBRANCH   8  10
ENDBRANCH   7   8
ENDBRANCH   1   7
TORSDOF 7
ENDMDL
MODEL 8
REMARK VINA RESULT:    -8.528      3.424      6.497
REMARK INTER + INTRA:         -12.642
REMARK INTER:                 -11.514
REMARK INTRA:                  -1.128
REMARK UNBOUND:                -0.624
REMARK SMILES COC(=O)CCCNc1nc(-c2ccc(Cl)cc2)nc2c1CCCC2
REMARK SMILES IDX 6 1 5 2 3 3 4 4 2 5 1 6 7 7 8 8 9 10 10 11 21 12 11 13 20 14
REMARK SMILES IDX 22 15 19 16 25 17 23 18 24 19 12 20 13 21 18 22 14 23 17 24
REMARK SMILES IDX 15 25 16 26
REMARK H PARENT 8 9
ROOT
ATOM      1  C   UNL     1       3.000  45.792  55.031  1.00  0.00     0.033 C 
ENDROOT
BRANCH   1   2
ATOM      2  C   UNL     1       1.916  45.108  54.197  1.00  0.00     0.124 C 
BRANCH   2   3
ATOM      3  C   UNL     1       1.510  45.954  53.016  1.00  0.00     0.305 C 
ATOM      4  O   UNL     1       0.499  45.802  52.345  1.00  0.00    -0.252 OA
BRANCH   3   5
ATOM      5  O   UNL     1       2.444  46.928  52.812  1.00  0.00    -0.469 OA
ATOM      6  C   UNL     1       3.165  46.794  51.587  1.00  0.00     0.282 C 
ENDBRANCH   3   5
ENDBRANCH   2   3
ENDBRANCH   1   2
BRANCH   1   7
ATOM      7  C   UNL     1       4.177  44.881  55.372  1.00  0.00     0.115 C 
BRANCH   7   8
ATOM      8  N   UNL     1       5.449  45.489  54.984  1.00  0.00    -0.370 N 
ATOM      9  H   UNL     1       5.463  46.483  55.200  1.00  0.00     0.162 HD
BRANCH   8  10
ATOM     10  C   UNL     1       5.878  45.313  53.657  1.00  0.00     0.133 A 
ATOM     11  N   UNL     1       5.353  44.319  52.923  1.00  0.00    -0.211 NA
ATOM     12  C   UNL     1       6.875  46.145  53.153  1.00  0.00     0.016 A 
ATOM     13  C   UNL     1       5.789  44.165  51.661  1.00  0.00     0.161 A 
ATOM     14  C   UNL     1       7.248  45.926  51.833  1.00  0.00     0.050 A 
ATOM     15  C   UNL     1       7.481  47.256  53.969  1.00  0.00     0.041 C 
ATOM     16  N   UNL     1       6.720  44.941  51.082  1.00  0.00    -0.233 NA
ATOM     17  C   UNL     1       8.326  46.743  51.168  1.00  0.00     0.057 C 
ATOM     18  C   UNL     1       8.765  47.831  53.370  1.00  0.00     0.005 C 
ATOM     19  C   UNL     1       8.599  48.066  51.875  1.00  0.00     0.007 C 
BRANCH  13  20
ATOM     20  C   UNL     1       5.207  43.069  50.859  1.00  0.00     0.019 A 
ATOM     21  C   UNL     1       3.924  42.555  51.136  1.00  0.00     0.013 A 
ATOM     22  C   UNL     1       5.909  42.490  49.782  1.00  0.00     0.013 A 
ATOM     23  C   UNL     1       3.368  41.517  50.378  1.00  0.00     0.021 A 
ATOM     24  C   UNL     1       5.359  41.452  49.020  1.00  0.00     0.021 A 
ATOM     25  C   UNL     1       4.090  40.971  49.322  1.00  0.00     0.041 A 
ATOM     26  Cl  UNL     1       3.412  39.697  48.388  1.00  0.00    -0.084 Cl
ENDBRANCH  13  20
ENDBRANCH   8  10
ENDBRANCH   7   8
ENDBRANCH   1   7
TORSDOF 7
ENDMDL
MODEL 9
REMARK VINA RESULT:    -8.401      3.588      6.572
REMARK INTER + INTRA:         -12.462
REMARK INTER:                 -11.497
REMARK INTRA:                  -0.965
REMARK UNBOUND:                -0.624
REMARK SMILES COC(=O)CCCNc1nc(-c2ccc(Cl)cc2)nc2c1CCCC2
REMARK SMILES IDX 6 1 5 2 3 3 4 4 2 5 1 6 7 7 8 8 9 10 10 11 21 12 11 13 20 14
REMARK SMILES IDX 22 15 19 16 25 17 23 18 24 19 12 20 13 21 18 22 14 23 17 24
REMARK SMILES IDX 15 25 16 26
REMARK H PARENT 8 9
ROOT
ATOM      1  C   UNL     1       2.964  44.945  55.107  1.00  0.00     0.033 C 
ENDROOT
BRANCH   1   2
ATOM      2  C   UNL     1       1.718  45.610  54.523  1.00  0.00     0.124 C 
BRANCH   2   3
ATOM      3  C   UNL     1       1.551  45.283  53.059  1.00  0.00     0.305 C 
ATOM      4  O   UNL     1       1.350  44.169  52.597  1.00  0.00    -0.252 OA
BRANCH   3   5
ATOM      5  O   UNL     1       1.650  46.428  52.324  1.00  0.00    -0.469 OA
ATOM      6  C   UNL     1       2.989  46.782  51.978  1.00  0.00     0.282 C 
ENDBRANCH   3   5
ENDBRANCH   2   3
ENDBRANCH   1   2
BRANCH   1   7
ATOM      7  C   UNL     1       4.126  45.910  55.332  1.00  0.00     0.115 C 
BRANCH   7   8
ATOM      8  N   UNL     1       5.411  45.263  55.071  1.00  0.00    -0.370 N 
ATOM      9  H   UNL     1       6.157  45.690  55.614  1.00  0.00     0.162 HD
BRANCH   8  10
ATOM     10  C   UNL     1       5.832  45.165  53.733  1.00  0.00     0.133 A 
ATOM     11  N   UNL     1       5.335  44.189  52.957  1.00  0.00    -0.211 NA
ATOM     12  C   UNL     1       6.793  46.056  53.260  1.00  0.00     0.016 A 
ATOM     13  C   UNL     1       5.763  44.111  51.685  1.00  0.00     0.161 A 
ATOM     14  C   UNL     1       7.160  45.913  51.927  1.00  0.00     0.050 A 
ATOM     15  C   UNL     1       7.368  47.149  54.122  1.00  0.00     0.041 C 
ATOM     16  N   UNL     1       6.659  44.946  51.135  1.00  0.00    -0.233 NA
ATOM     17  C   UNL     1       8.200  46.799  51.292  1.00  0.00     0.057 C 
ATOM     18  C   UNL     1       8.623  47.797  53.540  1.00  0.00     0.005 C 
ATOM     19  C   UNL     1       8.433  48.097  52.060  1.00  0.00     0.007 C 
BRANCH  13  20
ATOM     20  C   UNL     1       5.212  43.033  50.837  1.00  0.00     0.019 A 
ATOM     21  C   UNL     1       5.924  42.529  49.731  1.00  0.00     0.013 A 
ATOM     22  C   UNL     1       3.949  42.461  51.100  1.00  0.00     0.013 A 
ATOM     23  C   UNL     1       5.406  41.507  48.926  1.00  0.00     0.021 A 
ATOM     24  C   UNL     1       3.425  41.439  50.299  1.00  0.00     0.021 A 
ATOM     25  C   UNL     1       4.157  40.967  49.215  1.00  0.00     0.041 A 
ATOM     26  Cl  UNL     1       3.517  39.712  48.230  1.00  0.00    -0.084 Cl
ENDBRANCH  13  20
ENDBRANCH   8  10
ENDBRANCH   7   8
ENDBRANCH   1   7
TORSDOF 7
ENDMDL
MODEL 10
REMARK VINA RESULT:    -8.283      3.653      6.711
REMARK INTER + INTRA:         -12.296
REMARK INTER:                 -11.279
REMARK INTRA:                  -1.017
REMARK UNBOUND:                -0.624
REMARK SMILES COC(=O)CCCNc1nc(-c2ccc(Cl)cc2)nc2c1CCCC2
REMARK SMILES IDX 6 1 5 2 3 3 4 4 2 5 1 6 7 7 8 8 9 10 10 11 21 12 11 13 20 14
REMARK SMILES IDX 22 15 19 16 25 17 23 18 24 19 12 20 13 21 18 22 14 23 17 24
REMARK SMILES IDX 15 25 16 26
REMARK H PARENT 8 9
ROOT
ATOM      1  C   UNL     1       2.959  45.155  55.181  1.00  0.00     0.033 C 
ENDROOT
BRANCH   1   2
ATOM      2  C   UNL     1       1.924  45.688  54.191  1.00  0.00     0.124 C 
BRANCH   2   3
ATOM      3  C   UNL     1       1.776  44.774  52.999  1.00  0.00     0.305 C 
ATOM      4  O   UNL     1       1.639  45.135  51.839  1.00  0.00    -0.252 OA
BRANCH   3   5
ATOM      5  O   UNL     1       1.826  43.475  53.414  1.00  0.00    -0.469 OA
ATOM      6  C   UNL     1       0.553  42.833  53.470  1.00  0.00     0.282 C 
ENDBRANCH   3   5
ENDBRANCH   2   3
ENDBRANCH   1   2
BRANCH   1   7
ATOM      7  C   UNL     1       4.212  46.023  55.285  1.00  0.00     0.115 C 
BRANCH   7   8
ATOM      8  N   UNL     1       5.420  45.248  55.008  1.00  0.00    -0.370 N 
ATOM      9  H   UNL     1       6.204  45.575  55.567  1.00  0.00     0.162 HD
BRANCH   8  10
ATOM     10  C   UNL     1       5.836  45.144  53.670  1.00  0.00     0.133 A 
ATOM     11  N   UNL     1       5.339  44.162  52.901  1.00  0.00    -0.211 NA
ATOM     12  C   UNL     1       6.793  46.035  53.188  1.00  0.00     0.016 A 
ATOM     13  C   UNL     1       5.762  44.078  51.628  1.00  0.00     0.161 A 
ATOM     14  C   UNL     1       7.155  45.885  51.855  1.00  0.00     0.050 A 
ATOM     15  C   UNL     1       7.368  47.133  54.042  1.00  0.00     0.041 C 
ATOM     16  N   UNL     1       6.654  44.912  51.070  1.00  0.00    -0.233 NA
ATOM     17  C   UNL     1       8.190  46.771  51.211  1.00  0.00     0.057 C 
ATOM     18  C   UNL     1       8.619  47.782  53.452  1.00  0.00     0.005 C 
ATOM     19  C   UNL     1       8.423  48.073  51.971  1.00  0.00     0.007 C 
BRANCH  13  20
ATOM     20  C   UNL     1       5.210  42.994  50.789  1.00  0.00     0.019 A 
ATOM     21  C   UNL     1       5.925  42.478  49.688  1.00  0.00     0.013 A 
ATOM     22  C   UNL     1       3.946  42.428  51.053  1.00  0.00     0.013 A 
ATOM     23  C   UNL     1       5.406  41.451  48.891  1.00  0.00     0.021 A 
ATOM     24  C   UNL     1       3.422  41.400  50.259  1.00  0.00     0.021 A 
ATOM     25  C   UNL     1       4.155  40.916  49.182  1.00  0.00     0.041 A 
ATOM     26  Cl  UNL     1       3.514  39.654  48.206  1.00  0.00    -0.084 Cl
ENDBRANCH  13  20
ENDBRANCH   8  10
ENDBRANCH   7   8
ENDBRANCH   1   7
TORSDOF 7
ENDMDL
MODEL 11
REMARK VINA RESULT:    -8.191      3.516      6.666
REMARK INTER + INTRA:         -12.166
REMARK INTER:                 -11.380
REMARK INTRA:                  -0.787
REMARK UNBOUND:                -0.624
REMARK SMILES COC(=O)CCCNc1nc(-c2ccc(Cl)cc2)nc2c1CCCC2
REMARK SMILES IDX 6 1 5 2 3 3 4 4 2 5 1 6 7 7 8 8 9 10 10 11 21 12 11 13 20 14
REMARK SMILES IDX 22 15 19 16 25 17 23 18 24 19 12 20 13 21 18 22 14 23 17 24
REMARK SMILES IDX 15 25 16 26
REMARK H PARENT 8 9
ROOT
ATOM      1  C   UNL     1       4.296  40.817  49.327  1.00  0.00     0.033 C 
ENDROOT
BRANCH   1   2
ATOM      2  C   UNL     1       5.410  41.576  48.606  1.00  0.00     0.124 C 
BRANCH   2   3
ATOM      3  C   UNL     1       6.559  41.887  49.534  1.00  0.00     0.305 C 
ATOM      4  O   UNL     1       7.242  41.060  50.122  1.00  0.00    -0.252 OA
BRANCH   3   5
ATOM      5  O   UNL     1       6.726  43.238  49.612  1.00  0.00    -0.469 OA
ATOM      6  C   UNL     1       8.014  43.689  49.193  1.00  0.00     0.282 C 
ENDBRANCH   3   5
ENDBRANCH   2   3
ENDBRANCH   1   2
BRANCH   1   7
ATOM      7  C   UNL     1       4.159  41.186  50.802  1.00  0.00     0.115 C 
BRANCH   7   8
ATOM      8  N   UNL     1       2.986  42.028  51.033  1.00  0.00    -0.370 N 
ATOM      9  H   UNL     1       2.623  42.401  50.159  1.00  0.00     0.162 HD
BRANCH   8  10
ATOM     10  C   UNL     1       3.113  43.084  51.952  1.00  0.00     0.133 A 
ATOM     11  N   UNL     1       4.289  43.721  52.064  1.00  0.00    -0.211 NA
ATOM     12  C   UNL     1       2.026  43.411  52.761  1.00  0.00     0.016 A 
ATOM     13  C   UNL     1       4.387  44.719  52.959  1.00  0.00     0.161 A 
ATOM     14  C   UNL     1       2.212  44.469  53.641  1.00  0.00     0.050 A 
ATOM     15  C   UNL     1       0.704  42.697  52.654  1.00  0.00     0.041 C 
ATOM     16  N   UNL     1       3.383  45.124  53.754  1.00  0.00    -0.233 NA
ATOM     17  C   UNL     1       1.124  44.915  54.584  1.00  0.00     0.057 C 
ATOM     18  C   UNL     1      -0.238  42.966  53.826  1.00  0.00     0.005 C 
ATOM     19  C   UNL     1      -0.266  44.452  54.160  1.00  0.00     0.007 C 
BRANCH  13  20
ATOM     20  C   UNL     1       5.685  45.415  53.076  1.00  0.00     0.019 A 
ATOM     21  C   UNL     1       6.190  45.825  54.327  1.00  0.00     0.013 A 
ATOM     22  C   UNL     1       6.475  45.698  51.943  1.00  0.00     0.013 A 
ATOM     23  C   UNL     1       7.420  46.484  54.442  1.00  0.00     0.021 A 
ATOM     24  C   UNL     1       7.706  46.356  52.052  1.00  0.00     0.021 A 
ATOM     25  C   UNL     1       8.173  46.746  53.302  1.00  0.00     0.041 A 
ATOM     26  Cl  UNL     1       9.685  47.554  53.439  1.00  0.00    -0.084 Cl
ENDBRANCH  13  20
ENDBRANCH   8  10
ENDBRANCH   7   8
ENDBRANCH   1   7
TORSDOF 7
ENDMDL
MODEL 12
REMARK VINA RESULT:    -8.127      2.046      2.492
REMARK INTER + INTRA:         -12.076
REMARK INTER:                 -11.121
REMARK INTRA:                  -0.956
REMARK UNBOUND:                -0.624
REMARK SMILES COC(=O)CCCNc1nc(-c2ccc(Cl)cc2)nc2c1CCCC2
REMARK SMILES IDX 6 1 5 2 3 3 4 4 2 5 1 6 7 7 8 8 9 10 10 11 21 12 11 13 20 14
REMARK SMILES IDX 22 15 19 16 25 17 23 18 24 19 12 20 13 21 18 22 14 23 17 24
REMARK SMILES IDX 15 25 16 26
REMARK H PARENT 8 9
ROOT
ATOM      1  C   UNL     1       6.944  47.287  52.857  1.00  0.00     0.033 C 
ENDROOT
BRANCH   1   2
ATOM      2  C   UNL     1       6.624  46.806  54.272  1.00  0.00     0.124 C 
BRANCH   2   3
ATOM      3  C   UNL     1       5.190  47.091  54.644  1.00  0.00     0.305 C 
ATOM      4  O   UNL     1       4.562  48.096  54.341  1.00  0.00    -0.252 OA
BRANCH   3   5
ATOM      5  O   UNL     1       4.692  46.047  55.367  1.00  0.00    -0.469 OA
ATOM      6  C   UNL     1       5.530  44.891  55.371  1.00  0.00     0.282 C 
ENDBRANCH   3   5
ENDBRANCH   2   3
ENDBRANCH   1   2
BRANCH   1   7
ATOM      7  C   UNL     1       6.936  46.171  51.814  1.00  0.00     0.115 C 
BRANCH   7   8
ATOM      8  N   UNL     1       5.649  46.096  51.126  1.00  0.00    -0.370 N 
ATOM      9  H   UNL     1       5.094  46.933  51.289  1.00  0.00     0.162 HD
BRANCH   8  10
ATOM     10  C   UNL     1       4.844  44.970  51.369  1.00  0.00     0.133 A 
ATOM     11  N   UNL     1       3.781  45.084  52.181  1.00  0.00    -0.211 NA
ATOM     12  C   UNL     1       5.199  43.749  50.798  1.00  0.00     0.016 A 
ATOM     13  C   UNL     1       3.035  43.990  52.406  1.00  0.00     0.161 A 
ATOM     14  C   UNL     1       4.358  42.677  51.070  1.00  0.00     0.050 A 
ATOM     15  C   UNL     1       6.395  43.604  49.895  1.00  0.00     0.041 C 
ATOM     16  N   UNL     1       3.282  42.782  51.872  1.00  0.00    -0.233 NA
ATOM     17  C   UNL     1       4.634  41.297  50.530  1.00  0.00     0.057 C 
ATOM     18  C   UNL     1       6.804  42.153  49.643  1.00  0.00     0.005 C 
ATOM     19  C   UNL     1       5.582  41.299  49.335  1.00  0.00     0.007 C 
BRANCH  13  20
ATOM     20  C   UNL     1       1.867  44.123  53.301  1.00  0.00     0.019 A 
ATOM     21  C   UNL     1       0.801  43.202  53.265  1.00  0.00     0.013 A 
ATOM     22  C   UNL     1       1.769  45.179  54.232  1.00  0.00     0.013 A 
ATOM     23  C   UNL     1      -0.307  43.324  54.112  1.00  0.00     0.021 A 
ATOM     24  C   UNL     1       0.664  45.307  55.083  1.00  0.00     0.021 A 
ATOM     25  C   UNL     1      -0.369  44.378  55.018  1.00  0.00     0.041 A 
ATOM     26  Cl  UNL     1      -1.727  44.533  56.062  1.00  0.00    -0.084 Cl
ENDBRANCH  13  20
ENDBRANCH   8  10
ENDBRANCH   7   8
ENDBRANCH   1   7
TORSDOF 7
ENDMDL
MODEL 13
REMARK VINA RESULT:    -8.071      3.600      6.905
REMARK INTER + INTRA:         -11.997
REMARK INTER:                 -11.014
REMARK INTRA:                  -0.983
REMARK UNBOUND:                -0.624
REMARK SMILES COC(=O)CCCNc1nc(-c2ccc(Cl)cc2)nc2c1CCCC2
REMARK SMILES IDX 6 1 5 2 3 3 4 4 2 5 1 6 7 7 8 8 9 10 10 11 21 12 11 13 20 14
REMARK SMILES IDX 22 15 19 16 25 17 23 18 24 19 12 20 13 21 18 22 14 23 17 24
REMARK SMILES IDX 15 25 16 26
REMARK H PARENT 8 9
ROOT
ATOM      1  C   UNL     1       3.989  41.112  50.338  1.00  0.00     0.033 C 
ENDROOT
BRANCH   1   2
ATOM      2  C   UNL     1       5.441  41.578  50.434  1.00  0.00     0.124 C 
BRANCH   2   3
ATOM      3  C   UNL     1       5.908  42.207  49.144  1.00  0.00     0.305 C 
ATOM      4  O   UNL     1       5.844  41.691  48.037  1.00  0.00    -0.252 OA
BRANCH   3   5
ATOM      5  O   UNL     1       6.408  43.450  49.400  1.00  0.00    -0.469 OA
ATOM      6  C   UNL     1       7.828  43.540  49.286  1.00  0.00     0.282 C 
ENDBRANCH   3   5
ENDBRANCH   2   3
ENDBRANCH   1   2
BRANCH   1   7
ATOM      7  C   UNL     1       2.972  42.243  50.465  1.00  0.00     0.115 C 
BRANCH   7   8
ATOM      8  N   UNL     1       2.346  42.249  51.787  1.00  0.00    -0.370 N 
ATOM      9  H   UNL     1       1.336  42.156  51.717  1.00  0.00     0.162 HD
BRANCH   8  10
ATOM     10  C   UNL     1       2.639  43.326  52.642  1.00  0.00     0.133 A 
ATOM     11  N   UNL     1       3.858  43.886  52.600  1.00  0.00    -0.211 NA
ATOM     12  C   UNL     1       1.669  43.753  53.547  1.00  0.00     0.016 A 
ATOM     13  C   UNL     1       4.115  44.907  53.436  1.00  0.00     0.161 A 
ATOM     14  C   UNL     1       2.017  44.826  54.357  1.00  0.00     0.050 A 
ATOM     15  C   UNL     1       0.302  43.125  53.613  1.00  0.00     0.041 C 
ATOM     16  N   UNL     1       3.231  45.405  54.316  1.00  0.00    -0.233 NA
ATOM     17  C   UNL     1       1.069  45.378  55.391  1.00  0.00     0.057 C 
ATOM     18  C   UNL     1      -0.487  43.498  54.868  1.00  0.00     0.005 C 
ATOM     19  C   UNL     1      -0.385  44.993  55.139  1.00  0.00     0.007 C 
BRANCH  13  20
ATOM     20  C   UNL     1       5.459  45.518  53.384  1.00  0.00     0.019 A 
ATOM     21  C   UNL     1       6.237  45.489  52.209  1.00  0.00     0.013 A 
ATOM     22  C   UNL     1       6.021  46.159  54.508  1.00  0.00     0.013 A 
ATOM     23  C   UNL     1       7.511  46.068  52.156  1.00  0.00     0.021 A 
ATOM     24  C   UNL     1       7.294  46.741  54.461  1.00  0.00     0.021 A 
ATOM     25  C   UNL     1       8.033  46.692  53.284  1.00  0.00     0.041 A 
ATOM     26  Cl  UNL     1       9.596  47.406  53.224  1.00  0.00    -0.084 Cl
ENDBRANCH  13  20
ENDBRANCH   8  10
ENDBRANCH   7   8
ENDBRANCH   1   7
TORSDOF 7
ENDMDL
MODEL 14
REMARK VINA RESULT:    -8.031      3.673      6.644
REMARK INTER + INTRA:         -11.941
REMARK INTER:                 -10.950
REMARK INTRA:                  -0.991
REMARK UNBOUND:                -0.624
REMARK SMILES COC(=O)CCCNc1nc(-c2ccc(Cl)cc2)nc2c1CCCC2
REMARK SMILES IDX 6 1 5 2 3 3 4 4 2 5 1 6 7 7 8 8 9 10 10 11 21 12 11 13 20 14
REMARK SMILES IDX 22 15 19 16 25 17 23 18 24 19 12 20 13 21 18 22 14 23 17 24
REMARK SMILES IDX 15 25 16 26
REMARK H PARENT 8 9
ROOT
ATOM      1  C   UNL     1       3.492  46.383  54.942  1.00  0.00     0.033 C 
ENDROOT
BRANCH   1   2
ATOM      2  C   UNL     1       2.421  46.047  53.905  1.00  0.00     0.124 C 
BRANCH   2   3
ATOM      3  C   UNL     1       1.642  44.814  54.293  1.00  0.00     0.305 C 
ATOM      4  O   UNL     1       1.105  44.622  55.375  1.00  0.00    -0.252 OA
BRANCH   3   5
ATOM      5  O   UNL     1       1.620  43.942  53.243  1.00  0.00    -0.469 OA
ATOM      6  C   UNL     1       1.007  44.466  52.066  1.00  0.00     0.282 C 
ENDBRANCH   3   5
ENDBRANCH   2   3
ENDBRANCH   1   2
BRANCH   1   7
ATOM      7  C   UNL     1       4.256  45.162  55.452  1.00  0.00     0.115 C 
BRANCH   7   8
ATOM      8  N   UNL     1       5.673  45.236  55.098  1.00  0.00    -0.370 N 
ATOM      9  H   UNL     1       6.111  46.060  55.502  1.00  0.00     0.162 HD
BRANCH   8  10
ATOM     10  C   UNL     1       6.008  45.174  53.734  1.00  0.00     0.133 A 
ATOM     11  N   UNL     1       5.488  44.198  52.974  1.00  0.00    -0.211 NA
ATOM     12  C   UNL     1       6.912  46.100  53.217  1.00  0.00     0.016 A 
ATOM     13  C   UNL     1       5.834  44.154  51.676  1.00  0.00     0.161 A 
ATOM     14  C   UNL     1       7.194  45.990  51.861  1.00  0.00     0.050 A 
ATOM     15  C   UNL     1       7.511  47.193  54.061  1.00  0.00     0.041 C 
ATOM     16  N   UNL     1       6.669  45.023  51.085  1.00  0.00    -0.233 NA
ATOM     17  C   UNL     1       8.166  46.917  51.177  1.00  0.00     0.057 C 
ATOM     18  C   UNL     1       8.708  47.887  53.412  1.00  0.00     0.005 C 
ATOM     19  C   UNL     1       8.413  48.207  51.953  1.00  0.00     0.007 C 
BRANCH  13  20
ATOM     20  C   UNL     1       5.258  43.076  50.845  1.00  0.00     0.019 A 
ATOM     21  C   UNL     1       3.994  42.520  51.131  1.00  0.00     0.013 A 
ATOM     22  C   UNL     1       5.947  42.557  49.729  1.00  0.00     0.013 A 
ATOM     23  C   UNL     1       3.445  41.500  50.345  1.00  0.00     0.021 A 
ATOM     24  C   UNL     1       5.403  41.537  48.939  1.00  0.00     0.021 A 
ATOM     25  C   UNL     1       4.154  41.013  49.252  1.00  0.00     0.041 A 
ATOM     26  Cl  UNL     1       3.483  39.760  48.283  1.00  0.00    -0.084 Cl
ENDBRANCH  13  20
ENDBRANCH   8  10
ENDBRANCH   7   8
ENDBRANCH   1   7
TORSDOF 7
ENDMDL
MODEL 15
REMARK VINA RESULT:    -7.991      3.632      6.782
REMARK INTER + INTRA:         -11.885
REMARK INTER:                 -11.275
REMARK INTRA:                  -0.610
REMARK UNBOUND:                -0.624
REMARK SMILES COC(=O)CCCNc1nc(-c2ccc(Cl)cc2)nc2c1CCCC2
REMARK SMILES IDX 6 1 5 2 3 3 4 4 2 5 1 6 7 7 8 8 9 10 10 11 21 12 11 13 20 14
REMARK SMILES IDX 22 15 19 16 25 17 23 18 24 19 12 20 13 21 18 22 14 23 17 24
REMARK SMILES IDX 15 25 16 26
REMARK H PARENT 8 9
ROOT
ATOM      1  C   UNL     1       2.682  44.948  55.345  1.00  0.00     0.033 C 
ENDROOT
BRANCH   1   2
ATOM      2  C   UNL     1       1.203  45.332  55.352  1.00  0.00     0.124 C 
BRANCH   2   3
ATOM      3  C   UNL     1       0.682  45.508  56.757  1.00  0.00     0.305 C 
ATOM      4  O   UNL     1      -0.334  44.998  57.208  1.00  0.00    -0.252 OA
BRANCH   3   5
ATOM      5  O   UNL     1       1.526  46.320  57.456  1.00  0.00    -0.469 OA
ATOM      6  C   UNL     1       0.928  46.934  58.597  1.00  0.00     0.282 C 
ENDBRANCH   3   5
ENDBRANCH   2   3
ENDBRANCH   1   2
BRANCH   1   7
ATOM      7  C   UNL     1       3.599  46.043  54.804  1.00  0.00     0.115 C 
BRANCH   7   8
ATOM      8  N   UNL     1       4.990  45.596  54.756  1.00  0.00    -0.370 N 
ATOM      9  H   UNL     1       5.600  46.234  55.260  1.00  0.00     0.162 HD
BRANCH   8  10
ATOM     10  C   UNL     1       5.551  45.344  53.492  1.00  0.00     0.133 A 
ATOM     11  N   UNL     1       5.078  44.328  52.753  1.00  0.00    -0.211 NA
ATOM     12  C   UNL     1       6.619  46.128  53.058  1.00  0.00     0.016 A 
ATOM     13  C   UNL     1       5.640  44.102  51.553  1.00  0.00     0.161 A 
ATOM     14  C   UNL     1       7.122  45.835  51.797  1.00  0.00     0.050 A 
ATOM     15  C   UNL     1       7.167  47.263  53.881  1.00  0.00     0.041 C 
ATOM     16  N   UNL     1       6.648  44.827  51.041  1.00  0.00    -0.233 NA
ATOM     17  C   UNL     1       8.286  46.593  51.213  1.00  0.00     0.057 C 
ATOM     18  C   UNL     1       8.522  47.778  53.397  1.00  0.00     0.005 C 
ATOM     19  C   UNL     1       8.521  47.943  51.883  1.00  0.00     0.007 C 
BRANCH  13  20
ATOM     20  C   UNL     1       5.114  42.982  50.746  1.00  0.00     0.019 A 
ATOM     21  C   UNL     1       5.886  42.377  49.733  1.00  0.00     0.013 A 
ATOM     22  C   UNL     1       3.817  42.468  50.954  1.00  0.00     0.013 A 
ATOM     23  C   UNL     1       5.392  41.315  48.967  1.00  0.00     0.021 A 
ATOM     24  C   UNL     1       3.317  41.406  50.191  1.00  0.00     0.021 A 
ATOM     25  C   UNL     1       4.108  40.834  49.201  1.00  0.00     0.041 A 
ATOM     26  Cl  UNL     1       3.497  39.529  48.263  1.00  0.00    -0.084 Cl
ENDBRANCH  13  20
ENDBRANCH   8  10
ENDBRANCH   7   8
ENDBRANCH   1   7
TORSDOF 7
ENDMDL
MODEL 16
REMARK VINA RESULT:    -7.799      4.770      8.141
REMARK INTER + INTRA:         -11.614
REMARK INTER:                 -11.032
REMARK INTRA:                  -0.582
REMARK UNBOUND:                -0.624
REMARK SMILES COC(=O)CCCNc1nc(-c2ccc(Cl)cc2)nc2c1CCCC2
REMARK SMILES IDX 6 1 5 2 3 3 4 4 2 5 1 6 7 7 8 8 9 10 10 11 21 12 11 13 20 14
REMARK SMILES IDX 22 15 19 16 25 17 23 18 24 19 12 20 13 21 18 22 14 23 17 24
REMARK SMILES IDX 15 25 16 26
REMARK H PARENT 8 9
ROOT
ATOM      1  C   UNL     1       3.521  40.445  49.266  1.00  0.00     0.033 C 
ENDROOT
BRANCH   1   2
ATOM      2  C   UNL     1       4.257  40.786  47.970  1.00  0.00     0.124 C 
BRANCH   2   3
ATOM      3  C   UNL     1       3.521  40.261  46.761  1.00  0.00     0.305 C 
ATOM      4  O   UNL     1       3.698  40.626  45.607  1.00  0.00    -0.252 OA
BRANCH   3   5
ATOM      5  O   UNL     1       2.629  39.306  47.151  1.00  0.00    -0.469 OA
ATOM      6  C   UNL     1       2.817  38.041  46.517  1.00  0.00     0.282 C 
ENDBRANCH   3   5
ENDBRANCH   2   3
ENDBRANCH   1   2
BRANCH   1   7
ATOM      7  C   UNL     1       3.942  41.306  50.455  1.00  0.00     0.115 C 
BRANCH   7   8
ATOM      8  N   UNL     1       2.785  41.927  51.098  1.00  0.00    -0.370 N 
ATOM      9  H   UNL     1       2.098  42.227  50.410  1.00  0.00     0.162 HD
BRANCH   8  10
ATOM     10  C   UNL     1       3.025  42.990  51.985  1.00  0.00     0.133 A 
ATOM     11  N   UNL     1       4.233  43.576  51.998  1.00  0.00    -0.211 NA
ATOM     12  C   UNL     1       2.016  43.378  52.865  1.00  0.00     0.016 A 
ATOM     13  C   UNL     1       4.440  44.583  52.864  1.00  0.00     0.161 A 
ATOM     14  C   UNL     1       2.313  44.440  53.709  1.00  0.00     0.050 A 
ATOM     15  C   UNL     1       0.661  42.721  52.870  1.00  0.00     0.041 C 
ATOM     16  N   UNL     1       3.516  45.044  53.723  1.00  0.00    -0.233 NA
ATOM     17  C   UNL     1       1.319  44.949  54.721  1.00  0.00     0.057 C 
ATOM     18  C   UNL     1      -0.179  43.051  54.103  1.00  0.00     0.005 C 
ATOM     19  C   UNL     1      -0.118  44.541  54.410  1.00  0.00     0.007 C 
BRANCH  13  20
ATOM     20  C   UNL     1       5.772  45.223  52.872  1.00  0.00     0.019 A 
ATOM     21  C   UNL     1       6.371  45.662  54.070  1.00  0.00     0.013 A 
ATOM     22  C   UNL     1       6.502  45.420  51.682  1.00  0.00     0.013 A 
ATOM     23  C   UNL     1       7.633  46.267  54.082  1.00  0.00     0.021 A 
ATOM     24  C   UNL     1       7.765  46.025  51.687  1.00  0.00     0.021 A 
ATOM     25  C   UNL     1       8.324  46.446  52.888  1.00  0.00     0.041 A 
ATOM     26  Cl  UNL     1       9.875  47.188  52.898  1.00  0.00    -0.084 Cl
ENDBRANCH  13  20
ENDBRANCH   8  10
ENDBRANCH   7   8
ENDBRANCH   1   7
TORSDOF 7
ENDMDL
MODEL 17
REMARK VINA RESULT:    -7.708      3.664      6.177
REMARK INTER + INTRA:         -11.486
REMARK INTER:                 -10.735
REMARK INTRA:                  -0.751
REMARK UNBOUND:                -0.624
REMARK SMILES COC(=O)CCCNc1nc(-c2ccc(Cl)cc2)nc2c1CCCC2
REMARK SMILES IDX 6 1 5 2 3 3 4 4 2 5 1 6 7 7 8 8 9 10 10 11 21 12 11 13 20 14
REMARK SMILES IDX 22 15 19 16 25 17 23 18 24 19 12 20 13 21 18 22 14 23 17 24
REMARK SMILES IDX 15 25 16 26
REMARK H PARENT 8 9
ROOT
ATOM      1  C   UNL     1       6.050  41.183  49.679  1.00  0.00     0.033 C 
ENDROOT
BRANCH   1   2
ATOM      2  C   UNL     1       5.129  41.300  48.465  1.00  0.00     0.124 C 
BRANCH   2   3
ATOM      3  C   UNL     1       3.819  40.587  48.692  1.00  0.00     0.305 C 
ATOM      4  O   UNL     1       3.360  40.271  49.781  1.00  0.00    -0.252 OA
BRANCH   3   5
ATOM      5  O   UNL     1       3.215  40.353  47.491  1.00  0.00    -0.469 OA
ATOM      6  C   UNL     1       3.039  38.969  47.190  1.00  0.00     0.282 C 
ENDBRANCH   3   5
ENDBRANCH   2   3
ENDBRANCH   1   2
BRANCH   1   7
ATOM      7  C   UNL     1       6.945  42.402  49.890  1.00  0.00     0.115 C 
BRANCH   7   8
ATOM      8  N   UNL     1       6.207  43.646  49.674  1.00  0.00    -0.370 N 
ATOM      9  H   UNL     1       6.713  44.271  49.052  1.00  0.00     0.162 HD
BRANCH   8  10
ATOM     10  C   UNL     1       5.806  44.372  50.809  1.00  0.00     0.133 A 
ATOM     11  N   UNL     1       4.622  44.099  51.379  1.00  0.00    -0.211 NA
ATOM     12  C   UNL     1       6.629  45.391  51.286  1.00  0.00     0.016 A 
ATOM     13  C   UNL     1       4.257  44.816  52.456  1.00  0.00     0.161 A 
ATOM     14  C   UNL     1       6.180  46.063  52.415  1.00  0.00     0.050 A 
ATOM     15  C   UNL     1       7.954  45.715  50.649  1.00  0.00     0.041 C 
ATOM     16  N   UNL     1       5.000  45.791  53.004  1.00  0.00    -0.233 NA
ATOM     17  C   UNL     1       6.964  47.198  53.025  1.00  0.00     0.057 C 
ATOM     18  C   UNL     1       8.543  47.052  51.097  1.00  0.00     0.005 C 
ATOM     19  C   UNL     1       8.431  47.206  52.608  1.00  0.00     0.007 C 
BRANCH  13  20
ATOM     20  C   UNL     1       2.951  44.510  53.078  1.00  0.00     0.019 A 
ATOM     21  C   UNL     1       2.373  45.367  54.036  1.00  0.00     0.013 A 
ATOM     22  C   UNL     1       2.227  43.349  52.738  1.00  0.00     0.013 A 
ATOM     23  C   UNL     1       1.136  45.082  54.626  1.00  0.00     0.021 A 
ATOM     24  C   UNL     1       0.989  43.058  53.324  1.00  0.00     0.021 A 
ATOM     25  C   UNL     1       0.450  43.927  54.266  1.00  0.00     0.041 A 
ATOM     26  Cl  UNL     1      -1.071  43.573  54.987  1.00  0.00    -0.084 Cl
ENDBRANCH  13  20
ENDBRANCH   8  10
ENDBRANCH   7   8
ENDBRANCH   1   7
TORSDOF 7
ENDMDL
MODEL 18
REMARK VINA RESULT:    -7.684      3.101      5.893
REMARK INTER + INTRA:         -11.452
REMARK INTER:                 -10.966
REMARK INTRA:                  -0.485
REMARK UNBOUND:                -0.624
REMARK SMILES COC(=O)CCCNc1nc(-c2ccc(Cl)cc2)nc2c1CCCC2
REMARK SMILES IDX 6 1 5 2 3 3 4 4 2 5 1 6 7 7 8 8 9 10 10 11 21 12 11 13 20 14
REMARK SMILES IDX 22 15 19 16 25 17 23 18 24 19 12 20 13 21 18 22 14 23 17 24
REMARK SMILES IDX 15 25 16 26
REMARK H PARENT 8 9
ROOT
ATOM      1  C   UNL     1       4.445  45.909  55.324  1.00  0.00     0.033 C 
ENDROOT
BRANCH   1   2
ATOM      2  C   UNL     1       4.881  47.007  54.355  1.00  0.00     0.124 C 
BRANCH   2   3
ATOM      3  C   UNL     1       6.381  47.041  54.196  1.00  0.00     0.305 C 
ATOM      4  O   UNL     1       7.188  46.484  54.927  1.00  0.00    -0.252 OA
BRANCH   3   5
ATOM      5  O   UNL     1       6.705  47.787  53.099  1.00  0.00    -0.469 OA
ATOM      6  C   UNL     1       8.096  47.782  52.783  1.00  0.00     0.282 C 
ENDBRANCH   3   5
ENDBRANCH   2   3
ENDBRANCH   1   2
BRANCH   1   7
ATOM      7  C   UNL     1       2.936  45.864  55.561  1.00  0.00     0.115 C 
BRANCH   7   8
ATOM      8  N   UNL     1       2.385  44.552  55.226  1.00  0.00    -0.370 N 
ATOM      9  H   UNL     1       2.826  43.816  55.772  1.00  0.00     0.162 HD
BRANCH   8  10
ATOM     10  C   UNL     1       2.389  44.170  53.873  1.00  0.00     0.133 A 
ATOM     11  N   UNL     1       3.543  44.194  53.187  1.00  0.00    -0.211 NA
ATOM     12  C   UNL     1       1.185  43.822  53.265  1.00  0.00     0.016 A 
ATOM     13  C   UNL     1       3.517  43.835  51.892  1.00  0.00     0.161 A 
ATOM     14  C   UNL     1       1.258  43.446  51.930  1.00  0.00     0.050 A 
ATOM     15  C   UNL     1      -0.118  43.802  54.019  1.00  0.00     0.041 C 
ATOM     16  N   UNL     1       2.410  43.453  51.234  1.00  0.00    -0.233 NA
ATOM     17  C   UNL     1       0.028  43.062  51.147  1.00  0.00     0.057 C 
ATOM     18  C   UNL     1      -1.351  43.721  53.120  1.00  0.00     0.005 C 
ATOM     19  C   UNL     1      -1.151  42.674  52.033  1.00  0.00     0.007 C 
BRANCH  13  20
ATOM     20  C   UNL     1       4.791  43.864  51.143  1.00  0.00     0.019 A 
ATOM     21  C   UNL     1       5.609  45.012  51.125  1.00  0.00     0.013 A 
ATOM     22  C   UNL     1       5.243  42.744  50.414  1.00  0.00     0.013 A 
ATOM     23  C   UNL     1       6.817  45.043  50.418  1.00  0.00     0.021 A 
ATOM     24  C   UNL     1       6.450  42.769  49.705  1.00  0.00     0.021 A 
ATOM     25  C   UNL     1       7.231  43.919  49.710  1.00  0.00     0.041 A 
ATOM     26  Cl  UNL     1       8.714  43.952  48.840  1.00  0.00    -0.084 Cl
ENDBRANCH  13  20
ENDBRANCH   8  10
ENDBRANCH   7   8
ENDBRANCH   1   7
TORSDOF 7
ENDMDL
MODEL 19
REMARK VINA RESULT:    -7.661      3.903      7.302
REMARK INTER + INTRA:         -11.419
REMARK INTER:                 -10.648
REMARK INTRA:                  -0.771
REMARK UNBOUND:                -0.624
REMARK SMILES COC(=O)CCCNc1nc(-c2ccc(Cl)cc2)nc2c1CCCC2
REMARK SMILES IDX 6 1 5 2 3 3 4 4 2 5 1 6 7 7 8 8 9 10 10 11 21 12 11 13 20 14
REMARK SMILES IDX 22 15 19 16 25 17 23 18 24 19 12 20 13 21 18 22 14 23 17 24
REMARK SMILES IDX 15 25 16 26
REMARK H PARENT 8 9
ROOT
ATOM      1  C   UNL     1       2.405  42.478  51.683  1.00  0.00     0.033 C 
ENDROOT
BRANCH   1   2
ATOM      2  C   UNL     1       3.919  42.299  51.576  1.00  0.00     0.124 C 
BRANCH   2   3
ATOM      3  C   UNL     1       4.283  41.272  50.532  1.00  0.00     0.305 C 
ATOM      4  O   UNL     1       3.523  40.442  50.055  1.00  0.00    -0.252 OA
BRANCH   3   5
ATOM      5  O   UNL     1       5.596  41.417  50.191  1.00  0.00    -0.469 OA
ATOM      6  C   UNL     1       6.020  42.775  50.076  1.00  0.00     0.282 C 
ENDBRANCH   3   5
ENDBRANCH   2   3
ENDBRANCH   1   2
BRANCH   1   7
ATOM      7  C   UNL     1       1.859  43.612  50.817  1.00  0.00     0.115 C 
BRANCH   7   8
ATOM      8  N   UNL     1       1.307  44.689  51.637  1.00  0.00    -0.370 N 
ATOM      9  H   UNL     1       1.078  45.502  51.072  1.00  0.00     0.162 HD
BRANCH   8  10
ATOM     10  C   UNL     1       2.058  45.112  52.748  1.00  0.00     0.133 A 
ATOM     11  N   UNL     1       3.355  45.416  52.587  1.00  0.00    -0.211 NA
ATOM     12  C   UNL     1       1.446  45.157  53.999  1.00  0.00     0.016 A 
ATOM     13  C   UNL     1       4.053  45.807  53.668  1.00  0.00     0.161 A 
ATOM     14  C   UNL     1       2.239  45.592  55.054  1.00  0.00     0.050 A 
ATOM     15  C   UNL     1      -0.005  44.808  54.196  1.00  0.00     0.041 C 
ATOM     16  N   UNL     1       3.538  45.913  54.904  1.00  0.00    -0.233 NA
ATOM     17  C   UNL     1       1.708  45.673  56.462  1.00  0.00     0.057 C 
ATOM     18  C   UNL     1      -0.396  44.600  55.658  1.00  0.00     0.005 C 
ATOM     19  C   UNL     1       0.185  45.706  56.529  1.00  0.00     0.007 C 
BRANCH  13  20
ATOM     20  C   UNL     1       5.481  46.140  53.483  1.00  0.00     0.019 A 
ATOM     21  C   UNL     1       6.105  46.033  52.224  1.00  0.00     0.013 A 
ATOM     22  C   UNL     1       6.280  46.580  54.559  1.00  0.00     0.013 A 
ATOM     23  C   UNL     1       7.458  46.348  52.045  1.00  0.00     0.021 A 
ATOM     24  C   UNL     1       7.633  46.897  54.386  1.00  0.00     0.021 A 
ATOM     25  C   UNL     1       8.215  46.780  53.129  1.00  0.00     0.041 A 
ATOM     26  Cl  UNL     1       9.876  47.169  52.914  1.00  0.00    -0.084 Cl
ENDBRANCH  13  20
ENDBRANCH   8  10
ENDBRANCH   7   8
ENDBRANCH   1   7
TORSDOF 7
ENDMDL
