MODEL 1
REMARK VINA RESULT:    -9.152      0.000      0.000
REMARK INTER + INTRA:         -13.540
REMARK INTER:                 -12.897
REMARK INTRA:                  -0.643
REMARK UNBOUND:                -0.643
REMARK SMILES COC(=O)CCCNc1nc(-c2ccc(C)cc2)nc2c1CCCC2
REMARK SMILES IDX 6 1 5 2 3 3 4 4 2 5 1 6 7 7 8 8 9 10 10 11 21 12 11 13 20 14
REMARK SMILES IDX 22 15 19 16 25 17 23 18 24 19 12 20 13 21 18 22 14 23 17 24
REMARK SMILES IDX 15 25 16 26
REMARK H PARENT 8 9
ROOT
ATOM      1  C   UNL     1       8.168  47.954  52.497  1.00  0.00     0.033 C 
ENDROOT
BRANCH   1   2
ATOM      2  C   UNL     1       9.442  47.472  53.193  1.00  0.00     0.124 C 
BRANCH   2   3
ATOM      3  C   UNL     1       9.442  47.752  54.675  1.00  0.00     0.305 C 
ATOM      4  O   UNL     1       8.778  48.617  55.232  1.00  0.00    -0.252 OA
BRANCH   3   5
ATOM      5  O   UNL     1      10.322  46.920  55.301  1.00  0.00    -0.469 OA
ATOM      6  C   UNL     1      11.105  47.554  56.312  1.00  0.00     0.282 C 
ENDBRANCH   3   5
ENDBRANCH   2   3
ENDBRANCH   1   2
BRANCH   1   7
ATOM      7  C   UNL     1       6.946  47.058  52.730  1.00  0.00     0.115 C 
BRANCH   7   8
ATOM      8  N   UNL     1       6.646  46.218  51.569  1.00  0.00    -0.370 N 
ATOM      9  H   UNL     1       7.495  45.793  51.203  1.00  0.00     0.162 HD
BRANCH   8  10
ATOM     10  C   UNL     1       5.694  45.197  51.755  1.00  0.00     0.133 A 
ATOM     11  N   UNL     1       4.721  45.364  52.664  1.00  0.00    -0.211 NA
ATOM     12  C   UNL     1       5.769  44.052  50.965  1.00  0.00     0.016 A 
ATOM     13  C   UNL     1       3.824  44.376  52.822  1.00  0.00     0.161 A 
ATOM     14  C   UNL     1       4.814  43.074  51.212  1.00  0.00     0.050 A 
ATOM     15  C   UNL     1       6.853  43.857  49.939  1.00  0.00     0.041 C 
ATOM     16  N   UNL     1       3.840  43.225  52.129  1.00  0.00    -0.233 NA
ATOM     17  C   UNL     1       4.770  41.794  50.419  1.00  0.00     0.057 C 
ATOM     18  C   UNL     1       6.576  42.713  48.963  1.00  0.00     0.005 C 
ATOM     19  C   UNL     1       6.083  41.481  49.709  1.00  0.00     0.007 C 
BRANCH  13  20
ATOM     20  C   UNL     1       2.756  44.568  53.824  1.00  0.00     0.019 A 
ATOM     21  C   UNL     1       2.977  45.304  55.003  1.00  0.00     0.012 A 
ATOM     22  C   UNL     1       1.469  44.028  53.642  1.00  0.00     0.012 A 
ATOM     23  C   UNL     1       1.966  45.488  55.955  1.00  0.00     0.004 A 
ATOM     24  C   UNL     1       0.455  44.208  54.592  1.00  0.00     0.004 A 
ATOM     25  C   UNL     1       0.701  44.930  55.762  1.00  0.00    -0.051 A 
ATOM     26  C   UNL     1      -0.392  45.154  56.763  1.00  0.00     0.044 C 
ENDBRANCH  13  20
ENDBRANCH   8  10
ENDBRANCH   7   8
ENDBRANCH   1   7
TORSDOF 7
ENDMDL
MODEL 2
REMARK VINA RESULT:    -8.855      3.262      5.979
REMARK INTER + INTRA:         -13.122
REMARK INTER:                 -12.280
REMARK INTRA:                  -0.842
REMARK UNBOUND:                -0.643
REMARK SMILES COC(=O)CCCNc1nc(-c2ccc(C)cc2)nc2c1CCCC2
REMARK SMILES IDX 6 1 5 2 3 3 4 4 2 5 1 6 7 7 8 8 9 10 10 11 21 12 11 13 20 14
REMARK SMILES IDX 22 15 19 16 25 17 23 18 24 19 12 20 13 21 18 22 14 23 17 24
REMARK SMILES IDX 15 25 16 26
REMARK H PARENT 8 9
ROOT
ATOM      1  C   UNL     1       6.894  42.911  48.956  1.00  0.00     0.033 C 
ENDROOT
BRANCH   1   2
ATOM      2  C   UNL     1       6.465  41.771  49.881  1.00  0.00     0.124 C 
BRANCH   2   3
ATOM      3  C   UNL     1       5.120  41.193  49.516  1.00  0.00     0.305 C 
ATOM      4  O   UNL     1       4.279  40.800  50.314  1.00  0.00    -0.252 OA
BRANCH   3   5
ATOM      5  O   UNL     1       4.996  41.138  48.160  1.00  0.00    -0.469 OA
ATOM      6  C   UNL     1       3.845  40.425  47.709  1.00  0.00     0.282 C 
ENDBRANCH   3   5
ENDBRANCH   2   3
ENDBRANCH   1   2
BRANCH   1   7
ATOM      7  C   UNL     1       8.014  43.793  49.520  1.00  0.00     0.115 C 
BRANCH   7   8
ATOM      8  N   UNL     1       7.550  45.147  49.825  1.00  0.00    -0.370 N 
ATOM      9  H   UNL     1       6.870  45.459  49.135  1.00  0.00     0.162 HD
BRANCH   8  10
ATOM     10  C   UNL     1       7.001  45.357  51.105  1.00  0.00     0.133 A 
ATOM     11  N   UNL     1       5.787  44.860  51.387  1.00  0.00    -0.211 NA
ATOM     12  C   UNL     1       7.748  46.050  52.055  1.00  0.00     0.016 A 
ATOM     13  C   UNL     1       5.285  45.074  52.616  1.00  0.00     0.161 A 
ATOM     14  C   UNL     1       7.141  46.243  53.289  1.00  0.00     0.050 A 
ATOM     15  C   UNL     1       9.113  46.606  51.750  1.00  0.00     0.041 C 
ATOM     16  N   UNL     1       5.919  45.758  53.582  1.00  0.00    -0.233 NA
ATOM     17  C   UNL     1       7.844  46.960  54.412  1.00  0.00     0.057 C 
ATOM     18  C   UNL     1       9.895  47.031  52.993  1.00  0.00     0.005 C 
ATOM     19  C   UNL     1       9.006  47.826  53.938  1.00  0.00     0.007 C 
BRANCH  13  20
ATOM     20  C   UNL     1       3.947  44.524  52.919  1.00  0.00     0.019 A 
ATOM     21  C   UNL     1       3.431  43.416  52.221  1.00  0.00     0.012 A 
ATOM     22  C   UNL     1       3.132  45.080  53.923  1.00  0.00     0.012 A 
ATOM     23  C   UNL     1       2.165  42.892  52.506  1.00  0.00     0.004 A 
ATOM     24  C   UNL     1       1.864  44.560  54.212  1.00  0.00     0.004 A 
ATOM     25  C   UNL     1       1.366  43.469  53.496  1.00  0.00    -0.051 A 
ATOM     26  C   UNL     1       0.024  42.890  53.827  1.00  0.00     0.044 C 
ENDBRANCH  13  20
ENDBRANCH   8  10
ENDBRANCH   7   8
ENDBRANCH   1   7
TORSDOF 7
ENDMDL
MODEL 3
REMARK VINA RESULT:    -8.781      3.243      5.773
REMARK INTER + INTRA:         -13.017
REMARK INTER:                 -12.137
REMARK INTRA:                  -0.880
REMARK UNBOUND:                -0.643
REMARK SMILES COC(=O)CCCNc1nc(-c2ccc(C)cc2)nc2c1CCCC2
REMARK SMILES IDX 6 1 5 2 3 3 4 4 2 5 1 6 7 7 8 8 9 10 10 11 21 12 11 13 20 14
REMARK SMILES IDX 22 15 19 16 25 17 23 18 24 19 12 20 13 21 18 22 14 23 17 24
REMARK SMILES IDX 15 25 16 26
REMARK H PARENT 8 9
ROOT
ATOM      1  C   UNL     1       6.911  43.047  49.047  1.00  0.00     0.033 C 
ENDROOT
BRANCH   1   2
ATOM      2  C   UNL     1       6.515  41.835  49.891  1.00  0.00     0.124 C 
BRANCH   2   3
ATOM      3  C   UNL     1       5.220  41.204  49.441  1.00  0.00     0.305 C 
ATOM      4  O   UNL     1       4.892  41.018  48.276  1.00  0.00    -0.252 OA
BRANCH   3   5
ATOM      5  O   UNL     1       4.452  40.905  50.526  1.00  0.00    -0.469 OA
ATOM      6  C   UNL     1       4.014  42.048  51.262  1.00  0.00     0.282 C 
ENDBRANCH   3   5
ENDBRANCH   2   3
ENDBRANCH   1   2
BRANCH   1   7
ATOM      7  C   UNL     1       8.058  43.877  49.636  1.00  0.00     0.115 C 
BRANCH   7   8
ATOM      8  N   UNL     1       7.698  45.286  49.791  1.00  0.00    -0.370 N 
ATOM      9  H   UNL     1       7.085  45.587  49.036  1.00  0.00     0.162 HD
BRANCH   8  10
ATOM     10  C   UNL     1       7.101  45.658  51.011  1.00  0.00     0.133 A 
ATOM     11  N   UNL     1       5.783  45.469  51.182  1.00  0.00    -0.211 NA
ATOM     12  C   UNL     1       7.902  46.185  52.022  1.00  0.00     0.016 A 
ATOM     13  C   UNL     1       5.238  45.832  52.355  1.00  0.00     0.161 A 
ATOM     14  C   UNL     1       7.250  46.552  53.192  1.00  0.00     0.050 A 
ATOM     15  C   UNL     1       9.382  46.395  51.843  1.00  0.00     0.041 C 
ATOM     16  N   UNL     1       5.927  46.377  53.372  1.00  0.00    -0.233 NA
ATOM     17  C   UNL     1       7.998  47.117  54.370  1.00  0.00     0.057 C 
ATOM     18  C   UNL     1      10.127  46.662  53.151  1.00  0.00     0.005 C 
ATOM     19  C   UNL     1       9.370  47.672  54.001  1.00  0.00     0.007 C 
BRANCH  13  20
ATOM     20  C   UNL     1       3.787  45.621  52.535  1.00  0.00     0.019 A 
ATOM     21  C   UNL     1       2.924  45.459  51.435  1.00  0.00     0.012 A 
ATOM     22  C   UNL     1       3.203  45.566  53.815  1.00  0.00     0.012 A 
ATOM     23  C   UNL     1       1.548  45.259  51.603  1.00  0.00     0.004 A 
ATOM     24  C   UNL     1       1.828  45.366  53.988  1.00  0.00     0.004 A 
ATOM     25  C   UNL     1       0.988  45.223  52.881  1.00  0.00    -0.051 A 
ATOM     26  C   UNL     1      -0.479  44.975  53.065  1.00  0.00     0.044 C 
ENDBRANCH  13  20
ENDBRANCH   8  10
ENDBRANCH   7   8
ENDBRANCH   1   7
TORSDOF 7
ENDMDL
MODEL 4
REMARK VINA RESULT:    -8.689      1.206      1.562
REMARK INTER + INTRA:         -12.887
REMARK INTER:                 -11.989
REMARK INTRA:                  -0.898
REMARK UNBOUND:                -0.643
REMARK SMILES COC(=O)CCCNc1nc(-c2ccc(C)cc2)nc2c1CCCC2
REMARK SMILES IDX 6 1 5 2 3 3 4 4 2 5 1 6 7 7 8 8 9 10 10 11 21 12 11 13 20 14
REMARK SMILES IDX 22 15 19 16 25 17 23 18 24 19 12 20 13 21 18 22 14 23 17 24
REMARK SMILES IDX 15 25 16 26
REMARK H PARENT 8 9
ROOT
ATOM      1  C   UNL     1       6.511  46.785  54.201  1.00  0.00     0.033 C 
ENDROOT
BRANCH   1   2
ATOM      2  C   UNL     1       7.919  46.416  53.732  1.00  0.00     0.124 C 
BRANCH   2   3
ATOM      3  C   UNL     1       8.976  47.363  54.244  1.00  0.00     0.305 C 
ATOM      4  O   UNL     1       8.804  48.213  55.108  1.00  0.00    -0.252 OA
BRANCH   3   5
ATOM      5  O   UNL     1      10.143  47.157  53.572  1.00  0.00    -0.469 OA
ATOM      6  C   UNL     1       9.970  46.729  52.221  1.00  0.00     0.282 C 
ENDBRANCH   3   5
ENDBRANCH   2   3
ENDBRANCH   1   2
BRANCH   1   7
ATOM      7  C   UNL     1       5.553  47.178  53.071  1.00  0.00     0.115 C 
BRANCH   7   8
ATOM      8  N   UNL     1       5.681  46.301  51.906  1.00  0.00    -0.370 N 
ATOM      9  H   UNL     1       6.654  46.040  51.756  1.00  0.00     0.162 HD
BRANCH   8  10
ATOM     10  C   UNL     1       4.911  45.121  51.913  1.00  0.00     0.133 A 
ATOM     11  N   UNL     1       3.776  45.082  52.628  1.00  0.00    -0.211 NA
ATOM     12  C   UNL     1       5.334  44.034  51.151  1.00  0.00     0.016 A 
ATOM     13  C   UNL     1       3.060  43.945  52.618  1.00  0.00     0.161 A 
ATOM     14  C   UNL     1       4.543  42.894  51.218  1.00  0.00     0.050 A 
ATOM     15  C   UNL     1       6.603  44.069  50.342  1.00  0.00     0.041 C 
ATOM     16  N   UNL     1       3.408  42.839  51.940  1.00  0.00    -0.233 NA
ATOM     17  C   UNL     1       4.876  41.654  50.431  1.00  0.00     0.057 C 
ATOM     18  C   UNL     1       6.719  42.927  49.332  1.00  0.00     0.005 C 
ATOM     19  C   UNL     1       6.330  41.604  49.974  1.00  0.00     0.007 C 
BRANCH  13  20
ATOM     20  C   UNL     1       1.811  43.911  53.407  1.00  0.00     0.019 A 
ATOM     21  C   UNL     1       1.562  44.841  54.433  1.00  0.00     0.012 A 
ATOM     22  C   UNL     1       0.813  42.949  53.165  1.00  0.00     0.012 A 
ATOM     23  C   UNL     1       0.380  44.812  55.182  1.00  0.00     0.004 A 
ATOM     24  C   UNL     1      -0.372  42.914  53.912  1.00  0.00     0.004 A 
ATOM     25  C   UNL     1      -0.591  43.839  54.935  1.00  0.00    -0.051 A 
ATOM     26  C   UNL     1      -1.872  43.825  55.713  1.00  0.00     0.044 C 
ENDBRANCH  13  20
ENDBRANCH   8  10
ENDBRANCH   7   8
ENDBRANCH   1   7
TORSDOF 7
ENDMDL
MODEL 5
REMARK VINA RESULT:    -8.604      1.049      1.369
REMARK INTER + INTRA:         -12.768
REMARK INTER:                 -12.076
REMARK INTRA:                  -0.692
REMARK UNBOUND:                -0.643
REMARK SMILES COC(=O)CCCNc1nc(-c2ccc(C)cc2)nc2c1CCCC2
REMARK SMILES IDX 6 1 5 2 3 3 4 4 2 5 1 6 7 7 8 8 9 10 10 11 21 12 11 13 20 14
REMARK SMILES IDX 22 15 19 16 25 17 23 18 24 19 12 20 13 21 18 22 14 23 17 24
REMARK SMILES IDX 15 25 16 26
REMARK H PARENT 8 9
ROOT
ATOM      1  C   UNL     1       7.572  47.899  52.663  1.00  0.00     0.033 C 
ENDROOT
BRANCH   1   2
ATOM      2  C   UNL     1       8.593  47.260  51.721  1.00  0.00     0.124 C 
BRANCH   2   3
ATOM      3  C   UNL     1       9.690  46.528  52.454  1.00  0.00     0.305 C 
ATOM      4  O   UNL     1      10.688  46.046  51.934  1.00  0.00    -0.252 OA
BRANCH   3   5
ATOM      5  O   UNL     1       9.385  46.449  53.780  1.00  0.00    -0.469 OA
ATOM      6  C   UNL     1      10.256  47.203  54.624  1.00  0.00     0.282 C 
ENDBRANCH   3   5
ENDBRANCH   2   3
ENDBRANCH   1   2
BRANCH   1   7
ATOM      7  C   UNL     1       6.244  47.140  52.762  1.00  0.00     0.115 C 
BRANCH   7   8
ATOM      8  N   UNL     1       5.977  46.334  51.570  1.00  0.00    -0.370 N 
ATOM      9  H   UNL     1       6.847  46.040  51.132  1.00  0.00     0.162 HD
BRANCH   8  10
ATOM     10  C   UNL     1       5.169  45.194  51.744  1.00  0.00     0.133 A 
ATOM     11  N   UNL     1       4.104  45.261  52.557  1.00  0.00    -0.211 NA
ATOM     12  C   UNL     1       5.481  44.032  51.041  1.00  0.00     0.016 A 
ATOM     13  C   UNL     1       3.349  44.159  52.706  1.00  0.00     0.161 A 
ATOM     14  C   UNL     1       4.659  42.936  51.273  1.00  0.00     0.050 A 
ATOM     15  C   UNL     1       6.671  43.947  50.122  1.00  0.00     0.041 C 
ATOM     16  N   UNL     1       3.594  42.988  52.094  1.00  0.00    -0.233 NA
ATOM     17  C   UNL     1       4.874  41.624  50.566  1.00  0.00     0.057 C 
ATOM     18  C   UNL     1       6.653  42.724  49.205  1.00  0.00     0.005 C 
ATOM     19  C   UNL     1       6.277  41.474  49.988  1.00  0.00     0.007 C 
BRANCH  13  20
ATOM     20  C   UNL     1       2.178  44.242  53.602  1.00  0.00     0.019 A 
ATOM     21  C   UNL     1       2.183  45.060  54.747  1.00  0.00     0.012 A 
ATOM     22  C   UNL     1       1.002  43.511  53.348  1.00  0.00     0.012 A 
ATOM     23  C   UNL     1       1.075  45.141  55.599  1.00  0.00     0.004 A 
ATOM     24  C   UNL     1      -0.110  43.588  54.197  1.00  0.00     0.004 A 
ATOM     25  C   UNL     1      -0.076  44.395  55.336  1.00  0.00    -0.051 A 
ATOM     26  C   UNL     1      -1.277  44.506  56.227  1.00  0.00     0.044 C 
ENDBRANCH  13  20
ENDBRANCH   8  10
ENDBRANCH   7   8
ENDBRANCH   1   7
TORSDOF 7
ENDMDL
MODEL 6
REMARK VINA RESULT:    -8.443      2.769      6.588
REMARK INTER + INTRA:         -12.541
REMARK INTER:                 -11.272
REMARK INTRA:                  -1.269
REMARK UNBOUND:                -0.643
REMARK SMILES COC(=O)CCCNc1nc(-c2ccc(C)cc2)nc2c1CCCC2
REMARK SMILES IDX 6 1 5 2 3 3 4 4 2 5 1 6 7 7 8 8 9 10 10 11 21 12 11 13 20 14
REMARK SMILES IDX 22 15 19 16 25 17 23 18 24 19 12 20 13 21 18 22 14 23 17 24
REMARK SMILES IDX 15 25 16 26
REMARK H PARENT 8 9
ROOT
ATOM      1  C   UNL     1       2.664  45.518  55.170  1.00  0.00     0.033 C 
ENDROOT
BRANCH   1   2
ATOM      2  C   UNL     1       1.733  45.056  54.048  1.00  0.00     0.124 C 
BRANCH   2   3
ATOM      3  C   UNL     1       1.632  46.054  52.920  1.00  0.00     0.305 C 
ATOM      4  O   UNL     1       2.359  47.028  52.771  1.00  0.00    -0.252 OA
BRANCH   3   5
ATOM      5  O   UNL     1       0.585  45.729  52.111  1.00  0.00    -0.469 OA
ATOM      6  C   UNL     1       0.713  44.457  51.475  1.00  0.00     0.282 C 
ENDBRANCH   3   5
ENDBRANCH   2   3
ENDBRANCH   1   2
BRANCH   1   7
ATOM      7  C   UNL     1       4.117  45.055  55.014  1.00  0.00     0.115 C 
BRANCH   7   8
ATOM      8  N   UNL     1       4.931  46.025  54.282  1.00  0.00    -0.370 N 
ATOM      9  H   UNL     1       5.630  46.443  54.892  1.00  0.00     0.162 HD
BRANCH   8  10
ATOM     10  C   UNL     1       5.587  45.559  53.126  1.00  0.00     0.133 A 
ATOM     11  N   UNL     1       5.068  44.522  52.450  1.00  0.00    -0.211 NA
ATOM     12  C   UNL     1       6.742  46.208  52.696  1.00  0.00     0.016 A 
ATOM     13  C   UNL     1       5.712  44.096  51.350  1.00  0.00     0.161 A 
ATOM     14  C   UNL     1       7.353  45.686  51.563  1.00  0.00     0.050 A 
ATOM     15  C   UNL     1       7.329  47.375  53.443  1.00  0.00     0.041 C 
ATOM     16  N   UNL     1       6.848  44.639  50.882  1.00  0.00    -0.233 NA
ATOM     17  C   UNL     1       8.598  46.302  50.981  1.00  0.00     0.057 C 
ATOM     18  C   UNL     1       8.383  48.146  52.648  1.00  0.00     0.005 C 
ATOM     19  C   UNL     1       9.350  47.186  51.971  1.00  0.00     0.007 C 
BRANCH  13  20
ATOM     20  C   UNL     1       5.134  42.953  50.612  1.00  0.00     0.019 A 
ATOM     21  C   UNL     1       3.879  42.416  50.952  1.00  0.00     0.012 A 
ATOM     22  C   UNL     1       5.812  42.356  49.533  1.00  0.00     0.012 A 
ATOM     23  C   UNL     1       3.329  41.334  50.254  1.00  0.00     0.004 A 
ATOM     24  C   UNL     1       5.266  41.273  48.832  1.00  0.00     0.004 A 
ATOM     25  C   UNL     1       4.024  40.746  49.196  1.00  0.00    -0.051 A 
ATOM     26  C   UNL     1       3.423  39.610  48.426  1.00  0.00     0.044 C 
ENDBRANCH  13  20
ENDBRANCH   8  10
ENDBRANCH   7   8
ENDBRANCH   1   7
TORSDOF 7
ENDMDL
MODEL 7
REMARK VINA RESULT:    -8.339      2.765      6.945
REMARK INTER + INTRA:         -12.395
REMARK INTER:                 -11.547
REMARK INTRA:                  -0.847
REMARK UNBOUND:                -0.643
REMARK SMILES COC(=O)CCCNc1nc(-c2ccc(C)cc2)nc2c1CCCC2
REMARK SMILES IDX 6 1 5 2 3 3 4 4 2 5 1 6 7 7 8 8 9 10 10 11 21 12 11 13 20 14
REMARK SMILES IDX 22 15 19 16 25 17 23 18 24 19 12 20 13 21 18 22 14 23 17 24
REMARK SMILES IDX 15 25 16 26
REMARK H PARENT 8 9
ROOT
ATOM      1  C   UNL     1       3.959  41.159  50.447  1.00  0.00     0.033 C 
ENDROOT
BRANCH   1   2
ATOM      2  C   UNL     1       4.905  41.333  49.258  1.00  0.00     0.124 C 
BRANCH   2   3
ATOM      3  C   UNL     1       6.303  41.722  49.672  1.00  0.00     0.305 C 
ATOM      4  O   UNL     1       7.154  40.953  50.097  1.00  0.00    -0.252 OA
BRANCH   3   5
ATOM      5  O   UNL     1       6.464  43.069  49.537  1.00  0.00    -0.469 OA
ATOM      6  C   UNL     1       7.788  43.464  49.178  1.00  0.00     0.282 C 
ENDBRANCH   3   5
ENDBRANCH   2   3
ENDBRANCH   1   2
BRANCH   1   7
ATOM      7  C   UNL     1       2.902  42.262  50.577  1.00  0.00     0.115 C 
BRANCH   7   8
ATOM      8  N   UNL     1       2.321  42.316  51.919  1.00  0.00    -0.370 N 
ATOM      9  H   UNL     1       2.502  41.453  52.426  1.00  0.00     0.162 HD
BRANCH   8  10
ATOM     10  C   UNL     1       2.717  43.392  52.738  1.00  0.00     0.133 A 
ATOM     11  N   UNL     1       3.947  43.909  52.594  1.00  0.00    -0.211 NA
ATOM     12  C   UNL     1       1.808  43.912  53.657  1.00  0.00     0.016 A 
ATOM     13  C   UNL     1       4.301  44.935  53.387  1.00  0.00     0.161 A 
ATOM     14  C   UNL     1       2.267  44.957  54.449  1.00  0.00     0.050 A 
ATOM     15  C   UNL     1       0.424  43.343  53.822  1.00  0.00     0.041 C 
ATOM     16  N   UNL     1       3.502  45.477  54.321  1.00  0.00    -0.233 NA
ATOM     17  C   UNL     1       1.381  45.622  55.470  1.00  0.00     0.057 C 
ATOM     18  C   UNL     1      -0.518  44.243  54.624  1.00  0.00     0.005 C 
ATOM     19  C   UNL     1       0.179  44.772  55.868  1.00  0.00     0.007 C 
BRANCH  13  20
ATOM     20  C   UNL     1       5.656  45.498  53.222  1.00  0.00     0.019 A 
ATOM     21  C   UNL     1       6.387  45.993  54.318  1.00  0.00     0.012 A 
ATOM     22  C   UNL     1       6.280  45.559  51.962  1.00  0.00     0.012 A 
ATOM     23  C   UNL     1       7.672  46.527  54.165  1.00  0.00     0.004 A 
ATOM     24  C   UNL     1       7.566  46.092  51.802  1.00  0.00     0.004 A 
ATOM     25  C   UNL     1       8.266  46.592  52.902  1.00  0.00    -0.051 A 
ATOM     26  C   UNL     1       9.655  47.132  52.740  1.00  0.00     0.044 C 
ENDBRANCH  13  20
ENDBRANCH   8  10
ENDBRANCH   7   8
ENDBRANCH   1   7
TORSDOF 7
ENDMDL
MODEL 8
REMARK VINA RESULT:    -8.206      2.094      2.424
REMARK INTER + INTRA:         -12.207
REMARK INTER:                 -11.307
REMARK INTRA:                  -0.900
REMARK UNBOUND:                -0.643
REMARK SMILES COC(=O)CCCNc1nc(-c2ccc(C)cc2)nc2c1CCCC2
REMARK SMILES IDX 6 1 5 2 3 3 4 4 2 5 1 6 7 7 8 8 9 10 10 11 21 12 11 13 20 14
REMARK SMILES IDX 22 15 19 16 25 17 23 18 24 19 12 20 13 21 18 22 14 23 17 24
REMARK SMILES IDX 15 25 16 26
REMARK H PARENT 8 9
ROOT
ATOM      1  C   UNL     1       7.114  47.247  52.951  1.00  0.00     0.033 C 
ENDROOT
BRANCH   1   2
ATOM      2  C   UNL     1       6.661  46.807  54.344  1.00  0.00     0.124 C 
BRANCH   2   3
ATOM      3  C   UNL     1       5.215  47.135  54.621  1.00  0.00     0.305 C 
ATOM      4  O   UNL     1       4.642  48.159  54.272  1.00  0.00    -0.252 OA
BRANCH   3   5
ATOM      5  O   UNL     1       4.649  46.134  55.354  1.00  0.00    -0.469 OA
ATOM      6  C   UNL     1       5.401  44.920  55.360  1.00  0.00     0.282 C 
ENDBRANCH   3   5
ENDBRANCH   2   3
ENDBRANCH   1   2
BRANCH   1   7
ATOM      7  C   UNL     1       7.028  46.149  51.885  1.00  0.00     0.115 C 
BRANCH   7   8
ATOM      8  N   UNL     1       5.718  46.112  51.234  1.00  0.00    -0.370 N 
ATOM      9  H   UNL     1       5.807  46.290  50.236  1.00  0.00     0.162 HD
BRANCH   8  10
ATOM     10  C   UNL     1       4.960  44.937  51.401  1.00  0.00     0.133 A 
ATOM     11  N   UNL     1       3.861  44.969  52.170  1.00  0.00    -0.211 NA
ATOM     12  C   UNL     1       5.356  43.777  50.737  1.00  0.00     0.016 A 
ATOM     13  C   UNL     1       3.155  43.834  52.314  1.00  0.00     0.161 A 
ATOM     14  C   UNL     1       4.579  42.648  50.961  1.00  0.00     0.050 A 
ATOM     15  C   UNL     1       6.584  43.733  49.867  1.00  0.00     0.041 C 
ATOM     16  N   UNL     1       3.480  42.664  51.739  1.00  0.00    -0.233 NA
ATOM     17  C   UNL     1       4.885  41.333  50.292  1.00  0.00     0.057 C 
ATOM     18  C   UNL     1       6.661  42.492  48.978  1.00  0.00     0.005 C 
ATOM     19  C   UNL     1       6.316  41.241  49.773  1.00  0.00     0.007 C 
BRANCH  13  20
ATOM     20  C   UNL     1       1.946  43.878  53.162  1.00  0.00     0.019 A 
ATOM     21  C   UNL     1       1.759  44.885  54.126  1.00  0.00     0.012 A 
ATOM     22  C   UNL     1       0.925  42.916  53.040  1.00  0.00     0.012 A 
ATOM     23  C   UNL     1       0.614  44.930  54.931  1.00  0.00     0.004 A 
ATOM     24  C   UNL     1      -0.222  42.956  53.843  1.00  0.00     0.004 A 
ATOM     25  C   UNL     1      -0.380  43.957  54.803  1.00  0.00    -0.051 A 
ATOM     26  C   UNL     1      -1.622  44.021  55.640  1.00  0.00     0.044 C 
ENDBRANCH  13  20
ENDBRANCH   8  10
ENDBRANCH   7   8
ENDBRANCH   1   7
TORSDOF 7
ENDMDL
MODEL 9
REMARK VINA RESULT:    -8.057      1.557      5.718
REMARK INTER + INTRA:         -11.997
REMARK INTER:                 -11.345
REMARK INTRA:                  -0.653
REMARK UNBOUND:                -0.643
REMARK SMILES COC(=O)CCCNc1nc(-c2ccc(C)cc2)nc2c1CCCC2
REMARK SMILES IDX 6 1 5 2 3 3 4 4 2 5 1 6 7 7 8 8 9 10 10 11 21 12 11 13 20 14
REMARK SMILES IDX 22 15 19 16 25 17 23 18 24 19 12 20 13 21 18 22 14 23 17 24
REMARK SMILES IDX 15 25 16 26
REMARK H PARENT 8 9
ROOT
ATOM      1  C   UNL     1       6.056  46.986  54.388  1.00  0.00     0.033 C 
ENDROOT
BRANCH   1   2
ATOM      2  C   UNL     1       6.458  47.059  52.914  1.00  0.00     0.124 C 
BRANCH   2   3
ATOM      3  C   UNL     1       7.782  47.750  52.700  1.00  0.00     0.305 C 
ATOM      4  O   UNL     1       7.923  48.915  52.354  1.00  0.00    -0.252 OA
BRANCH   3   5
ATOM      5  O   UNL     1       8.800  46.869  52.913  1.00  0.00    -0.469 OA
ATOM      6  C   UNL     1       9.792  47.337  53.828  1.00  0.00     0.282 C 
ENDBRANCH   3   5
ENDBRANCH   2   3
ENDBRANCH   1   2
BRANCH   1   7
ATOM      7  C   UNL     1       4.616  47.427  54.671  1.00  0.00     0.115 C 
BRANCH   7   8
ATOM      8  N   UNL     1       3.860  46.411  55.404  1.00  0.00    -0.370 N 
ATOM      9  H   UNL     1       3.167  46.845  56.011  1.00  0.00     0.162 HD
BRANCH   8  10
ATOM     10  C   UNL     1       3.209  45.426  54.635  1.00  0.00     0.133 A 
ATOM     11  N   UNL     1       3.871  44.838  53.627  1.00  0.00    -0.211 NA
ATOM     12  C   UNL     1       1.903  45.068  54.962  1.00  0.00     0.016 A 
ATOM     13  C   UNL     1       3.227  43.902  52.908  1.00  0.00     0.161 A 
ATOM     14  C   UNL     1       1.310  44.108  54.151  1.00  0.00     0.050 A 
ATOM     15  C   UNL     1       1.154  45.718  56.094  1.00  0.00     0.041 C 
ATOM     16  N   UNL     1       1.960  43.517  53.131  1.00  0.00    -0.233 NA
ATOM     17  C   UNL     1      -0.091  43.616  54.404  1.00  0.00     0.057 C 
ATOM     18  C   UNL     1      -0.117  44.971  56.500  1.00  0.00     0.005 C 
ATOM     19  C   UNL     1      -0.914  44.565  55.269  1.00  0.00     0.007 C 
BRANCH  13  20
ATOM     20  C   UNL     1       3.963  43.258  51.800  1.00  0.00     0.019 A 
ATOM     21  C   UNL     1       3.539  42.036  51.246  1.00  0.00     0.012 A 
ATOM     22  C   UNL     1       5.118  43.842  51.245  1.00  0.00     0.012 A 
ATOM     23  C   UNL     1       4.234  41.424  50.195  1.00  0.00     0.004 A 
ATOM     24  C   UNL     1       5.817  43.234  50.195  1.00  0.00     0.004 A 
ATOM     25  C   UNL     1       5.386  42.014  49.670  1.00  0.00    -0.051 A 
ATOM     26  C   UNL     1       6.113  41.378  48.524  1.00  0.00     0.044 C 
ENDBRANCH  13  20
ENDBRANCH   8  10
ENDBRANCH   7   8
ENDBRANCH   1   7
TORSDOF 7
ENDMDL
MODEL 10
REMARK VINA RESULT:    -8.024      4.166      8.033
REMARK INTER + INTRA:         -11.951
REMARK INTER:                 -11.342
REMARK INTRA:                  -0.609
REMARK UNBOUND:                -0.643
REMARK SMILES COC(=O)CCCNc1nc(-c2ccc(C)cc2)nc2c1CCCC2
REMARK SMILES IDX 6 1 5 2 3 3 4 4 2 5 1 6 7 7 8 8 9 10 10 11 21 12 11 13 20 14
REMARK SMILES IDX 22 15 19 16 25 17 23 18 24 19 12 20 13 21 18 22 14 23 17 24
REMARK SMILES IDX 15 25 16 26
REMARK H PARENT 8 9
ROOT
ATOM      1  C   UNL     1       3.525  40.405  49.226  1.00  0.00     0.033 C 
ENDROOT
BRANCH   1   2
ATOM      2  C   UNL     1       4.237  40.777  47.924  1.00  0.00     0.124 C 
BRANCH   2   3
ATOM      3  C   UNL     1       3.439  40.415  46.696  1.00  0.00     0.305 C 
ATOM      4  O   UNL     1       2.521  39.605  46.661  1.00  0.00    -0.252 OA
BRANCH   3   5
ATOM      5  O   UNL     1       3.919  41.097  45.618  1.00  0.00    -0.469 OA
ATOM      6  C   UNL     1       5.266  41.547  45.766  1.00  0.00     0.282 C 
ENDBRANCH   3   5
ENDBRANCH   2   3
ENDBRANCH   1   2
BRANCH   1   7
ATOM      7  C   UNL     1       3.957  41.237  50.439  1.00  0.00     0.115 C 
BRANCH   7   8
ATOM      8  N   UNL     1       2.822  41.876  51.104  1.00  0.00    -0.370 N 
ATOM      9  H   UNL     1       2.291  41.197  51.645  1.00  0.00     0.162 HD
BRANCH   8  10
ATOM     10  C   UNL     1       3.112  42.970  51.944  1.00  0.00     0.133 A 
ATOM     11  N   UNL     1       4.321  43.547  51.876  1.00  0.00    -0.211 NA
ATOM     12  C   UNL     1       2.122  43.443  52.803  1.00  0.00     0.016 A 
ATOM     13  C   UNL     1       4.573  44.588  52.688  1.00  0.00     0.161 A 
ATOM     14  C   UNL     1       2.478  44.508  53.620  1.00  0.00     0.050 A 
ATOM     15  C   UNL     1       0.760  42.806  52.882  1.00  0.00     0.041 C 
ATOM     16  N   UNL     1       3.691  45.089  53.569  1.00  0.00    -0.233 NA
ATOM     17  C   UNL     1       1.498  45.128  54.582  1.00  0.00     0.057 C 
ATOM     18  C   UNL     1      -0.274  43.657  53.621  1.00  0.00     0.005 C 
ATOM     19  C   UNL     1       0.317  44.219  54.906  1.00  0.00     0.007 C 
BRANCH  13  20
ATOM     20  C   UNL     1       5.907  45.218  52.607  1.00  0.00     0.019 A 
ATOM     21  C   UNL     1       6.587  45.654  53.758  1.00  0.00     0.012 A 
ATOM     22  C   UNL     1       6.559  45.404  51.373  1.00  0.00     0.012 A 
ATOM     23  C   UNL     1       7.851  46.251  53.685  1.00  0.00     0.004 A 
ATOM     24  C   UNL     1       7.824  46.001  51.294  1.00  0.00     0.004 A 
ATOM     25  C   UNL     1       8.474  46.440  52.449  1.00  0.00    -0.051 A 
ATOM     26  C   UNL     1       9.842  47.048  52.370  1.00  0.00     0.044 C 
ENDBRANCH  13  20
ENDBRANCH   8  10
ENDBRANCH   7   8
ENDBRANCH   1   7
TORSDOF 7
ENDMDL
MODEL 11
REMARK VINA RESULT:    -7.908      2.022      5.054
REMARK INTER + INTRA:         -11.788
REMARK INTER:                 -11.012
REMARK INTRA:                  -0.775
REMARK UNBOUND:                -0.643
REMARK SMILES COC(=O)CCCNc1nc(-c2ccc(C)cc2)nc2c1CCCC2
REMARK SMILES IDX 6 1 5 2 3 3 4 4 2 5 1 6 7 7 8 8 9 10 10 11 21 12 11 13 20 14
REMARK SMILES IDX 22 15 19 16 25 17 23 18 24 19 12 20 13 21 18 22 14 23 17 24
REMARK SMILES IDX 15 25 16 26
REMARK H PARENT 8 9
ROOT
ATOM      1  C   UNL     1       9.514  47.114  52.091  1.00  0.00     0.033 C 
ENDROOT
BRANCH   1   2
ATOM      2  C   UNL     1      10.084  46.523  53.381  1.00  0.00     0.124 C 
BRANCH   2   3
ATOM      3  C   UNL     1       9.826  47.391  54.588  1.00  0.00     0.305 C 
ATOM      4  O   UNL     1       9.092  48.370  54.611  1.00  0.00    -0.252 OA
BRANCH   3   5
ATOM      5  O   UNL     1      10.566  46.944  55.642  1.00  0.00    -0.469 OA
ATOM      6  C   UNL     1      10.934  47.965  56.570  1.00  0.00     0.282 C 
ENDBRANCH   3   5
ENDBRANCH   2   3
ENDBRANCH   1   2
BRANCH   1   7
ATOM      7  C   UNL     1       8.838  46.088  51.173  1.00  0.00     0.115 C 
BRANCH   7   8
ATOM      8  N   UNL     1       7.446  46.435  50.887  1.00  0.00    -0.370 N 
ATOM      9  H   UNL     1       7.303  46.557  49.887  1.00  0.00     0.162 HD
BRANCH   8  10
ATOM     10  C   UNL     1       6.461  45.548  51.363  1.00  0.00     0.133 A 
ATOM     11  N   UNL     1       6.080  44.516  50.594  1.00  0.00    -0.211 NA
ATOM     12  C   UNL     1       5.929  45.749  52.635  1.00  0.00     0.016 A 
ATOM     13  C   UNL     1       5.138  43.684  51.072  1.00  0.00     0.161 A 
ATOM     14  C   UNL     1       4.946  44.853  53.036  1.00  0.00     0.050 A 
ATOM     15  C   UNL     1       6.353  46.900  53.507  1.00  0.00     0.041 C 
ATOM     16  N   UNL     1       4.548  43.820  52.270  1.00  0.00    -0.233 NA
ATOM     17  C   UNL     1       4.300  44.945  54.394  1.00  0.00     0.057 C 
ATOM     18  C   UNL     1       5.914  46.761  54.965  1.00  0.00     0.005 C 
ATOM     19  C   UNL     1       4.461  46.315  55.045  1.00  0.00     0.007 C 
BRANCH  13  20
ATOM     20  C   UNL     1       4.725  42.550  50.219  1.00  0.00     0.019 A 
ATOM     21  C   UNL     1       3.581  41.785  50.514  1.00  0.00     0.012 A 
ATOM     22  C   UNL     1       5.454  42.188  49.071  1.00  0.00     0.012 A 
ATOM     23  C   UNL     1       3.187  40.710  49.708  1.00  0.00     0.004 A 
ATOM     24  C   UNL     1       5.064  41.114  48.261  1.00  0.00     0.004 A 
ATOM     25  C   UNL     1       3.933  40.359  48.581  1.00  0.00    -0.051 A 
ATOM     26  C   UNL     1       3.495  39.230  47.698  1.00  0.00     0.044 C 
ENDBRANCH  13  20
ENDBRANCH   8  10
ENDBRANCH   7   8
ENDBRANCH   1   7
TORSDOF 7
ENDMDL
MODEL 12
REMARK VINA RESULT:    -7.860      3.134      6.654
REMARK INTER + INTRA:         -11.719
REMARK INTER:                 -10.679
REMARK INTRA:                  -1.040
REMARK UNBOUND:                -0.643
REMARK SMILES COC(=O)CCCNc1nc(-c2ccc(C)cc2)nc2c1CCCC2
REMARK SMILES IDX 6 1 5 2 3 3 4 4 2 5 1 6 7 7 8 8 9 10 10 11 21 12 11 13 20 14
REMARK SMILES IDX 22 15 19 16 25 17 23 18 24 19 12 20 13 21 18 22 14 23 17 24
REMARK SMILES IDX 15 25 16 26
REMARK H PARENT 8 9
ROOT
ATOM      1  C   UNL     1       2.866  44.968  55.167  1.00  0.00     0.033 C 
ENDROOT
BRANCH   1   2
ATOM      2  C   UNL     1       2.012  45.694  54.127  1.00  0.00     0.124 C 
BRANCH   2   3
ATOM      3  C   UNL     1       1.511  44.779  53.037  1.00  0.00     0.305 C 
ATOM      4  O   UNL     1       1.035  45.144  51.970  1.00  0.00    -0.252 OA
BRANCH   3   5
ATOM      5  O   UNL     1       1.633  43.480  53.434  1.00  0.00    -0.469 OA
ATOM      6  C   UNL     1       0.387  42.810  53.625  1.00  0.00     0.282 C 
ENDBRANCH   3   5
ENDBRANCH   2   3
ENDBRANCH   1   2
BRANCH   1   7
ATOM      7  C   UNL     1       4.356  45.325  55.118  1.00  0.00     0.115 C 
BRANCH   7   8
ATOM      8  N   UNL     1       4.674  46.221  54.006  1.00  0.00    -0.370 N 
ATOM      9  H   UNL     1       5.163  47.049  54.339  1.00  0.00     0.162 HD
BRANCH   8  10
ATOM     10  C   UNL     1       5.420  45.674  52.944  1.00  0.00     0.133 A 
ATOM     11  N   UNL     1       4.927  44.624  52.268  1.00  0.00    -0.211 NA
ATOM     12  C   UNL     1       6.639  46.257  52.604  1.00  0.00     0.016 A 
ATOM     13  C   UNL     1       5.659  44.121  51.259  1.00  0.00     0.161 A 
ATOM     14  C   UNL     1       7.336  45.657  51.563  1.00  0.00     0.050 A 
ATOM     15  C   UNL     1       7.198  47.438  53.352  1.00  0.00     0.041 C 
ATOM     16  N   UNL     1       6.857  44.597  50.883  1.00  0.00    -0.233 NA
ATOM     17  C   UNL     1       8.657  46.197  51.081  1.00  0.00     0.057 C 
ATOM     18  C   UNL     1       8.357  48.128  52.632  1.00  0.00     0.005 C 
ATOM     19  C   UNL     1       9.344  47.100  52.100  1.00  0.00     0.007 C 
BRANCH  13  20
ATOM     20  C   UNL     1       5.109  42.965  50.520  1.00  0.00     0.019 A 
ATOM     21  C   UNL     1       5.824  42.351  49.476  1.00  0.00     0.012 A 
ATOM     22  C   UNL     1       3.847  42.425  50.831  1.00  0.00     0.012 A 
ATOM     23  C   UNL     1       5.306  41.256  48.774  1.00  0.00     0.004 A 
ATOM     24  C   UNL     1       3.323  41.330  50.132  1.00  0.00     0.004 A 
ATOM     25  C   UNL     1       4.045  40.745  49.089  1.00  0.00    -0.051 A 
ATOM     26  C   UNL     1       3.501  39.552  48.362  1.00  0.00     0.044 C 
ENDBRANCH  13  20
ENDBRANCH   8  10
ENDBRANCH   7   8
ENDBRANCH   1   7
TORSDOF 7
ENDMDL
MODEL 13
REMARK VINA RESULT:    -7.813      4.086      6.658
REMARK INTER + INTRA:         -11.653
REMARK INTER:                 -10.973
REMARK INTRA:                  -0.680
REMARK UNBOUND:                -0.643
REMARK SMILES COC(=O)CCCNc1nc(-c2ccc(C)cc2)nc2c1CCCC2
REMARK SMILES IDX 6 1 5 2 3 3 4 4 2 5 1 6 7 7 8 8 9 10 10 11 21 12 11 13 20 14
REMARK SMILES IDX 22 15 19 16 25 17 23 18 24 19 12 20 13 21 18 22 14 23 17 24
REMARK SMILES IDX 15 25 16 26
REMARK H PARENT 8 9
ROOT
ATOM      1  C   UNL     1       5.397  41.174  48.869  1.00  0.00     0.033 C 
ENDROOT
BRANCH   1   2
ATOM      2  C   UNL     1       3.926  40.760  48.931  1.00  0.00     0.124 C 
BRANCH   2   3
ATOM      3  C   UNL     1       3.463  40.047  47.685  1.00  0.00     0.305 C 
ATOM      4  O   UNL     1       3.552  40.485  46.545  1.00  0.00    -0.252 OA
BRANCH   3   5
ATOM      5  O   UNL     1       2.895  38.855  48.021  1.00  0.00    -0.469 OA
ATOM      6  C   UNL     1       2.455  38.083  46.903  1.00  0.00     0.282 C 
ENDBRANCH   3   5
ENDBRANCH   2   3
ENDBRANCH   1   2
BRANCH   1   7
ATOM      7  C   UNL     1       5.915  41.856  50.141  1.00  0.00     0.115 C 
BRANCH   7   8
ATOM      8  N   UNL     1       6.156  43.285  49.943  1.00  0.00    -0.370 N 
ATOM      9  H   UNL     1       5.777  43.595  49.051  1.00  0.00     0.162 HD
BRANCH   8  10
ATOM     10  C   UNL     1       5.678  44.153  50.944  1.00  0.00     0.133 A 
ATOM     11  N   UNL     1       4.485  43.911  51.509  1.00  0.00    -0.211 NA
ATOM     12  C   UNL     1       6.473  45.226  51.343  1.00  0.00     0.016 A 
ATOM     13  C   UNL     1       4.052  44.755  52.461  1.00  0.00     0.161 A 
ATOM     14  C   UNL     1       5.935  46.057  52.317  1.00  0.00     0.050 A 
ATOM     15  C   UNL     1       7.815  45.503  50.720  1.00  0.00     0.041 C 
ATOM     16  N   UNL     1       4.735  45.831  52.884  1.00  0.00    -0.233 NA
ATOM     17  C   UNL     1       6.695  47.243  52.852  1.00  0.00     0.057 C 
ATOM     18  C   UNL     1       8.663  46.503  51.507  1.00  0.00     0.005 C 
ATOM     19  C   UNL     1       7.823  47.699  51.932  1.00  0.00     0.007 C 
BRANCH  13  20
ATOM     20  C   UNL     1       2.738  44.480  53.078  1.00  0.00     0.019 A 
ATOM     21  C   UNL     1       2.148  45.380  53.985  1.00  0.00     0.012 A 
ATOM     22  C   UNL     1       2.015  43.310  52.781  1.00  0.00     0.012 A 
ATOM     23  C   UNL     1       0.902  45.123  54.571  1.00  0.00     0.004 A 
ATOM     24  C   UNL     1       0.768  43.047  53.364  1.00  0.00     0.004 A 
ATOM     25  C   UNL     1       0.209  43.948  54.274  1.00  0.00    -0.051 A 
ATOM     26  C   UNL     1      -1.140  43.685  54.873  1.00  0.00     0.044 C 
ENDBRANCH  13  20
ENDBRANCH   8  10
ENDBRANCH   7   8
ENDBRANCH   1   7
TORSDOF 7
ENDMDL
MODEL 14
REMARK VINA RESULT:    -7.811      4.174      7.930
REMARK INTER + INTRA:         -11.650
REMARK INTER:                 -10.877
REMARK INTRA:                  -0.773
REMARK UNBOUND:                -0.643
REMARK SMILES COC(=O)CCCNc1nc(-c2ccc(C)cc2)nc2c1CCCC2
REMARK SMILES IDX 6 1 5 2 3 3 4 4 2 5 1 6 7 7 8 8 9 10 10 11 21 12 11 13 20 14
REMARK SMILES IDX 22 15 19 16 25 17 23 18 24 19 12 20 13 21 18 22 14 23 17 24
REMARK SMILES IDX 15 25 16 26
REMARK H PARENT 8 9
ROOT
ATOM      1  C   UNL     1       0.218  45.279  57.010  1.00  0.00     0.033 C 
ENDROOT
BRANCH   1   2
ATOM      2  C   UNL     1      -1.213  45.325  56.470  1.00  0.00     0.124 C 
BRANCH   2   3
ATOM      3  C   UNL     1      -2.026  44.116  56.859  1.00  0.00     0.305 C 
ATOM      4  O   UNL     1      -2.364  43.827  57.999  1.00  0.00    -0.252 OA
BRANCH   3   5
ATOM      5  O   UNL     1      -2.298  43.369  55.751  1.00  0.00    -0.469 OA
ATOM      6  C   UNL     1      -2.932  44.097  54.699  1.00  0.00     0.282 C 
ENDBRANCH   3   5
ENDBRANCH   2   3
ENDBRANCH   1   2
BRANCH   1   7
ATOM      7  C   UNL     1       1.291  45.661  55.984  1.00  0.00     0.115 C 
BRANCH   7   8
ATOM      8  N   UNL     1       2.206  44.554  55.703  1.00  0.00    -0.370 N 
ATOM      9  H   UNL     1       1.773  43.662  55.931  1.00  0.00     0.162 HD
BRANCH   8  10
ATOM     10  C   UNL     1       2.714  44.469  54.392  1.00  0.00     0.133 A 
ATOM     11  N   UNL     1       3.945  44.935  54.133  1.00  0.00    -0.211 NA
ATOM     12  C   UNL     1       1.933  43.874  53.402  1.00  0.00     0.016 A 
ATOM     13  C   UNL     1       4.406  44.843  52.873  1.00  0.00     0.161 A 
ATOM     14  C   UNL     1       2.481  43.842  52.127  1.00  0.00     0.050 A 
ATOM     15  C   UNL     1       0.553  43.343  53.684  1.00  0.00     0.041 C 
ATOM     16  N   UNL     1       3.711  44.316  51.852  1.00  0.00    -0.233 NA
ATOM     17  C   UNL     1       1.752  43.212  50.969  1.00  0.00     0.057 C 
ATOM     18  C   UNL     1       0.002  42.446  52.575  1.00  0.00     0.005 C 
ATOM     19  C   UNL     1       0.252  43.069  51.209  1.00  0.00     0.007 C 
BRANCH  13  20
ATOM     20  C   UNL     1       5.763  45.358  52.597  1.00  0.00     0.019 A 
ATOM     21  C   UNL     1       6.625  45.756  53.635  1.00  0.00     0.012 A 
ATOM     22  C   UNL     1       6.255  45.468  51.283  1.00  0.00     0.012 A 
ATOM     23  C   UNL     1       7.912  46.244  53.377  1.00  0.00     0.004 A 
ATOM     24  C   UNL     1       7.541  45.957  51.018  1.00  0.00     0.004 A 
ATOM     25  C   UNL     1       8.375  46.360  52.064  1.00  0.00    -0.051 A 
ATOM     26  C   UNL     1       9.763  46.851  51.785  1.00  0.00     0.044 C 
ENDBRANCH  13  20
ENDBRANCH   8  10
ENDBRANCH   7   8
ENDBRANCH   1   7
TORSDOF 7
ENDMDL
MODEL 15
REMARK VINA RESULT:    -7.786      2.563      5.953
REMARK INTER + INTRA:         -11.615
REMARK INTER:                 -10.749
REMARK INTRA:                  -0.866
REMARK UNBOUND:                -0.643
REMARK SMILES COC(=O)CCCNc1nc(-c2ccc(C)cc2)nc2c1CCCC2
REMARK SMILES IDX 6 1 5 2 3 3 4 4 2 5 1 6 7 7 8 8 9 10 10 11 21 12 11 13 20 14
REMARK SMILES IDX 22 15 19 16 25 17 23 18 24 19 12 20 13 21 18 22 14 23 17 24
REMARK SMILES IDX 15 25 16 26
REMARK H PARENT 8 9
ROOT
ATOM      1  C   UNL     1       1.333  44.448  51.594  1.00  0.00     0.033 C 
ENDROOT
BRANCH   1   2
ATOM      2  C   UNL     1       1.029  45.211  52.884  1.00  0.00     0.124 C 
BRANCH   2   3
ATOM      3  C   UNL     1       2.114  46.191  53.256  1.00  0.00     0.305 C 
ATOM      4  O   UNL     1       2.445  47.166  52.593  1.00  0.00    -0.252 OA
BRANCH   3   5
ATOM      5  O   UNL     1       2.700  45.807  54.425  1.00  0.00    -0.469 OA
ATOM      6  C   UNL     1       1.910  44.909  55.205  1.00  0.00     0.282 C 
ENDBRANCH   3   5
ENDBRANCH   2   3
ENDBRANCH   1   2
BRANCH   1   7
ATOM      7  C   UNL     1       1.333  42.923  51.750  1.00  0.00     0.115 C 
BRANCH   7   8
ATOM      8  N   UNL     1       2.556  42.432  52.386  1.00  0.00    -0.370 N 
ATOM      9  H   UNL     1       2.550  41.416  52.443  1.00  0.00     0.162 HD
BRANCH   8  10
ATOM     10  C   UNL     1       3.776  42.827  51.804  1.00  0.00     0.133 A 
ATOM     11  N   UNL     1       4.516  43.770  52.406  1.00  0.00    -0.211 NA
ATOM     12  C   UNL     1       4.197  42.205  50.630  1.00  0.00     0.016 A 
ATOM     13  C   UNL     1       5.676  44.130  51.830  1.00  0.00     0.161 A 
ATOM     14  C   UNL     1       5.397  42.655  50.095  1.00  0.00     0.050 A 
ATOM     15  C   UNL     1       3.377  41.142  49.949  1.00  0.00     0.041 C 
ATOM     16  N   UNL     1       6.144  43.608  50.684  1.00  0.00    -0.233 NA
ATOM     17  C   UNL     1       5.976  42.057  48.840  1.00  0.00     0.057 C 
ATOM     18  C   UNL     1       4.147  40.360  48.885  1.00  0.00     0.005 C 
ATOM     19  C   UNL     1       4.947  41.306  48.001  1.00  0.00     0.007 C 
BRANCH  13  20
ATOM     20  C   UNL     1       6.485  45.169  52.500  1.00  0.00     0.019 A 
ATOM     21  C   UNL     1       7.440  45.927  51.797  1.00  0.00     0.012 A 
ATOM     22  C   UNL     1       6.332  45.451  53.871  1.00  0.00     0.012 A 
ATOM     23  C   UNL     1       8.207  46.913  52.429  1.00  0.00     0.004 A 
ATOM     24  C   UNL     1       7.097  46.436  54.508  1.00  0.00     0.004 A 
ATOM     25  C   UNL     1       8.050  47.166  53.794  1.00  0.00    -0.051 A 
ATOM     26  C   UNL     1       8.846  48.243  54.466  1.00  0.00     0.044 C 
ENDBRANCH  13  20
ENDBRANCH   8  10
ENDBRANCH   7   8
ENDBRANCH   1   7
TORSDOF 7
ENDMDL
MODEL 16
REMARK VINA RESULT:    -7.706      3.698      7.490
REMARK INTER + INTRA:         -11.503
REMARK INTER:                 -10.905
REMARK INTRA:                  -0.598
REMARK UNBOUND:                -0.643
REMARK SMILES COC(=O)CCCNc1nc(-c2ccc(C)cc2)nc2c1CCCC2
REMARK SMILES IDX 6 1 5 2 3 3 4 4 2 5 1 6 7 7 8 8 9 10 10 11 21 12 11 13 20 14
REMARK SMILES IDX 22 15 19 16 25 17 23 18 24 19 12 20 13 21 18 22 14 23 17 24
REMARK SMILES IDX 15 25 16 26
REMARK H PARENT 8 9
ROOT
ATOM      1  C   UNL     1       0.086  45.301  57.005  1.00  0.00     0.033 C 
ENDROOT
BRANCH   1   2
ATOM      2  C   UNL     1      -1.215  46.072  56.775  1.00  0.00     0.124 C 
BRANCH   2   3
ATOM      3  C   UNL     1      -1.308  47.327  57.606  1.00  0.00     0.305 C 
ATOM      4  O   UNL     1      -1.996  48.304  57.337  1.00  0.00    -0.252 OA
BRANCH   3   5
ATOM      5  O   UNL     1      -0.482  47.227  58.685  1.00  0.00    -0.469 OA
ATOM      6  C   UNL     1      -0.521  48.358  59.556  1.00  0.00     0.282 C 
ENDBRANCH   3   5
ENDBRANCH   2   3
ENDBRANCH   1   2
BRANCH   1   7
ATOM      7  C   UNL     1       1.222  45.683  56.049  1.00  0.00     0.115 C 
BRANCH   7   8
ATOM      8  N   UNL     1       2.123  44.560  55.784  1.00  0.00    -0.370 N 
ATOM      9  H   UNL     1       1.669  43.676  55.999  1.00  0.00     0.162 HD
BRANCH   8  10
ATOM     10  C   UNL     1       2.657  44.471  54.484  1.00  0.00     0.133 A 
ATOM     11  N   UNL     1       3.892  44.940  54.247  1.00  0.00    -0.211 NA
ATOM     12  C   UNL     1       1.899  43.867  53.482  1.00  0.00     0.016 A 
ATOM     13  C   UNL     1       4.379  44.843  52.998  1.00  0.00     0.161 A 
ATOM     14  C   UNL     1       2.473  43.830  52.218  1.00  0.00     0.050 A 
ATOM     15  C   UNL     1       0.516  43.332  53.738  1.00  0.00     0.041 C 
ATOM     16  N   UNL     1       3.707  44.307  51.966  1.00  0.00    -0.233 NA
ATOM     17  C   UNL     1       1.770  43.191  51.049  1.00  0.00     0.057 C 
ATOM     18  C   UNL     1      -0.008  42.426  52.623  1.00  0.00     0.005 C 
ATOM     19  C   UNL     1       0.267  43.043  51.259  1.00  0.00     0.007 C 
BRANCH  13  20
ATOM     20  C   UNL     1       5.739  45.362  52.747  1.00  0.00     0.019 A 
ATOM     21  C   UNL     1       6.596  45.723  53.802  1.00  0.00     0.012 A 
ATOM     22  C   UNL     1       6.239  45.513  51.440  1.00  0.00     0.012 A 
ATOM     23  C   UNL     1       7.886  46.215  53.567  1.00  0.00     0.004 A 
ATOM     24  C   UNL     1       7.529  46.005  51.199  1.00  0.00     0.004 A 
ATOM     25  C   UNL     1       8.357  46.372  52.262  1.00  0.00    -0.051 A 
ATOM     26  C   UNL     1       9.749  46.866  52.007  1.00  0.00     0.044 C 
ENDBRANCH  13  20
ENDBRANCH   8  10
ENDBRANCH   7   8
ENDBRANCH   1   7
TORSDOF 7
ENDMDL
MODEL 17
REMARK VINA RESULT:    -7.680      2.004      5.914
REMARK INTER + INTRA:         -11.466
REMARK INTER:                 -11.077
REMARK INTRA:                  -0.389
REMARK UNBOUND:                -0.643
REMARK SMILES COC(=O)CCCNc1nc(-c2ccc(C)cc2)nc2c1CCCC2
REMARK SMILES IDX 6 1 5 2 3 3 4 4 2 5 1 6 7 7 8 8 9 10 10 11 21 12 11 13 20 14
REMARK SMILES IDX 22 15 19 16 25 17 23 18 24 19 12 20 13 21 18 22 14 23 17 24
REMARK SMILES IDX 15 25 16 26
REMARK H PARENT 8 9
ROOT
ATOM      1  C   UNL     1       4.825  45.796  55.182  1.00  0.00     0.033 C 
ENDROOT
BRANCH   1   2
ATOM      2  C   UNL     1       5.340  47.116  54.606  1.00  0.00     0.124 C 
BRANCH   2   3
ATOM      3  C   UNL     1       6.663  46.970  53.897  1.00  0.00     0.305 C 
ATOM      4  O   UNL     1       7.474  46.072  54.089  1.00  0.00    -0.252 OA
BRANCH   3   5
ATOM      5  O   UNL     1       6.840  48.010  53.034  1.00  0.00    -0.469 OA
ATOM      6  C   UNL     1       8.064  47.959  52.302  1.00  0.00     0.282 C 
ENDBRANCH   3   5
ENDBRANCH   2   3
ENDBRANCH   1   2
BRANCH   1   7
ATOM      7  C   UNL     1       3.349  45.823  55.597  1.00  0.00     0.115 C 
BRANCH   7   8
ATOM      8  N   UNL     1       2.654  44.583  55.249  1.00  0.00    -0.370 N 
ATOM      9  H   UNL     1       1.698  44.595  55.599  1.00  0.00     0.162 HD
BRANCH   8  10
ATOM     10  C   UNL     1       2.613  44.241  53.883  1.00  0.00     0.133 A 
ATOM     11  N   UNL     1       3.750  44.247  53.171  1.00  0.00    -0.211 NA
ATOM     12  C   UNL     1       1.394  43.875  53.315  1.00  0.00     0.016 A 
ATOM     13  C   UNL     1       3.684  43.916  51.869  1.00  0.00     0.161 A 
ATOM     14  C   UNL     1       1.417  43.571  51.960  1.00  0.00     0.050 A 
ATOM     15  C   UNL     1       0.114  43.859  54.107  1.00  0.00     0.041 C 
ATOM     16  N   UNL     1       2.549  43.583  51.232  1.00  0.00    -0.233 NA
ATOM     17  C   UNL     1       0.174  43.143  51.225  1.00  0.00     0.057 C 
ATOM     18  C   UNL     1      -1.030  43.123  53.410  1.00  0.00     0.005 C 
ATOM     19  C   UNL     1      -1.114  43.529  51.946  1.00  0.00     0.007 C 
BRANCH  13  20
ATOM     20  C   UNL     1       4.940  43.925  51.092  1.00  0.00     0.019 A 
ATOM     21  C   UNL     1       5.373  42.792  50.379  1.00  0.00     0.012 A 
ATOM     22  C   UNL     1       5.757  45.070  51.025  1.00  0.00     0.012 A 
ATOM     23  C   UNL     1       6.563  42.798  49.641  1.00  0.00     0.004 A 
ATOM     24  C   UNL     1       6.948  45.081  50.289  1.00  0.00     0.004 A 
ATOM     25  C   UNL     1       7.366  43.940  49.601  1.00  0.00    -0.051 A 
ATOM     26  C   UNL     1       8.623  43.960  48.785  1.00  0.00     0.044 C 
ENDBRANCH  13  20
ENDBRANCH   8  10
ENDBRANCH   7   8
ENDBRANCH   1   7
TORSDOF 7
ENDMDL
MODEL 18
REMARK VINA RESULT:    -7.597      2.743      6.011
REMARK INTER + INTRA:         -11.349
REMARK INTER:                 -10.062
REMARK INTRA:                  -1.287
REMARK UNBOUND:                -0.643
REMARK SMILES COC(=O)CCCNc1nc(-c2ccc(C)cc2)nc2c1CCCC2
REMARK SMILES IDX 6 1 5 2 3 3 4 4 2 5 1 6 7 7 8 8 9 10 10 11 21 12 11 13 20 14
REMARK SMILES IDX 22 15 19 16 25 17 23 18 24 19 12 20 13 21 18 22 14 23 17 24
REMARK SMILES IDX 15 25 16 26
REMARK H PARENT 8 9
ROOT
ATOM      1  C   UNL     1       1.144  44.211  53.804  1.00  0.00     0.033 C 
ENDROOT
BRANCH   1   2
ATOM      2  C   UNL     1       1.616  45.665  53.751  1.00  0.00     0.124 C 
BRANCH   2   3
ATOM      3  C   UNL     1       1.822  46.165  52.343  1.00  0.00     0.305 C 
ATOM      4  O   UNL     1       1.540  45.546  51.325  1.00  0.00    -0.252 OA
BRANCH   3   5
ATOM      5  O   UNL     1       2.404  47.396  52.372  1.00  0.00    -0.469 OA
ATOM      6  C   UNL     1       3.625  47.446  53.111  1.00  0.00     0.282 C 
ENDBRANCH   3   5
ENDBRANCH   2   3
ENDBRANCH   1   2
BRANCH   1   7
ATOM      7  C   UNL     1       2.275  43.179  53.738  1.00  0.00     0.115 C 
BRANCH   7   8
ATOM      8  N   UNL     1       2.499  42.690  52.377  1.00  0.00    -0.370 N 
ATOM      9  H   UNL     1       1.773  43.027  51.749  1.00  0.00     0.162 HD
BRANCH   8  10
ATOM     10  C   UNL     1       3.748  42.984  51.795  1.00  0.00     0.133 A 
ATOM     11  N   UNL     1       4.530  43.919  52.357  1.00  0.00    -0.211 NA
ATOM     12  C   UNL     1       4.151  42.274  50.666  1.00  0.00     0.016 A 
ATOM     13  C   UNL     1       5.717  44.181  51.782  1.00  0.00     0.161 A 
ATOM     14  C   UNL     1       5.382  42.626  50.128  1.00  0.00     0.050 A 
ATOM     15  C   UNL     1       3.284  41.220  50.032  1.00  0.00     0.041 C 
ATOM     16  N   UNL     1       6.172  43.569  50.676  1.00  0.00    -0.233 NA
ATOM     17  C   UNL     1       5.946  41.926  48.919  1.00  0.00     0.057 C 
ATOM     18  C   UNL     1       4.025  40.337  49.027  1.00  0.00     0.005 C 
ATOM     19  C   UNL     1       4.889  41.186  48.106  1.00  0.00     0.007 C 
BRANCH  13  20
ATOM     20  C   UNL     1       6.572  45.211  52.407  1.00  0.00     0.019 A 
ATOM     21  C   UNL     1       6.521  45.472  53.788  1.00  0.00     0.012 A 
ATOM     22  C   UNL     1       7.481  45.973  51.648  1.00  0.00     0.012 A 
ATOM     23  C   UNL     1       7.331  46.447  54.384  1.00  0.00     0.004 A 
ATOM     24  C   UNL     1       8.293  46.950  52.238  1.00  0.00     0.004 A 
ATOM     25  C   UNL     1       8.215  47.202  53.610  1.00  0.00    -0.051 A 
ATOM     26  C   UNL     1       9.107  48.224  54.249  1.00  0.00     0.044 C 
ENDBRANCH  13  20
ENDBRANCH   8  10
ENDBRANCH   7   8
ENDBRANCH   1   7
TORSDOF 7
ENDMDL
