MODEL 1
REMARK VINA RESULT:    -8.566      0.000      0.000
REMARK INTER + INTRA:         -13.171
REMARK INTER:                 -12.072
REMARK INTRA:                  -1.099
REMARK UNBOUND:                -1.099
REMARK SMILES Cn1ncc2c(Nc3ccc(Cl)cc3)nc(NCCCNC=O)nc21
REMARK SMILES IDX 17 1 16 3 2 4 3 5 25 6 4 7 24 8 5 9 6 10 15 11 1 12 7 13
REMARK SMILES IDX 8 15 9 16 14 17 10 18 13 19 11 20 12 21 18 22 19 23 20 24
REMARK SMILES IDX 21 25 22 26 23 28
REMARK H PARENT 17 2 7 14 21 27
ROOT
ATOM      1  N   UNL     1       2.641  45.487  52.292  1.00  0.00    -0.354 N 
ATOM      2  H   UNL     1       2.407  46.277  51.697  1.00  0.00     0.163 HD
ENDROOT
BRANCH   1   3
ATOM      3  C   UNL     1       3.708  44.860  51.655  1.00  0.00     0.226 A 
ATOM      4  N   UNL     1       4.869  41.912  50.044  1.00  0.00    -0.250 N 
ATOM      5  N   UNL     1       6.102  41.746  49.510  1.00  0.00    -0.179 NA
ATOM      6  C   UNL     1       4.684  43.139  50.620  1.00  0.00     0.165 A 
ATOM      7  C   UNL     1       6.704  42.914  49.766  1.00  0.00     0.149 A 
ATOM      8  N   UNL     1       3.573  43.605  51.209  1.00  0.00    -0.193 NA
ATOM      9  C   UNL     1       5.880  43.813  50.472  1.00  0.00     0.082 A 
ATOM     10  C   UNL     1       5.943  45.106  50.996  1.00  0.00     0.147 A 
ATOM     11  N   UNL     1       4.820  45.614  51.564  1.00  0.00    -0.195 NA
ATOM     12  C   UNL     1       3.908  40.842  49.953  1.00  0.00     0.176 C 
BRANCH  10  13
ATOM     13  N   UNL     1       7.059  45.953  50.928  1.00  0.00    -0.339 N 
ATOM     14  H   UNL     1       6.793  46.758  50.365  1.00  0.00     0.168 HD
BRANCH  13  15
ATOM     15  C   UNL     1       7.943  46.327  51.959  1.00  0.00     0.040 A 
ATOM     16  C   UNL     1       7.398  46.744  53.182  1.00  0.00     0.027 A 
ATOM     17  C   UNL     1       9.337  46.259  51.839  1.00  0.00     0.027 A 
ATOM     18  C   UNL     1       8.221  47.113  54.250  1.00  0.00     0.022 A 
ATOM     19  C   UNL     1      10.165  46.627  52.905  1.00  0.00     0.022 A 
ATOM     20  C   UNL     1       9.604  47.054  54.105  1.00  0.00     0.041 A 
ATOM     21  Cl  UNL     1      10.622  47.505  55.415  1.00  0.00    -0.084 Cl
ENDBRANCH  13  15
ENDBRANCH  10  13
ENDBRANCH   1   3
BRANCH   1  22
ATOM     22  C   UNL     1       1.516  44.607  52.580  1.00  0.00     0.118 C 
BRANCH  22  23
ATOM     23  C   UNL     1       1.636  44.028  53.994  1.00  0.00     0.042 C 
BRANCH  23  24
ATOM     24  C   UNL     1       1.958  45.089  55.047  1.00  0.00     0.117 C 
BRANCH  24  25
ATOM     25  N   UNL     1       3.273  44.910  55.623  1.00  0.00    -0.359 N 
ATOM     26  C   UNL     1       4.307  45.768  55.357  1.00  0.00     0.337 C 
ATOM     27  H   UNL     1       3.507  43.978  55.951  1.00  0.00     0.163 HD
ATOM     28  O   UNL     1       4.230  46.806  54.716  1.00  0.00    -0.279 OA
ENDBRANCH  24  25
ENDBRANCH  23  24
ENDBRANCH  22  23
ENDBRANCH   1  22
TORSDOF 7
ENDMDL
MODEL 2
REMARK VINA RESULT:    -8.421      2.129      4.529
REMARK INTER + INTRA:         -12.967
REMARK INTER:                 -12.050
REMARK INTRA:                  -0.917
REMARK UNBOUND:                -1.099
REMARK SMILES Cn1ncc2c(Nc3ccc(Cl)cc3)nc(NCCCNC=O)nc21
REMARK SMILES IDX 17 1 16 3 2 4 3 5 25 6 4 7 24 8 5 9 6 10 15 11 1 12 7 13
REMARK SMILES IDX 8 15 9 16 14 17 10 18 13 19 11 20 12 21 18 22 19 23 20 24
REMARK SMILES IDX 21 25 22 26 23 28
REMARK H PARENT 17 2 7 14 21 27
ROOT
ATOM      1  N   UNL     1       4.588  41.966  51.278  1.00  0.00    -0.354 N 
ATOM      2  H   UNL     1       4.179  41.503  52.086  1.00  0.00     0.163 HD
ENDROOT
BRANCH   1   3
ATOM      3  C   UNL     1       4.388  43.325  51.504  1.00  0.00     0.226 A 
ATOM      4  N   UNL     1       2.068  45.858  52.418  1.00  0.00    -0.250 N 
ATOM      5  N   UNL     1       2.355  47.176  52.536  1.00  0.00    -0.179 NA
ATOM      6  C   UNL     1       3.140  45.098  52.037  1.00  0.00     0.165 A 
ATOM      7  C   UNL     1       3.653  47.235  52.214  1.00  0.00     0.149 A 
ATOM      8  N   UNL     1       3.175  43.770  51.856  1.00  0.00    -0.193 NA
ATOM      9  C   UNL     1       4.191  45.978  51.873  1.00  0.00     0.082 A 
ATOM     10  C   UNL     1       5.413  45.432  51.471  1.00  0.00     0.147 A 
ATOM     11  N   UNL     1       5.483  44.085  51.318  1.00  0.00    -0.195 NA
ATOM     12  C   UNL     1       0.733  45.396  52.702  1.00  0.00     0.176 C 
BRANCH  10  13
ATOM     13  N   UNL     1       6.597  46.157  51.272  1.00  0.00    -0.339 N 
ATOM     14  H   UNL     1       6.366  46.958  50.690  1.00  0.00     0.168 HD
BRANCH  13  15
ATOM     15  C   UNL     1       7.595  46.484  52.211  1.00  0.00     0.040 A 
ATOM     16  C   UNL     1       7.196  46.830  53.510  1.00  0.00     0.027 A 
ATOM     17  C   UNL     1       8.965  46.436  51.925  1.00  0.00     0.027 A 
ATOM     18  C   UNL     1       8.138  47.150  54.492  1.00  0.00     0.022 A 
ATOM     19  C   UNL     1       9.912  46.755  52.904  1.00  0.00     0.022 A 
ATOM     20  C   UNL     1       9.495  47.113  54.182  1.00  0.00     0.041 A 
ATOM     21  Cl  UNL     1      10.659  47.504  55.386  1.00  0.00    -0.084 Cl
ENDBRANCH  13  15
ENDBRANCH  10  13
ENDBRANCH   1   3
BRANCH   1  22
ATOM     22  C   UNL     1       4.076  41.490  50.000  1.00  0.00     0.118 C 
BRANCH  22  23
ATOM     23  C   UNL     1       5.232  41.105  49.070  1.00  0.00     0.042 C 
BRANCH  23  24
ATOM     24  C   UNL     1       6.562  41.739  49.477  1.00  0.00     0.117 C 
BRANCH  24  25
ATOM     25  N   UNL     1       6.872  42.915  48.692  1.00  0.00    -0.359 N 
ATOM     26  C   UNL     1       8.004  43.656  48.907  1.00  0.00     0.337 C 
ATOM     27  H   UNL     1       6.097  43.365  48.215  1.00  0.00     0.163 HD
ATOM     28  O   UNL     1       8.908  43.375  49.680  1.00  0.00    -0.279 OA
ENDBRANCH  24  25
ENDBRANCH  23  24
ENDBRANCH  22  23
ENDBRANCH   1  22
TORSDOF 7
ENDMDL
MODEL 3
REMARK VINA RESULT:    -8.398      1.691      1.943
REMARK INTER + INTRA:         -12.934
REMARK INTER:                 -11.904
REMARK INTRA:                  -1.030
REMARK UNBOUND:                -1.099
REMARK SMILES Cn1ncc2c(Nc3ccc(Cl)cc3)nc(NCCCNC=O)nc21
REMARK SMILES IDX 17 1 16 3 2 4 3 5 25 6 4 7 24 8 5 9 6 10 15 11 1 12 7 13
REMARK SMILES IDX 8 15 9 16 14 17 10 18 13 19 11 20 12 21 18 22 19 23 20 24
REMARK SMILES IDX 21 25 22 26 23 28
REMARK H PARENT 17 2 7 14 21 27
ROOT
ATOM      1  N   UNL     1       2.587  46.545  52.134  1.00  0.00    -0.354 N 
ATOM      2  H   UNL     1       2.317  47.101  51.326  1.00  0.00     0.163 HD
ENDROOT
BRANCH   1   3
ATOM      3  C   UNL     1       3.615  45.724  51.678  1.00  0.00     0.226 A 
ATOM      4  N   UNL     1       4.524  42.475  50.560  1.00  0.00    -0.250 N 
ATOM      5  N   UNL     1       5.764  42.103  50.162  1.00  0.00    -0.179 NA
ATOM      6  C   UNL     1       4.448  43.782  50.958  1.00  0.00     0.165 A 
ATOM      7  C   UNL     1       6.483  43.220  50.323  1.00  0.00     0.149 A 
ATOM      8  N   UNL     1       3.361  44.443  51.383  1.00  0.00    -0.193 NA
ATOM      9  C   UNL     1       5.724  44.292  50.835  1.00  0.00     0.082 A 
ATOM     10  C   UNL     1       5.905  45.629  51.196  1.00  0.00     0.147 A 
ATOM     11  N   UNL     1       4.813  46.330  51.594  1.00  0.00    -0.195 NA
ATOM     12  C   UNL     1       3.450  41.516  50.518  1.00  0.00     0.176 C 
BRANCH  10  13
ATOM     13  N   UNL     1       7.118  46.331  51.122  1.00  0.00    -0.339 N 
ATOM     14  H   UNL     1       6.959  47.148  50.538  1.00  0.00     0.168 HD
BRANCH  13  15
ATOM     15  C   UNL     1       8.032  46.617  52.155  1.00  0.00     0.040 A 
ATOM     16  C   UNL     1       7.524  47.052  53.388  1.00  0.00     0.027 A 
ATOM     17  C   UNL     1       9.416  46.445  52.027  1.00  0.00     0.027 A 
ATOM     18  C   UNL     1       8.377  47.338  54.459  1.00  0.00     0.022 A 
ATOM     19  C   UNL     1      10.274  46.730  53.095  1.00  0.00     0.022 A 
ATOM     20  C   UNL     1       9.751  47.176  54.305  1.00  0.00     0.041 A 
ATOM     21  Cl  UNL     1      10.806  47.525  55.618  1.00  0.00    -0.084 Cl
ENDBRANCH  13  15
ENDBRANCH  10  13
ENDBRANCH   1   3
BRANCH   1  22
ATOM     22  C   UNL     1       1.482  45.830  52.759  1.00  0.00     0.118 C 
BRANCH  22  23
ATOM     23  C   UNL     1       1.720  45.686  54.265  1.00  0.00     0.042 C 
BRANCH  23  24
ATOM     24  C   UNL     1       1.316  44.314  54.805  1.00  0.00     0.117 C 
BRANCH  24  25
ATOM     25  N   UNL     1       1.581  43.252  53.858  1.00  0.00    -0.359 N 
ATOM     26  C   UNL     1       0.624  42.341  53.498  1.00  0.00     0.337 C 
ATOM     27  H   UNL     1       2.554  42.993  53.720  1.00  0.00     0.163 HD
ATOM     28  O   UNL     1      -0.552  42.369  53.832  1.00  0.00    -0.279 OA
ENDBRANCH  24  25
ENDBRANCH  23  24
ENDBRANCH  22  23
ENDBRANCH   1  22
TORSDOF 7
ENDMDL
MODEL 4
REMARK VINA RESULT:    -8.220      2.708      5.293
REMARK INTER + INTRA:         -12.683
REMARK INTER:                 -11.931
REMARK INTRA:                  -0.752
REMARK UNBOUND:                -1.099
REMARK SMILES Cn1ncc2c(Nc3ccc(Cl)cc3)nc(NCCCNC=O)nc21
REMARK SMILES IDX 17 1 16 3 2 4 3 5 25 6 4 7 24 8 5 9 6 10 15 11 1 12 7 13
REMARK SMILES IDX 8 15 9 16 14 17 10 18 13 19 11 20 12 21 18 22 19 23 20 24
REMARK SMILES IDX 21 25 22 26 23 28
REMARK H PARENT 17 2 7 14 21 27
ROOT
ATOM      1  N   UNL     1       4.656  41.921  50.842  1.00  0.00    -0.354 N 
ATOM      2  H   UNL     1       3.805  41.632  50.366  1.00  0.00     0.163 HD
ENDROOT
BRANCH   1   3
ATOM      3  C   UNL     1       4.453  43.263  51.156  1.00  0.00     0.226 A 
ATOM      4  N   UNL     1       2.108  45.747  52.135  1.00  0.00    -0.250 N 
ATOM      5  N   UNL     1       2.398  47.050  52.363  1.00  0.00    -0.179 NA
ATOM      6  C   UNL     1       3.193  45.005  51.753  1.00  0.00     0.165 A 
ATOM      7  C   UNL     1       3.711  47.118  52.112  1.00  0.00     0.149 A 
ATOM      8  N   UNL     1       3.228  43.693  51.478  1.00  0.00    -0.193 NA
ATOM      9  C   UNL     1       4.257  45.883  51.708  1.00  0.00     0.082 A 
ATOM     10  C   UNL     1       5.493  45.355  51.329  1.00  0.00     0.147 A 
ATOM     11  N   UNL     1       5.562  44.022  51.082  1.00  0.00    -0.195 NA
ATOM     12  C   UNL     1       0.757  45.280  52.317  1.00  0.00     0.176 C 
BRANCH  10  13
ATOM     13  N   UNL     1       6.691  46.080  51.243  1.00  0.00    -0.339 N 
ATOM     14  H   UNL     1       6.519  46.877  50.635  1.00  0.00     0.168 HD
BRANCH  13  15
ATOM     15  C   UNL     1       7.591  46.415  52.274  1.00  0.00     0.040 A 
ATOM     16  C   UNL     1       8.963  46.410  51.985  1.00  0.00     0.027 A 
ATOM     17  C   UNL     1       7.182  46.797  53.558  1.00  0.00     0.027 A 
ATOM     18  C   UNL     1       9.907  46.748  52.960  1.00  0.00     0.022 A 
ATOM     19  C   UNL     1       8.122  47.136  54.537  1.00  0.00     0.022 A 
ATOM     20  C   UNL     1       9.479  47.108  54.235  1.00  0.00     0.041 A 
ATOM     21  Cl  UNL     1      10.635  47.526  55.438  1.00  0.00    -0.084 Cl
ENDBRANCH  13  15
ENDBRANCH  10  13
ENDBRANCH   1   3
BRANCH   1  22
ATOM     22  C   UNL     1       5.875  41.661  50.088  1.00  0.00     0.118 C 
BRANCH  22  23
ATOM     23  C   UNL     1       5.552  41.442  48.606  1.00  0.00     0.042 C 
BRANCH  23  24
ATOM     24  C   UNL     1       4.229  40.708  48.385  1.00  0.00     0.117 C 
BRANCH  24  25
ATOM     25  N   UNL     1       3.988  40.419  46.988  1.00  0.00    -0.359 N 
ATOM     26  C   UNL     1       3.145  39.418  46.586  1.00  0.00     0.337 C 
ATOM     27  H   UNL     1       4.689  40.739  46.326  1.00  0.00     0.163 HD
ATOM     28  O   UNL     1       2.438  38.741  47.318  1.00  0.00    -0.279 OA
ENDBRANCH  24  25
ENDBRANCH  23  24
ENDBRANCH  22  23
ENDBRANCH   1  22
TORSDOF 7
ENDMDL
MODEL 5
REMARK VINA RESULT:    -8.209      1.685      2.441
REMARK INTER + INTRA:         -12.668
REMARK INTER:                 -11.420
REMARK INTRA:                  -1.248
REMARK UNBOUND:                -1.099
REMARK SMILES Cn1ncc2c(Nc3ccc(Cl)cc3)nc(NCCCNC=O)nc21
REMARK SMILES IDX 17 1 16 3 2 4 3 5 25 6 4 7 24 8 5 9 6 10 15 11 1 12 7 13
REMARK SMILES IDX 8 15 9 16 14 17 10 18 13 19 11 20 12 21 18 22 19 23 20 24
REMARK SMILES IDX 21 25 22 26 23 28
REMARK H PARENT 17 2 7 14 21 27
ROOT
ATOM      1  N   UNL     1       3.449  43.852  53.075  1.00  0.00    -0.354 N 
ATOM      2  H   UNL     1       3.523  42.906  53.440  1.00  0.00     0.163 HD
ENDROOT
BRANCH   1   3
ATOM      3  C   UNL     1       4.485  43.964  52.152  1.00  0.00     0.226 A 
ATOM      4  N   UNL     1       6.133  42.490  49.369  1.00  0.00    -0.250 N 
ATOM      5  N   UNL     1       7.196  43.019  48.718  1.00  0.00    -0.179 NA
ATOM      6  C   UNL     1       5.699  43.253  50.418  1.00  0.00     0.165 A 
ATOM      7  C   UNL     1       7.431  44.152  49.391  1.00  0.00     0.149 A 
ATOM      8  N   UNL     1       4.664  43.006  51.234  1.00  0.00    -0.193 NA
ATOM      9  C   UNL     1       6.546  44.342  50.472  1.00  0.00     0.082 A 
ATOM     10  C   UNL     1       6.307  45.276  51.483  1.00  0.00     0.147 A 
ATOM     11  N   UNL     1       5.242  45.067  52.298  1.00  0.00    -0.195 NA
ATOM     12  C   UNL     1       5.576  41.241  48.914  1.00  0.00     0.176 C 
BRANCH  10  13
ATOM     13  N   UNL     1       7.042  46.453  51.687  1.00  0.00    -0.339 N 
ATOM     14  H   UNL     1       6.408  47.235  51.541  1.00  0.00     0.168 HD
BRANCH  13  15
ATOM     15  C   UNL     1       7.974  46.742  52.704  1.00  0.00     0.040 A 
ATOM     16  C   UNL     1       9.333  46.515  52.442  1.00  0.00     0.027 A 
ATOM     17  C   UNL     1       7.616  47.285  53.944  1.00  0.00     0.027 A 
ATOM     18  C   UNL     1      10.309  46.795  53.402  1.00  0.00     0.022 A 
ATOM     19  C   UNL     1       8.588  47.567  54.909  1.00  0.00     0.022 A 
ATOM     20  C   UNL     1       9.930  47.319  54.635  1.00  0.00     0.041 A 
ATOM     21  Cl  UNL     1      11.126  47.668  55.821  1.00  0.00    -0.084 Cl
ENDBRANCH  13  15
ENDBRANCH  10  13
ENDBRANCH   1   3
BRANCH   1  22
ATOM     22  C   UNL     1       3.450  44.886  54.102  1.00  0.00     0.118 C 
BRANCH  22  23
ATOM     23  C   UNL     1       2.089  45.586  54.160  1.00  0.00     0.042 C 
BRANCH  23  24
ATOM     24  C   UNL     1       1.636  46.123  52.801  1.00  0.00     0.117 C 
BRANCH  24  25
ATOM     25  N   UNL     1       0.328  45.632  52.425  1.00  0.00    -0.359 N 
ATOM     26  C   UNL     1       0.166  44.560  51.587  1.00  0.00     0.337 C 
ATOM     27  H   UNL     1      -0.450  46.278  52.518  1.00  0.00     0.163 HD
ATOM     28  O   UNL     1       1.061  43.849  51.154  1.00  0.00    -0.279 OA
ENDBRANCH  24  25
ENDBRANCH  23  24
ENDBRANCH  22  23
ENDBRANCH   1  22
TORSDOF 7
ENDMDL
MODEL 6
REMARK VINA RESULT:    -8.201      2.726      5.407
REMARK INTER + INTRA:         -12.656
REMARK INTER:                 -11.892
REMARK INTRA:                  -0.764
REMARK UNBOUND:                -1.099
REMARK SMILES Cn1ncc2c(Nc3ccc(Cl)cc3)nc(NCCCNC=O)nc21
REMARK SMILES IDX 17 1 16 3 2 4 3 5 25 6 4 7 24 8 5 9 6 10 15 11 1 12 7 13
REMARK SMILES IDX 8 15 9 16 14 17 10 18 13 19 11 20 12 21 18 22 19 23 20 24
REMARK SMILES IDX 21 25 22 26 23 28
REMARK H PARENT 17 2 7 14 21 27
ROOT
ATOM      1  N   UNL     1       4.663  41.958  50.837  1.00  0.00    -0.354 N 
ATOM      2  H   UNL     1       3.764  41.628  50.495  1.00  0.00     0.163 HD
ENDROOT
BRANCH   1   3
ATOM      3  C   UNL     1       4.453  43.295  51.164  1.00  0.00     0.226 A 
ATOM      4  N   UNL     1       2.097  45.752  52.188  1.00  0.00    -0.250 N 
ATOM      5  N   UNL     1       2.379  47.055  52.425  1.00  0.00    -0.179 NA
ATOM      6  C   UNL     1       3.184  45.022  51.789  1.00  0.00     0.165 A 
ATOM      7  C   UNL     1       3.689  47.136  52.162  1.00  0.00     0.149 A 
ATOM      8  N   UNL     1       3.227  43.713  51.503  1.00  0.00    -0.193 NA
ATOM      9  C   UNL     1       4.241  45.909  51.741  1.00  0.00     0.082 A 
ATOM     10  C   UNL     1       5.478  45.394  51.346  1.00  0.00     0.147 A 
ATOM     11  N   UNL     1       5.555  44.064  51.086  1.00  0.00    -0.195 NA
ATOM     12  C   UNL     1       0.752  45.272  52.378  1.00  0.00     0.176 C 
BRANCH  10  13
ATOM     13  N   UNL     1       6.669  46.129  51.256  1.00  0.00    -0.339 N 
ATOM     14  H   UNL     1       6.483  46.934  50.662  1.00  0.00     0.168 HD
BRANCH  13  15
ATOM     15  C   UNL     1       7.580  46.456  52.280  1.00  0.00     0.040 A 
ATOM     16  C   UNL     1       8.949  46.452  51.976  1.00  0.00     0.027 A 
ATOM     17  C   UNL     1       7.184  46.828  53.571  1.00  0.00     0.027 A 
ATOM     18  C   UNL     1       9.903  46.783  52.943  1.00  0.00     0.022 A 
ATOM     19  C   UNL     1       8.135  47.160  54.542  1.00  0.00     0.022 A 
ATOM     20  C   UNL     1       9.489  47.133  54.225  1.00  0.00     0.041 A 
ATOM     21  Cl  UNL     1      10.658  47.542  55.419  1.00  0.00    -0.084 Cl
ENDBRANCH  13  15
ENDBRANCH  10  13
ENDBRANCH   1   3
BRANCH   1  22
ATOM     22  C   UNL     1       5.768  41.735  49.913  1.00  0.00     0.118 C 
BRANCH  22  23
ATOM     23  C   UNL     1       5.254  41.143  48.596  1.00  0.00     0.042 C 
BRANCH  23  24
ATOM     24  C   UNL     1       5.725  41.922  47.368  1.00  0.00     0.117 C 
BRANCH  24  25
ATOM     25  N   UNL     1       5.694  41.119  46.164  1.00  0.00    -0.359 N 
ATOM     26  C   UNL     1       5.282  41.628  44.961  1.00  0.00     0.337 C 
ATOM     27  H   UNL     1       5.663  40.112  46.285  1.00  0.00     0.163 HD
ATOM     28  O   UNL     1       5.002  42.796  44.735  1.00  0.00    -0.279 OA
ENDBRANCH  24  25
ENDBRANCH  23  24
ENDBRANCH  22  23
ENDBRANCH   1  22
TORSDOF 7
ENDMDL
MODEL 7
REMARK VINA RESULT:    -8.195      1.469      1.639
REMARK INTER + INTRA:         -12.648
REMARK INTER:                 -11.473
REMARK INTRA:                  -1.175
REMARK UNBOUND:                -1.099
REMARK SMILES Cn1ncc2c(Nc3ccc(Cl)cc3)nc(NCCCNC=O)nc21
REMARK SMILES IDX 17 1 16 3 2 4 3 5 25 6 4 7 24 8 5 9 6 10 15 11 1 12 7 13
REMARK SMILES IDX 8 15 9 16 14 17 10 18 13 19 11 20 12 21 18 22 19 23 20 24
REMARK SMILES IDX 21 25 22 26 23 28
REMARK H PARENT 17 2 7 14 21 27
ROOT
ATOM      1  N   UNL     1       3.268  43.945  52.824  1.00  0.00    -0.354 N 
ATOM      2  H   UNL     1       3.133  44.883  53.191  1.00  0.00     0.163 HD
ENDROOT
BRANCH   1   3
ATOM      3  C   UNL     1       4.375  44.043  51.985  1.00  0.00     0.226 A 
ATOM      4  N   UNL     1       6.257  42.515  49.386  1.00  0.00    -0.250 N 
ATOM      5  N   UNL     1       7.365  43.039  48.810  1.00  0.00    -0.179 NA
ATOM      6  C   UNL     1       5.732  43.300  50.376  1.00  0.00     0.165 A 
ATOM      7  C   UNL     1       7.534  44.192  49.469  1.00  0.00     0.149 A 
ATOM      8  N   UNL     1       4.636  43.063  51.111  1.00  0.00    -0.193 NA
ATOM      9  C   UNL     1       6.562  44.400  50.469  1.00  0.00     0.082 A 
ATOM     10  C   UNL     1       6.233  45.357  51.431  1.00  0.00     0.147 A 
ATOM     11  N   UNL     1       5.107  45.158  52.162  1.00  0.00    -0.195 NA
ATOM     12  C   UNL     1       5.749  41.249  48.922  1.00  0.00     0.176 C 
BRANCH  10  13
ATOM     13  N   UNL     1       6.939  46.547  51.663  1.00  0.00    -0.339 N 
ATOM     14  H   UNL     1       6.266  47.309  51.630  1.00  0.00     0.168 HD
BRANCH  13  15
ATOM     15  C   UNL     1       7.944  46.801  52.618  1.00  0.00     0.040 A 
ATOM     16  C   UNL     1       7.554  47.253  53.887  1.00  0.00     0.027 A 
ATOM     17  C   UNL     1       9.306  46.582  52.377  1.00  0.00     0.027 A 
ATOM     18  C   UNL     1       8.501  47.507  54.883  1.00  0.00     0.022 A 
ATOM     19  C   UNL     1      10.258  46.836  53.371  1.00  0.00     0.022 A 
ATOM     20  C   UNL     1       9.851  47.299  54.618  1.00  0.00     0.041 A 
ATOM     21  Cl  UNL     1      11.021  47.610  55.840  1.00  0.00    -0.084 Cl
ENDBRANCH  13  15
ENDBRANCH  10  13
ENDBRANCH   1   3
BRANCH   1  22
ATOM     22  C   UNL     1       2.084  43.380  52.189  1.00  0.00     0.118 C 
BRANCH  22  23
ATOM     23  C   UNL     1       0.996  44.448  52.039  1.00  0.00     0.042 C 
BRANCH  23  24
ATOM     24  C   UNL     1       1.223  45.663  52.939  1.00  0.00     0.117 C 
BRANCH  24  25
ATOM     25  N   UNL     1       0.477  45.576  54.176  1.00  0.00    -0.359 N 
ATOM     26  C   UNL     1       1.067  45.215  55.358  1.00  0.00     0.337 C 
ATOM     27  H   UNL     1      -0.529  45.464  54.098  1.00  0.00     0.163 HD
ATOM     28  O   UNL     1       2.263  45.032  55.535  1.00  0.00    -0.279 OA
ENDBRANCH  24  25
ENDBRANCH  23  24
ENDBRANCH  22  23
ENDBRANCH   1  22
TORSDOF 7
ENDMDL
MODEL 8
REMARK VINA RESULT:    -8.105      1.429      1.568
REMARK INTER + INTRA:         -12.520
REMARK INTER:                 -11.858
REMARK INTRA:                  -0.662
REMARK UNBOUND:                -1.099
REMARK SMILES Cn1ncc2c(Nc3ccc(Cl)cc3)nc(NCCCNC=O)nc21
REMARK SMILES IDX 17 1 16 3 2 4 3 5 25 6 4 7 24 8 5 9 6 10 15 11 1 12 7 13
REMARK SMILES IDX 8 15 9 16 14 17 10 18 13 19 11 20 12 21 18 22 19 23 20 24
REMARK SMILES IDX 21 25 22 26 23 28
REMARK H PARENT 17 2 7 14 21 27
ROOT
ATOM      1  N   UNL     1       2.477  45.574  52.352  1.00  0.00    -0.354 N 
ATOM      2  H   UNL     1       1.763  44.850  52.359  1.00  0.00     0.163 HD
ENDROOT
BRANCH   1   3
ATOM      3  C   UNL     1       3.589  44.978  51.764  1.00  0.00     0.226 A 
ATOM      4  N   UNL     1       4.913  42.052  50.241  1.00  0.00    -0.250 N 
ATOM      5  N   UNL     1       6.170  41.923  49.756  1.00  0.00    -0.179 NA
ATOM      6  C   UNL     1       4.663  43.280  50.792  1.00  0.00     0.165 A 
ATOM      7  C   UNL     1       6.721  43.115  50.018  1.00  0.00     0.149 A 
ATOM      8  N   UNL     1       3.515  43.713  51.332  1.00  0.00    -0.193 NA
ATOM      9  C   UNL     1       5.840  43.993  50.680  1.00  0.00     0.082 A 
ATOM     10  C   UNL     1       5.837  45.295  51.187  1.00  0.00     0.147 A 
ATOM     11  N   UNL     1       4.676  45.769  51.705  1.00  0.00    -0.195 NA
ATOM     12  C   UNL     1       3.994  40.948  50.128  1.00  0.00     0.176 C 
BRANCH  10  13
ATOM     13  N   UNL     1       6.924  46.180  51.149  1.00  0.00    -0.339 N 
ATOM     14  H   UNL     1       6.611  47.022  50.673  1.00  0.00     0.168 HD
BRANCH  13  15
ATOM     15  C   UNL     1       7.842  46.489  52.172  1.00  0.00     0.040 A 
ATOM     16  C   UNL     1       7.337  46.844  53.431  1.00  0.00     0.027 A 
ATOM     17  C   UNL     1       9.231  46.415  52.008  1.00  0.00     0.027 A 
ATOM     18  C   UNL     1       8.195  47.146  54.493  1.00  0.00     0.022 A 
ATOM     19  C   UNL     1      10.094  46.717  53.067  1.00  0.00     0.022 A 
ATOM     20  C   UNL     1       9.573  47.083  54.303  1.00  0.00     0.041 A 
ATOM     21  Cl  UNL     1      10.634  47.453  55.606  1.00  0.00    -0.084 Cl
ENDBRANCH  13  15
ENDBRANCH  10  13
ENDBRANCH   1   3
BRANCH   1  22
ATOM     22  C   UNL     1       2.735  46.165  53.659  1.00  0.00     0.118 C 
BRANCH  22  23
ATOM     23  C   UNL     1       2.720  45.086  54.747  1.00  0.00     0.042 C 
BRANCH  23  24
ATOM     24  C   UNL     1       1.571  45.258  55.741  1.00  0.00     0.117 C 
BRANCH  24  25
ATOM     25  N   UNL     1       1.953  46.050  56.890  1.00  0.00    -0.359 N 
ATOM     26  C   UNL     1       1.052  46.414  57.856  1.00  0.00     0.337 C 
ATOM     27  H   UNL     1       2.802  46.601  56.806  1.00  0.00     0.163 HD
ATOM     28  O   UNL     1      -0.111  46.046  57.924  1.00  0.00    -0.279 OA
ENDBRANCH  24  25
ENDBRANCH  23  24
ENDBRANCH  22  23
ENDBRANCH   1  22
TORSDOF 7
ENDMDL
MODEL 9
REMARK VINA RESULT:    -8.103      2.237      4.851
REMARK INTER + INTRA:         -12.517
REMARK INTER:                 -11.259
REMARK INTRA:                  -1.258
REMARK UNBOUND:                -1.099
REMARK SMILES Cn1ncc2c(Nc3ccc(Cl)cc3)nc(NCCCNC=O)nc21
REMARK SMILES IDX 17 1 16 3 2 4 3 5 25 6 4 7 24 8 5 9 6 10 15 11 1 12 7 13
REMARK SMILES IDX 8 15 9 16 14 17 10 18 13 19 11 20 12 21 18 22 19 23 20 24
REMARK SMILES IDX 21 25 22 26 23 28
REMARK H PARENT 17 2 7 14 21 27
ROOT
ATOM      1  N   UNL     1       3.736  41.548  50.821  1.00  0.00    -0.354 N 
ATOM      2  H   UNL     1       3.149  41.567  49.991  1.00  0.00     0.163 HD
ENDROOT
BRANCH   1   3
ATOM      3  C   UNL     1       3.434  42.724  51.502  1.00  0.00     0.226 A 
ATOM      4  N   UNL     1       1.201  44.357  53.733  1.00  0.00    -0.250 N 
ATOM      5  N   UNL     1       1.328  45.631  54.175  1.00  0.00    -0.179 NA
ATOM      6  C   UNL     1       2.190  43.978  52.867  1.00  0.00     0.165 A 
ATOM      7  C   UNL     1       2.437  46.057  53.558  1.00  0.00     0.149 A 
ATOM      8  N   UNL     1       2.347  42.783  52.280  1.00  0.00    -0.193 NA
ATOM      9  C   UNL     1       3.006  45.081  52.715  1.00  0.00     0.082 A 
ATOM     10  C   UNL     1       4.100  44.942  51.858  1.00  0.00     0.147 A 
ATOM     11  N   UNL     1       4.301  43.730  51.281  1.00  0.00    -0.195 NA
ATOM     12  C   UNL     1       0.099  43.553  54.199  1.00  0.00     0.176 C 
BRANCH  10  13
ATOM     13  N   UNL     1       5.051  45.938  51.591  1.00  0.00    -0.339 N 
ATOM     14  H   UNL     1       4.544  46.761  51.274  1.00  0.00     0.168 HD
BRANCH  13  15
ATOM     15  C   UNL     1       6.181  46.300  52.350  1.00  0.00     0.040 A 
ATOM     16  C   UNL     1       7.364  46.617  51.668  1.00  0.00     0.027 A 
ATOM     17  C   UNL     1       6.168  46.404  53.747  1.00  0.00     0.027 A 
ATOM     18  C   UNL     1       8.516  47.000  52.362  1.00  0.00     0.022 A 
ATOM     19  C   UNL     1       7.318  46.786  54.446  1.00  0.00     0.022 A 
ATOM     20  C   UNL     1       8.487  47.080  53.751  1.00  0.00     0.041 A 
ATOM     21  Cl  UNL     1       9.900  47.551  54.611  1.00  0.00    -0.084 Cl
ENDBRANCH  13  15
ENDBRANCH  10  13
ENDBRANCH   1   3
BRANCH   1  22
ATOM     22  C   UNL     1       5.154  41.366  50.541  1.00  0.00     0.118 C 
BRANCH  22  23
ATOM     23  C   UNL     1       5.395  41.278  49.030  1.00  0.00     0.042 C 
BRANCH  23  24
ATOM     24  C   UNL     1       6.290  42.400  48.503  1.00  0.00     0.117 C 
BRANCH  24  25
ATOM     25  N   UNL     1       6.714  43.303  49.552  1.00  0.00    -0.359 N 
ATOM     26  C   UNL     1       7.929  43.935  49.522  1.00  0.00     0.337 C 
ATOM     27  H   UNL     1       6.254  43.208  50.452  1.00  0.00     0.163 HD
ATOM     28  O   UNL     1       8.730  43.902  48.599  1.00  0.00    -0.279 OA
ENDBRANCH  24  25
ENDBRANCH  23  24
ENDBRANCH  22  23
ENDBRANCH   1  22
TORSDOF 7
ENDMDL
MODEL 10
REMARK VINA RESULT:    -8.075      2.817      5.333
REMARK INTER + INTRA:         -12.478
REMARK INTER:                 -11.836
REMARK INTRA:                  -0.643
REMARK UNBOUND:                -1.099
REMARK SMILES Cn1ncc2c(Nc3ccc(Cl)cc3)nc(NCCCNC=O)nc21
REMARK SMILES IDX 17 1 16 3 2 4 3 5 25 6 4 7 24 8 5 9 6 10 15 11 1 12 7 13
REMARK SMILES IDX 8 15 9 16 14 17 10 18 13 19 11 20 12 21 18 22 19 23 20 24
REMARK SMILES IDX 21 25 22 26 23 28
REMARK H PARENT 17 2 7 14 21 27
ROOT
ATOM      1  N   UNL     1       6.294  41.601  49.386  1.00  0.00    -0.354 N 
ATOM      2  H   UNL     1       6.496  40.869  50.062  1.00  0.00     0.163 HD
ENDROOT
BRANCH   1   3
ATOM      3  C   UNL     1       5.781  42.654  50.139  1.00  0.00     0.226 A 
ATOM      4  N   UNL     1       3.068  43.828  52.112  1.00  0.00    -0.250 N 
ATOM      5  N   UNL     1       3.009  45.036  52.721  1.00  0.00    -0.179 NA
ATOM      6  C   UNL     1       4.220  43.632  51.399  1.00  0.00     0.165 A 
ATOM      7  C   UNL     1       4.166  45.611  52.370  1.00  0.00     0.149 A 
ATOM      8  N   UNL     1       4.576  42.538  50.710  1.00  0.00    -0.193 NA
ATOM      9  C   UNL     1       4.952  44.795  51.531  1.00  0.00     0.082 A 
ATOM     10  C   UNL     1       6.184  44.841  50.875  1.00  0.00     0.147 A 
ATOM     11  N   UNL     1       6.584  43.733  50.202  1.00  0.00    -0.195 NA
ATOM     12  C   UNL     1       1.977  42.901  52.271  1.00  0.00     0.176 C 
BRANCH  10  13
ATOM     13  N   UNL     1       7.078  45.922  50.906  1.00  0.00    -0.339 N 
ATOM     14  H   UNL     1       6.591  46.727  50.520  1.00  0.00     0.168 HD
BRANCH  13  15
ATOM     15  C   UNL     1       7.954  46.308  51.940  1.00  0.00     0.040 A 
ATOM     16  C   UNL     1       7.398  46.743  53.152  1.00  0.00     0.027 A 
ATOM     17  C   UNL     1       9.348  46.236  51.833  1.00  0.00     0.027 A 
ATOM     18  C   UNL     1       8.213  47.125  54.222  1.00  0.00     0.022 A 
ATOM     19  C   UNL     1      10.168  46.617  52.901  1.00  0.00     0.022 A 
ATOM     20  C   UNL     1       9.597  47.062  54.090  1.00  0.00     0.041 A 
ATOM     21  Cl  UNL     1      10.605  47.529  55.403  1.00  0.00    -0.084 Cl
ENDBRANCH  13  15
ENDBRANCH  10  13
ENDBRANCH   1   3
BRANCH   1  22
ATOM     22  C   UNL     1       5.435  41.176  48.289  1.00  0.00     0.118 C 
BRANCH  22  23
ATOM     23  C   UNL     1       5.768  41.957  47.013  1.00  0.00     0.042 C 
BRANCH  23  24
ATOM     24  C   UNL     1       4.905  41.546  45.819  1.00  0.00     0.117 C 
BRANCH  24  25
ATOM     25  N   UNL     1       4.266  40.263  46.020  1.00  0.00    -0.359 N 
ATOM     26  C   UNL     1       2.905  40.132  46.097  1.00  0.00     0.337 C 
ATOM     27  H   UNL     1       4.834  39.526  46.426  1.00  0.00     0.163 HD
ATOM     28  O   UNL     1       2.088  41.022  45.909  1.00  0.00    -0.279 OA
ENDBRANCH  24  25
ENDBRANCH  23  24
ENDBRANCH  22  23
ENDBRANCH   1  22
TORSDOF 7
ENDMDL
MODEL 11
REMARK VINA RESULT:    -8.039      3.821      7.001
REMARK INTER + INTRA:         -12.427
REMARK INTER:                 -11.635
REMARK INTRA:                  -0.792
REMARK UNBOUND:                -1.099
REMARK SMILES Cn1ncc2c(Nc3ccc(Cl)cc3)nc(NCCCNC=O)nc21
REMARK SMILES IDX 17 1 16 3 2 4 3 5 25 6 4 7 24 8 5 9 6 10 15 11 1 12 7 13
REMARK SMILES IDX 8 15 9 16 14 17 10 18 13 19 11 20 12 21 18 22 19 23 20 24
REMARK SMILES IDX 21 25 22 26 23 28
REMARK H PARENT 17 2 7 14 21 27
ROOT
ATOM      1  N   UNL     1       7.737  45.945  50.472  1.00  0.00    -0.354 N 
ATOM      2  H   UNL     1       7.483  46.383  49.590  1.00  0.00     0.163 HD
ENDROOT
BRANCH   1   3
ATOM      3  C   UNL     1       6.770  44.964  50.678  1.00  0.00     0.226 A 
ATOM      4  N   UNL     1       3.917  43.975  52.553  1.00  0.00    -0.250 N 
ATOM      5  N   UNL     1       3.223  42.827  52.373  1.00  0.00    -0.179 NA
ATOM      6  C   UNL     1       4.986  44.105  51.707  1.00  0.00     0.165 A 
ATOM      7  C   UNL     1       3.887  42.221  51.381  1.00  0.00     0.149 A 
ATOM      8  N   UNL     1       5.844  45.132  51.630  1.00  0.00    -0.193 NA
ATOM      9  C   UNL     1       5.005  42.958  50.939  1.00  0.00     0.082 A 
ATOM     10  C   UNL     1       6.026  42.851  49.992  1.00  0.00     0.147 A 
ATOM     11  N   UNL     1       6.885  43.894  49.869  1.00  0.00    -0.195 NA
ATOM     12  C   UNL     1       3.486  44.914  53.557  1.00  0.00     0.176 C 
BRANCH  10  13
ATOM     13  N   UNL     1       6.200  41.776  49.108  1.00  0.00    -0.339 N 
ATOM     14  H   UNL     1       6.383  40.949  49.671  1.00  0.00     0.168 HD
BRANCH  13  15
ATOM     15  C   UNL     1       5.450  41.452  47.960  1.00  0.00     0.040 A 
ATOM     16  C   UNL     1       4.299  40.666  48.121  1.00  0.00     0.027 A 
ATOM     17  C   UNL     1       5.770  41.912  46.677  1.00  0.00     0.027 A 
ATOM     18  C   UNL     1       3.503  40.323  47.024  1.00  0.00     0.022 A 
ATOM     19  C   UNL     1       4.977  41.571  45.576  1.00  0.00     0.022 A 
ATOM     20  C   UNL     1       3.848  40.776  45.754  1.00  0.00     0.041 A 
ATOM     21  Cl  UNL     1       2.872  40.358  44.401  1.00  0.00    -0.084 Cl
ENDBRANCH  13  15
ENDBRANCH  10  13
ENDBRANCH   1   3
BRANCH   1  22
ATOM     22  C   UNL     1       7.885  46.880  51.579  1.00  0.00     0.118 C 
BRANCH  22  23
ATOM     23  C   UNL     1       9.365  47.060  51.934  1.00  0.00     0.042 C 
BRANCH  23  24
ATOM     24  C   UNL     1       9.772  46.302  53.199  1.00  0.00     0.117 C 
BRANCH  24  25
ATOM     25  N   UNL     1      10.236  47.188  54.244  1.00  0.00    -0.359 N 
ATOM     26  C   UNL     1       9.374  47.944  54.994  1.00  0.00     0.337 C 
ATOM     27  H   UNL     1      11.205  47.488  54.195  1.00  0.00     0.163 HD
ATOM     28  O   UNL     1       8.154  47.891  54.952  1.00  0.00    -0.279 OA
ENDBRANCH  24  25
ENDBRANCH  23  24
ENDBRANCH  22  23
ENDBRANCH   1  22
TORSDOF 7
ENDMDL
MODEL 12
REMARK VINA RESULT:    -7.874      2.966      5.642
REMARK INTER + INTRA:         -12.195
REMARK INTER:                 -11.306
REMARK INTRA:                  -0.889
REMARK UNBOUND:                -1.099
REMARK SMILES Cn1ncc2c(Nc3ccc(Cl)cc3)nc(NCCCNC=O)nc21
REMARK SMILES IDX 17 1 16 3 2 4 3 5 25 6 4 7 24 8 5 9 6 10 15 11 1 12 7 13
REMARK SMILES IDX 8 15 9 16 14 17 10 18 13 19 11 20 12 21 18 22 19 23 20 24
REMARK SMILES IDX 21 25 22 26 23 28
REMARK H PARENT 17 2 7 14 21 27
ROOT
ATOM      1  N   UNL     1       4.683  47.101  54.518  1.00  0.00    -0.354 N 
ATOM      2  H   UNL     1       4.044  47.222  53.736  1.00  0.00     0.163 HD
ENDROOT
BRANCH   1   3
ATOM      3  C   UNL     1       5.929  46.890  53.934  1.00  0.00     0.226 A 
ATOM      4  N   UNL     1       9.444  47.325  54.234  1.00  0.00    -0.250 N 
ATOM      5  N   UNL     1      10.365  46.900  53.337  1.00  0.00    -0.179 NA
ATOM      6  C   UNL     1       8.155  47.044  53.870  1.00  0.00     0.165 A 
ATOM      7  C   UNL     1       9.618  46.336  52.379  1.00  0.00     0.149 A 
ATOM      8  N   UNL     1       7.036  47.319  54.554  1.00  0.00    -0.193 NA
ATOM      9  C   UNL     1       8.236  46.413  52.644  1.00  0.00     0.082 A 
ATOM     10  C   UNL     1       7.030  46.030  52.053  1.00  0.00     0.147 A 
ATOM     11  N   UNL     1       5.885  46.263  52.744  1.00  0.00    -0.195 NA
ATOM     12  C   UNL     1       9.881  47.990  55.436  1.00  0.00     0.176 C 
BRANCH  10  13
ATOM     13  N   UNL     1       6.906  45.362  50.826  1.00  0.00    -0.339 N 
ATOM     14  H   UNL     1       7.827  45.350  50.394  1.00  0.00     0.168 HD
BRANCH  13  15
ATOM     15  C   UNL     1       6.197  44.179  50.537  1.00  0.00     0.040 A 
ATOM     16  C   UNL     1       4.956  43.981  51.159  1.00  0.00     0.027 A 
ATOM     17  C   UNL     1       6.648  43.216  49.625  1.00  0.00     0.027 A 
ATOM     18  C   UNL     1       4.196  42.836  50.902  1.00  0.00     0.022 A 
ATOM     19  C   UNL     1       5.891  42.068  49.365  1.00  0.00     0.022 A 
ATOM     20  C   UNL     1       4.670  41.883  50.005  1.00  0.00     0.041 A 
ATOM     21  Cl  UNL     1       3.739  40.473  49.684  1.00  0.00    -0.084 Cl
ENDBRANCH  13  15
ENDBRANCH  10  13
ENDBRANCH   1   3
BRANCH   1  22
ATOM     22  C   UNL     1       4.281  46.063  55.459  1.00  0.00     0.118 C 
BRANCH  22  23
ATOM     23  C   UNL     1       3.535  44.940  54.731  1.00  0.00     0.042 C 
BRANCH  23  24
ATOM     24  C   UNL     1       2.130  45.349  54.284  1.00  0.00     0.117 C 
BRANCH  24  25
ATOM     25  N   UNL     1       1.985  45.326  52.844  1.00  0.00    -0.359 N 
ATOM     26  C   UNL     1       2.238  46.428  52.070  1.00  0.00     0.337 C 
ATOM     27  H   UNL     1       1.389  44.603  52.454  1.00  0.00     0.163 HD
ATOM     28  O   UNL     1       2.698  47.489  52.464  1.00  0.00    -0.279 OA
ENDBRANCH  24  25
ENDBRANCH  23  24
ENDBRANCH  22  23
ENDBRANCH   1  22
TORSDOF 7
ENDMDL
MODEL 13
REMARK VINA RESULT:    -7.823      2.354      4.816
REMARK INTER + INTRA:         -12.123
REMARK INTER:                 -11.273
REMARK INTRA:                  -0.850
REMARK UNBOUND:                -1.099
REMARK SMILES Cn1ncc2c(Nc3ccc(Cl)cc3)nc(NCCCNC=O)nc21
REMARK SMILES IDX 17 1 16 3 2 4 3 5 25 6 4 7 24 8 5 9 6 10 15 11 1 12 7 13
REMARK SMILES IDX 8 15 9 16 14 17 10 18 13 19 11 20 12 21 18 22 19 23 20 24
REMARK SMILES IDX 21 25 22 26 23 28
REMARK H PARENT 17 2 7 14 21 27
ROOT
ATOM      1  N   UNL     1       4.139  41.469  51.170  1.00  0.00    -0.354 N 
ATOM      2  H   UNL     1       3.850  40.734  51.810  1.00  0.00     0.163 HD
ENDROOT
BRANCH   1   3
ATOM      3  C   UNL     1       3.403  42.587  51.550  1.00  0.00     0.226 A 
ATOM      4  N   UNL     1       0.249  44.223  51.449  1.00  0.00    -0.250 N 
ATOM      5  N   UNL     1      -0.036  45.410  52.035  1.00  0.00    -0.179 NA
ATOM      6  C   UNL     1       1.546  43.823  51.627  1.00  0.00     0.165 A 
ATOM      7  C   UNL     1       1.128  45.760  52.595  1.00  0.00     0.149 A 
ATOM      8  N   UNL     1       2.119  42.694  51.188  1.00  0.00    -0.193 NA
ATOM      9  C   UNL     1       2.155  44.824  52.358  1.00  0.00     0.082 A 
ATOM     10  C   UNL     1       3.506  44.646  52.664  1.00  0.00     0.147 A 
ATOM     11  N   UNL     1       4.099  43.493  52.262  1.00  0.00    -0.195 NA
ATOM     12  C   UNL     1      -0.787  43.518  50.738  1.00  0.00     0.176 C 
BRANCH  10  13
ATOM     13  N   UNL     1       4.291  45.537  53.411  1.00  0.00    -0.339 N 
ATOM     14  H   UNL     1       4.112  45.346  54.394  1.00  0.00     0.168 HD
BRANCH  13  15
ATOM     15  C   UNL     1       5.633  45.911  53.205  1.00  0.00     0.040 A 
ATOM     16  C   UNL     1       6.480  45.983  54.320  1.00  0.00     0.027 A 
ATOM     17  C   UNL     1       6.174  46.170  51.939  1.00  0.00     0.027 A 
ATOM     18  C   UNL     1       7.827  46.333  54.181  1.00  0.00     0.022 A 
ATOM     19  C   UNL     1       7.520  46.521  51.794  1.00  0.00     0.022 A 
ATOM     20  C   UNL     1       8.340  46.603  52.915  1.00  0.00     0.041 A 
ATOM     21  Cl  UNL     1       9.996  47.033  52.737  1.00  0.00    -0.084 Cl
ENDBRANCH  13  15
ENDBRANCH  10  13
ENDBRANCH   1   3
BRANCH   1  22
ATOM     22  C   UNL     1       4.007  41.116  49.762  1.00  0.00     0.118 C 
BRANCH  22  23
ATOM     23  C   UNL     1       5.378  41.123  49.077  1.00  0.00     0.042 C 
BRANCH  23  24
ATOM     24  C   UNL     1       6.458  41.816  49.909  1.00  0.00     0.117 C 
BRANCH  24  25
ATOM     25  N   UNL     1       6.487  43.245  49.687  1.00  0.00    -0.359 N 
ATOM     26  C   UNL     1       7.650  43.915  49.412  1.00  0.00     0.337 C 
ATOM     27  H   UNL     1       5.710  43.784  50.058  1.00  0.00     0.163 HD
ATOM     28  O   UNL     1       8.743  43.403  49.222  1.00  0.00    -0.279 OA
ENDBRANCH  24  25
ENDBRANCH  23  24
ENDBRANCH  22  23
ENDBRANCH   1  22
TORSDOF 7
ENDMDL
MODEL 14
REMARK VINA RESULT:    -7.795      3.133      5.769
REMARK INTER + INTRA:         -12.084
REMARK INTER:                 -11.697
REMARK INTRA:                  -0.387
REMARK UNBOUND:                -1.099
REMARK SMILES Cn1ncc2c(Nc3ccc(Cl)cc3)nc(NCCCNC=O)nc21
REMARK SMILES IDX 17 1 16 3 2 4 3 5 25 6 4 7 24 8 5 9 6 10 15 11 1 12 7 13
REMARK SMILES IDX 8 15 9 16 14 17 10 18 13 19 11 20 12 21 18 22 19 23 20 24
REMARK SMILES IDX 21 25 22 26 23 28
REMARK H PARENT 17 2 7 14 21 27
ROOT
ATOM      1  N   UNL     1       4.681  47.149  54.900  1.00  0.00    -0.354 N 
ATOM      2  H   UNL     1       4.158  47.786  54.303  1.00  0.00     0.163 HD
ENDROOT
BRANCH   1   3
ATOM      3  C   UNL     1       5.875  46.920  54.223  1.00  0.00     0.226 A 
ATOM      4  N   UNL     1       9.413  47.260  54.274  1.00  0.00    -0.250 N 
ATOM      5  N   UNL     1      10.254  46.831  53.304  1.00  0.00    -0.179 NA
ATOM      6  C   UNL     1       8.094  47.019  53.999  1.00  0.00     0.165 A 
ATOM      7  C   UNL     1       9.426  46.306  52.392  1.00  0.00     0.149 A 
ATOM      8  N   UNL     1       7.035  47.307  54.769  1.00  0.00    -0.193 NA
ATOM      9  C   UNL     1       8.069  46.413  52.759  1.00  0.00     0.082 A 
ATOM     10  C   UNL     1       6.813  46.072  52.251  1.00  0.00     0.147 A 
ATOM     11  N   UNL     1       5.728  46.319  53.027  1.00  0.00    -0.195 NA
ATOM     12  C   UNL     1       9.953  47.888  55.453  1.00  0.00     0.176 C 
BRANCH  10  13
ATOM     13  N   UNL     1       6.583  45.434  51.023  1.00  0.00    -0.339 N 
ATOM     14  H   UNL     1       7.472  45.401  50.528  1.00  0.00     0.168 HD
BRANCH  13  15
ATOM     15  C   UNL     1       5.816  44.281  50.762  1.00  0.00     0.040 A 
ATOM     16  C   UNL     1       6.365  43.294  49.930  1.00  0.00     0.027 A 
ATOM     17  C   UNL     1       4.555  44.052  51.327  1.00  0.00     0.027 A 
ATOM     18  C   UNL     1       5.662  42.120  49.645  1.00  0.00     0.022 A 
ATOM     19  C   UNL     1       3.847  42.879  51.044  1.00  0.00     0.022 A 
ATOM     20  C   UNL     1       4.402  41.919  50.203  1.00  0.00     0.041 A 
ATOM     21  Cl  UNL     1       3.532  40.477  49.857  1.00  0.00    -0.084 Cl
ENDBRANCH  13  15
ENDBRANCH  10  13
ENDBRANCH   1   3
BRANCH   1  22
ATOM     22  C   UNL     1       3.953  45.938  55.256  1.00  0.00     0.118 C 
BRANCH  22  23
ATOM     23  C   UNL     1       2.733  45.759  54.348  1.00  0.00     0.042 C 
BRANCH  23  24
ATOM     24  C   UNL     1       1.608  44.960  55.008  1.00  0.00     0.117 C 
BRANCH  24  25
ATOM     25  N   UNL     1       1.673  45.014  56.453  1.00  0.00    -0.359 N 
ATOM     26  C   UNL     1       0.712  45.639  57.202  1.00  0.00     0.337 C 
ATOM     27  H   UNL     1       2.586  44.878  56.877  1.00  0.00     0.163 HD
ATOM     28  O   UNL     1      -0.330  46.116  56.776  1.00  0.00    -0.279 OA
ENDBRANCH  24  25
ENDBRANCH  23  24
ENDBRANCH  22  23
ENDBRANCH   1  22
TORSDOF 7
ENDMDL
MODEL 15
REMARK VINA RESULT:    -7.706      2.599      5.850
REMARK INTER + INTRA:         -11.959
REMARK INTER:                 -11.487
REMARK INTRA:                  -0.472
REMARK UNBOUND:                -1.099
REMARK SMILES Cn1ncc2c(Nc3ccc(Cl)cc3)nc(NCCCNC=O)nc21
REMARK SMILES IDX 17 1 16 3 2 4 3 5 25 6 4 7 24 8 5 9 6 10 15 11 1 12 7 13
REMARK SMILES IDX 8 15 9 16 14 17 10 18 13 19 11 20 12 21 18 22 19 23 20 24
REMARK SMILES IDX 21 25 22 26 23 28
REMARK H PARENT 17 2 7 14 21 27
ROOT
ATOM      1  N   UNL     1       4.287  45.954  55.625  1.00  0.00    -0.354 N 
ATOM      2  H   UNL     1       4.838  45.230  56.078  1.00  0.00     0.163 HD
ENDROOT
BRANCH   1   3
ATOM      3  C   UNL     1       3.235  45.275  55.015  1.00  0.00     0.226 A 
ATOM      4  N   UNL     1      -0.189  44.343  55.213  1.00  0.00    -0.250 N 
ATOM      5  N   UNL     1      -0.858  43.620  54.284  1.00  0.00    -0.179 NA
ATOM      6  C   UNL     1       1.127  44.550  54.900  1.00  0.00     0.165 A 
ATOM      7  C   UNL     1       0.079  43.367  53.362  1.00  0.00     0.149 A 
ATOM      8  N   UNL     1       2.034  45.240  55.606  1.00  0.00    -0.193 NA
ATOM      9  C   UNL     1       1.339  43.901  53.700  1.00  0.00     0.082 A 
ATOM     10  C   UNL     1       2.631  43.962  53.172  1.00  0.00     0.147 A 
ATOM     11  N   UNL     1       3.557  44.686  53.849  1.00  0.00    -0.195 NA
ATOM     12  C   UNL     1      -0.889  44.817  56.380  1.00  0.00     0.176 C 
BRANCH  10  13
ATOM     13  N   UNL     1       3.036  43.386  51.959  1.00  0.00    -0.339 N 
ATOM     14  H   UNL     1       2.261  43.478  51.307  1.00  0.00     0.168 HD
BRANCH  13  15
ATOM     15  C   UNL     1       4.273  43.514  51.296  1.00  0.00     0.040 A 
ATOM     16  C   UNL     1       4.862  42.358  50.764  1.00  0.00     0.027 A 
ATOM     17  C   UNL     1       4.919  44.741  51.102  1.00  0.00     0.027 A 
ATOM     18  C   UNL     1       6.081  42.419  50.080  1.00  0.00     0.022 A 
ATOM     19  C   UNL     1       6.139  44.808  50.420  1.00  0.00     0.022 A 
ATOM     20  C   UNL     1       6.715  43.647  49.914  1.00  0.00     0.041 A 
ATOM     21  Cl  UNL     1       8.213  43.730  49.074  1.00  0.00    -0.084 Cl
ENDBRANCH  13  15
ENDBRANCH  10  13
ENDBRANCH   1   3
BRANCH   1  22
ATOM     22  C   UNL     1       5.051  46.806  54.723  1.00  0.00     0.118 C 
BRANCH  22  23
ATOM     23  C   UNL     1       6.489  46.292  54.590  1.00  0.00     0.042 C 
BRANCH  23  24
ATOM     24  C   UNL     1       7.290  47.033  53.519  1.00  0.00     0.117 C 
BRANCH  24  25
ATOM     25  N   UNL     1       8.717  46.838  53.669  1.00  0.00    -0.359 N 
ATOM     26  C   UNL     1       9.470  47.601  54.520  1.00  0.00     0.337 C 
ATOM     27  H   UNL     1       9.197  46.365  52.909  1.00  0.00     0.163 HD
ATOM     28  O   UNL     1       9.041  48.435  55.305  1.00  0.00    -0.279 OA
ENDBRANCH  24  25
ENDBRANCH  23  24
ENDBRANCH  22  23
ENDBRANCH   1  22
TORSDOF 7
ENDMDL
MODEL 16
REMARK VINA RESULT:    -7.695      3.264      6.757
REMARK INTER + INTRA:         -11.944
REMARK INTER:                 -10.510
REMARK INTRA:                  -1.434
REMARK UNBOUND:                -1.099
REMARK SMILES Cn1ncc2c(Nc3ccc(Cl)cc3)nc(NCCCNC=O)nc21
REMARK SMILES IDX 17 1 16 3 2 4 3 5 25 6 4 7 24 8 5 9 6 10 15 11 1 12 7 13
REMARK SMILES IDX 8 15 9 16 14 17 10 18 13 19 11 20 12 21 18 22 19 23 20 24
REMARK SMILES IDX 21 25 22 26 23 28
REMARK H PARENT 17 2 7 14 21 27
ROOT
ATOM      1  N   UNL     1       7.871  45.273  49.481  1.00  0.00    -0.354 N 
ATOM      2  H   UNL     1       8.631  45.891  49.209  1.00  0.00     0.163 HD
ENDROOT
BRANCH   1   3
ATOM      3  C   UNL     1       7.440  45.756  50.714  1.00  0.00     0.226 A 
ATOM      4  N   UNL     1       8.397  46.866  53.952  1.00  0.00    -0.250 N 
ATOM      5  N   UNL     1       7.548  47.303  54.911  1.00  0.00    -0.179 NA
ATOM      6  C   UNL     1       7.767  46.481  52.799  1.00  0.00     0.165 A 
ATOM      7  C   UNL     1       6.347  47.183  54.333  1.00  0.00     0.149 A 
ATOM      8  N   UNL     1       8.334  46.026  51.673  1.00  0.00    -0.193 NA
ATOM      9  C   UNL     1       6.417  46.657  53.027  1.00  0.00     0.082 A 
ATOM     10  C   UNL     1       5.553  46.319  51.983  1.00  0.00     0.147 A 
ATOM     11  N   UNL     1       6.105  45.891  50.819  1.00  0.00    -0.195 NA
ATOM     12  C   UNL     1       9.814  46.857  54.211  1.00  0.00     0.176 C 
BRANCH  10  13
ATOM     13  N   UNL     1       4.156  46.446  52.015  1.00  0.00    -0.339 N 
ATOM     14  H   UNL     1       3.892  47.070  51.256  1.00  0.00     0.168 HD
BRANCH  13  15
ATOM     15  C   UNL     1       3.187  45.441  52.203  1.00  0.00     0.040 A 
ATOM     16  C   UNL     1       2.268  45.204  51.171  1.00  0.00     0.027 A 
ATOM     17  C   UNL     1       3.124  44.638  53.349  1.00  0.00     0.027 A 
ATOM     18  C   UNL     1       1.291  44.211  51.289  1.00  0.00     0.022 A 
ATOM     19  C   UNL     1       2.149  43.643  53.473  1.00  0.00     0.022 A 
ATOM     20  C   UNL     1       1.236  43.435  52.444  1.00  0.00     0.041 A 
ATOM     21  Cl  UNL     1       0.037  42.211  52.596  1.00  0.00    -0.084 Cl
ENDBRANCH  13  15
ENDBRANCH  10  13
ENDBRANCH   1   3
BRANCH   1  22
ATOM     22  C   UNL     1       8.228  43.860  49.484  1.00  0.00     0.118 C 
BRANCH  22  23
ATOM     23  C   UNL     1       7.089  43.018  48.899  1.00  0.00     0.042 C 
BRANCH  23  24
ATOM     24  C   UNL     1       6.468  42.063  49.920  1.00  0.00     0.117 C 
BRANCH  24  25
ATOM     25  N   UNL     1       5.329  42.646  50.595  1.00  0.00    -0.359 N 
ATOM     26  C   UNL     1       4.165  41.952  50.793  1.00  0.00     0.337 C 
ATOM     27  H   UNL     1       5.283  43.661  50.625  1.00  0.00     0.163 HD
ATOM     28  O   UNL     1       3.983  40.772  50.531  1.00  0.00    -0.279 OA
ENDBRANCH  24  25
ENDBRANCH  23  24
ENDBRANCH  22  23
ENDBRANCH   1  22
TORSDOF 7
ENDMDL
MODEL 17
REMARK VINA RESULT:    -7.675      3.064      6.069
REMARK INTER + INTRA:         -11.915
REMARK INTER:                 -11.134
REMARK INTRA:                  -0.781
REMARK UNBOUND:                -1.099
REMARK SMILES Cn1ncc2c(Nc3ccc(Cl)cc3)nc(NCCCNC=O)nc21
REMARK SMILES IDX 17 1 16 3 2 4 3 5 25 6 4 7 24 8 5 9 6 10 15 11 1 12 7 13
REMARK SMILES IDX 8 15 9 16 14 17 10 18 13 19 11 20 12 21 18 22 19 23 20 24
REMARK SMILES IDX 21 25 22 26 23 28
REMARK H PARENT 17 2 7 14 21 27
ROOT
ATOM      1  N   UNL     1       7.666  45.943  50.520  1.00  0.00    -0.354 N 
ATOM      2  H   UNL     1       7.377  46.340  49.630  1.00  0.00     0.163 HD
ENDROOT
BRANCH   1   3
ATOM      3  C   UNL     1       6.667  45.031  50.849  1.00  0.00     0.226 A 
ATOM      4  N   UNL     1       5.134  41.920  50.070  1.00  0.00    -0.250 N 
ATOM      5  N   UNL     1       4.096  41.369  50.742  1.00  0.00    -0.179 NA
ATOM      6  C   UNL     1       5.524  43.134  50.567  1.00  0.00     0.165 A 
ATOM      7  C   UNL     1       3.831  42.277  51.690  1.00  0.00     0.149 A 
ATOM      8  N   UNL     1       6.527  43.910  50.131  1.00  0.00    -0.193 NA
ATOM      9  C   UNL     1       4.672  43.406  51.619  1.00  0.00     0.082 A 
ATOM     10  C   UNL     1       4.869  44.614  52.291  1.00  0.00     0.147 A 
ATOM     11  N   UNL     1       5.901  45.399  51.893  1.00  0.00    -0.195 NA
ATOM     12  C   UNL     1       5.713  41.210  48.958  1.00  0.00     0.176 C 
BRANCH  10  13
ATOM     13  N   UNL     1       4.122  45.057  53.393  1.00  0.00    -0.339 N 
ATOM     14  H   UNL     1       4.503  45.958  53.674  1.00  0.00     0.168 HD
BRANCH  13  15
ATOM     15  C   UNL     1       2.726  45.018  53.582  1.00  0.00     0.040 A 
ATOM     16  C   UNL     1       2.239  44.750  54.869  1.00  0.00     0.027 A 
ATOM     17  C   UNL     1       1.804  45.276  52.560  1.00  0.00     0.027 A 
ATOM     18  C   UNL     1       0.865  44.713  55.126  1.00  0.00     0.022 A 
ATOM     19  C   UNL     1       0.428  45.240  52.812  1.00  0.00     0.022 A 
ATOM     20  C   UNL     1      -0.035  44.956  54.092  1.00  0.00     0.041 A 
ATOM     21  Cl  UNL     1      -1.726  44.912  54.402  1.00  0.00    -0.084 Cl
ENDBRANCH  13  15
ENDBRANCH  10  13
ENDBRANCH   1   3
BRANCH   1  22
ATOM     22  C   UNL     1       7.933  46.935  51.553  1.00  0.00     0.118 C 
BRANCH  22  23
ATOM     23  C   UNL     1       9.426  46.965  51.895  1.00  0.00     0.042 C 
BRANCH  23  24
ATOM     24  C   UNL     1       9.752  46.250  53.207  1.00  0.00     0.117 C 
BRANCH  24  25
ATOM     25  N   UNL     1      10.215  47.164  54.229  1.00  0.00    -0.359 N 
ATOM     26  C   UNL     1       9.349  47.907  54.988  1.00  0.00     0.337 C 
ATOM     27  H   UNL     1      11.174  47.490  54.154  1.00  0.00     0.163 HD
ATOM     28  O   UNL     1       8.130  47.821  54.974  1.00  0.00    -0.279 OA
ENDBRANCH  24  25
ENDBRANCH  23  24
ENDBRANCH  22  23
ENDBRANCH   1  22
TORSDOF 7
ENDMDL
MODEL 18
REMARK VINA RESULT:    -7.674      3.243      6.490
REMARK INTER + INTRA:         -11.913
REMARK INTER:                 -10.878
REMARK INTRA:                  -1.035
REMARK UNBOUND:                -1.099
REMARK SMILES Cn1ncc2c(Nc3ccc(Cl)cc3)nc(NCCCNC=O)nc21
REMARK SMILES IDX 17 1 16 3 2 4 3 5 25 6 4 7 24 8 5 9 6 10 15 11 1 12 7 13
REMARK SMILES IDX 8 15 9 16 14 17 10 18 13 19 11 20 12 21 18 22 19 23 20 24
REMARK SMILES IDX 21 25 22 26 23 28
REMARK H PARENT 17 2 7 14 21 27
ROOT
ATOM      1  N   UNL     1       6.999  46.534  52.205  1.00  0.00    -0.354 N 
ATOM      2  H   UNL     1       7.354  46.498  53.157  1.00  0.00     0.163 HD
ENDROOT
BRANCH   1   3
ATOM      3  C   UNL     1       6.135  45.447  52.102  1.00  0.00     0.226 A 
ATOM      4  N   UNL     1       5.296  42.500  50.301  1.00  0.00    -0.250 N 
ATOM      5  N   UNL     1       4.281  41.659  50.607  1.00  0.00    -0.179 NA
ATOM      6  C   UNL     1       5.392  43.571  51.148  1.00  0.00     0.165 A 
ATOM      7  C   UNL     1       3.725  42.230  51.683  1.00  0.00     0.149 A 
ATOM      8  N   UNL     1       6.300  44.558  51.116  1.00  0.00    -0.193 NA
ATOM      9  C   UNL     1       4.360  43.433  52.054  1.00  0.00     0.082 A 
ATOM     10  C   UNL     1       4.243  44.425  53.030  1.00  0.00     0.147 A 
ATOM     11  N   UNL     1       5.171  45.415  53.041  1.00  0.00    -0.195 NA
ATOM     12  C   UNL     1       6.148  42.203  49.177  1.00  0.00     0.176 C 
BRANCH  10  13
ATOM     13  N   UNL     1       3.276  44.451  54.046  1.00  0.00    -0.339 N 
ATOM     14  H   UNL     1       3.637  45.039  54.793  1.00  0.00     0.168 HD
BRANCH  13  15
ATOM     15  C   UNL     1       1.878  44.587  53.926  1.00  0.00     0.040 A 
ATOM     16  C   UNL     1       1.357  45.011  52.696  1.00  0.00     0.027 A 
ATOM     17  C   UNL     1       0.984  44.277  54.958  1.00  0.00     0.027 A 
ATOM     18  C   UNL     1      -0.021  45.151  52.507  1.00  0.00     0.022 A 
ATOM     19  C   UNL     1      -0.396  44.416  54.775  1.00  0.00     0.022 A 
ATOM     20  C   UNL     1      -0.892  44.854  53.551  1.00  0.00     0.041 A 
ATOM     21  Cl  UNL     1      -2.589  45.023  53.325  1.00  0.00    -0.084 Cl
ENDBRANCH  13  15
ENDBRANCH  10  13
ENDBRANCH   1   3
BRANCH   1  22
ATOM     22  C   UNL     1       8.039  46.571  51.185  1.00  0.00     0.118 C 
BRANCH  22  23
ATOM     23  C   UNL     1       9.349  47.104  51.773  1.00  0.00     0.042 C 
BRANCH  23  24
ATOM     24  C   UNL     1       9.773  46.372  53.047  1.00  0.00     0.117 C 
BRANCH  24  25
ATOM     25  N   UNL     1      10.153  47.285  54.104  1.00  0.00    -0.359 N 
ATOM     26  C   UNL     1       9.227  47.904  54.900  1.00  0.00     0.337 C 
ATOM     27  H   UNL     1      11.074  47.709  54.034  1.00  0.00     0.163 HD
ATOM     28  O   UNL     1       8.022  47.696  54.892  1.00  0.00    -0.279 OA
ENDBRANCH  24  25
ENDBRANCH  23  24
ENDBRANCH  22  23
ENDBRANCH   1  22
TORSDOF 7
ENDMDL
MODEL 19
REMARK VINA RESULT:    -7.571      2.851      5.914
REMARK INTER + INTRA:         -11.769
REMARK INTER:                 -10.560
REMARK INTRA:                  -1.209
REMARK UNBOUND:                -1.099
REMARK SMILES Cn1ncc2c(Nc3ccc(Cl)cc3)nc(NCCCNC=O)nc21
REMARK SMILES IDX 17 1 16 3 2 4 3 5 25 6 4 7 24 8 5 9 6 10 15 11 1 12 7 13
REMARK SMILES IDX 8 15 9 16 14 17 10 18 13 19 11 20 12 21 18 22 19 23 20 24
REMARK SMILES IDX 21 25 22 26 23 28
REMARK H PARENT 17 2 7 14 21 27
ROOT
ATOM      1  N   UNL     1       6.286  43.459  49.331  1.00  0.00    -0.354 N 
ATOM      2  H   UNL     1       6.967  43.601  48.589  1.00  0.00     0.163 HD
ENDROOT
BRANCH   1   3
ATOM      3  C   UNL     1       6.478  44.526  50.204  1.00  0.00     0.226 A 
ATOM      4  N   UNL     1       8.843  46.580  51.884  1.00  0.00    -0.250 N 
ATOM      5  N   UNL     1       8.540  47.614  52.703  1.00  0.00    -0.179 NA
ATOM      6  C   UNL     1       7.744  45.943  51.377  1.00  0.00     0.165 A 
ATOM      7  C   UNL     1       7.201  47.617  52.706  1.00  0.00     0.149 A 
ATOM      8  N   UNL     1       7.721  44.905  50.529  1.00  0.00    -0.193 NA
ATOM      9  C   UNL     1       6.648  46.588  51.917  1.00  0.00     0.082 A 
ATOM     10  C   UNL     1       5.390  46.106  51.549  1.00  0.00     0.147 A 
ATOM     11  N   UNL     1       5.340  45.079  50.663  1.00  0.00    -0.195 NA
ATOM     12  C   UNL     1      10.226  46.267  51.622  1.00  0.00     0.176 C 
BRANCH  10  13
ATOM     13  N   UNL     1       4.164  46.638  51.974  1.00  0.00    -0.339 N 
ATOM     14  H   UNL     1       3.592  46.778  51.145  1.00  0.00     0.168 HD
BRANCH  13  15
ATOM     15  C   UNL     1       3.373  46.254  53.076  1.00  0.00     0.040 A 
ATOM     16  C   UNL     1       2.014  45.988  52.856  1.00  0.00     0.027 A 
ATOM     17  C   UNL     1       3.887  46.081  54.367  1.00  0.00     0.027 A 
ATOM     18  C   UNL     1       1.179  45.587  53.903  1.00  0.00     0.022 A 
ATOM     19  C   UNL     1       3.055  45.680  55.419  1.00  0.00     0.022 A 
ATOM     20  C   UNL     1       1.706  45.437  55.183  1.00  0.00     0.041 A 
ATOM     21  Cl  UNL     1       0.685  44.944  56.476  1.00  0.00    -0.084 Cl
ENDBRANCH  13  15
ENDBRANCH  10  13
ENDBRANCH   1   3
BRANCH   1  22
ATOM     22  C   UNL     1       6.361  42.148  49.963  1.00  0.00     0.118 C 
BRANCH  22  23
ATOM     23  C   UNL     1       5.406  41.166  49.277  1.00  0.00     0.042 C 
BRANCH  23  24
ATOM     24  C   UNL     1       4.014  41.146  49.910  1.00  0.00     0.117 C 
BRANCH  24  25
ATOM     25  N   UNL     1       4.041  41.521  51.307  1.00  0.00    -0.359 N 
ATOM     26  C   UNL     1       3.197  42.468  51.823  1.00  0.00     0.337 C 
ATOM     27  H   UNL     1       4.896  41.323  51.819  1.00  0.00     0.163 HD
ATOM     28  O   UNL     1       2.283  43.016  51.224  1.00  0.00    -0.279 OA
ENDBRANCH  24  25
ENDBRANCH  23  24
ENDBRANCH  22  23
ENDBRANCH   1  22
TORSDOF 7
ENDMDL
MODEL 20
REMARK VINA RESULT:    -7.563      2.895      5.589
REMARK INTER + INTRA:         -11.756
REMARK INTER:                 -10.930
REMARK INTRA:                  -0.827
REMARK UNBOUND:                -1.099
REMARK SMILES Cn1ncc2c(Nc3ccc(Cl)cc3)nc(NCCCNC=O)nc21
REMARK SMILES IDX 17 1 16 3 2 4 3 5 25 6 4 7 24 8 5 9 6 10 15 11 1 12 7 13
REMARK SMILES IDX 8 15 9 16 14 17 10 18 13 19 11 20 12 21 18 22 19 23 20 24
REMARK SMILES IDX 21 25 22 26 23 28
REMARK H PARENT 17 2 7 14 21 27
ROOT
ATOM      1  N   UNL     1       3.423  45.456  55.271  1.00  0.00    -0.354 N 
ATOM      2  H   UNL     1       3.015  45.559  56.196  1.00  0.00     0.163 HD
ENDROOT
BRANCH   1   3
ATOM      3  C   UNL     1       2.552  44.611  54.587  1.00  0.00     0.226 A 
ATOM      4  N   UNL     1      -0.787  43.434  54.277  1.00  0.00    -0.250 N 
ATOM      5  N   UNL     1      -1.217  42.532  53.363  1.00  0.00    -0.179 NA
ATOM      6  C   UNL     1       0.552  43.703  54.190  1.00  0.00     0.165 A 
ATOM      7  C   UNL     1      -0.102  42.230  52.686  1.00  0.00     0.149 A 
ATOM      8  N   UNL     1       1.262  44.560  54.939  1.00  0.00    -0.193 NA
ATOM      9  C   UNL     1       1.034  42.911  53.168  1.00  0.00     0.082 A 
ATOM     10  C   UNL     1       2.400  43.004  52.890  1.00  0.00     0.147 A 
ATOM     11  N   UNL     1       3.133  43.891  53.609  1.00  0.00    -0.195 NA
ATOM     12  C   UNL     1      -1.730  44.008  55.202  1.00  0.00     0.176 C 
BRANCH  10  13
ATOM     13  N   UNL     1       3.070  42.297  51.880  1.00  0.00    -0.339 N 
ATOM     14  H   UNL     1       2.364  41.949  51.236  1.00  0.00     0.168 HD
BRANCH  13  15
ATOM     15  C   UNL     1       4.250  42.650  51.195  1.00  0.00     0.040 A 
ATOM     16  C   UNL     1       4.957  41.639  50.528  1.00  0.00     0.027 A 
ATOM     17  C   UNL     1       4.726  43.965  51.110  1.00  0.00     0.027 A 
ATOM     18  C   UNL     1       6.126  41.926  49.817  1.00  0.00     0.022 A 
ATOM     19  C   UNL     1       5.895  44.257  50.400  1.00  0.00     0.022 A 
ATOM     20  C   UNL     1       6.591  43.237  49.759  1.00  0.00     0.041 A 
ATOM     21  Cl  UNL     1       8.028  43.597  48.885  1.00  0.00    -0.084 Cl
ENDBRANCH  13  15
ENDBRANCH  10  13
ENDBRANCH   1   3
BRANCH   1  22
ATOM     22  C   UNL     1       4.809  45.005  55.280  1.00  0.00     0.118 C 
BRANCH  22  23
ATOM     23  C   UNL     1       5.689  45.964  54.472  1.00  0.00     0.042 C 
BRANCH  23  24
ATOM     24  C   UNL     1       4.954  47.237  54.050  1.00  0.00     0.117 C 
BRANCH  24  25
ATOM     25  N   UNL     1       4.705  47.280  52.625  1.00  0.00    -0.359 N 
ATOM     26  C   UNL     1       3.440  47.203  52.105  1.00  0.00     0.337 C 
ATOM     27  H   UNL     1       5.480  47.038  52.016  1.00  0.00     0.163 HD
ATOM     28  O   UNL     1       2.401  47.196  52.748  1.00  0.00    -0.279 OA
ENDBRANCH  24  25
ENDBRANCH  23  24
ENDBRANCH  22  23
ENDBRANCH   1  22
TORSDOF 7
ENDMDL
