MODEL 1
REMARK VINA RESULT:    -8.474      0.000      0.000
REMARK INTER + INTRA:         -12.879
REMARK INTER:                 -12.190
REMARK INTRA:                  -0.689
REMARK UNBOUND:                -0.689
REMARK SMILES CCCCCNc1nc(Nc2ccc(O)cc2)c2cnn(C)c2n1
REMARK SMILES IDX 6 1 5 3 4 4 3 5 2 6 1 7 7 8 8 9 24 10 9 11 23 12 18 13 21 14
REMARK SMILES IDX 19 15 20 16 22 17 10 18 11 20 12 21 17 22 13 23 16 24 14 25
REMARK SMILES IDX 15 26
REMARK H PARENT 6 2 10 19 15 27
ROOT
ATOM      1  N   UNL     1       7.876  45.732  50.520  1.00  0.00    -0.354 N 
ATOM      2  H   UNL     1       7.708  46.149  49.611  1.00  0.00     0.163 HD
ENDROOT
BRANCH   1   3
ATOM      3  C   UNL     1       7.974  46.673  51.625  1.00  0.00     0.116 C 
BRANCH   3   4
ATOM      4  C   UNL     1       9.449  46.914  51.947  1.00  0.00     0.021 C 
BRANCH   4   5
ATOM      5  C   UNL     1       9.866  46.482  53.356  1.00  0.00     0.002 C 
BRANCH   5   6
ATOM      6  C   UNL     1       9.546  47.496  54.459  1.00  0.00    -0.003 C 
ATOM      7  C   UNL     1      10.576  47.510  55.580  1.00  0.00     0.004 C 
ENDBRANCH   5   6
ENDBRANCH   4   5
ENDBRANCH   3   4
ENDBRANCH   1   3
BRANCH   1   8
ATOM      8  C   UNL     1       6.878  44.775  50.668  1.00  0.00     0.226 A 
ATOM      9  N   UNL     1       6.937  43.770  49.776  1.00  0.00    -0.195 NA
ATOM     10  N   UNL     1       5.961  44.908  51.635  1.00  0.00    -0.193 NA
ATOM     11  C   UNL     1       6.029  42.757  49.800  1.00  0.00     0.147 A 
ATOM     12  C   UNL     1       5.071  43.906  51.646  1.00  0.00     0.165 A 
ATOM     13  C   UNL     1       5.035  42.827  50.785  1.00  0.00     0.082 A 
ATOM     14  N   UNL     1       4.018  43.742  52.504  1.00  0.00    -0.250 N 
ATOM     15  C   UNL     1       3.918  42.078  51.212  1.00  0.00     0.149 A 
ATOM     16  N   UNL     1       3.288  42.629  52.256  1.00  0.00    -0.179 NA
ATOM     17  C   UNL     1       3.643  44.609  53.592  1.00  0.00     0.176 C 
BRANCH  11  18
ATOM     18  N   UNL     1       6.062  41.709  48.868  1.00  0.00    -0.339 N 
ATOM     19  H   UNL     1       6.817  41.055  49.017  1.00  0.00     0.168 HD
BRANCH  18  20
ATOM     20  C   UNL     1       5.294  41.439  47.722  1.00  0.00     0.040 A 
ATOM     21  C   UNL     1       4.137  40.651  47.725  1.00  0.00     0.030 A 
ATOM     22  C   UNL     1       5.734  41.946  46.486  1.00  0.00     0.030 A 
ATOM     23  C   UNL     1       3.429  40.392  46.545  1.00  0.00     0.048 A 
ATOM     24  C   UNL     1       5.034  41.690  45.305  1.00  0.00     0.048 A 
ATOM     25  C   UNL     1       3.884  40.916  45.343  1.00  0.00     0.115 A 
BRANCH  25  26
ATOM     26  O   UNL     1       3.228  40.689  44.171  1.00  0.00    -0.508 OA
ATOM     27  H   UNL     1       3.523  41.349  43.522  1.00  0.00     0.293 HD
ENDBRANCH  25  26
ENDBRANCH  18  20
ENDBRANCH  11  18
ENDBRANCH   1   8
TORSDOF 8
ENDMDL
MODEL 2
REMARK VINA RESULT:    -8.387      3.092      4.450
REMARK INTER + INTRA:         -12.754
REMARK INTER:                 -12.403
REMARK INTRA:                  -0.351
REMARK UNBOUND:                -0.689
REMARK SMILES CCCCCNc1nc(Nc2ccc(O)cc2)c2cnn(C)c2n1
REMARK SMILES IDX 6 1 5 3 4 4 3 5 2 6 1 7 7 8 8 9 24 10 9 11 23 12 18 13 21 14
REMARK SMILES IDX 19 15 20 16 22 17 10 18 11 20 12 21 17 22 13 23 16 24 14 25
REMARK SMILES IDX 15 26
REMARK H PARENT 6 2 10 19 15 27
ROOT
ATOM      1  N   UNL     1       5.603  47.041  54.954  1.00  0.00    -0.354 N 
ATOM      2  H   UNL     1       5.496  47.218  55.948  1.00  0.00     0.163 HD
ENDROOT
BRANCH   1   3
ATOM      3  C   UNL     1       6.914  46.558  54.549  1.00  0.00     0.116 C 
BRANCH   3   4
ATOM      4  C   UNL     1       7.367  47.325  53.307  1.00  0.00     0.021 C 
BRANCH   4   5
ATOM      5  C   UNL     1       8.779  47.909  53.405  1.00  0.00     0.002 C 
BRANCH   5   6
ATOM      6  C   UNL     1       9.907  46.874  53.348  1.00  0.00    -0.003 C 
ATOM      7  C   UNL     1      10.114  46.287  51.958  1.00  0.00     0.004 C 
ENDBRANCH   5   6
ENDBRANCH   4   5
ENDBRANCH   3   4
ENDBRANCH   1   3
BRANCH   1   8
ATOM      8  C   UNL     1       4.551  46.193  54.624  1.00  0.00     0.226 A 
ATOM      9  N   UNL     1       4.758  45.457  53.517  1.00  0.00    -0.195 NA
ATOM     10  N   UNL     1       3.448  46.168  55.384  1.00  0.00    -0.193 NA
ATOM     11  C   UNL     1       3.818  44.579  53.074  1.00  0.00     0.147 A 
ATOM     12  C   UNL     1       2.530  45.302  54.934  1.00  0.00     0.165 A 
ATOM     13  C   UNL     1       2.634  44.497  53.817  1.00  0.00     0.082 A 
ATOM     14  N   UNL     1       1.305  45.035  55.481  1.00  0.00    -0.250 N 
ATOM     15  C   UNL     1       1.413  43.789  53.783  1.00  0.00     0.149 A 
ATOM     16  N   UNL     1       0.594  44.113  54.789  1.00  0.00    -0.179 NA
ATOM     17  C   UNL     1       0.739  45.622  56.669  1.00  0.00     0.176 C 
BRANCH  11  18
ATOM     18  N   UNL     1       4.007  43.816  51.912  1.00  0.00    -0.339 N 
ATOM     19  H   UNL     1       3.215  43.234  51.674  1.00  0.00     0.168 HD
BRANCH  18  20
ATOM     20  C   UNL     1       5.112  43.645  51.061  1.00  0.00     0.040 A 
ATOM     21  C   UNL     1       5.423  42.442  50.416  1.00  0.00     0.030 A 
ATOM     22  C   UNL     1       5.990  44.728  50.878  1.00  0.00     0.030 A 
ATOM     23  C   UNL     1       6.556  42.323  49.602  1.00  0.00     0.048 A 
ATOM     24  C   UNL     1       7.123  44.617  50.068  1.00  0.00     0.048 A 
ATOM     25  C   UNL     1       7.396  43.414  49.434  1.00  0.00     0.115 A 
BRANCH  25  26
ATOM     26  O   UNL     1       8.509  43.344  48.652  1.00  0.00    -0.508 OA
ATOM     27  H   UNL     1       8.568  42.448  48.281  1.00  0.00     0.293 HD
ENDBRANCH  25  26
ENDBRANCH  18  20
ENDBRANCH  11  18
ENDBRANCH   1   8
TORSDOF 8
ENDMDL
MODEL 3
REMARK VINA RESULT:    -8.357      2.771      5.925
REMARK INTER + INTRA:         -12.710
REMARK INTER:                 -11.637
REMARK INTRA:                  -1.072
REMARK UNBOUND:                -0.689
REMARK SMILES CCCCCNc1nc(Nc2ccc(O)cc2)c2cnn(C)c2n1
REMARK SMILES IDX 6 1 5 3 4 4 3 5 2 6 1 7 7 8 8 9 24 10 9 11 23 12 18 13 21 14
REMARK SMILES IDX 19 15 20 16 22 17 10 18 11 20 12 21 17 22 13 23 16 24 14 25
REMARK SMILES IDX 15 26
REMARK H PARENT 6 2 10 19 15 27
ROOT
ATOM      1  N   UNL     1       4.826  46.868  55.193  1.00  0.00    -0.354 N 
ATOM      2  H   UNL     1       4.279  47.624  54.793  1.00  0.00     0.163 HD
ENDROOT
BRANCH   1   3
ATOM      3  C   UNL     1       4.131  45.596  55.310  1.00  0.00     0.116 C 
BRANCH   3   4
ATOM      4  C   UNL     1       2.658  45.796  54.952  1.00  0.00     0.021 C 
BRANCH   4   5
ATOM      5  C   UNL     1       2.283  45.332  53.541  1.00  0.00     0.002 C 
BRANCH   5   6
ATOM      6  C   UNL     1       2.211  46.449  52.496  1.00  0.00    -0.003 C 
ATOM      7  C   UNL     1       2.888  46.087  51.182  1.00  0.00     0.004 C 
ENDBRANCH   5   6
ENDBRANCH   4   5
ENDBRANCH   3   4
ENDBRANCH   1   3
BRANCH   1   8
ATOM      8  C   UNL     1       5.987  46.820  54.429  1.00  0.00     0.226 A 
ATOM      9  N   UNL     1       5.801  46.413  53.161  1.00  0.00    -0.195 NA
ATOM     10  N   UNL     1       7.163  47.157  54.977  1.00  0.00    -0.193 NA
ATOM     11  C   UNL     1       6.845  46.320  52.294  1.00  0.00     0.147 A 
ATOM     12  C   UNL     1       8.182  47.058  54.113  1.00  0.00     0.165 A 
ATOM     13  C   UNL     1       8.110  46.656  52.794  1.00  0.00     0.082 A 
ATOM     14  N   UNL     1       9.501  47.332  54.354  1.00  0.00    -0.250 N 
ATOM     15  C   UNL     1       9.443  46.720  52.337  1.00  0.00     0.149 A 
ATOM     16  N   UNL     1      10.300  47.126  53.280  1.00  0.00    -0.179 NA
ATOM     17  C   UNL     1      10.079  47.797  55.589  1.00  0.00     0.176 C 
BRANCH  11  18
ATOM     18  N   UNL     1       6.676  45.880  50.973  1.00  0.00    -0.339 N 
ATOM     19  H   UNL     1       6.623  46.630  50.298  1.00  0.00     0.168 HD
BRANCH  18  20
ATOM     20  C   UNL     1       6.486  44.602  50.418  1.00  0.00     0.040 A 
ATOM     21  C   UNL     1       5.473  43.722  50.813  1.00  0.00     0.030 A 
ATOM     22  C   UNL     1       7.394  44.156  49.441  1.00  0.00     0.030 A 
ATOM     23  C   UNL     1       5.351  42.449  50.244  1.00  0.00     0.048 A 
ATOM     24  C   UNL     1       7.280  42.886  48.870  1.00  0.00     0.048 A 
ATOM     25  C   UNL     1       6.257  42.042  49.274  1.00  0.00     0.115 A 
BRANCH  25  26
ATOM     26  O   UNL     1       6.178  40.812  48.694  1.00  0.00    -0.508 OA
ATOM     27  H   UNL     1       6.552  40.870  47.799  1.00  0.00     0.293 HD
ENDBRANCH  25  26
ENDBRANCH  18  20
ENDBRANCH  11  18
ENDBRANCH   1   8
TORSDOF 8
ENDMDL
MODEL 4
REMARK VINA RESULT:    -8.276      2.683      5.911
REMARK INTER + INTRA:         -12.593
REMARK INTER:                 -11.575
REMARK INTRA:                  -1.019
REMARK UNBOUND:                -0.689
REMARK SMILES CCCCCNc1nc(Nc2ccc(O)cc2)c2cnn(C)c2n1
REMARK SMILES IDX 6 1 5 3 4 4 3 5 2 6 1 7 7 8 8 9 24 10 9 11 23 12 18 13 21 14
REMARK SMILES IDX 19 15 20 16 22 17 10 18 11 20 12 21 17 22 13 23 16 24 14 25
REMARK SMILES IDX 15 26
REMARK H PARENT 6 2 10 19 15 27
ROOT
ATOM      1  N   UNL     1       4.598  46.951  54.980  1.00  0.00    -0.354 N 
ATOM      2  H   UNL     1       3.970  47.458  54.365  1.00  0.00     0.163 HD
ENDROOT
BRANCH   1   3
ATOM      3  C   UNL     1       4.035  45.760  55.596  1.00  0.00     0.116 C 
BRANCH   3   4
ATOM      4  C   UNL     1       2.544  45.684  55.264  1.00  0.00     0.021 C 
BRANCH   4   5
ATOM      5  C   UNL     1       2.186  44.638  54.205  1.00  0.00     0.002 C 
BRANCH   5   6
ATOM      6  C   UNL     1       1.425  45.185  52.994  1.00  0.00    -0.003 C 
ATOM      7  C   UNL     1       2.090  46.400  52.364  1.00  0.00     0.004 C 
ENDBRANCH   5   6
ENDBRANCH   4   5
ENDBRANCH   3   4
ENDBRANCH   1   3
BRANCH   1   8
ATOM      8  C   UNL     1       5.739  46.719  54.218  1.00  0.00     0.226 A 
ATOM      9  N   UNL     1       5.517  46.037  53.080  1.00  0.00    -0.195 NA
ATOM     10  N   UNL     1       6.930  47.158  54.646  1.00  0.00    -0.193 NA
ATOM     11  C   UNL     1       6.537  45.739  52.231  1.00  0.00     0.147 A 
ATOM     12  C   UNL     1       7.926  46.855  53.802  1.00  0.00     0.165 A 
ATOM     13  C   UNL     1       7.817  46.166  52.611  1.00  0.00     0.082 A 
ATOM     14  N   UNL     1       9.252  47.162  53.942  1.00  0.00    -0.250 N 
ATOM     15  C   UNL     1       9.138  46.110  52.118  1.00  0.00     0.149 A 
ATOM     16  N   UNL     1      10.021  46.710  52.923  1.00  0.00    -0.179 NA
ATOM     17  C   UNL     1       9.865  47.889  55.026  1.00  0.00     0.176 C 
BRANCH  11  18
ATOM     18  N   UNL     1       6.331  45.014  51.049  1.00  0.00    -0.339 N 
ATOM     19  H   UNL     1       6.662  45.485  50.219  1.00  0.00     0.168 HD
BRANCH  18  20
ATOM     20  C   UNL     1       5.681  43.795  50.788  1.00  0.00     0.040 A 
ATOM     21  C   UNL     1       6.181  42.813  49.924  1.00  0.00     0.030 A 
ATOM     22  C   UNL     1       4.432  43.560  51.389  1.00  0.00     0.030 A 
ATOM     23  C   UNL     1       5.474  41.629  49.681  1.00  0.00     0.048 A 
ATOM     24  C   UNL     1       3.720  42.381  51.150  1.00  0.00     0.048 A 
ATOM     25  C   UNL     1       4.248  41.423  50.298  1.00  0.00     0.115 A 
BRANCH  25  26
ATOM     26  O   UNL     1       3.526  40.287  50.090  1.00  0.00    -0.508 OA
ATOM     27  H   UNL     1       3.511  39.777  50.917  1.00  0.00     0.293 HD
ENDBRANCH  25  26
ENDBRANCH  18  20
ENDBRANCH  11  18
ENDBRANCH   1   8
TORSDOF 8
ENDMDL
MODEL 5
REMARK VINA RESULT:    -8.172      3.197      4.696
REMARK INTER + INTRA:         -12.444
REMARK INTER:                 -11.781
REMARK INTRA:                  -0.663
REMARK UNBOUND:                -0.689
REMARK SMILES CCCCCNc1nc(Nc2ccc(O)cc2)c2cnn(C)c2n1
REMARK SMILES IDX 6 1 5 3 4 4 3 5 2 6 1 7 7 8 8 9 24 10 9 11 23 12 18 13 21 14
REMARK SMILES IDX 19 15 20 16 22 17 10 18 11 20 12 21 17 22 13 23 16 24 14 25
REMARK SMILES IDX 15 26
REMARK H PARENT 6 2 10 19 15 27
ROOT
ATOM      1  N   UNL     1       4.362  46.289  55.329  1.00  0.00    -0.354 N 
ATOM      2  H   UNL     1       4.918  45.687  55.928  1.00  0.00     0.163 HD
ENDROOT
BRANCH   1   3
ATOM      3  C   UNL     1       5.122  47.118  54.408  1.00  0.00     0.116 C 
BRANCH   3   4
ATOM      4  C   UNL     1       6.608  46.789  54.548  1.00  0.00     0.021 C 
BRANCH   4   5
ATOM      5  C   UNL     1       7.386  46.811  53.229  1.00  0.00     0.002 C 
BRANCH   5   6
ATOM      6  C   UNL     1       8.711  47.578  53.277  1.00  0.00    -0.003 C 
ATOM      7  C   UNL     1       9.873  46.811  52.663  1.00  0.00     0.004 C 
ENDBRANCH   5   6
ENDBRANCH   4   5
ENDBRANCH   3   4
ENDBRANCH   1   3
BRANCH   1   8
ATOM      8  C   UNL     1       3.445  45.441  54.717  1.00  0.00     0.226 A 
ATOM      9  N   UNL     1       3.916  44.810  53.627  1.00  0.00    -0.195 NA
ATOM     10  N   UNL     1       2.209  45.317  55.219  1.00  0.00    -0.193 NA
ATOM     11  C   UNL     1       3.134  43.945  52.925  1.00  0.00     0.147 A 
ATOM     12  C   UNL     1       1.450  44.465  54.517  1.00  0.00     0.165 A 
ATOM     13  C   UNL     1       1.825  43.762  53.390  1.00  0.00     0.082 A 
ATOM     14  N   UNL     1       0.151  44.114  54.767  1.00  0.00    -0.250 N 
ATOM     15  C   UNL     1       0.674  43.023  53.040  1.00  0.00     0.149 A 
ATOM     16  N   UNL     1      -0.353  43.234  53.871  1.00  0.00    -0.179 NA
ATOM     17  C   UNL     1      -0.680  44.580  55.849  1.00  0.00     0.176 C 
BRANCH  11  18
ATOM     18  N   UNL     1       3.599  43.290  51.775  1.00  0.00    -0.339 N 
ATOM     19  H   UNL     1       2.956  42.601  51.411  1.00  0.00     0.168 HD
BRANCH  18  20
ATOM     20  C   UNL     1       4.819  43.352  51.079  1.00  0.00     0.040 A 
ATOM     21  C   UNL     1       5.557  44.528  50.901  1.00  0.00     0.030 A 
ATOM     22  C   UNL     1       5.309  42.177  50.482  1.00  0.00     0.030 A 
ATOM     23  C   UNL     1       6.752  44.534  50.172  1.00  0.00     0.048 A 
ATOM     24  C   UNL     1       6.501  42.177  49.752  1.00  0.00     0.048 A 
ATOM     25  C   UNL     1       7.215  43.356  49.604  1.00  0.00     0.115 A 
BRANCH  25  26
ATOM     26  O   UNL     1       8.372  43.315  48.886  1.00  0.00    -0.508 OA
ATOM     27  H   UNL     1       8.186  42.897  48.028  1.00  0.00     0.293 HD
ENDBRANCH  25  26
ENDBRANCH  18  20
ENDBRANCH  11  18
ENDBRANCH   1   8
TORSDOF 8
ENDMDL
MODEL 6
REMARK VINA RESULT:    -8.156      3.425      7.747
REMARK INTER + INTRA:         -12.421
REMARK INTER:                 -11.724
REMARK INTRA:                  -0.696
REMARK UNBOUND:                -0.689
REMARK SMILES CCCCCNc1nc(Nc2ccc(O)cc2)c2cnn(C)c2n1
REMARK SMILES IDX 6 1 5 3 4 4 3 5 2 6 1 7 7 8 8 9 24 10 9 11 23 12 18 13 21 14
REMARK SMILES IDX 19 15 20 16 22 17 10 18 11 20 12 21 17 22 13 23 16 24 14 25
REMARK SMILES IDX 15 26
REMARK H PARENT 6 2 10 19 15 27
ROOT
ATOM      1  N   UNL     1       4.999  41.692  50.521  1.00  0.00    -0.354 N 
ATOM      2  H   UNL     1       4.092  41.276  50.335  1.00  0.00     0.163 HD
ENDROOT
BRANCH   1   3
ATOM      3  C   UNL     1       5.977  41.548  49.454  1.00  0.00     0.116 C 
BRANCH   3   4
ATOM      4  C   UNL     1       5.250  41.207  48.153  1.00  0.00     0.021 C 
BRANCH   4   5
ATOM      5  C   UNL     1       5.773  41.955  46.923  1.00  0.00     0.002 C 
BRANCH   5   6
ATOM      6  C   UNL     1       5.043  41.632  45.616  1.00  0.00    -0.003 C 
ATOM      7  C   UNL     1       5.311  42.643  44.511  1.00  0.00     0.004 C 
ENDBRANCH   5   6
ENDBRANCH   4   5
ENDBRANCH   3   4
ENDBRANCH   1   3
BRANCH   1   8
ATOM      8  C   UNL     1       4.725  43.008  50.876  1.00  0.00     0.226 A 
ATOM      9  N   UNL     1       5.793  43.826  50.839  1.00  0.00    -0.195 NA
ATOM     10  N   UNL     1       3.481  43.363  51.224  1.00  0.00    -0.193 NA
ATOM     11  C   UNL     1       5.677  45.144  51.157  1.00  0.00     0.147 A 
ATOM     12  C   UNL     1       3.383  44.662  51.538  1.00  0.00     0.165 A 
ATOM     13  C   UNL     1       4.404  45.591  51.533  1.00  0.00     0.082 A 
ATOM     14  N   UNL     1       2.258  45.337  51.927  1.00  0.00    -0.250 N 
ATOM     15  C   UNL     1       3.784  46.792  51.940  1.00  0.00     0.149 A 
ATOM     16  N   UNL     1       2.478  46.647  52.186  1.00  0.00    -0.179 NA
ATOM     17  C   UNL     1       0.930  44.797  52.075  1.00  0.00     0.176 C 
BRANCH  11  18
ATOM     18  N   UNL     1       6.780  46.010  51.142  1.00  0.00    -0.339 N 
ATOM     19  H   UNL     1       6.996  46.379  50.227  1.00  0.00     0.168 HD
BRANCH  18  20
ATOM     20  C   UNL     1       7.690  46.401  52.140  1.00  0.00     0.040 A 
ATOM     21  C   UNL     1       9.079  46.415  51.968  1.00  0.00     0.030 A 
ATOM     22  C   UNL     1       7.186  46.754  53.404  1.00  0.00     0.030 A 
ATOM     23  C   UNL     1       9.938  46.786  53.010  1.00  0.00     0.048 A 
ATOM     24  C   UNL     1       8.037  47.124  54.449  1.00  0.00     0.048 A 
ATOM     25  C   UNL     1       9.408  47.139  54.243  1.00  0.00     0.115 A 
BRANCH  25  26
ATOM     26  O   UNL     1      10.205  47.506  55.284  1.00  0.00    -0.508 OA
ATOM     27  H   UNL     1       9.643  47.666  56.060  1.00  0.00     0.293 HD
ENDBRANCH  25  26
ENDBRANCH  18  20
ENDBRANCH  11  18
ENDBRANCH   1   8
TORSDOF 8
ENDMDL
MODEL 7
REMARK VINA RESULT:    -8.136      3.162      4.541
REMARK INTER + INTRA:         -12.392
REMARK INTER:                 -11.757
REMARK INTRA:                  -0.635
REMARK UNBOUND:                -0.689
REMARK SMILES CCCCCNc1nc(Nc2ccc(O)cc2)c2cnn(C)c2n1
REMARK SMILES IDX 6 1 5 3 4 4 3 5 2 6 1 7 7 8 8 9 24 10 9 11 23 12 18 13 21 14
REMARK SMILES IDX 19 15 20 16 22 17 10 18 11 20 12 21 17 22 13 23 16 24 14 25
REMARK SMILES IDX 15 26
REMARK H PARENT 6 2 10 19 15 27
ROOT
ATOM      1  N   UNL     1       4.755  46.018  55.337  1.00  0.00    -0.354 N 
ATOM      2  H   UNL     1       5.409  45.327  55.688  1.00  0.00     0.163 HD
ENDROOT
BRANCH   1   3
ATOM      3  C   UNL     1       5.337  47.051  54.495  1.00  0.00     0.116 C 
BRANCH   3   4
ATOM      4  C   UNL     1       6.843  46.816  54.385  1.00  0.00     0.021 C 
BRANCH   4   5
ATOM      5  C   UNL     1       7.386  46.856  52.953  1.00  0.00     0.002 C 
BRANCH   5   6
ATOM      6  C   UNL     1       8.708  47.610  52.788  1.00  0.00    -0.003 C 
ATOM      7  C   UNL     1       9.894  46.889  53.414  1.00  0.00     0.004 C 
ENDBRANCH   5   6
ENDBRANCH   4   5
ENDBRANCH   3   4
ENDBRANCH   1   3
BRANCH   1   8
ATOM      8  C   UNL     1       3.745  45.281  54.727  1.00  0.00     0.226 A 
ATOM      9  N   UNL     1       4.128  44.631  53.613  1.00  0.00    -0.195 NA
ATOM     10  N   UNL     1       2.513  45.270  55.253  1.00  0.00    -0.193 NA
ATOM     11  C   UNL     1       3.249  43.866  52.911  1.00  0.00     0.147 A 
ATOM     12  C   UNL     1       1.658  44.516  54.550  1.00  0.00     0.165 A 
ATOM     13  C   UNL     1       1.938  43.805  53.400  1.00  0.00     0.082 A 
ATOM     14  N   UNL     1       0.335  44.292  54.821  1.00  0.00    -0.250 N 
ATOM     15  C   UNL     1       0.712  43.194  53.060  1.00  0.00     0.149 A 
ATOM     16  N   UNL     1      -0.272  43.488  53.917  1.00  0.00    -0.179 NA
ATOM     17  C   UNL     1      -0.423  44.813  55.930  1.00  0.00     0.176 C 
BRANCH  11  18
ATOM     18  N   UNL     1       3.623  43.195  51.737  1.00  0.00    -0.339 N 
ATOM     19  H   UNL     1       2.920  42.558  51.391  1.00  0.00     0.168 HD
BRANCH  18  20
ATOM     20  C   UNL     1       4.818  43.179  50.996  1.00  0.00     0.040 A 
ATOM     21  C   UNL     1       5.389  42.018  50.460  1.00  0.00     0.030 A 
ATOM     22  C   UNL     1       5.512  44.389  50.819  1.00  0.00     0.030 A 
ATOM     23  C   UNL     1       6.597  42.060  49.755  1.00  0.00     0.048 A 
ATOM     24  C   UNL     1       6.720  44.437  50.118  1.00  0.00     0.048 A 
ATOM     25  C   UNL     1       7.252  43.272  49.589  1.00  0.00     0.115 A 
BRANCH  25  26
ATOM     26  O   UNL     1       8.431  43.359  48.911  1.00  0.00    -0.508 OA
ATOM     27  H   UNL     1       8.794  42.464  48.810  1.00  0.00     0.293 HD
ENDBRANCH  25  26
ENDBRANCH  18  20
ENDBRANCH  11  18
ENDBRANCH   1   8
TORSDOF 8
ENDMDL
MODEL 8
REMARK VINA RESULT:    -8.120      3.784      7.103
REMARK INTER + INTRA:         -12.370
REMARK INTER:                 -11.175
REMARK INTRA:                  -1.195
REMARK UNBOUND:                -0.689
REMARK SMILES CCCCCNc1nc(Nc2ccc(O)cc2)c2cnn(C)c2n1
REMARK SMILES IDX 6 1 5 3 4 4 3 5 2 6 1 7 7 8 8 9 24 10 9 11 23 12 18 13 21 14
REMARK SMILES IDX 19 15 20 16 22 17 10 18 11 20 12 21 17 22 13 23 16 24 14 25
REMARK SMILES IDX 15 26
REMARK H PARENT 6 2 10 19 15 27
ROOT
ATOM      1  N   UNL     1       2.399  45.859  51.658  1.00  0.00    -0.354 N 
ATOM      2  H   UNL     1       1.638  45.193  51.575  1.00  0.00     0.163 HD
ENDROOT
BRANCH   1   3
ATOM      3  C   UNL     1       2.484  46.547  52.937  1.00  0.00     0.116 C 
BRANCH   3   4
ATOM      4  C   UNL     1       1.729  45.738  53.991  1.00  0.00     0.021 C 
BRANCH   4   5
ATOM      5  C   UNL     1       2.629  45.049  55.021  1.00  0.00     0.002 C 
BRANCH   5   6
ATOM      6  C   UNL     1       4.035  45.644  55.146  1.00  0.00    -0.003 C 
ATOM      7  C   UNL     1       5.139  44.655  54.800  1.00  0.00     0.004 C 
ENDBRANCH   5   6
ENDBRANCH   4   5
ENDBRANCH   3   4
ENDBRANCH   1   3
BRANCH   1   8
ATOM      8  C   UNL     1       3.542  45.144  51.314  1.00  0.00     0.226 A 
ATOM      9  N   UNL     1       4.678  45.863  51.350  1.00  0.00    -0.195 NA
ATOM     10  N   UNL     1       3.446  43.852  50.974  1.00  0.00    -0.193 NA
ATOM     11  C   UNL     1       5.876  45.297  51.042  1.00  0.00     0.147 A 
ATOM     12  C   UNL     1       4.632  43.308  50.670  1.00  0.00     0.165 A 
ATOM     13  C   UNL     1       5.857  43.945  50.676  1.00  0.00     0.082 A 
ATOM     14  N   UNL     1       4.879  42.016  50.292  1.00  0.00    -0.250 N 
ATOM     15  C   UNL     1       6.772  42.945  50.281  1.00  0.00     0.149 A 
ATOM     16  N   UNL     1       6.185  41.768  50.040  1.00  0.00    -0.179 NA
ATOM     17  C   UNL     1       3.914  40.956  50.148  1.00  0.00     0.176 C 
BRANCH  11  18
ATOM     18  N   UNL     1       7.070  46.033  51.057  1.00  0.00    -0.339 N 
ATOM     19  H   UNL     1       7.411  46.274  50.137  1.00  0.00     0.168 HD
BRANCH  18  20
ATOM     20  C   UNL     1       7.923  46.432  52.100  1.00  0.00     0.040 A 
ATOM     21  C   UNL     1       9.320  46.417  52.016  1.00  0.00     0.030 A 
ATOM     22  C   UNL     1       7.348  46.825  53.322  1.00  0.00     0.030 A 
ATOM     23  C   UNL     1      10.120  46.798  53.100  1.00  0.00     0.048 A 
ATOM     24  C   UNL     1       8.140  47.205  54.409  1.00  0.00     0.048 A 
ATOM     25  C   UNL     1       9.521  47.190  54.289  1.00  0.00     0.115 A 
BRANCH  25  26
ATOM     26  O   UNL     1      10.259  47.568  55.369  1.00  0.00    -0.508 OA
ATOM     27  H   UNL     1      10.998  46.944  55.470  1.00  0.00     0.293 HD
ENDBRANCH  25  26
ENDBRANCH  18  20
ENDBRANCH  11  18
ENDBRANCH   1   8
TORSDOF 8
ENDMDL
MODEL 9
REMARK VINA RESULT:    -8.085      3.096      5.836
REMARK INTER + INTRA:         -12.318
REMARK INTER:                 -11.683
REMARK INTRA:                  -0.635
REMARK UNBOUND:                -0.689
REMARK SMILES CCCCCNc1nc(Nc2ccc(O)cc2)c2cnn(C)c2n1
REMARK SMILES IDX 6 1 5 3 4 4 3 5 2 6 1 7 7 8 8 9 24 10 9 11 23 12 18 13 21 14
REMARK SMILES IDX 19 15 20 16 22 17 10 18 11 20 12 21 17 22 13 23 16 24 14 25
REMARK SMILES IDX 15 26
REMARK H PARENT 6 2 10 19 15 27
ROOT
ATOM      1  N   UNL     1       7.178  46.203  51.027  1.00  0.00    -0.354 N 
ATOM      2  H   UNL     1       6.708  46.782  50.339  1.00  0.00     0.163 HD
ENDROOT
BRANCH   1   3
ATOM      3  C   UNL     1       7.589  46.891  52.240  1.00  0.00     0.116 C 
BRANCH   3   4
ATOM      4  C   UNL     1       9.067  47.266  52.127  1.00  0.00     0.021 C 
BRANCH   4   5
ATOM      5  C   UNL     1       9.919  46.843  53.326  1.00  0.00     0.002 C 
BRANCH   5   6
ATOM      6  C   UNL     1       9.541  47.513  54.651  1.00  0.00    -0.003 C 
ATOM      7  C   UNL     1      10.673  47.512  55.669  1.00  0.00     0.004 C 
ENDBRANCH   5   6
ENDBRANCH   4   5
ENDBRANCH   3   4
ENDBRANCH   1   3
BRANCH   1   8
ATOM      8  C   UNL     1       6.322  45.128  51.238  1.00  0.00     0.226 A 
ATOM      9  N   UNL     1       5.565  45.231  52.345  1.00  0.00    -0.195 NA
ATOM     10  N   UNL     1       6.309  44.103  50.376  1.00  0.00    -0.193 NA
ATOM     11  C   UNL     1       4.676  44.257  52.680  1.00  0.00     0.147 A 
ATOM     12  C   UNL     1       5.432  43.149  50.719  1.00  0.00     0.165 A 
ATOM     13  C   UNL     1       4.605  43.149  51.824  1.00  0.00     0.082 A 
ATOM     14  N   UNL     1       5.173  41.983  50.052  1.00  0.00    -0.250 N 
ATOM     15  C   UNL     1       3.894  41.934  51.728  1.00  0.00     0.149 A 
ATOM     16  N   UNL     1       4.235  41.214  50.654  1.00  0.00    -0.179 NA
ATOM     17  C   UNL     1       5.782  41.531  48.826  1.00  0.00     0.176 C 
BRANCH  11  18
ATOM     18  N   UNL     1       3.890  44.336  53.839  1.00  0.00    -0.339 N 
ATOM     19  H   UNL     1       4.395  44.127  54.688  1.00  0.00     0.168 HD
BRANCH  18  20
ATOM     20  C   UNL     1       2.518  44.573  54.038  1.00  0.00     0.040 A 
ATOM     21  C   UNL     1       1.568  44.565  53.011  1.00  0.00     0.030 A 
ATOM     22  C   UNL     1       2.074  44.883  55.335  1.00  0.00     0.030 A 
ATOM     23  C   UNL     1       0.218  44.837  53.265  1.00  0.00     0.048 A 
ATOM     24  C   UNL     1       0.729  45.157  55.597  1.00  0.00     0.048 A 
ATOM     25  C   UNL     1      -0.190  45.130  54.559  1.00  0.00     0.115 A 
BRANCH  25  26
ATOM     26  O   UNL     1      -1.492  45.401  54.853  1.00  0.00    -0.508 OA
ATOM     27  H   UNL     1      -1.984  45.482  54.018  1.00  0.00     0.293 HD
ENDBRANCH  25  26
ENDBRANCH  18  20
ENDBRANCH  11  18
ENDBRANCH   1   8
TORSDOF 8
ENDMDL
MODEL 10
REMARK VINA RESULT:    -7.977      2.992      6.139
REMARK INTER + INTRA:         -12.164
REMARK INTER:                 -10.789
REMARK INTRA:                  -1.374
REMARK UNBOUND:                -0.689
REMARK SMILES CCCCCNc1nc(Nc2ccc(O)cc2)c2cnn(C)c2n1
REMARK SMILES IDX 6 1 5 3 4 4 3 5 2 6 1 7 7 8 8 9 24 10 9 11 23 12 18 13 21 14
REMARK SMILES IDX 19 15 20 16 22 17 10 18 11 20 12 21 17 22 13 23 16 24 14 25
REMARK SMILES IDX 15 26
REMARK H PARENT 6 2 10 19 15 27
ROOT
ATOM      1  N   UNL     1       7.724  45.216  49.518  1.00  0.00    -0.354 N 
ATOM      2  H   UNL     1       8.459  45.855  49.233  1.00  0.00     0.163 HD
ENDROOT
BRANCH   1   3
ATOM      3  C   UNL     1       8.077  43.806  49.473  1.00  0.00     0.116 C 
BRANCH   3   4
ATOM      4  C   UNL     1       6.898  43.013  48.912  1.00  0.00     0.021 C 
BRANCH   4   5
ATOM      5  C   UNL     1       6.357  41.933  49.854  1.00  0.00     0.002 C 
BRANCH   5   6
ATOM      6  C   UNL     1       5.075  42.315  50.600  1.00  0.00    -0.003 C 
ATOM      7  C   UNL     1       3.965  41.284  50.454  1.00  0.00     0.004 C 
ENDBRANCH   5   6
ENDBRANCH   4   5
ENDBRANCH   3   4
ENDBRANCH   1   3
BRANCH   1   8
ATOM      8  C   UNL     1       7.319  45.667  50.769  1.00  0.00     0.226 A 
ATOM      9  N   UNL     1       5.988  45.650  50.961  1.00  0.00    -0.195 NA
ATOM     10  N   UNL     1       8.231  46.080  51.660  1.00  0.00    -0.193 NA
ATOM     11  C   UNL     1       5.444  46.059  52.139  1.00  0.00     0.147 A 
ATOM     12  C   UNL     1       7.681  46.483  52.814  1.00  0.00     0.165 A 
ATOM     13  C   UNL     1       6.336  46.506  53.122  1.00  0.00     0.082 A 
ATOM     14  N   UNL     1       8.333  46.954  53.921  1.00  0.00    -0.250 N 
ATOM     15  C   UNL     1       6.289  47.013  54.438  1.00  0.00     0.149 A 
ATOM     16  N   UNL     1       7.500  47.293  54.933  1.00  0.00    -0.179 NA
ATOM     17  C   UNL     1       9.755  47.109  54.090  1.00  0.00     0.176 C 
BRANCH  11  18
ATOM     18  N   UNL     1       4.058  46.065  52.353  1.00  0.00    -0.339 N 
ATOM     19  H   UNL     1       3.704  46.945  52.702  1.00  0.00     0.168 HD
BRANCH  18  20
ATOM     20  C   UNL     1       3.080  45.061  52.251  1.00  0.00     0.040 A 
ATOM     21  C   UNL     1       2.251  44.888  51.136  1.00  0.00     0.030 A 
ATOM     22  C   UNL     1       2.883  44.204  53.348  1.00  0.00     0.030 A 
ATOM     23  C   UNL     1       1.273  43.887  51.103  1.00  0.00     0.048 A 
ATOM     24  C   UNL     1       1.908  43.203  53.323  1.00  0.00     0.048 A 
ATOM     25  C   UNL     1       1.111  43.051  52.199  1.00  0.00     0.115 A 
BRANCH  25  26
ATOM     26  O   UNL     1       0.173  42.063  52.211  1.00  0.00    -0.508 OA
ATOM     27  H   UNL     1      -0.425  42.218  52.962  1.00  0.00     0.293 HD
ENDBRANCH  25  26
ENDBRANCH  18  20
ENDBRANCH  11  18
ENDBRANCH   1   8
TORSDOF 8
ENDMDL
MODEL 11
REMARK VINA RESULT:    -7.972      3.683      6.128
REMARK INTER + INTRA:         -12.156
REMARK INTER:                 -11.468
REMARK INTRA:                  -0.688
REMARK UNBOUND:                -0.689
REMARK SMILES CCCCCNc1nc(Nc2ccc(O)cc2)c2cnn(C)c2n1
REMARK SMILES IDX 6 1 5 3 4 4 3 5 2 6 1 7 7 8 8 9 24 10 9 11 23 12 18 13 21 14
REMARK SMILES IDX 19 15 20 16 22 17 10 18 11 20 12 21 17 22 13 23 16 24 14 25
REMARK SMILES IDX 15 26
REMARK H PARENT 6 2 10 19 15 27
ROOT
ATOM      1  N   UNL     1       7.107  46.428  50.937  1.00  0.00    -0.354 N 
ATOM      2  H   UNL     1       6.711  47.112  50.300  1.00  0.00     0.163 HD
ENDROOT
BRANCH   1   3
ATOM      3  C   UNL     1       7.529  46.954  52.225  1.00  0.00     0.116 C 
BRANCH   3   4
ATOM      4  C   UNL     1       8.999  47.366  52.140  1.00  0.00     0.021 C 
BRANCH   4   5
ATOM      5  C   UNL     1       9.852  46.910  53.327  1.00  0.00     0.002 C 
BRANCH   5   6
ATOM      6  C   UNL     1       9.501  47.572  54.663  1.00  0.00    -0.003 C 
ATOM      7  C   UNL     1      10.641  47.534  55.671  1.00  0.00     0.004 C 
ENDBRANCH   5   6
ENDBRANCH   4   5
ENDBRANCH   3   4
ENDBRANCH   1   3
BRANCH   1   8
ATOM      8  C   UNL     1       6.159  45.414  51.012  1.00  0.00     0.226 A 
ATOM      9  N   UNL     1       4.976  45.797  51.523  1.00  0.00    -0.195 NA
ATOM     10  N   UNL     1       6.468  44.177  50.601  1.00  0.00    -0.193 NA
ATOM     11  C   UNL     1       3.949  44.914  51.655  1.00  0.00     0.147 A 
ATOM     12  C   UNL     1       5.450  43.317  50.739  1.00  0.00     0.165 A 
ATOM     13  C   UNL     1       4.197  43.597  51.246  1.00  0.00     0.082 A 
ATOM     14  N   UNL     1       5.438  41.988  50.410  1.00  0.00    -0.250 N 
ATOM     15  C   UNL     1       3.511  42.365  51.180  1.00  0.00     0.149 A 
ATOM     16  N   UNL     1       4.259  41.378  50.677  1.00  0.00    -0.179 NA
ATOM     17  C   UNL     1       6.517  41.228  49.833  1.00  0.00     0.176 C 
BRANCH  11  18
ATOM     18  N   UNL     1       2.713  45.289  52.202  1.00  0.00    -0.339 N 
ATOM     19  H   UNL     1       2.107  45.765  51.549  1.00  0.00     0.168 HD
BRANCH  18  20
ATOM     20  C   UNL     1       2.188  45.199  53.502  1.00  0.00     0.040 A 
ATOM     21  C   UNL     1       0.890  44.764  53.792  1.00  0.00     0.030 A 
ATOM     22  C   UNL     1       2.992  45.615  54.579  1.00  0.00     0.030 A 
ATOM     23  C   UNL     1       0.411  44.724  55.107  1.00  0.00     0.048 A 
ATOM     24  C   UNL     1       2.520  45.579  55.894  1.00  0.00     0.048 A 
ATOM     25  C   UNL     1       1.233  45.131  56.148  1.00  0.00     0.115 A 
BRANCH  25  26
ATOM     26  O   UNL     1       0.809  45.110  57.443  1.00  0.00    -0.508 OA
ATOM     27  H   UNL     1       1.558  45.350  58.014  1.00  0.00     0.293 HD
ENDBRANCH  25  26
ENDBRANCH  18  20
ENDBRANCH  11  18
ENDBRANCH   1   8
TORSDOF 8
ENDMDL
MODEL 12
REMARK VINA RESULT:    -7.942      3.226      7.922
REMARK INTER + INTRA:         -12.114
REMARK INTER:                 -11.521
REMARK INTRA:                  -0.593
REMARK UNBOUND:                -0.689
REMARK SMILES CCCCCNc1nc(Nc2ccc(O)cc2)c2cnn(C)c2n1
REMARK SMILES IDX 6 1 5 3 4 4 3 5 2 6 1 7 7 8 8 9 24 10 9 11 23 12 18 13 21 14
REMARK SMILES IDX 19 15 20 16 22 17 10 18 11 20 12 21 17 22 13 23 16 24 14 25
REMARK SMILES IDX 15 26
REMARK H PARENT 6 2 10 19 15 27
ROOT
ATOM      1  N   UNL     1       6.312  41.699  49.224  1.00  0.00    -0.354 N 
ATOM      2  H   UNL     1       6.613  40.951  49.841  1.00  0.00     0.163 HD
ENDROOT
BRANCH   1   3
ATOM      3  C   UNL     1       5.397  41.300  48.166  1.00  0.00     0.116 C 
BRANCH   3   4
ATOM      4  C   UNL     1       5.825  41.966  46.858  1.00  0.00     0.021 C 
BRANCH   4   5
ATOM      5  C   UNL     1       4.959  41.597  45.650  1.00  0.00     0.002 C 
BRANCH   5   6
ATOM      6  C   UNL     1       3.744  40.722  45.974  1.00  0.00    -0.003 C 
ATOM      7  C   UNL     1       2.475  41.167  45.260  1.00  0.00     0.004 C 
ENDBRANCH   5   6
ENDBRANCH   4   5
ENDBRANCH   3   4
ENDBRANCH   1   3
BRANCH   1   8
ATOM      8  C   UNL     1       5.817  42.687  50.069  1.00  0.00     0.226 A 
ATOM      9  N   UNL     1       6.606  43.771  50.177  1.00  0.00    -0.195 NA
ATOM     10  N   UNL     1       4.649  42.504  50.700  1.00  0.00    -0.193 NA
ATOM     11  C   UNL     1       6.250  44.821  50.965  1.00  0.00     0.147 A 
ATOM     12  C   UNL     1       4.313  43.544  51.475  1.00  0.00     0.165 A 
ATOM     13  C   UNL     1       5.038  44.704  51.660  1.00  0.00     0.082 A 
ATOM     14  N   UNL     1       3.187  43.675  52.242  1.00  0.00    -0.250 N 
ATOM     15  C   UNL     1       4.261  45.462  52.560  1.00  0.00     0.149 A 
ATOM     16  N   UNL     1       3.133  44.843  52.925  1.00  0.00    -0.179 NA
ATOM     17  C   UNL     1       2.113  42.724  52.375  1.00  0.00     0.176 C 
BRANCH  11  18
ATOM     18  N   UNL     1       7.066  45.953  51.106  1.00  0.00    -0.339 N 
ATOM     19  H   UNL     1       7.076  46.551  50.291  1.00  0.00     0.168 HD
BRANCH  18  20
ATOM     20  C   UNL     1       7.931  46.375  52.130  1.00  0.00     0.040 A 
ATOM     21  C   UNL     1       9.327  46.358  52.029  1.00  0.00     0.030 A 
ATOM     22  C   UNL     1       7.371  46.795  53.350  1.00  0.00     0.030 A 
ATOM     23  C   UNL     1      10.140  46.762  53.095  1.00  0.00     0.048 A 
ATOM     24  C   UNL     1       8.175  47.198  54.418  1.00  0.00     0.048 A 
ATOM     25  C   UNL     1       9.555  47.181  54.282  1.00  0.00     0.115 A 
BRANCH  25  26
ATOM     26  O   UNL     1      10.306  47.583  55.345  1.00  0.00    -0.508 OA
ATOM     27  H   UNL     1      11.233  47.646  55.059  1.00  0.00     0.293 HD
ENDBRANCH  25  26
ENDBRANCH  18  20
ENDBRANCH  11  18
ENDBRANCH   1   8
TORSDOF 8
ENDMDL
MODEL 13
REMARK VINA RESULT:    -7.928      3.592      7.189
REMARK INTER + INTRA:         -12.093
REMARK INTER:                 -11.420
REMARK INTRA:                  -0.673
REMARK UNBOUND:                -0.689
REMARK SMILES CCCCCNc1nc(Nc2ccc(O)cc2)c2cnn(C)c2n1
REMARK SMILES IDX 6 1 5 3 4 4 3 5 2 6 1 7 7 8 8 9 24 10 9 11 23 12 18 13 21 14
REMARK SMILES IDX 19 15 20 16 22 17 10 18 11 20 12 21 17 22 13 23 16 24 14 25
REMARK SMILES IDX 15 26
REMARK H PARENT 6 2 10 19 15 27
ROOT
ATOM      1  N   UNL     1       4.318  41.870  51.179  1.00  0.00    -0.354 N 
ATOM      2  H   UNL     1       3.504  41.647  50.615  1.00  0.00     0.163 HD
ENDROOT
BRANCH   1   3
ATOM      3  C   UNL     1       5.596  41.489  50.599  1.00  0.00     0.116 C 
BRANCH   3   4
ATOM      4  C   UNL     1       5.499  41.571  49.076  1.00  0.00     0.021 C 
BRANCH   4   5
ATOM      5  C   UNL     1       6.571  42.448  48.422  1.00  0.00     0.002 C 
BRANCH   5   6
ATOM      6  C   UNL     1       7.657  42.953  49.376  1.00  0.00    -0.003 C 
ATOM      7  C   UNL     1       8.396  44.176  48.852  1.00  0.00     0.004 C 
ENDBRANCH   5   6
ENDBRANCH   4   5
ENDBRANCH   3   4
ENDBRANCH   1   3
BRANCH   1   8
ATOM      8  C   UNL     1       4.198  43.227  51.463  1.00  0.00     0.226 A 
ATOM      9  N   UNL     1       5.336  43.928  51.312  1.00  0.00    -0.195 NA
ATOM     10  N   UNL     1       3.020  43.726  51.858  1.00  0.00    -0.193 NA
ATOM     11  C   UNL     1       5.371  45.267  51.550  1.00  0.00     0.147 A 
ATOM     12  C   UNL     1       3.069  45.045  52.091  1.00  0.00     0.165 A 
ATOM     13  C   UNL     1       4.175  45.863  51.968  1.00  0.00     0.082 A 
ATOM     14  N   UNL     1       2.043  45.853  52.500  1.00  0.00    -0.250 N 
ATOM     15  C   UNL     1       3.703  47.143  52.331  1.00  0.00     0.149 A 
ATOM     16  N   UNL     1       2.407  47.147  52.660  1.00  0.00    -0.179 NA
ATOM     17  C   UNL     1       0.681  45.461  52.757  1.00  0.00     0.176 C 
BRANCH  11  18
ATOM     18  N   UNL     1       6.552  46.013  51.416  1.00  0.00    -0.339 N 
ATOM     19  H   UNL     1       6.759  46.279  50.464  1.00  0.00     0.168 HD
BRANCH  18  20
ATOM     20  C   UNL     1       7.540  46.394  52.340  1.00  0.00     0.040 A 
ATOM     21  C   UNL     1       8.912  46.392  52.061  1.00  0.00     0.030 A 
ATOM     22  C   UNL     1       7.139  46.754  53.639  1.00  0.00     0.030 A 
ATOM     23  C   UNL     1       9.853  46.755  53.033  1.00  0.00     0.048 A 
ATOM     24  C   UNL     1       8.073  47.115  54.614  1.00  0.00     0.048 A 
ATOM     25  C   UNL     1       9.423  47.115  54.302  1.00  0.00     0.115 A 
BRANCH  25  26
ATOM     26  O   UNL     1      10.303  47.474  55.278  1.00  0.00    -0.508 OA
ATOM     27  H   UNL     1      11.204  47.402  54.921  1.00  0.00     0.293 HD
ENDBRANCH  25  26
ENDBRANCH  18  20
ENDBRANCH  11  18
ENDBRANCH   1   8
TORSDOF 8
ENDMDL
MODEL 14
REMARK VINA RESULT:    -7.907      3.158      5.257
REMARK INTER + INTRA:         -12.063
REMARK INTER:                 -11.430
REMARK INTRA:                  -0.632
REMARK UNBOUND:                -0.689
REMARK SMILES CCCCCNc1nc(Nc2ccc(O)cc2)c2cnn(C)c2n1
REMARK SMILES IDX 6 1 5 3 4 4 3 5 2 6 1 7 7 8 8 9 24 10 9 11 23 12 18 13 21 14
REMARK SMILES IDX 19 15 20 16 22 17 10 18 11 20 12 21 17 22 13 23 16 24 14 25
REMARK SMILES IDX 15 26
REMARK H PARENT 6 2 10 19 15 27
ROOT
ATOM      1  N   UNL     1       5.409  46.745  52.448  1.00  0.00    -0.354 N 
ATOM      2  H   UNL     1       4.487  46.968  52.808  1.00  0.00     0.163 HD
ENDROOT
BRANCH   1   3
ATOM      3  C   UNL     1       6.503  46.932  53.387  1.00  0.00     0.116 C 
BRANCH   3   4
ATOM      4  C   UNL     1       7.635  47.690  52.693  1.00  0.00     0.021 C 
BRANCH   4   5
ATOM      5  C   UNL     1       8.885  47.887  53.554  1.00  0.00     0.002 C 
BRANCH   5   6
ATOM      6  C   UNL     1       9.923  46.765  53.445  1.00  0.00    -0.003 C 
ATOM      7  C   UNL     1      10.219  46.358  52.009  1.00  0.00     0.004 C 
ENDBRANCH   5   6
ENDBRANCH   4   5
ENDBRANCH   3   4
ENDBRANCH   1   3
BRANCH   1   8
ATOM      8  C   UNL     1       5.297  45.452  51.946  1.00  0.00     0.226 A 
ATOM      9  N   UNL     1       4.297  44.733  52.486  1.00  0.00    -0.195 NA
ATOM     10  N   UNL     1       6.153  45.021  51.010  1.00  0.00    -0.193 NA
ATOM     11  C   UNL     1       4.063  43.452  52.091  1.00  0.00     0.147 A 
ATOM     12  C   UNL     1       5.912  43.758  50.633  1.00  0.00     0.165 A 
ATOM     13  C   UNL     1       4.919  42.929  51.113  1.00  0.00     0.082 A 
ATOM     14  N   UNL     1       6.597  43.028  49.699  1.00  0.00    -0.250 N 
ATOM     15  C   UNL     1       5.098  41.722  50.404  1.00  0.00     0.149 A 
ATOM     16  N   UNL     1       6.121  41.770  49.543  1.00  0.00    -0.179 NA
ATOM     17  C   UNL     1       7.721  43.465  48.910  1.00  0.00     0.176 C 
BRANCH  11  18
ATOM     18  N   UNL     1       3.037  42.678  52.654  1.00  0.00    -0.339 N 
ATOM     19  H   UNL     1       3.367  41.852  53.134  1.00  0.00     0.168 HD
BRANCH  18  20
ATOM     20  C   UNL     1       1.637  42.789  52.612  1.00  0.00     0.040 A 
ATOM     21  C   UNL     1       0.901  42.949  51.432  1.00  0.00     0.030 A 
ATOM     22  C   UNL     1       0.928  42.787  53.827  1.00  0.00     0.030 A 
ATOM     23  C   UNL     1      -0.492  43.083  51.455  1.00  0.00     0.048 A 
ATOM     24  C   UNL     1      -0.462  42.922  53.857  1.00  0.00     0.048 A 
ATOM     25  C   UNL     1      -1.163  43.067  52.670  1.00  0.00     0.115 A 
BRANCH  25  26
ATOM     26  O   UNL     1      -2.517  43.195  52.739  1.00  0.00    -0.508 OA
ATOM     27  H   UNL     1      -2.880  43.112  51.842  1.00  0.00     0.293 HD
ENDBRANCH  25  26
ENDBRANCH  18  20
ENDBRANCH  11  18
ENDBRANCH   1   8
TORSDOF 8
ENDMDL
MODEL 15
REMARK VINA RESULT:    -7.898      2.437      3.890
REMARK INTER + INTRA:         -12.051
REMARK INTER:                 -11.504
REMARK INTRA:                  -0.546
REMARK UNBOUND:                -0.689
REMARK SMILES CCCCCNc1nc(Nc2ccc(O)cc2)c2cnn(C)c2n1
REMARK SMILES IDX 6 1 5 3 4 4 3 5 2 6 1 7 7 8 8 9 24 10 9 11 23 12 18 13 21 14
REMARK SMILES IDX 19 15 20 16 22 17 10 18 11 20 12 21 17 22 13 23 16 24 14 25
REMARK SMILES IDX 15 26
REMARK H PARENT 6 2 10 19 15 27
ROOT
ATOM      1  N   UNL     1       4.105  46.349  53.579  1.00  0.00    -0.354 N 
ATOM      2  H   UNL     1       4.616  46.205  54.444  1.00  0.00     0.163 HD
ENDROOT
BRANCH   1   3
ATOM      3  C   UNL     1       4.929  46.545  52.397  1.00  0.00     0.116 C 
BRANCH   3   4
ATOM      4  C   UNL     1       6.306  47.051  52.827  1.00  0.00     0.021 C 
BRANCH   4   5
ATOM      5  C   UNL     1       7.456  46.598  51.922  1.00  0.00     0.002 C 
BRANCH   5   6
ATOM      6  C   UNL     1       8.709  47.476  51.987  1.00  0.00    -0.003 C 
ATOM      7  C   UNL     1       9.879  46.804  52.692  1.00  0.00     0.004 C 
ENDBRANCH   5   6
ENDBRANCH   4   5
ENDBRANCH   3   4
ENDBRANCH   1   3
BRANCH   1   8
ATOM      8  C   UNL     1       3.227  45.274  53.496  1.00  0.00     0.226 A 
ATOM      9  N   UNL     1       3.733  44.191  52.878  1.00  0.00    -0.195 NA
ATOM     10  N   UNL     1       1.991  45.378  54.001  1.00  0.00    -0.193 NA
ATOM     11  C   UNL     1       2.991  43.061  52.725  1.00  0.00     0.147 A 
ATOM     12  C   UNL     1       1.271  44.259  53.842  1.00  0.00     0.165 A 
ATOM     13  C   UNL     1       1.684  43.093  53.229  1.00  0.00     0.082 A 
ATOM     14  N   UNL     1      -0.017  44.038  54.247  1.00  0.00    -0.250 N 
ATOM     15  C   UNL     1       0.566  42.237  53.318  1.00  0.00     0.149 A 
ATOM     16  N   UNL     1      -0.478  42.804  53.933  1.00  0.00    -0.179 NA
ATOM     17  C   UNL     1      -0.877  44.960  54.946  1.00  0.00     0.176 C 
BRANCH  11  18
ATOM     18  N   UNL     1       3.493  41.928  52.069  1.00  0.00    -0.339 N 
ATOM     19  H   UNL     1       3.460  41.086  52.626  1.00  0.00     0.168 HD
BRANCH  18  20
ATOM     20  C   UNL     1       4.105  41.754  50.815  1.00  0.00     0.040 A 
ATOM     21  C   UNL     1       3.609  40.910  49.814  1.00  0.00     0.030 A 
ATOM     22  C   UNL     1       5.312  42.428  50.560  1.00  0.00     0.030 A 
ATOM     23  C   UNL     1       4.278  40.755  48.595  1.00  0.00     0.048 A 
ATOM     24  C   UNL     1       5.987  42.276  49.345  1.00  0.00     0.048 A 
ATOM     25  C   UNL     1       5.463  41.442  48.370  1.00  0.00     0.115 A 
BRANCH  25  26
ATOM     26  O   UNL     1       6.148  41.320  47.199  1.00  0.00    -0.508 OA
ATOM     27  H   UNL     1       6.980  40.851  47.378  1.00  0.00     0.293 HD
ENDBRANCH  25  26
ENDBRANCH  18  20
ENDBRANCH  11  18
ENDBRANCH   1   8
TORSDOF 8
ENDMDL
MODEL 16
REMARK VINA RESULT:    -7.864      3.503      6.855
REMARK INTER + INTRA:         -12.002
REMARK INTER:                 -10.938
REMARK INTRA:                  -1.064
REMARK UNBOUND:                -0.689
REMARK SMILES CCCCCNc1nc(Nc2ccc(O)cc2)c2cnn(C)c2n1
REMARK SMILES IDX 6 1 5 3 4 4 3 5 2 6 1 7 7 8 8 9 24 10 9 11 23 12 18 13 21 14
REMARK SMILES IDX 19 15 20 16 22 17 10 18 11 20 12 21 17 22 13 23 16 24 14 25
REMARK SMILES IDX 15 26
REMARK H PARENT 6 2 10 19 15 27
ROOT
ATOM      1  N   UNL     1       4.029  41.551  50.956  1.00  0.00    -0.354 N 
ATOM      2  H   UNL     1       3.418  41.476  50.150  1.00  0.00     0.163 HD
ENDROOT
BRANCH   1   3
ATOM      3  C   UNL     1       5.452  41.495  50.662  1.00  0.00     0.116 C 
BRANCH   3   4
ATOM      4  C   UNL     1       5.648  41.451  49.146  1.00  0.00     0.021 C 
BRANCH   4   5
ATOM      5  C   UNL     1       6.437  42.633  48.577  1.00  0.00     0.002 C 
BRANCH   5   6
ATOM      6  C   UNL     1       7.454  43.251  49.541  1.00  0.00    -0.003 C 
ATOM      7  C   UNL     1       8.489  44.123  48.845  1.00  0.00     0.004 C 
ENDBRANCH   5   6
ENDBRANCH   4   5
ENDBRANCH   3   4
ENDBRANCH   1   3
BRANCH   1   8
ATOM      8  C   UNL     1       3.623  42.709  51.610  1.00  0.00     0.226 A 
ATOM      9  N   UNL     1       4.442  43.762  51.435  1.00  0.00    -0.195 NA
ATOM     10  N   UNL     1       2.502  42.705  52.345  1.00  0.00    -0.193 NA
ATOM     11  C   UNL     1       4.171  44.964  52.012  1.00  0.00     0.147 A 
ATOM     12  C   UNL     1       2.249  43.894  52.908  1.00  0.00     0.165 A 
ATOM     13  C   UNL     1       3.013  45.038  52.798  1.00  0.00     0.082 A 
ATOM     14  N   UNL     1       1.189  44.222  53.708  1.00  0.00    -0.250 N 
ATOM     15  C   UNL     1       2.324  45.994  53.573  1.00  0.00     0.149 A 
ATOM     16  N   UNL     1       1.213  45.506  54.136  1.00  0.00    -0.179 NA
ATOM     17  C   UNL     1       0.106  43.360  54.110  1.00  0.00     0.176 C 
BRANCH  11  18
ATOM     18  N   UNL     1       5.021  46.069  51.857  1.00  0.00    -0.339 N 
ATOM     19  H   UNL     1       4.675  46.761  51.208  1.00  0.00     0.168 HD
BRANCH  18  20
ATOM     20  C   UNL     1       6.297  46.360  52.370  1.00  0.00     0.040 A 
ATOM     21  C   UNL     1       6.563  46.568  53.728  1.00  0.00     0.030 A 
ATOM     22  C   UNL     1       7.366  46.500  51.467  1.00  0.00     0.030 A 
ATOM     23  C   UNL     1       7.851  46.884  54.178  1.00  0.00     0.048 A 
ATOM     24  C   UNL     1       8.653  46.818  51.908  1.00  0.00     0.048 A 
ATOM     25  C   UNL     1       8.886  47.005  53.262  1.00  0.00     0.115 A 
BRANCH  25  26
ATOM     26  O   UNL     1      10.154  47.313  53.654  1.00  0.00    -0.508 OA
ATOM     27  H   UNL     1      10.171  47.364  54.625  1.00  0.00     0.293 HD
ENDBRANCH  25  26
ENDBRANCH  18  20
ENDBRANCH  11  18
ENDBRANCH   1   8
TORSDOF 8
ENDMDL
MODEL 17
REMARK VINA RESULT:    -7.674      3.839      6.412
REMARK INTER + INTRA:         -11.727
REMARK INTER:                 -11.263
REMARK INTRA:                  -0.464
REMARK UNBOUND:                -0.689
REMARK SMILES CCCCCNc1nc(Nc2ccc(O)cc2)c2cnn(C)c2n1
REMARK SMILES IDX 6 1 5 3 4 4 3 5 2 6 1 7 7 8 8 9 24 10 9 11 23 12 18 13 21 14
REMARK SMILES IDX 19 15 20 16 22 17 10 18 11 20 12 21 17 22 13 23 16 24 14 25
REMARK SMILES IDX 15 26
REMARK H PARENT 6 2 10 19 15 27
ROOT
ATOM      1  N   UNL     1       5.887  46.728  51.815  1.00  0.00    -0.354 N 
ATOM      2  H   UNL     1       5.154  47.359  52.122  1.00  0.00     0.163 HD
ENDROOT
BRANCH   1   3
ATOM      3  C   UNL     1       7.070  46.694  52.661  1.00  0.00     0.116 C 
BRANCH   3   4
ATOM      4  C   UNL     1       8.193  47.478  51.981  1.00  0.00     0.021 C 
BRANCH   4   5
ATOM      5  C   UNL     1       9.591  46.890  52.195  1.00  0.00     0.002 C 
BRANCH   5   6
ATOM      6  C   UNL     1       9.873  46.406  53.621  1.00  0.00    -0.003 C 
ATOM      7  C   UNL     1       9.860  47.528  54.650  1.00  0.00     0.004 C 
ENDBRANCH   5   6
ENDBRANCH   4   5
ENDBRANCH   3   4
ENDBRANCH   1   3
BRANCH   1   8
ATOM      8  C   UNL     1       5.260  45.497  51.655  1.00  0.00     0.226 A 
ATOM      9  N   UNL     1       3.998  45.454  52.119  1.00  0.00    -0.195 NA
ATOM     10  N   UNL     1       5.918  44.479  51.086  1.00  0.00    -0.193 NA
ATOM     11  C   UNL     1       3.256  44.316  52.027  1.00  0.00     0.147 A 
ATOM     12  C   UNL     1       5.178  43.365  51.005  1.00  0.00     0.165 A 
ATOM     13  C   UNL     1       3.878  43.205  51.443  1.00  0.00     0.082 A 
ATOM     14  N   UNL     1       5.551  42.159  50.477  1.00  0.00    -0.250 N 
ATOM     15  C   UNL     1       3.568  41.864  51.133  1.00  0.00     0.149 A 
ATOM     16  N   UNL     1       4.581  41.216  50.548  1.00  0.00    -0.179 NA
ATOM     17  C   UNL     1       6.821  41.828  49.882  1.00  0.00     0.176 C 
BRANCH  11  18
ATOM     18  N   UNL     1       1.945  44.244  52.521  1.00  0.00    -0.339 N 
ATOM     19  H   UNL     1       1.264  43.967  51.828  1.00  0.00     0.168 HD
BRANCH  18  20
ATOM     20  C   UNL     1       1.386  44.559  53.772  1.00  0.00     0.040 A 
ATOM     21  C   UNL     1       2.132  44.998  54.872  1.00  0.00     0.030 A 
ATOM     22  C   UNL     1       0.003  44.378  53.951  1.00  0.00     0.030 A 
ATOM     23  C   UNL     1       1.523  45.269  56.103  1.00  0.00     0.048 A 
ATOM     24  C   UNL     1      -0.611  44.645  55.178  1.00  0.00     0.048 A 
ATOM     25  C   UNL     1       0.154  45.090  56.245  1.00  0.00     0.115 A 
BRANCH  25  26
ATOM     26  O   UNL     1      -0.480  45.340  57.424  1.00  0.00    -0.508 OA
ATOM     27  H   UNL     1      -1.130  44.634  57.578  1.00  0.00     0.293 HD
ENDBRANCH  25  26
ENDBRANCH  18  20
ENDBRANCH  11  18
ENDBRANCH   1   8
TORSDOF 8
ENDMDL
MODEL 18
REMARK VINA RESULT:    -7.585      3.707      7.727
REMARK INTER + INTRA:         -11.599
REMARK INTER:                 -10.803
REMARK INTRA:                  -0.797
REMARK UNBOUND:                -0.689
REMARK SMILES CCCCCNc1nc(Nc2ccc(O)cc2)c2cnn(C)c2n1
REMARK SMILES IDX 6 1 5 3 4 4 3 5 2 6 1 7 7 8 8 9 24 10 9 11 23 12 18 13 21 14
REMARK SMILES IDX 19 15 20 16 22 17 10 18 11 20 12 21 17 22 13 23 16 24 14 25
REMARK SMILES IDX 15 26
REMARK H PARENT 6 2 10 19 15 27
ROOT
ATOM      1  N   UNL     1       2.201  45.351  52.416  1.00  0.00    -0.354 N 
ATOM      2  H   UNL     1       1.443  44.706  52.219  1.00  0.00     0.163 HD
ENDROOT
BRANCH   1   3
ATOM      3  C   UNL     1       2.384  45.684  53.819  1.00  0.00     0.116 C 
BRANCH   3   4
ATOM      4  C   UNL     1       1.753  44.588  54.679  1.00  0.00     0.021 C 
BRANCH   4   5
ATOM      5  C   UNL     1       0.222  44.616  54.712  1.00  0.00     0.002 C 
BRANCH   5   6
ATOM      6  C   UNL     1      -0.455  43.364  54.145  1.00  0.00    -0.003 C 
ATOM      7  C   UNL     1       0.525  42.379  53.524  1.00  0.00     0.004 C 
ENDBRANCH   5   6
ENDBRANCH   4   5
ENDBRANCH   3   4
ENDBRANCH   1   3
BRANCH   1   8
ATOM      8  C   UNL     1       3.319  44.788  51.809  1.00  0.00     0.226 A 
ATOM      9  N   UNL     1       4.401  45.587  51.789  1.00  0.00    -0.195 NA
ATOM     10  N   UNL     1       3.252  43.551  51.299  1.00  0.00    -0.193 NA
ATOM     11  C   UNL     1       5.570  45.170  51.232  1.00  0.00     0.147 A 
ATOM     12  C   UNL     1       4.409  43.155  50.751  1.00  0.00     0.165 A 
ATOM     13  C   UNL     1       5.579  43.884  50.676  1.00  0.00     0.082 A 
ATOM     14  N   UNL     1       4.673  41.952  50.153  1.00  0.00    -0.250 N 
ATOM     15  C   UNL     1       6.481  43.028  50.010  1.00  0.00     0.149 A 
ATOM     16  N   UNL     1       5.939  41.850  49.683  1.00  0.00    -0.179 NA
ATOM     17  C   UNL     1       3.764  40.845  49.993  1.00  0.00     0.176 C 
BRANCH  11  18
ATOM     18  N   UNL     1       6.705  45.993  51.185  1.00  0.00    -0.339 N 
ATOM     19  H   UNL     1       6.927  46.329  50.259  1.00  0.00     0.168 HD
BRANCH  18  20
ATOM     20  C   UNL     1       7.637  46.377  52.165  1.00  0.00     0.040 A 
ATOM     21  C   UNL     1       9.024  46.292  52.000  1.00  0.00     0.030 A 
ATOM     22  C   UNL     1       7.155  46.829  53.407  1.00  0.00     0.030 A 
ATOM     23  C   UNL     1       9.904  46.662  53.024  1.00  0.00     0.048 A 
ATOM     24  C   UNL     1       8.027  47.199  54.434  1.00  0.00     0.048 A 
ATOM     25  C   UNL     1       9.396  47.114  54.234  1.00  0.00     0.115 A 
BRANCH  25  26
ATOM     26  O   UNL     1      10.215  47.484  55.258  1.00  0.00    -0.508 OA
ATOM     27  H   UNL     1      11.111  47.159  55.067  1.00  0.00     0.293 HD
ENDBRANCH  25  26
ENDBRANCH  18  20
ENDBRANCH  11  18
ENDBRANCH   1   8
TORSDOF 8
ENDMDL
MODEL 19
REMARK VINA RESULT:    -7.515      3.561      7.353
REMARK INTER + INTRA:         -11.498
REMARK INTER:                 -10.279
REMARK INTRA:                  -1.220
REMARK UNBOUND:                -0.689
REMARK SMILES CCCCCNc1nc(Nc2ccc(O)cc2)c2cnn(C)c2n1
REMARK SMILES IDX 6 1 5 3 4 4 3 5 2 6 1 7 7 8 8 9 24 10 9 11 23 12 18 13 21 14
REMARK SMILES IDX 19 15 20 16 22 17 10 18 11 20 12 21 17 22 13 23 16 24 14 25
REMARK SMILES IDX 15 26
REMARK H PARENT 6 2 10 19 15 27
ROOT
ATOM      1  N   UNL     1       6.567  43.411  49.246  1.00  0.00    -0.354 N 
ATOM      2  H   UNL     1       7.237  43.620  48.513  1.00  0.00     0.163 HD
ENDROOT
BRANCH   1   3
ATOM      3  C   UNL     1       6.681  42.084  49.830  1.00  0.00     0.116 C 
BRANCH   3   4
ATOM      4  C   UNL     1       5.561  41.200  49.282  1.00  0.00     0.021 C 
BRANCH   4   5
ATOM      5  C   UNL     1       4.189  41.454  49.914  1.00  0.00     0.002 C 
BRANCH   5   6
ATOM      6  C   UNL     1       4.218  41.737  51.419  1.00  0.00    -0.003 C 
ATOM      7  C   UNL     1       3.055  42.599  51.891  1.00  0.00     0.004 C 
ENDBRANCH   5   6
ENDBRANCH   4   5
ENDBRANCH   3   4
ENDBRANCH   1   3
BRANCH   1   8
ATOM      8  C   UNL     1       6.695  44.453  50.159  1.00  0.00     0.226 A 
ATOM      9  N   UNL     1       5.528  44.907  50.650  1.00  0.00    -0.195 NA
ATOM     10  N   UNL     1       7.910  44.924  50.471  1.00  0.00    -0.193 NA
ATOM     11  C   UNL     1       5.497  45.921  51.556  1.00  0.00     0.147 A 
ATOM     12  C   UNL     1       7.864  45.924  51.361  1.00  0.00     0.165 A 
ATOM     13  C   UNL     1       6.731  46.467  51.933  1.00  0.00     0.082 A 
ATOM     14  N   UNL     1       8.922  46.614  51.888  1.00  0.00    -0.250 N 
ATOM     15  C   UNL     1       7.221  47.480  52.784  1.00  0.00     0.149 A 
ATOM     16  N   UNL     1       8.554  47.581  52.761  1.00  0.00    -0.179 NA
ATOM     17  C   UNL     1      10.320  46.406  51.605  1.00  0.00     0.176 C 
BRANCH  11  18
ATOM     18  N   UNL     1       4.290  46.421  52.068  1.00  0.00    -0.339 N 
ATOM     19  H   UNL     1       3.961  47.252  51.596  1.00  0.00     0.168 HD
BRANCH  18  20
ATOM     20  C   UNL     1       3.492  46.035  53.159  1.00  0.00     0.040 A 
ATOM     21  C   UNL     1       2.094  45.999  53.130  1.00  0.00     0.030 A 
ATOM     22  C   UNL     1       4.128  45.710  54.371  1.00  0.00     0.030 A 
ATOM     23  C   UNL     1       1.351  45.634  54.259  1.00  0.00     0.048 A 
ATOM     24  C   UNL     1       3.393  45.346  55.502  1.00  0.00     0.048 A 
ATOM     25  C   UNL     1       2.009  45.308  55.437  1.00  0.00     0.115 A 
BRANCH  25  26
ATOM     26  O   UNL     1       1.327  44.948  56.560  1.00  0.00    -0.508 OA
ATOM     27  H   UNL     1       1.375  43.982  56.651  1.00  0.00     0.293 HD
ENDBRANCH  25  26
ENDBRANCH  18  20
ENDBRANCH  11  18
ENDBRANCH   1   8
TORSDOF 8
ENDMDL
