MODEL 1
REMARK VINA RESULT:    -8.545      0.000      0.000
REMARK INTER + INTRA:         -13.231
REMARK INTER:                 -12.041
REMARK INTRA:                  -1.190
REMARK UNBOUND:                -1.190
REMARK SMILES CCCCCNc1nc(Nc2cc(Cl)c(Cl)cc2Cl)c2cnn(C)c2n1
REMARK SMILES IDX 5 1 4 2 3 3 2 4 1 5 6 6 7 8 8 9 26 10 9 11 25 12 20 13 23 14
REMARK SMILES IDX 21 15 22 16 24 17 10 18 11 20 12 21 18 22 13 23 17 24 15 25
REMARK SMILES IDX 19 26 14 27 16 28
REMARK H PARENT 6 7 10 19
ROOT
ATOM      1  C   UNL     1       4.344  41.248  49.775  1.00  0.00     0.116 C 
ENDROOT
BRANCH   1   2
ATOM      2  C   UNL     1       5.804  41.156  49.324  1.00  0.00     0.021 C 
BRANCH   2   3
ATOM      3  C   UNL     1       6.375  42.490  48.834  1.00  0.00     0.002 C 
BRANCH   3   4
ATOM      4  C   UNL     1       7.501  43.083  49.685  1.00  0.00    -0.003 C 
ATOM      5  C   UNL     1       8.395  44.049  48.924  1.00  0.00     0.004 C 
ENDBRANCH   3   4
ENDBRANCH   2   3
ENDBRANCH   1   2
BRANCH   1   6
ATOM      6  N   UNL     1       4.267  41.567  51.190  1.00  0.00    -0.354 N 
ATOM      7  H   UNL     1       3.773  40.888  51.759  1.00  0.00     0.163 HD
BRANCH   6   8
ATOM      8  C   UNL     1       3.708  42.799  51.511  1.00  0.00     0.226 A 
ATOM      9  N   UNL     1       4.579  43.826  51.491  1.00  0.00    -0.195 NA
ATOM     10  N   UNL     1       2.408  42.889  51.810  1.00  0.00    -0.193 NA
ATOM     11  C   UNL     1       4.175  45.093  51.770  1.00  0.00     0.147 A 
ATOM     12  C   UNL     1       2.022  44.142  52.086  1.00  0.00     0.165 A 
ATOM     13  C   UNL     1       2.822  45.267  52.088  1.00  0.00     0.082 A 
ATOM     14  N   UNL     1       0.765  44.570  52.416  1.00  0.00    -0.250 N 
ATOM     15  C   UNL     1       1.946  46.317  52.439  1.00  0.00     0.149 A 
ATOM     16  N   UNL     1       0.692  45.901  52.645  1.00  0.00    -0.179 NA
ATOM     17  C   UNL     1      -0.422  43.762  52.533  1.00  0.00     0.176 C 
BRANCH  11  18
ATOM     18  N   UNL     1       5.066  46.174  51.757  1.00  0.00    -0.338 N 
ATOM     19  H   UNL     1       4.764  46.950  51.178  1.00  0.00     0.168 HD
BRANCH  18  20
ATOM     20  C   UNL     1       6.298  46.415  52.400  1.00  0.00     0.060 A 
ATOM     21  C   UNL     1       7.540  46.217  51.783  1.00  0.00     0.049 A 
ATOM     22  C   UNL     1       6.304  46.867  53.737  1.00  0.00     0.066 A 
ATOM     23  C   UNL     1       8.741  46.455  52.467  1.00  0.00     0.061 A 
ATOM     24  C   UNL     1       7.494  47.108  54.428  1.00  0.00     0.044 A 
ATOM     25  C   UNL     1       8.716  46.900  53.791  1.00  0.00     0.061 A 
ATOM     26  Cl  UNL     1       4.811  47.139  54.577  1.00  0.00    -0.082 Cl
ATOM     27  Cl  UNL     1      10.219  46.177  51.615  1.00  0.00    -0.083 Cl
ATOM     28  Cl  UNL     1      10.155  47.212  54.694  1.00  0.00    -0.083 Cl
ENDBRANCH  18  20
ENDBRANCH  11  18
ENDBRANCH   6   8
ENDBRANCH   1   6
TORSDOF 7
ENDMDL
MODEL 2
REMARK VINA RESULT:    -8.322      1.197      1.541
REMARK INTER + INTRA:         -12.917
REMARK INTER:                 -12.080
REMARK INTRA:                  -0.837
REMARK UNBOUND:                -1.190
REMARK SMILES CCCCCNc1nc(Nc2cc(Cl)c(Cl)cc2Cl)c2cnn(C)c2n1
REMARK SMILES IDX 5 1 4 2 3 3 2 4 1 5 6 6 7 8 8 9 26 10 9 11 25 12 20 13 23 14
REMARK SMILES IDX 21 15 22 16 24 17 10 18 11 20 12 21 18 22 13 23 17 24 15 25
REMARK SMILES IDX 19 26 14 27 16 28
REMARK H PARENT 6 7 10 19
ROOT
ATOM      1  C   UNL     1       5.684  41.638  49.733  1.00  0.00     0.116 C 
ENDROOT
BRANCH   1   2
ATOM      2  C   UNL     1       5.157  41.150  48.382  1.00  0.00     0.021 C 
BRANCH   2   3
ATOM      3  C   UNL     1       5.773  41.885  47.188  1.00  0.00     0.002 C 
BRANCH   3   4
ATOM      4  C   UNL     1       5.265  41.456  45.809  1.00  0.00    -0.003 C 
ATOM      5  C   UNL     1       5.186  42.596  44.807  1.00  0.00     0.004 C 
ENDBRANCH   3   4
ENDBRANCH   2   3
ENDBRANCH   1   2
BRANCH   1   6
ATOM      6  N   UNL     1       4.648  41.549  50.748  1.00  0.00    -0.354 N 
ATOM      7  H   UNL     1       3.888  40.912  50.532  1.00  0.00     0.163 HD
BRANCH   6   8
ATOM      8  C   UNL     1       4.041  42.745  51.112  1.00  0.00     0.226 A 
ATOM      9  N   UNL     1       4.879  43.798  51.170  1.00  0.00    -0.195 NA
ATOM     10  N   UNL     1       2.730  42.781  51.373  1.00  0.00    -0.193 NA
ATOM     11  C   UNL     1       4.427  45.036  51.499  1.00  0.00     0.147 A 
ATOM     12  C   UNL     1       2.296  44.006  51.698  1.00  0.00     0.165 A 
ATOM     13  C   UNL     1       3.060  45.153  51.782  1.00  0.00     0.082 A 
ATOM     14  N   UNL     1       1.018  44.378  52.009  1.00  0.00    -0.250 N 
ATOM     15  C   UNL     1       2.141  46.157  52.156  1.00  0.00     0.149 A 
ATOM     16  N   UNL     1       0.895  45.694  52.301  1.00  0.00    -0.179 NA
ATOM     17  C   UNL     1      -0.147  43.530  52.048  1.00  0.00     0.176 C 
BRANCH  11  18
ATOM     18  N   UNL     1       5.284  46.142  51.567  1.00  0.00    -0.338 N 
ATOM     19  H   UNL     1       4.977  46.936  51.015  1.00  0.00     0.168 HD
BRANCH  18  20
ATOM     20  C   UNL     1       6.485  46.389  52.264  1.00  0.00     0.060 A 
ATOM     21  C   UNL     1       7.753  46.195  51.704  1.00  0.00     0.049 A 
ATOM     22  C   UNL     1       6.429  46.844  53.600  1.00  0.00     0.066 A 
ATOM     23  C   UNL     1       8.922  46.438  52.440  1.00  0.00     0.061 A 
ATOM     24  C   UNL     1       7.586  47.091  54.343  1.00  0.00     0.044 A 
ATOM     25  C   UNL     1       8.836  46.886  53.761  1.00  0.00     0.061 A 
ATOM     26  Cl  UNL     1       4.899  47.112  54.371  1.00  0.00    -0.082 Cl
ATOM     27  Cl  UNL     1      10.438  46.165  51.656  1.00  0.00    -0.083 Cl
ATOM     28  Cl  UNL     1      10.233  47.205  54.727  1.00  0.00    -0.083 Cl
ENDBRANCH  18  20
ENDBRANCH  11  18
ENDBRANCH   6   8
ENDBRANCH   1   6
TORSDOF 7
ENDMDL
MODEL 3
REMARK VINA RESULT:    -8.225      2.473      6.219
REMARK INTER + INTRA:         -12.781
REMARK INTER:                 -12.002
REMARK INTRA:                  -0.778
REMARK UNBOUND:                -1.190
REMARK SMILES CCCCCNc1nc(Nc2cc(Cl)c(Cl)cc2Cl)c2cnn(C)c2n1
REMARK SMILES IDX 5 1 4 2 3 3 2 4 1 5 6 6 7 8 8 9 26 10 9 11 25 12 20 13 23 14
REMARK SMILES IDX 21 15 22 16 24 17 10 18 11 20 12 21 18 22 13 23 17 24 15 25
REMARK SMILES IDX 19 26 14 27 16 28
REMARK H PARENT 6 7 10 19
ROOT
ATOM      1  C   UNL     1       8.159  47.074  51.895  1.00  0.00     0.116 C 
ENDROOT
BRANCH   1   2
ATOM      2  C   UNL     1       9.664  46.987  52.158  1.00  0.00     0.021 C 
BRANCH   2   3
ATOM      3  C   UNL     1      10.008  46.569  53.591  1.00  0.00     0.002 C 
BRANCH   3   4
ATOM      4  C   UNL     1       9.685  47.597  54.678  1.00  0.00    -0.003 C 
ATOM      5  C   UNL     1      10.658  47.575  55.845  1.00  0.00     0.004 C 
ENDBRANCH   3   4
ENDBRANCH   2   3
ENDBRANCH   1   2
BRANCH   1   6
ATOM      6  N   UNL     1       7.802  46.314  50.710  1.00  0.00    -0.354 N 
ATOM      7  H   UNL     1       7.594  46.870  49.887  1.00  0.00     0.163 HD
BRANCH   6   8
ATOM      8  C   UNL     1       6.736  45.433  50.844  1.00  0.00     0.226 A 
ATOM      9  N   UNL     1       5.623  45.983  51.367  1.00  0.00    -0.195 NA
ATOM     10  N   UNL     1       6.868  44.156  50.470  1.00  0.00    -0.193 NA
ATOM     11  C   UNL     1       4.495  45.247  51.545  1.00  0.00     0.147 A 
ATOM     12  C   UNL     1       5.750  43.440  50.652  1.00  0.00     0.165 A 
ATOM     13  C   UNL     1       4.556  43.900  51.171  1.00  0.00     0.082 A 
ATOM     14  N   UNL     1       5.555  42.118  50.364  1.00  0.00    -0.250 N 
ATOM     15  C   UNL     1       3.712  42.768  51.154  1.00  0.00     0.149 A 
ATOM     16  N   UNL     1       4.313  41.677  50.668  1.00  0.00    -0.179 NA
ATOM     17  C   UNL     1       6.513  41.205  49.791  1.00  0.00     0.176 C 
BRANCH  11  18
ATOM     18  N   UNL     1       3.329  45.801  52.090  1.00  0.00    -0.338 N 
ATOM     19  H   UNL     1       2.904  46.519  51.512  1.00  0.00     0.168 HD
BRANCH  18  20
ATOM     20  C   UNL     1       2.608  45.554  53.277  1.00  0.00     0.060 A 
ATOM     21  C   UNL     1       1.398  44.850  53.310  1.00  0.00     0.049 A 
ATOM     22  C   UNL     1       3.107  46.043  54.504  1.00  0.00     0.066 A 
ATOM     23  C   UNL     1       0.708  44.642  54.513  1.00  0.00     0.061 A 
ATOM     24  C   UNL     1       2.429  45.841  55.708  1.00  0.00     0.044 A 
ATOM     25  C   UNL     1       1.225  45.139  55.712  1.00  0.00     0.061 A 
ATOM     26  Cl  UNL     1       4.600  46.924  54.554  1.00  0.00    -0.082 Cl
ATOM     27  Cl  UNL     1      -0.779  43.762  54.444  1.00  0.00    -0.083 Cl
ATOM     28  Cl  UNL     1       0.428  44.920  57.229  1.00  0.00    -0.083 Cl
ENDBRANCH  18  20
ENDBRANCH  11  18
ENDBRANCH   6   8
ENDBRANCH   1   6
TORSDOF 7
ENDMDL
MODEL 4
REMARK VINA RESULT:    -8.218      3.159      7.055
REMARK INTER + INTRA:         -12.770
REMARK INTER:                 -11.707
REMARK INTRA:                  -1.063
REMARK UNBOUND:                -1.190
REMARK SMILES CCCCCNc1nc(Nc2cc(Cl)c(Cl)cc2Cl)c2cnn(C)c2n1
REMARK SMILES IDX 5 1 4 2 3 3 2 4 1 5 6 6 7 8 8 9 26 10 9 11 25 12 20 13 23 14
REMARK SMILES IDX 21 15 22 16 24 17 10 18 11 20 12 21 18 22 13 23 17 24 15 25
REMARK SMILES IDX 19 26 14 27 16 28
REMARK H PARENT 6 7 10 19
ROOT
ATOM      1  C   UNL     1       4.092  45.669  55.463  1.00  0.00     0.116 C 
ENDROOT
BRANCH   1   2
ATOM      2  C   UNL     1       2.620  45.675  55.041  1.00  0.00     0.021 C 
BRANCH   2   3
ATOM      3  C   UNL     1       2.386  45.091  53.645  1.00  0.00     0.002 C 
BRANCH   3   4
ATOM      4  C   UNL     1       1.783  46.051  52.616  1.00  0.00    -0.003 C 
ATOM      5  C   UNL     1       2.818  46.716  51.724  1.00  0.00     0.004 C 
ENDBRANCH   3   4
ENDBRANCH   2   3
ENDBRANCH   1   2
BRANCH   1   6
ATOM      6  N   UNL     1       4.743  46.903  55.060  1.00  0.00    -0.354 N 
ATOM      7  H   UNL     1       4.172  47.531  54.505  1.00  0.00     0.163 HD
BRANCH   6   8
ATOM      8  C   UNL     1       5.936  46.767  54.360  1.00  0.00     0.226 A 
ATOM      9  N   UNL     1       5.811  46.160  53.164  1.00  0.00    -0.195 NA
ATOM     10  N   UNL     1       7.080  47.218  54.886  1.00  0.00    -0.193 NA
ATOM     11  C   UNL     1       6.889  45.969  52.360  1.00  0.00     0.147 A 
ATOM     12  C   UNL     1       8.136  47.021  54.085  1.00  0.00     0.165 A 
ATOM     13  C   UNL     1       8.124  46.421  52.842  1.00  0.00     0.082 A 
ATOM     14  N   UNL     1       9.435  47.374  54.324  1.00  0.00    -0.250 N 
ATOM     15  C   UNL     1       9.472  46.459  52.425  1.00  0.00     0.149 A 
ATOM     16  N   UNL     1      10.279  47.034  53.322  1.00  0.00    -0.179 NA
ATOM     17  C   UNL     1       9.951  48.043  55.492  1.00  0.00     0.176 C 
BRANCH  11  18
ATOM     18  N   UNL     1       6.780  45.337  51.114  1.00  0.00    -0.338 N 
ATOM     19  H   UNL     1       7.328  45.775  50.380  1.00  0.00     0.168 HD
BRANCH  18  20
ATOM     20  C   UNL     1       6.074  44.201  50.668  1.00  0.00     0.060 A 
ATOM     21  C   UNL     1       4.814  43.836  51.160  1.00  0.00     0.049 A 
ATOM     22  C   UNL     1       6.652  43.367  49.686  1.00  0.00     0.066 A 
ATOM     23  C   UNL     1       4.155  42.687  50.698  1.00  0.00     0.061 A 
ATOM     24  C   UNL     1       6.005  42.221  49.218  1.00  0.00     0.044 A 
ATOM     25  C   UNL     1       4.753  41.880  49.727  1.00  0.00     0.061 A 
ATOM     26  Cl  UNL     1       8.209  43.746  49.022  1.00  0.00    -0.082 Cl
ATOM     27  Cl  UNL     1       2.605  42.325  51.372  1.00  0.00    -0.083 Cl
ATOM     28  Cl  UNL     1       4.000  40.451  49.114  1.00  0.00    -0.083 Cl
ENDBRANCH  18  20
ENDBRANCH  11  18
ENDBRANCH   6   8
ENDBRANCH   1   6
TORSDOF 7
ENDMDL
MODEL 5
REMARK VINA RESULT:    -8.111      2.684      5.030
REMARK INTER + INTRA:         -12.619
REMARK INTER:                 -11.935
REMARK INTRA:                  -0.685
REMARK UNBOUND:                -1.190
REMARK SMILES CCCCCNc1nc(Nc2cc(Cl)c(Cl)cc2Cl)c2cnn(C)c2n1
REMARK SMILES IDX 5 1 4 2 3 3 2 4 1 5 6 6 7 8 8 9 26 10 9 11 25 12 20 13 23 14
REMARK SMILES IDX 21 15 22 16 24 17 10 18 11 20 12 21 18 22 13 23 17 24 15 25
REMARK SMILES IDX 19 26 14 27 16 28
REMARK H PARENT 6 7 10 19
ROOT
ATOM      1  C   UNL     1       5.385  45.712  55.502  1.00  0.00     0.116 C 
ENDROOT
BRANCH   1   2
ATOM      2  C   UNL     1       6.064  46.800  54.666  1.00  0.00     0.021 C 
BRANCH   2   3
ATOM      3  C   UNL     1       7.447  46.394  54.148  1.00  0.00     0.002 C 
BRANCH   3   4
ATOM      4  C   UNL     1       8.514  47.492  54.173  1.00  0.00    -0.003 C 
ATOM      5  C   UNL     1       9.797  47.110  53.455  1.00  0.00     0.004 C 
ENDBRANCH   3   4
ENDBRANCH   2   3
ENDBRANCH   1   2
BRANCH   1   6
ATOM      6  N   UNL     1       3.983  46.028  55.710  1.00  0.00    -0.354 N 
ATOM      7  H   UNL     1       3.675  46.008  56.677  1.00  0.00     0.163 HD
BRANCH   6   8
ATOM      8  C   UNL     1       3.069  45.247  55.012  1.00  0.00     0.226 A 
ATOM      9  N   UNL     1       3.574  44.645  53.918  1.00  0.00    -0.195 NA
ATOM     10  N   UNL     1       1.806  45.146  55.440  1.00  0.00    -0.193 NA
ATOM     11  C   UNL     1       2.803  43.839  53.143  1.00  0.00     0.147 A 
ATOM     12  C   UNL     1       1.055  44.350  54.667  1.00  0.00     0.165 A 
ATOM     13  C   UNL     1       1.467  43.680  53.533  1.00  0.00     0.082 A 
ATOM     14  N   UNL     1      -0.265  44.034  54.837  1.00  0.00    -0.250 N 
ATOM     15  C   UNL     1       0.313  42.994  53.096  1.00  0.00     0.149 A 
ATOM     16  N   UNL     1      -0.748  43.206  53.881  1.00  0.00    -0.179 NA
ATOM     17  C   UNL     1      -1.135  44.484  55.894  1.00  0.00     0.176 C 
BRANCH  11  18
ATOM     18  N   UNL     1       3.309  43.206  52.000  1.00  0.00    -0.338 N 
ATOM     19  H   UNL     1       2.697  42.493  51.618  1.00  0.00     0.168 HD
BRANCH  18  20
ATOM     20  C   UNL     1       4.496  43.368  51.255  1.00  0.00     0.060 A 
ATOM     21  C   UNL     1       5.306  44.507  51.337  1.00  0.00     0.049 A 
ATOM     22  C   UNL     1       4.899  42.348  50.365  1.00  0.00     0.066 A 
ATOM     23  C   UNL     1       6.470  44.632  50.565  1.00  0.00     0.061 A 
ATOM     24  C   UNL     1       6.057  42.461  49.592  1.00  0.00     0.044 A 
ATOM     25  C   UNL     1       6.844  43.607  49.692  1.00  0.00     0.061 A 
ATOM     26  Cl  UNL     1       3.955  40.903  50.203  1.00  0.00    -0.082 Cl
ATOM     27  Cl  UNL     1       7.399  46.079  50.740  1.00  0.00    -0.083 Cl
ATOM     28  Cl  UNL     1       8.263  43.694  48.710  1.00  0.00    -0.083 Cl
ENDBRANCH  18  20
ENDBRANCH  11  18
ENDBRANCH   6   8
ENDBRANCH   1   6
TORSDOF 7
ENDMDL
MODEL 6
REMARK VINA RESULT:    -8.107      4.086      7.210
REMARK INTER + INTRA:         -12.614
REMARK INTER:                 -11.945
REMARK INTRA:                  -0.668
REMARK UNBOUND:                -1.190
REMARK SMILES CCCCCNc1nc(Nc2cc(Cl)c(Cl)cc2Cl)c2cnn(C)c2n1
REMARK SMILES IDX 5 1 4 2 3 3 2 4 1 5 6 6 7 8 8 9 26 10 9 11 25 12 20 13 23 14
REMARK SMILES IDX 21 15 22 16 24 17 10 18 11 20 12 21 18 22 13 23 17 24 15 25
REMARK SMILES IDX 19 26 14 27 16 28
REMARK H PARENT 6 7 10 19
ROOT
ATOM      1  C   UNL     1       7.859  46.681  51.345  1.00  0.00     0.116 C 
ENDROOT
BRANCH   1   2
ATOM      2  C   UNL     1       9.305  47.133  51.566  1.00  0.00     0.021 C 
BRANCH   2   3
ATOM      3  C   UNL     1       9.871  46.715  52.927  1.00  0.00     0.002 C 
BRANCH   3   4
ATOM      4  C   UNL     1       9.490  47.611  54.108  1.00  0.00    -0.003 C 
ATOM      5  C   UNL     1      10.358  47.398  55.338  1.00  0.00     0.004 C 
ENDBRANCH   3   4
ENDBRANCH   2   3
ENDBRANCH   1   2
BRANCH   1   6
ATOM      6  N   UNL     1       7.817  45.497  50.504  1.00  0.00    -0.354 N 
ATOM      7  H   UNL     1       7.823  45.677  49.506  1.00  0.00     0.163 HD
BRANCH   6   8
ATOM      8  C   UNL     1       6.753  44.629  50.721  1.00  0.00     0.226 A 
ATOM      9  N   UNL     1       6.728  43.565  49.896  1.00  0.00    -0.195 NA
ATOM     10  N   UNL     1       5.859  44.889  51.681  1.00  0.00    -0.193 NA
ATOM     11  C   UNL     1       5.754  42.623  49.998  1.00  0.00     0.147 A 
ATOM     12  C   UNL     1       4.903  43.955  51.770  1.00  0.00     0.165 A 
ATOM     13  C   UNL     1       4.784  42.824  50.987  1.00  0.00     0.082 A 
ATOM     14  N   UNL     1       3.856  43.920  52.649  1.00  0.00    -0.250 N 
ATOM     15  C   UNL     1       3.625  42.183  51.476  1.00  0.00     0.149 A 
ATOM     16  N   UNL     1       3.050  42.845  52.486  1.00  0.00    -0.179 NA
ATOM     17  C   UNL     1       3.557  44.882  53.679  1.00  0.00     0.176 C 
BRANCH  11  18
ATOM     18  N   UNL     1       5.710  41.510  49.148  1.00  0.00    -0.338 N 
ATOM     19  H   UNL     1       6.230  40.708  49.490  1.00  0.00     0.168 HD
BRANCH  18  20
ATOM     20  C   UNL     1       5.074  41.265  47.913  1.00  0.00     0.060 A 
ATOM     21  C   UNL     1       5.517  41.805  46.699  1.00  0.00     0.049 A 
ATOM     22  C   UNL     1       3.923  40.448  47.876  1.00  0.00     0.066 A 
ATOM     23  C   UNL     1       4.843  41.548  45.496  1.00  0.00     0.061 A 
ATOM     24  C   UNL     1       3.245  40.183  46.685  1.00  0.00     0.044 A 
ATOM     25  C   UNL     1       3.705  40.736  45.491  1.00  0.00     0.061 A 
ATOM     26  Cl  UNL     1       3.308  39.737  49.334  1.00  0.00    -0.082 Cl
ATOM     27  Cl  UNL     1       5.471  42.265  44.054  1.00  0.00    -0.083 Cl
ATOM     28  Cl  UNL     1       2.826  40.378  44.048  1.00  0.00    -0.083 Cl
ENDBRANCH  18  20
ENDBRANCH  11  18
ENDBRANCH   6   8
ENDBRANCH   1   6
TORSDOF 7
ENDMDL
MODEL 7
REMARK VINA RESULT:    -8.106      3.006      7.039
REMARK INTER + INTRA:         -12.613
REMARK INTER:                 -11.872
REMARK INTRA:                  -0.740
REMARK UNBOUND:                -1.190
REMARK SMILES CCCCCNc1nc(Nc2cc(Cl)c(Cl)cc2Cl)c2cnn(C)c2n1
REMARK SMILES IDX 5 1 4 2 3 3 2 4 1 5 6 6 7 8 8 9 26 10 9 11 25 12 20 13 23 14
REMARK SMILES IDX 21 15 22 16 24 17 10 18 11 20 12 21 18 22 13 23 17 24 15 25
REMARK SMILES IDX 19 26 14 27 16 28
REMARK H PARENT 6 7 10 19
ROOT
ATOM      1  C   UNL     1       6.487  47.015  53.216  1.00  0.00     0.116 C 
ENDROOT
BRANCH   1   2
ATOM      2  C   UNL     1       7.637  47.683  52.457  1.00  0.00     0.021 C 
BRANCH   2   3
ATOM      3  C   UNL     1       8.879  47.919  53.321  1.00  0.00     0.002 C 
BRANCH   3   4
ATOM      4  C   UNL     1       9.922  46.798  53.305  1.00  0.00    -0.003 C 
ATOM      5  C   UNL     1      10.220  46.264  51.914  1.00  0.00     0.004 C 
ENDBRANCH   3   4
ENDBRANCH   2   3
ENDBRANCH   1   2
BRANCH   1   6
ATOM      6  N   UNL     1       5.362  46.775  52.330  1.00  0.00    -0.354 N 
ATOM      7  H   UNL     1       4.468  47.122  52.663  1.00  0.00     0.163 HD
BRANCH   6   8
ATOM      8  C   UNL     1       5.137  45.451  51.970  1.00  0.00     0.226 A 
ATOM      9  N   UNL     1       4.158  44.844  52.668  1.00  0.00    -0.195 NA
ATOM     10  N   UNL     1       5.868  44.884  51.005  1.00  0.00    -0.193 NA
ATOM     11  C   UNL     1       3.816  43.553  52.418  1.00  0.00     0.147 A 
ATOM     12  C   UNL     1       5.523  43.611  50.768  1.00  0.00     0.165 A 
ATOM     13  C   UNL     1       4.536  42.894  51.415  1.00  0.00     0.082 A 
ATOM     14  N   UNL     1       6.067  42.762  49.845  1.00  0.00    -0.250 N 
ATOM     15  C   UNL     1       4.575  41.621  50.804  1.00  0.00     0.149 A 
ATOM     16  N   UNL     1       5.507  41.529  49.850  1.00  0.00    -0.179 NA
ATOM     17  C   UNL     1       7.129  43.056  48.916  1.00  0.00     0.176 C 
BRANCH  11  18
ATOM     18  N   UNL     1       2.802  42.904  53.135  1.00  0.00    -0.338 N 
ATOM     19  H   UNL     1       3.121  42.095  53.658  1.00  0.00     0.168 HD
BRANCH  18  20
ATOM     20  C   UNL     1       1.424  43.154  53.296  1.00  0.00     0.060 A 
ATOM     21  C   UNL     1       0.441  42.616  52.457  1.00  0.00     0.049 A 
ATOM     22  C   UNL     1       0.990  43.998  54.342  1.00  0.00     0.066 A 
ATOM     23  C   UNL     1      -0.918  42.905  52.645  1.00  0.00     0.061 A 
ATOM     24  C   UNL     1      -0.361  44.292  54.540  1.00  0.00     0.044 A 
ATOM     25  C   UNL     1      -1.318  43.745  53.688  1.00  0.00     0.061 A 
ATOM     26  Cl  UNL     1       2.141  44.706  55.430  1.00  0.00    -0.082 Cl
ATOM     27  Cl  UNL     1      -2.051  42.190  51.551  1.00  0.00    -0.083 Cl
ATOM     28  Cl  UNL     1      -2.973  44.145  53.977  1.00  0.00    -0.083 Cl
ENDBRANCH  18  20
ENDBRANCH  11  18
ENDBRANCH   6   8
ENDBRANCH   1   6
TORSDOF 7
ENDMDL
MODEL 8
REMARK VINA RESULT:    -8.057      2.792      6.083
REMARK INTER + INTRA:         -12.543
REMARK INTER:                 -11.305
REMARK INTRA:                  -1.239
REMARK UNBOUND:                -1.190
REMARK SMILES CCCCCNc1nc(Nc2cc(Cl)c(Cl)cc2Cl)c2cnn(C)c2n1
REMARK SMILES IDX 5 1 4 2 3 3 2 4 1 5 6 6 7 8 8 9 26 10 9 11 25 12 20 13 23 14
REMARK SMILES IDX 21 15 22 16 24 17 10 18 11 20 12 21 18 22 13 23 17 24 15 25
REMARK SMILES IDX 19 26 14 27 16 28
REMARK H PARENT 6 7 10 19
ROOT
ATOM      1  C   UNL     1       7.875  43.721  49.552  1.00  0.00     0.116 C 
ENDROOT
BRANCH   1   2
ATOM      2  C   UNL     1       6.627  42.961  49.096  1.00  0.00     0.021 C 
BRANCH   2   3
ATOM      3  C   UNL     1       6.207  41.848  50.062  1.00  0.00     0.002 C 
BRANCH   3   4
ATOM      4  C   UNL     1       4.821  42.006  50.694  1.00  0.00    -0.003 C 
ATOM      5  C   UNL     1       3.757  41.130  50.054  1.00  0.00     0.004 C 
ENDBRANCH   3   4
ENDBRANCH   2   3
ENDBRANCH   1   2
BRANCH   1   6
ATOM      6  N   UNL     1       7.616  45.150  49.591  1.00  0.00    -0.354 N 
ATOM      7  H   UNL     1       8.354  45.733  49.210  1.00  0.00     0.163 HD
BRANCH   6   8
ATOM      8  C   UNL     1       7.326  45.686  50.841  1.00  0.00     0.226 A 
ATOM      9  N   UNL     1       6.010  45.805  51.102  1.00  0.00    -0.195 NA
ATOM     10  N   UNL     1       8.316  46.038  51.667  1.00  0.00    -0.193 NA
ATOM     11  C   UNL     1       5.574  46.301  52.289  1.00  0.00     0.147 A 
ATOM     12  C   UNL     1       7.874  46.527  52.833  1.00  0.00     0.165 A 
ATOM     13  C   UNL     1       6.555  46.686  53.210  1.00  0.00     0.082 A 
ATOM     14  N   UNL     1       8.626  46.963  53.889  1.00  0.00    -0.250 N 
ATOM     15  C   UNL     1       6.629  47.233  54.510  1.00  0.00     0.149 A 
ATOM     16  N   UNL     1       7.886  47.409  54.930  1.00  0.00    -0.179 NA
ATOM     17  C   UNL     1      10.064  46.985  53.978  1.00  0.00     0.176 C 
BRANCH  11  18
ATOM     18  N   UNL     1       4.209  46.435  52.578  1.00  0.00    -0.338 N 
ATOM     19  H   UNL     1       3.893  47.397  52.638  1.00  0.00     0.168 HD
BRANCH  18  20
ATOM     20  C   UNL     1       3.172  45.502  52.789  1.00  0.00     0.060 A 
ATOM     21  C   UNL     1       2.522  44.826  51.748  1.00  0.00     0.049 A 
ATOM     22  C   UNL     1       2.744  45.229  54.106  1.00  0.00     0.066 A 
ATOM     23  C   UNL     1       1.485  43.918  52.004  1.00  0.00     0.061 A 
ATOM     24  C   UNL     1       1.712  44.326  54.373  1.00  0.00     0.044 A 
ATOM     25  C   UNL     1       1.080  43.669  53.318  1.00  0.00     0.061 A 
ATOM     26  Cl  UNL     1       3.495  46.020  55.454  1.00  0.00    -0.082 Cl
ATOM     27  Cl  UNL     1       0.747  43.140  50.648  1.00  0.00    -0.083 Cl
ATOM     28  Cl  UNL     1      -0.190  42.565  53.706  1.00  0.00    -0.083 Cl
ENDBRANCH  18  20
ENDBRANCH  11  18
ENDBRANCH   6   8
ENDBRANCH   1   6
TORSDOF 7
ENDMDL
MODEL 9
REMARK VINA RESULT:    -8.017      3.469      6.959
REMARK INTER + INTRA:         -12.487
REMARK INTER:                 -11.791
REMARK INTRA:                  -0.696
REMARK UNBOUND:                -1.190
REMARK SMILES CCCCCNc1nc(Nc2cc(Cl)c(Cl)cc2Cl)c2cnn(C)c2n1
REMARK SMILES IDX 5 1 4 2 3 3 2 4 1 5 6 6 7 8 8 9 26 10 9 11 25 12 20 13 23 14
REMARK SMILES IDX 21 15 22 16 24 17 10 18 11 20 12 21 18 22 13 23 17 24 15 25
REMARK SMILES IDX 19 26 14 27 16 28
REMARK H PARENT 6 7 10 19
ROOT
ATOM      1  C   UNL     1       6.933  47.134  53.105  1.00  0.00     0.116 C 
ENDROOT
BRANCH   1   2
ATOM      2  C   UNL     1       7.959  47.971  52.338  1.00  0.00     0.021 C 
BRANCH   2   3
ATOM      3  C   UNL     1       9.208  47.182  51.934  1.00  0.00     0.002 C 
BRANCH   3   4
ATOM      4  C   UNL     1       9.869  46.369  53.050  1.00  0.00    -0.003 C 
ATOM      5  C   UNL     1      10.139  47.173  54.311  1.00  0.00     0.004 C 
ENDBRANCH   3   4
ENDBRANCH   2   3
ENDBRANCH   1   2
BRANCH   1   6
ATOM      6  N   UNL     1       5.725  46.959  52.317  1.00  0.00    -0.354 N 
ATOM      7  H   UNL     1       4.883  47.351  52.726  1.00  0.00     0.163 HD
BRANCH   6   8
ATOM      8  C   UNL     1       5.399  45.651  51.976  1.00  0.00     0.226 A 
ATOM      9  N   UNL     1       4.373  45.133  52.677  1.00  0.00    -0.195 NA
ATOM     10  N   UNL     1       6.089  45.014  51.024  1.00  0.00    -0.193 NA
ATOM     11  C   UNL     1       3.933  43.869  52.444  1.00  0.00     0.147 A 
ATOM     12  C   UNL     1       5.647  43.768  50.805  1.00  0.00     0.165 A 
ATOM     13  C   UNL     1       4.604  43.140  51.455  1.00  0.00     0.082 A 
ATOM     14  N   UNL     1       6.128  42.865  49.897  1.00  0.00    -0.250 N 
ATOM     15  C   UNL     1       4.547  41.859  50.865  1.00  0.00     0.149 A 
ATOM     16  N   UNL     1       5.474  41.681  49.917  1.00  0.00    -0.179 NA
ATOM     17  C   UNL     1       7.214  43.062  48.970  1.00  0.00     0.176 C 
BRANCH  11  18
ATOM     18  N   UNL     1       2.868  43.312  53.166  1.00  0.00    -0.338 N 
ATOM     19  H   UNL     1       3.062  42.388  53.539  1.00  0.00     0.168 HD
BRANCH  18  20
ATOM     20  C   UNL     1       1.579  43.779  53.497  1.00  0.00     0.060 A 
ATOM     21  C   UNL     1       1.243  44.276  54.762  1.00  0.00     0.049 A 
ATOM     22  C   UNL     1       0.558  43.741  52.522  1.00  0.00     0.066 A 
ATOM     23  C   UNL     1      -0.057  44.715  55.051  1.00  0.00     0.061 A 
ATOM     24  C   UNL     1      -0.740  44.177  52.798  1.00  0.00     0.044 A 
ATOM     25  C   UNL     1      -1.049  44.664  54.067  1.00  0.00     0.061 A 
ATOM     26  Cl  UNL     1       0.889  43.142  50.929  1.00  0.00    -0.082 Cl
ATOM     27  Cl  UNL     1      -0.369  45.308  56.645  1.00  0.00    -0.083 Cl
ATOM     28  Cl  UNL     1      -2.670  45.187  54.354  1.00  0.00    -0.083 Cl
ENDBRANCH  18  20
ENDBRANCH  11  18
ENDBRANCH   6   8
ENDBRANCH   1   6
TORSDOF 7
ENDMDL
MODEL 10
REMARK VINA RESULT:    -7.958      2.737      5.220
REMARK INTER + INTRA:         -12.405
REMARK INTER:                 -11.375
REMARK INTRA:                  -1.030
REMARK UNBOUND:                -1.190
REMARK SMILES CCCCCNc1nc(Nc2cc(Cl)c(Cl)cc2Cl)c2cnn(C)c2n1
REMARK SMILES IDX 5 1 4 2 3 3 2 4 1 5 6 6 7 8 8 9 26 10 9 11 25 12 20 13 23 14
REMARK SMILES IDX 21 15 22 16 24 17 10 18 11 20 12 21 18 22 13 23 17 24 15 25
REMARK SMILES IDX 19 26 14 27 16 28
REMARK H PARENT 6 7 10 19
ROOT
ATOM      1  C   UNL     1       4.425  45.808  55.162  1.00  0.00     0.116 C 
ENDROOT
BRANCH   1   2
ATOM      2  C   UNL     1       4.520  47.233  54.611  1.00  0.00     0.021 C 
BRANCH   2   3
ATOM      3  C   UNL     1       4.561  47.291  53.080  1.00  0.00     0.002 C 
BRANCH   3   4
ATOM      4  C   UNL     1       3.200  47.310  52.380  1.00  0.00    -0.003 C 
ATOM      5  C   UNL     1       3.199  46.608  51.032  1.00  0.00     0.004 C 
ENDBRANCH   3   4
ENDBRANCH   2   3
ENDBRANCH   1   2
BRANCH   1   6
ATOM      6  N   UNL     1       3.077  45.530  55.628  1.00  0.00    -0.354 N 
ATOM      7  H   UNL     1       3.017  45.117  56.552  1.00  0.00     0.163 HD
BRANCH   6   8
ATOM      8  C   UNL     1       2.299  44.722  54.807  1.00  0.00     0.226 A 
ATOM      9  N   UNL     1       2.992  44.066  53.856  1.00  0.00    -0.195 NA
ATOM     10  N   UNL     1       0.978  44.647  54.995  1.00  0.00    -0.193 NA
ATOM     11  C   UNL     1       2.368  43.229  52.987  1.00  0.00     0.147 A 
ATOM     12  C   UNL     1       0.373  43.820  54.132  1.00  0.00     0.165 A 
ATOM     13  C   UNL     1       0.981  43.095  53.126  1.00  0.00     0.082 A 
ATOM     14  N   UNL     1      -0.959  43.518  54.066  1.00  0.00    -0.250 N 
ATOM     15  C   UNL     1      -0.080  42.394  52.513  1.00  0.00     0.149 A 
ATOM     16  N   UNL     1      -1.266  42.648  53.075  1.00  0.00    -0.179 NA
ATOM     17  C   UNL     1      -2.005  44.021  54.920  1.00  0.00     0.176 C 
BRANCH  11  18
ATOM     18  N   UNL     1       3.071  42.540  51.989  1.00  0.00    -0.338 N 
ATOM     19  H   UNL     1       2.645  41.660  51.717  1.00  0.00     0.168 HD
BRANCH  18  20
ATOM     20  C   UNL     1       4.248  42.828  51.267  1.00  0.00     0.060 A 
ATOM     21  C   UNL     1       5.061  43.937  51.531  1.00  0.00     0.049 A 
ATOM     22  C   UNL     1       4.638  41.975  50.211  1.00  0.00     0.066 A 
ATOM     23  C   UNL     1       6.215  44.192  50.776  1.00  0.00     0.061 A 
ATOM     24  C   UNL     1       5.786  42.218  49.453  1.00  0.00     0.044 A 
ATOM     25  C   UNL     1       6.576  43.331  49.736  1.00  0.00     0.061 A 
ATOM     26  Cl  UNL     1       3.689  40.578  49.818  1.00  0.00    -0.082 Cl
ATOM     27  Cl  UNL     1       7.148  45.589  51.182  1.00  0.00    -0.083 Cl
ATOM     28  Cl  UNL     1       7.982  43.585  48.765  1.00  0.00    -0.083 Cl
ENDBRANCH  18  20
ENDBRANCH  11  18
ENDBRANCH   6   8
ENDBRANCH   1   6
TORSDOF 7
ENDMDL
MODEL 11
REMARK VINA RESULT:    -7.925      2.661      4.818
REMARK INTER + INTRA:         -12.357
REMARK INTER:                 -11.403
REMARK INTRA:                  -0.955
REMARK UNBOUND:                -1.190
REMARK SMILES CCCCCNc1nc(Nc2cc(Cl)c(Cl)cc2Cl)c2cnn(C)c2n1
REMARK SMILES IDX 5 1 4 2 3 3 2 4 1 5 6 6 7 8 8 9 26 10 9 11 25 12 20 13 23 14
REMARK SMILES IDX 21 15 22 16 24 17 10 18 11 20 12 21 18 22 13 23 17 24 15 25
REMARK SMILES IDX 19 26 14 27 16 28
REMARK H PARENT 6 7 10 19
ROOT
ATOM      1  C   UNL     1       5.268  45.559  55.576  1.00  0.00     0.116 C 
ENDROOT
BRANCH   1   2
ATOM      2  C   UNL     1       5.914  46.767  54.893  1.00  0.00     0.021 C 
BRANCH   2   3
ATOM      3  C   UNL     1       6.701  46.402  53.630  1.00  0.00     0.002 C 
BRANCH   3   4
ATOM      4  C   UNL     1       7.044  47.569  52.701  1.00  0.00    -0.003 C 
ATOM      5  C   UNL     1       8.490  47.571  52.234  1.00  0.00     0.004 C 
ENDBRANCH   3   4
ENDBRANCH   2   3
ENDBRANCH   1   2
BRANCH   1   6
ATOM      6  N   UNL     1       3.889  45.850  55.929  1.00  0.00    -0.354 N 
ATOM      7  H   UNL     1       3.645  45.671  56.897  1.00  0.00     0.163 HD
BRANCH   6   8
ATOM      8  C   UNL     1       2.914  45.207  55.174  1.00  0.00     0.226 A 
ATOM      9  N   UNL     1       3.329  44.807  53.957  1.00  0.00    -0.195 NA
ATOM     10  N   UNL     1       1.685  45.034  55.671  1.00  0.00    -0.193 NA
ATOM     11  C   UNL     1       2.490  44.152  53.112  1.00  0.00     0.147 A 
ATOM     12  C   UNL     1       0.867  44.390  54.829  1.00  0.00     0.165 A 
ATOM     13  C   UNL     1       1.184  43.930  53.566  1.00  0.00     0.082 A 
ATOM     14  N   UNL     1      -0.441  44.050  55.039  1.00  0.00    -0.250 N 
ATOM     15  C   UNL     1      -0.009  43.334  53.103  1.00  0.00     0.149 A 
ATOM     16  N   UNL     1      -1.006  43.406  53.991  1.00  0.00    -0.179 NA
ATOM     17  C   UNL     1      -1.224  44.308  56.221  1.00  0.00     0.176 C 
BRANCH  11  18
ATOM     18  N   UNL     1       2.902  43.731  51.840  1.00  0.00    -0.338 N 
ATOM     19  H   UNL     1       2.150  43.368  51.263  1.00  0.00     0.168 HD
BRANCH  18  20
ATOM     20  C   UNL     1       4.151  43.723  51.185  1.00  0.00     0.060 A 
ATOM     21  C   UNL     1       4.845  42.549  50.868  1.00  0.00     0.049 A 
ATOM     22  C   UNL     1       4.757  44.949  50.834  1.00  0.00     0.066 A 
ATOM     23  C   UNL     1       6.094  42.589  50.230  1.00  0.00     0.061 A 
ATOM     24  C   UNL     1       5.999  45.002  50.197  1.00  0.00     0.044 A 
ATOM     25  C   UNL     1       6.670  43.818  49.896  1.00  0.00     0.061 A 
ATOM     26  Cl  UNL     1       3.964  46.450  51.189  1.00  0.00    -0.082 Cl
ATOM     27  Cl  UNL     1       6.869  41.083  49.885  1.00  0.00    -0.083 Cl
ATOM     28  Cl  UNL     1       8.203  43.942  49.111  1.00  0.00    -0.083 Cl
ENDBRANCH  18  20
ENDBRANCH  11  18
ENDBRANCH   6   8
ENDBRANCH   1   6
TORSDOF 7
ENDMDL
MODEL 12
REMARK VINA RESULT:    -7.908      2.554      5.976
REMARK INTER + INTRA:         -12.334
REMARK INTER:                 -10.968
REMARK INTRA:                  -1.367
REMARK UNBOUND:                -1.190
REMARK SMILES CCCCCNc1nc(Nc2cc(Cl)c(Cl)cc2Cl)c2cnn(C)c2n1
REMARK SMILES IDX 5 1 4 2 3 3 2 4 1 5 6 6 7 8 8 9 26 10 9 11 25 12 20 13 23 14
REMARK SMILES IDX 21 15 22 16 24 17 10 18 11 20 12 21 18 22 13 23 17 24 15 25
REMARK SMILES IDX 19 26 14 27 16 28
REMARK H PARENT 6 7 10 19
ROOT
ATOM      1  C   UNL     1       6.499  42.168  49.931  1.00  0.00     0.116 C 
ENDROOT
BRANCH   1   2
ATOM      2  C   UNL     1       5.277  41.387  49.439  1.00  0.00     0.021 C 
BRANCH   2   3
ATOM      3  C   UNL     1       4.207  41.191  50.518  1.00  0.00     0.002 C 
BRANCH   3   4
ATOM      4  C   UNL     1       3.461  42.457  50.949  1.00  0.00    -0.003 C 
ATOM      5  C   UNL     1       3.285  42.576  52.454  1.00  0.00     0.004 C 
ENDBRANCH   3   4
ENDBRANCH   2   3
ENDBRANCH   1   2
BRANCH   1   6
ATOM      6  N   UNL     1       6.540  43.486  49.322  1.00  0.00    -0.354 N 
ATOM      7  H   UNL     1       7.214  43.593  48.571  1.00  0.00     0.163 HD
BRANCH   6   8
ATOM      8  C   UNL     1       6.770  44.552  50.184  1.00  0.00     0.226 A 
ATOM      9  N   UNL     1       5.652  45.122  50.673  1.00  0.00    -0.195 NA
ATOM     10  N   UNL     1       8.021  44.934  50.461  1.00  0.00    -0.193 NA
ATOM     11  C   UNL     1       5.719  46.167  51.539  1.00  0.00     0.147 A 
ATOM     12  C   UNL     1       8.075  45.966  51.314  1.00  0.00     0.165 A 
ATOM     13  C   UNL     1       6.999  46.620  51.882  1.00  0.00     0.082 A 
ATOM     14  N   UNL     1       9.194  46.582  51.802  1.00  0.00    -0.250 N 
ATOM     15  C   UNL     1       7.586  47.617  52.690  1.00  0.00     0.149 A 
ATOM     16  N   UNL     1       8.922  47.605  52.645  1.00  0.00    -0.179 NA
ATOM     17  C   UNL     1      10.565  46.248  51.508  1.00  0.00     0.176 C 
BRANCH  11  18
ATOM     18  N   UNL     1       4.568  46.774  52.057  1.00  0.00    -0.338 N 
ATOM     19  H   UNL     1       4.512  47.772  51.879  1.00  0.00     0.168 HD
BRANCH  18  20
ATOM     20  C   UNL     1       3.452  46.280  52.765  1.00  0.00     0.060 A 
ATOM     21  C   UNL     1       2.200  46.066  52.175  1.00  0.00     0.049 A 
ATOM     22  C   UNL     1       3.579  45.990  54.141  1.00  0.00     0.066 A 
ATOM     23  C   UNL     1       1.114  45.588  52.922  1.00  0.00     0.061 A 
ATOM     24  C   UNL     1       2.504  45.512  54.895  1.00  0.00     0.044 A 
ATOM     25  C   UNL     1       1.268  45.312  54.284  1.00  0.00     0.061 A 
ATOM     26  Cl  UNL     1       5.095  46.225  54.950  1.00  0.00    -0.082 Cl
ATOM     27  Cl  UNL     1      -0.389  45.361  52.100  1.00  0.00    -0.083 Cl
ATOM     28  Cl  UNL     1      -0.026  44.721  55.264  1.00  0.00    -0.083 Cl
ENDBRANCH  18  20
ENDBRANCH  11  18
ENDBRANCH   6   8
ENDBRANCH   1   6
TORSDOF 7
ENDMDL
MODEL 13
REMARK VINA RESULT:    -7.895      1.425      1.915
REMARK INTER + INTRA:         -12.316
REMARK INTER:                 -11.710
REMARK INTRA:                  -0.606
REMARK UNBOUND:                -1.190
REMARK SMILES CCCCCNc1nc(Nc2cc(Cl)c(Cl)cc2Cl)c2cnn(C)c2n1
REMARK SMILES IDX 5 1 4 2 3 3 2 4 1 5 6 6 7 8 8 9 26 10 9 11 25 12 20 13 23 14
REMARK SMILES IDX 21 15 22 16 24 17 10 18 11 20 12 21 18 22 13 23 17 24 15 25
REMARK SMILES IDX 19 26 14 27 16 28
REMARK H PARENT 6 7 10 19
ROOT
ATOM      1  C   UNL     1       3.759  41.700  50.156  1.00  0.00     0.116 C 
ENDROOT
BRANCH   1   2
ATOM      2  C   UNL     1       5.041  41.178  49.502  1.00  0.00     0.021 C 
BRANCH   2   3
ATOM      3  C   UNL     1       5.899  42.284  48.880  1.00  0.00     0.002 C 
BRANCH   3   4
ATOM      4  C   UNL     1       7.100  42.740  49.712  1.00  0.00    -0.003 C 
ATOM      5  C   UNL     1       8.090  43.592  48.935  1.00  0.00     0.004 C 
ENDBRANCH   3   4
ENDBRANCH   2   3
ENDBRANCH   1   2
BRANCH   1   6
ATOM      6  N   UNL     1       3.842  41.592  51.602  1.00  0.00    -0.354 N 
ATOM      7  H   UNL     1       3.397  40.772  51.999  1.00  0.00     0.163 HD
BRANCH   6   8
ATOM      8  C   UNL     1       3.351  42.671  52.327  1.00  0.00     0.226 A 
ATOM      9  N   UNL     1       4.238  43.668  52.510  1.00  0.00    -0.195 NA
ATOM     10  N   UNL     1       2.092  42.659  52.780  1.00  0.00    -0.193 NA
ATOM     11  C   UNL     1       3.896  44.794  53.188  1.00  0.00     0.147 A 
ATOM     12  C   UNL     1       1.767  43.774  53.449  1.00  0.00     0.165 A 
ATOM     13  C   UNL     1       2.590  44.856  53.690  1.00  0.00     0.082 A 
ATOM     14  N   UNL     1       0.565  44.075  54.025  1.00  0.00    -0.250 N 
ATOM     15  C   UNL     1       1.782  45.750  54.425  1.00  0.00     0.149 A 
ATOM     16  N   UNL     1       0.547  45.281  54.638  1.00  0.00    -0.179 NA
ATOM     17  C   UNL     1      -0.622  43.258  54.031  1.00  0.00     0.176 C 
BRANCH  11  18
ATOM     18  N   UNL     1       4.806  45.840  53.392  1.00  0.00    -0.338 N 
ATOM     19  H   UNL     1       4.430  46.615  53.928  1.00  0.00     0.168 HD
BRANCH  18  20
ATOM     20  C   UNL     1       6.153  46.032  53.018  1.00  0.00     0.060 A 
ATOM     21  C   UNL     1       7.176  46.293  53.937  1.00  0.00     0.049 A 
ATOM     22  C   UNL     1       6.507  45.976  51.653  1.00  0.00     0.066 A 
ATOM     23  C   UNL     1       8.499  46.494  53.518  1.00  0.00     0.061 A 
ATOM     24  C   UNL     1       7.821  46.173  51.223  1.00  0.00     0.044 A 
ATOM     25  C   UNL     1       8.820  46.434  52.159  1.00  0.00     0.061 A 
ATOM     26  Cl  UNL     1       5.301  45.656  50.448  1.00  0.00    -0.082 Cl
ATOM     27  Cl  UNL     1       9.688  46.812  54.733  1.00  0.00    -0.083 Cl
ATOM     28  Cl  UNL     1      10.427  46.672  51.572  1.00  0.00    -0.083 Cl
ENDBRANCH  18  20
ENDBRANCH  11  18
ENDBRANCH   6   8
ENDBRANCH   1   6
TORSDOF 7
ENDMDL
MODEL 14
REMARK VINA RESULT:    -7.874      2.712      6.606
REMARK INTER + INTRA:         -12.286
REMARK INTER:                 -11.589
REMARK INTRA:                  -0.697
REMARK UNBOUND:                -1.190
REMARK SMILES CCCCCNc1nc(Nc2cc(Cl)c(Cl)cc2Cl)c2cnn(C)c2n1
REMARK SMILES IDX 5 1 4 2 3 3 2 4 1 5 6 6 7 8 8 9 26 10 9 11 25 12 20 13 23 14
REMARK SMILES IDX 21 15 22 16 24 17 10 18 11 20 12 21 18 22 13 23 17 24 15 25
REMARK SMILES IDX 19 26 14 27 16 28
REMARK H PARENT 6 7 10 19
ROOT
ATOM      1  C   UNL     1       8.050  46.134  51.251  1.00  0.00     0.116 C 
ENDROOT
BRANCH   1   2
ATOM      2  C   UNL     1       9.166  47.133  51.567  1.00  0.00     0.021 C 
BRANCH   2   3
ATOM      3  C   UNL     1       9.922  46.809  52.860  1.00  0.00     0.002 C 
BRANCH   3   4
ATOM      4  C   UNL     1       9.436  47.540  54.114  1.00  0.00    -0.003 C 
ATOM      5  C   UNL     1      10.379  47.410  55.299  1.00  0.00     0.004 C 
ENDBRANCH   3   4
ENDBRANCH   2   3
ENDBRANCH   1   2
BRANCH   1   6
ATOM      6  N   UNL     1       6.783  46.597  51.790  1.00  0.00    -0.354 N 
ATOM      7  H   UNL     1       6.812  46.902  52.758  1.00  0.00     0.163 HD
BRANCH   6   8
ATOM      8  C   UNL     1       5.720  45.704  51.712  1.00  0.00     0.226 A 
ATOM      9  N   UNL     1       4.545  46.201  52.143  1.00  0.00    -0.195 NA
ATOM     10  N   UNL     1       5.915  44.468  51.242  1.00  0.00    -0.193 NA
ATOM     11  C   UNL     1       3.414  45.448  52.113  1.00  0.00     0.147 A 
ATOM     12  C   UNL     1       4.794  43.735  51.220  1.00  0.00     0.165 A 
ATOM     13  C   UNL     1       3.539  44.141  51.628  1.00  0.00     0.082 A 
ATOM     14  N   UNL     1       4.655  42.444  50.790  1.00  0.00    -0.250 N 
ATOM     15  C   UNL     1       2.720  43.013  51.405  1.00  0.00     0.149 A 
ATOM     16  N   UNL     1       3.390  41.973  50.899  1.00  0.00    -0.179 NA
ATOM     17  C   UNL     1       5.687  41.591  50.259  1.00  0.00     0.176 C 
BRANCH  11  18
ATOM     18  N   UNL     1       2.182  45.946  52.560  1.00  0.00    -0.338 N 
ATOM     19  H   UNL     1       1.935  46.848  52.166  1.00  0.00     0.168 HD
BRANCH  18  20
ATOM     20  C   UNL     1       1.200  45.441  53.437  1.00  0.00     0.060 A 
ATOM     21  C   UNL     1      -0.060  45.004  53.011  1.00  0.00     0.049 A 
ATOM     22  C   UNL     1       1.474  45.377  54.820  1.00  0.00     0.066 A 
ATOM     23  C   UNL     1      -1.013  44.524  53.921  1.00  0.00     0.061 A 
ATOM     24  C   UNL     1       0.534  44.900  55.737  1.00  0.00     0.044 A 
ATOM     25  C   UNL     1      -0.714  44.473  55.285  1.00  0.00     0.061 A 
ATOM     26  Cl  UNL     1       3.011  45.897  55.434  1.00  0.00    -0.082 Cl
ATOM     27  Cl  UNL     1      -2.539  44.010  53.292  1.00  0.00    -0.083 Cl
ATOM     28  Cl  UNL     1      -1.838  43.895  56.462  1.00  0.00    -0.083 Cl
ENDBRANCH  18  20
ENDBRANCH  11  18
ENDBRANCH   6   8
ENDBRANCH   1   6
TORSDOF 7
ENDMDL
MODEL 15
REMARK VINA RESULT:    -7.872      1.712      4.672
REMARK INTER + INTRA:         -12.282
REMARK INTER:                 -11.315
REMARK INTRA:                  -0.967
REMARK UNBOUND:                -1.190
REMARK SMILES CCCCCNc1nc(Nc2cc(Cl)c(Cl)cc2Cl)c2cnn(C)c2n1
REMARK SMILES IDX 5 1 4 2 3 3 2 4 1 5 6 6 7 8 8 9 26 10 9 11 25 12 20 13 23 14
REMARK SMILES IDX 21 15 22 16 24 17 10 18 11 20 12 21 18 22 13 23 17 24 15 25
REMARK SMILES IDX 19 26 14 27 16 28
REMARK H PARENT 6 7 10 19
ROOT
ATOM      1  C   UNL     1       0.816  43.149  52.690  1.00  0.00     0.116 C 
ENDROOT
BRANCH   1   2
ATOM      2  C   UNL     1       0.127  43.701  53.940  1.00  0.00     0.021 C 
BRANCH   2   3
ATOM      3  C   UNL     1       0.688  45.051  54.397  1.00  0.00     0.002 C 
BRANCH   3   4
ATOM      4  C   UNL     1       1.502  45.027  55.694  1.00  0.00    -0.003 C 
ATOM      5  C   UNL     1       0.672  45.296  56.938  1.00  0.00     0.004 C 
ENDBRANCH   3   4
ENDBRANCH   2   3
ENDBRANCH   1   2
BRANCH   1   6
ATOM      6  N   UNL     1       2.100  42.562  53.032  1.00  0.00    -0.354 N 
ATOM      7  H   UNL     1       2.411  42.729  53.983  1.00  0.00     0.163 HD
BRANCH   6   8
ATOM      8  C   UNL     1       3.172  42.918  52.221  1.00  0.00     0.226 A 
ATOM      9  N   UNL     1       3.714  44.116  52.512  1.00  0.00    -0.195 NA
ATOM     10  N   UNL     1       3.581  42.096  51.248  1.00  0.00    -0.193 NA
ATOM     11  C   UNL     1       4.778  44.591  51.813  1.00  0.00     0.147 A 
ATOM     12  C   UNL     1       4.628  42.576  50.565  1.00  0.00     0.165 A 
ATOM     13  C   UNL     1       5.266  43.782  50.780  1.00  0.00     0.082 A 
ATOM     14  N   UNL     1       5.284  41.979  49.525  1.00  0.00    -0.250 N 
ATOM     15  C   UNL     1       6.289  43.812  49.807  1.00  0.00     0.149 A 
ATOM     16  N   UNL     1       6.305  42.720  49.035  1.00  0.00    -0.179 NA
ATOM     17  C   UNL     1       4.994  40.695  48.939  1.00  0.00     0.176 C 
BRANCH  11  18
ATOM     18  N   UNL     1       5.354  45.836  52.098  1.00  0.00    -0.338 N 
ATOM     19  H   UNL     1       4.780  46.628  51.827  1.00  0.00     0.168 HD
BRANCH  18  20
ATOM     20  C   UNL     1       6.568  46.220  52.705  1.00  0.00     0.060 A 
ATOM     21  C   UNL     1       7.812  46.116  52.070  1.00  0.00     0.049 A 
ATOM     22  C   UNL     1       6.554  46.727  54.023  1.00  0.00     0.066 A 
ATOM     23  C   UNL     1       8.996  46.495  52.718  1.00  0.00     0.061 A 
ATOM     24  C   UNL     1       7.727  47.109  54.678  1.00  0.00     0.044 A 
ATOM     25  C   UNL     1       8.952  46.991  54.024  1.00  0.00     0.061 A 
ATOM     26  Cl  UNL     1       5.057  46.891  54.882  1.00  0.00    -0.082 Cl
ATOM     27  Cl  UNL     1      10.480  46.324  51.847  1.00  0.00    -0.083 Cl
ATOM     28  Cl  UNL     1      10.370  47.476  54.883  1.00  0.00    -0.083 Cl
ENDBRANCH  18  20
ENDBRANCH  11  18
ENDBRANCH   6   8
ENDBRANCH   1   6
TORSDOF 7
ENDMDL
MODEL 16
REMARK VINA RESULT:    -7.565      3.673      6.402
REMARK INTER + INTRA:         -11.850
REMARK INTER:                 -11.277
REMARK INTRA:                  -0.573
REMARK UNBOUND:                -1.190
REMARK SMILES CCCCCNc1nc(Nc2cc(Cl)c(Cl)cc2Cl)c2cnn(C)c2n1
REMARK SMILES IDX 5 1 4 2 3 3 2 4 1 5 6 6 7 8 8 9 26 10 9 11 25 12 20 13 23 14
REMARK SMILES IDX 21 15 22 16 24 17 10 18 11 20 12 21 18 22 13 23 17 24 15 25
REMARK SMILES IDX 19 26 14 27 16 28
REMARK H PARENT 6 7 10 19
ROOT
ATOM      1  C   UNL     1       0.879  46.036  57.360  1.00  0.00     0.116 C 
ENDROOT
BRANCH   1   2
ATOM      2  C   UNL     1       0.709  47.105  58.442  1.00  0.00     0.021 C 
BRANCH   2   3
ATOM      3  C   UNL     1      -0.746  47.542  58.640  1.00  0.00     0.002 C 
BRANCH   3   4
ATOM      4  C   UNL     1      -0.965  48.688  59.631  1.00  0.00    -0.003 C 
ATOM      5  C   UNL     1      -0.237  48.499  60.952  1.00  0.00     0.004 C 
ENDBRANCH   3   4
ENDBRANCH   2   3
ENDBRANCH   1   2
BRANCH   1   6
ATOM      6  N   UNL     1       2.235  46.050  56.837  1.00  0.00    -0.354 N 
ATOM      7  H   UNL     1       2.703  46.949  56.879  1.00  0.00     0.163 HD
BRANCH   6   8
ATOM      8  C   UNL     1       2.391  45.608  55.528  1.00  0.00     0.226 A 
ATOM      9  N   UNL     1       3.284  46.313  54.807  1.00  0.00    -0.195 NA
ATOM     10  N   UNL     1       1.682  44.566  55.082  1.00  0.00    -0.193 NA
ATOM     11  C   UNL     1       3.553  45.990  53.516  1.00  0.00     0.147 A 
ATOM     12  C   UNL     1       1.954  44.258  53.807  1.00  0.00     0.165 A 
ATOM     13  C   UNL     1       2.851  44.904  52.979  1.00  0.00     0.082 A 
ATOM     14  N   UNL     1       1.411  43.247  53.063  1.00  0.00    -0.250 N 
ATOM     15  C   UNL     1       2.763  44.202  51.757  1.00  0.00     0.149 A 
ATOM     16  N   UNL     1       1.886  43.194  51.797  1.00  0.00    -0.179 NA
ATOM     17  C   UNL     1       0.429  42.285  53.495  1.00  0.00     0.176 C 
BRANCH  11  18
ATOM     18  N   UNL     1       4.476  46.713  52.748  1.00  0.00    -0.338 N 
ATOM     19  H   UNL     1       4.057  47.439  52.175  1.00  0.00     0.168 HD
BRANCH  18  20
ATOM     20  C   UNL     1       5.879  46.653  52.619  1.00  0.00     0.060 A 
ATOM     21  C   UNL     1       6.762  47.203  53.557  1.00  0.00     0.049 A 
ATOM     22  C   UNL     1       6.444  46.021  51.490  1.00  0.00     0.066 A 
ATOM     23  C   UNL     1       8.151  47.133  53.379  1.00  0.00     0.061 A 
ATOM     24  C   UNL     1       7.826  45.944  51.303  1.00  0.00     0.044 A 
ATOM     25  C   UNL     1       8.682  46.503  52.250  1.00  0.00     0.061 A 
ATOM     26  Cl  UNL     1       5.423  45.312  50.281  1.00  0.00    -0.082 Cl
ATOM     27  Cl  UNL     1       9.154  47.846  54.594  1.00  0.00    -0.083 Cl
ATOM     28  Cl  UNL     1      10.382  46.382  51.967  1.00  0.00    -0.083 Cl
ENDBRANCH  18  20
ENDBRANCH  11  18
ENDBRANCH   6   8
ENDBRANCH   1   6
TORSDOF 7
ENDMDL
MODEL 17
REMARK VINA RESULT:    -7.513      3.503      6.638
REMARK INTER + INTRA:         -11.777
REMARK INTER:                 -11.097
REMARK INTRA:                  -0.679
REMARK UNBOUND:                -1.190
REMARK SMILES CCCCCNc1nc(Nc2cc(Cl)c(Cl)cc2Cl)c2cnn(C)c2n1
REMARK SMILES IDX 5 1 4 2 3 3 2 4 1 5 6 6 7 8 8 9 26 10 9 11 25 12 20 13 23 14
REMARK SMILES IDX 21 15 22 16 24 17 10 18 11 20 12 21 18 22 13 23 17 24 15 25
REMARK SMILES IDX 19 26 14 27 16 28
REMARK H PARENT 6 7 10 19
ROOT
ATOM      1  C   UNL     1       8.183  46.035  51.226  1.00  0.00     0.116 C 
ENDROOT
BRANCH   1   2
ATOM      2  C   UNL     1       9.289  47.010  51.637  1.00  0.00     0.021 C 
BRANCH   2   3
ATOM      3  C   UNL     1       9.911  46.686  52.999  1.00  0.00     0.002 C 
BRANCH   3   4
ATOM      4  C   UNL     1       9.446  47.561  54.166  1.00  0.00    -0.003 C 
ATOM      5  C   UNL     1      10.377  47.518  55.367  1.00  0.00     0.004 C 
ENDBRANCH   3   4
ENDBRANCH   2   3
ENDBRANCH   1   2
BRANCH   1   6
ATOM      6  N   UNL     1       6.905  46.451  51.777  1.00  0.00    -0.354 N 
ATOM      7  H   UNL     1       6.951  46.886  52.692  1.00  0.00     0.163 HD
BRANCH   6   8
ATOM      8  C   UNL     1       5.932  45.464  51.882  1.00  0.00     0.226 A 
ATOM      9  N   UNL     1       6.195  44.348  51.176  1.00  0.00    -0.195 NA
ATOM     10  N   UNL     1       4.846  45.669  52.634  1.00  0.00    -0.193 NA
ATOM     11  C   UNL     1       5.341  43.291  51.192  1.00  0.00     0.147 A 
ATOM     12  C   UNL     1       4.010  44.621  52.641  1.00  0.00     0.165 A 
ATOM     13  C   UNL     1       4.181  43.430  51.965  1.00  0.00     0.082 A 
ATOM     14  N   UNL     1       2.826  44.509  53.315  1.00  0.00    -0.250 N 
ATOM     15  C   UNL     1       3.036  42.674  52.298  1.00  0.00     0.149 A 
ATOM     16  N   UNL     1       2.203  43.324  53.116  1.00  0.00    -0.179 NA
ATOM     17  C   UNL     1       2.220  45.495  54.174  1.00  0.00     0.176 C 
BRANCH  11  18
ATOM     18  N   UNL     1       5.595  42.122  50.462  1.00  0.00    -0.338 N 
ATOM     19  H   UNL     1       6.101  41.413  50.983  1.00  0.00     0.168 HD
BRANCH  18  20
ATOM     20  C   UNL     1       5.278  41.718  49.149  1.00  0.00     0.060 A 
ATOM     21  C   UNL     1       4.257  40.807  48.850  1.00  0.00     0.049 A 
ATOM     22  C   UNL     1       6.021  42.236  48.066  1.00  0.00     0.066 A 
ATOM     23  C   UNL     1       3.987  40.421  47.529  1.00  0.00     0.061 A 
ATOM     24  C   UNL     1       5.760  41.861  46.746  1.00  0.00     0.044 A 
ATOM     25  C   UNL     1       4.741  40.949  46.477  1.00  0.00     0.061 A 
ATOM     26  Cl  UNL     1       7.302  43.372  48.346  1.00  0.00    -0.082 Cl
ATOM     27  Cl  UNL     1       2.707  39.288  47.269  1.00  0.00    -0.083 Cl
ATOM     28  Cl  UNL     1       4.463  40.519  44.828  1.00  0.00    -0.083 Cl
ENDBRANCH  18  20
ENDBRANCH  11  18
ENDBRANCH   6   8
ENDBRANCH   1   6
TORSDOF 7
ENDMDL
MODEL 18
REMARK VINA RESULT:    -7.495      2.765      5.698
REMARK INTER + INTRA:         -11.751
REMARK INTER:                 -10.809
REMARK INTRA:                  -0.942
REMARK UNBOUND:                -1.190
REMARK SMILES CCCCCNc1nc(Nc2cc(Cl)c(Cl)cc2Cl)c2cnn(C)c2n1
REMARK SMILES IDX 5 1 4 2 3 3 2 4 1 5 6 6 7 8 8 9 26 10 9 11 25 12 20 13 23 14
REMARK SMILES IDX 21 15 22 16 24 17 10 18 11 20 12 21 18 22 13 23 17 24 15 25
REMARK SMILES IDX 19 26 14 27 16 28
REMARK H PARENT 6 7 10 19
ROOT
ATOM      1  C   UNL     1       1.134  45.498  57.402  1.00  0.00     0.116 C 
ENDROOT
BRANCH   1   2
ATOM      2  C   UNL     1       0.006  46.529  57.498  1.00  0.00     0.021 C 
BRANCH   2   3
ATOM      3  C   UNL     1      -1.303  46.058  56.857  1.00  0.00     0.002 C 
BRANCH   3   4
ATOM      4  C   UNL     1      -1.432  44.548  56.641  1.00  0.00    -0.003 C 
ATOM      5  C   UNL     1      -2.030  44.174  55.295  1.00  0.00     0.004 C 
ENDBRANCH   3   4
ENDBRANCH   2   3
ENDBRANCH   1   2
BRANCH   1   6
ATOM      6  N   UNL     1       2.260  46.042  56.662  1.00  0.00    -0.354 N 
ATOM      7  H   UNL     1       2.274  47.053  56.580  1.00  0.00     0.163 HD
BRANCH   6   8
ATOM      8  C   UNL     1       2.435  45.560  55.370  1.00  0.00     0.226 A 
ATOM      9  N   UNL     1       3.329  46.249  54.637  1.00  0.00    -0.195 NA
ATOM     10  N   UNL     1       1.740  44.497  54.950  1.00  0.00    -0.193 NA
ATOM     11  C   UNL     1       3.614  45.887  53.359  1.00  0.00     0.147 A 
ATOM     12  C   UNL     1       2.028  44.151  53.689  1.00  0.00     0.165 A 
ATOM     13  C   UNL     1       2.928  44.778  52.850  1.00  0.00     0.082 A 
ATOM     14  N   UNL     1       1.502  43.111  52.973  1.00  0.00    -0.250 N 
ATOM     15  C   UNL     1       2.860  44.036  51.650  1.00  0.00     0.149 A 
ATOM     16  N   UNL     1       1.991  43.022  51.714  1.00  0.00    -0.179 NA
ATOM     17  C   UNL     1       0.523  42.155  53.425  1.00  0.00     0.176 C 
BRANCH  11  18
ATOM     18  N   UNL     1       4.539  46.594  52.578  1.00  0.00    -0.338 N 
ATOM     19  H   UNL     1       4.117  47.274  51.954  1.00  0.00     0.168 HD
BRANCH  18  20
ATOM     20  C   UNL     1       5.947  46.567  52.492  1.00  0.00     0.060 A 
ATOM     21  C   UNL     1       6.787  47.140  53.454  1.00  0.00     0.049 A 
ATOM     22  C   UNL     1       6.561  45.948  51.381  1.00  0.00     0.066 A 
ATOM     23  C   UNL     1       8.183  47.104  53.319  1.00  0.00     0.061 A 
ATOM     24  C   UNL     1       7.949  45.905  51.236  1.00  0.00     0.044 A 
ATOM     25  C   UNL     1       8.763  46.485  52.208  1.00  0.00     0.061 A 
ATOM     26  Cl  UNL     1       5.594  45.212  50.144  1.00  0.00    -0.082 Cl
ATOM     27  Cl  UNL     1       9.130  47.842  54.562  1.00  0.00    -0.083 Cl
ATOM     28  Cl  UNL     1      10.472  46.404  51.976  1.00  0.00    -0.083 Cl
ENDBRANCH  18  20
ENDBRANCH  11  18
ENDBRANCH   6   8
ENDBRANCH   1   6
TORSDOF 7
ENDMDL
MODEL 19
REMARK VINA RESULT:    -7.449      1.483      4.607
REMARK INTER + INTRA:         -11.688
REMARK INTER:                 -10.875
REMARK INTRA:                  -0.812
REMARK UNBOUND:                -1.190
REMARK SMILES CCCCCNc1nc(Nc2cc(Cl)c(Cl)cc2Cl)c2cnn(C)c2n1
REMARK SMILES IDX 5 1 4 2 3 3 2 4 1 5 6 6 7 8 8 9 26 10 9 11 25 12 20 13 23 14
REMARK SMILES IDX 21 15 22 16 24 17 10 18 11 20 12 21 18 22 13 23 17 24 15 25
REMARK SMILES IDX 19 26 14 27 16 28
REMARK H PARENT 6 7 10 19
ROOT
ATOM      1  C   UNL     1       1.452  43.520  53.707  1.00  0.00     0.116 C 
ENDROOT
BRANCH   1   2
ATOM      2  C   UNL     1      -0.024  43.546  53.301  1.00  0.00     0.021 C 
BRANCH   2   3
ATOM      3  C   UNL     1      -0.511  42.227  52.694  1.00  0.00     0.002 C 
BRANCH   3   4
ATOM      4  C   UNL     1      -1.692  42.337  51.726  1.00  0.00    -0.003 C 
ATOM      5  C   UNL     1      -1.557  43.476  50.729  1.00  0.00     0.004 C 
ENDBRANCH   3   4
ENDBRANCH   2   3
ENDBRANCH   1   2
BRANCH   1   6
ATOM      6  N   UNL     1       2.157  42.464  53.000  1.00  0.00    -0.354 N 
ATOM      7  H   UNL     1       2.526  41.724  53.588  1.00  0.00     0.163 HD
BRANCH   6   8
ATOM      8  C   UNL     1       3.217  42.866  52.196  1.00  0.00     0.226 A 
ATOM      9  N   UNL     1       3.729  44.070  52.514  1.00  0.00    -0.195 NA
ATOM     10  N   UNL     1       3.643  42.078  51.203  1.00  0.00    -0.193 NA
ATOM     11  C   UNL     1       4.779  44.589  51.825  1.00  0.00     0.147 A 
ATOM     12  C   UNL     1       4.677  42.601  50.529  1.00  0.00     0.165 A 
ATOM     13  C   UNL     1       5.284  43.817  50.771  1.00  0.00     0.082 A 
ATOM     14  N   UNL     1       5.345  42.046  49.473  1.00  0.00    -0.250 N 
ATOM     15  C   UNL     1       6.303  43.896  49.797  1.00  0.00     0.149 A 
ATOM     16  N   UNL     1       6.345  42.824  48.999  1.00  0.00    -0.179 NA
ATOM     17  C   UNL     1       5.085  40.769  48.858  1.00  0.00     0.176 C 
BRANCH  11  18
ATOM     18  N   UNL     1       5.323  45.841  52.138  1.00  0.00    -0.338 N 
ATOM     19  H   UNL     1       4.727  46.624  51.890  1.00  0.00     0.168 HD
BRANCH  18  20
ATOM     20  C   UNL     1       6.531  46.242  52.747  1.00  0.00     0.060 A 
ATOM     21  C   UNL     1       7.779  46.139  52.122  1.00  0.00     0.049 A 
ATOM     22  C   UNL     1       6.505  46.764  54.059  1.00  0.00     0.066 A 
ATOM     23  C   UNL     1       8.957  46.534  52.773  1.00  0.00     0.061 A 
ATOM     24  C   UNL     1       7.670  47.163  54.717  1.00  0.00     0.044 A 
ATOM     25  C   UNL     1       8.901  47.046  54.072  1.00  0.00     0.061 A 
ATOM     26  Cl  UNL     1       5.000  46.928  54.907  1.00  0.00    -0.082 Cl
ATOM     27  Cl  UNL     1      10.447  46.363  51.913  1.00  0.00    -0.083 Cl
ATOM     28  Cl  UNL     1      10.310  47.552  54.933  1.00  0.00    -0.083 Cl
ENDBRANCH  18  20
ENDBRANCH  11  18
ENDBRANCH   6   8
ENDBRANCH   1   6
TORSDOF 7
ENDMDL
MODEL 20
REMARK VINA RESULT:    -7.353      3.336      6.118
REMARK INTER + INTRA:         -11.551
REMARK INTER:                 -10.836
REMARK INTRA:                  -0.716
REMARK UNBOUND:                -1.190
REMARK SMILES CCCCCNc1nc(Nc2cc(Cl)c(Cl)cc2Cl)c2cnn(C)c2n1
REMARK SMILES IDX 5 1 4 2 3 3 2 4 1 5 6 6 7 8 8 9 26 10 9 11 25 12 20 13 23 14
REMARK SMILES IDX 21 15 22 16 24 17 10 18 11 20 12 21 18 22 13 23 17 24 15 25
REMARK SMILES IDX 19 26 14 27 16 28
REMARK H PARENT 6 7 10 19
ROOT
ATOM      1  C   UNL     1       6.915  42.645  49.713  1.00  0.00     0.116 C 
ENDROOT
BRANCH   1   2
ATOM      2  C   UNL     1       6.055  41.442  49.321  1.00  0.00     0.021 C 
BRANCH   2   3
ATOM      3  C   UNL     1       4.824  41.257  50.214  1.00  0.00     0.002 C 
BRANCH   3   4
ATOM      4  C   UNL     1       3.583  40.685  49.525  1.00  0.00    -0.003 C 
ATOM      5  C   UNL     1       3.797  40.363  48.056  1.00  0.00     0.004 C 
ENDBRANCH   3   4
ENDBRANCH   2   3
ENDBRANCH   1   2
BRANCH   1   6
ATOM      6  N   UNL     1       6.127  43.865  49.693  1.00  0.00    -0.354 N 
ATOM      7  H   UNL     1       6.434  44.565  49.025  1.00  0.00     0.163 HD
BRANCH   6   8
ATOM      8  C   UNL     1       6.002  44.534  50.904  1.00  0.00     0.226 A 
ATOM      9  N   UNL     1       5.120  43.978  51.757  1.00  0.00    -0.195 NA
ATOM     10  N   UNL     1       6.722  45.636  51.141  1.00  0.00    -0.193 NA
ATOM     11  C   UNL     1       4.901  44.514  52.986  1.00  0.00     0.147 A 
ATOM     12  C   UNL     1       6.496  46.156  52.355  1.00  0.00     0.165 A 
ATOM     13  C   UNL     1       5.625  45.669  53.309  1.00  0.00     0.082 A 
ATOM     14  N   UNL     1       7.077  47.266  52.903  1.00  0.00    -0.250 N 
ATOM     15  C   UNL     1       5.757  46.566  54.391  1.00  0.00     0.149 A 
ATOM     16  N   UNL     1       6.635  47.545  54.152  1.00  0.00    -0.179 NA
ATOM     17  C   UNL     1       8.067  48.117  52.293  1.00  0.00     0.176 C 
BRANCH  11  18
ATOM     18  N   UNL     1       3.986  43.952  53.886  1.00  0.00    -0.338 N 
ATOM     19  H   UNL     1       4.354  43.165  54.411  1.00  0.00     0.168 HD
BRANCH  18  20
ATOM     20  C   UNL     1       2.655  44.266  54.229  1.00  0.00     0.060 A 
ATOM     21  C   UNL     1       2.307  44.999  55.370  1.00  0.00     0.049 A 
ATOM     22  C   UNL     1       1.603  43.818  53.401  1.00  0.00     0.066 A 
ATOM     23  C   UNL     1       0.967  45.274  55.680  1.00  0.00     0.061 A 
ATOM     24  C   UNL     1       0.265  44.087  53.699  1.00  0.00     0.044 A 
ATOM     25  C   UNL     1      -0.054  44.817  54.843  1.00  0.00     0.061 A 
ATOM     26  Cl  UNL     1       1.945  42.905  51.967  1.00  0.00    -0.082 Cl
ATOM     27  Cl  UNL     1       0.645  46.185  57.114  1.00  0.00    -0.083 Cl
ATOM     28  Cl  UNL     1      -1.724  45.118  55.163  1.00  0.00    -0.083 Cl
ENDBRANCH  18  20
ENDBRANCH  11  18
ENDBRANCH   6   8
ENDBRANCH   1   6
TORSDOF 7
ENDMDL
