MODEL 1
REMARK VINA RESULT:    -8.996      0.000      0.000
REMARK INTER + INTRA:         -13.290
REMARK INTER:                 -12.151
REMARK INTRA:                  -1.139
REMARK UNBOUND:                -1.139
REMARK SMILES Cc1ccccc1Nc1nc(NCCC(C)C)nc2c1cnn2C
REMARK SMILES IDX 12 1 11 3 9 4 10 5 20 6 19 7 21 8 18 9 23 10 22 11 24 12
REMARK SMILES IDX 8 13 7 15 2 16 3 17 4 18 6 19 5 20 1 21 13 22 14 23 15 24
REMARK SMILES IDX 16 25 17 26
REMARK H PARENT 12 2 8 14
ROOT
ATOM      1  N   UNL     1       4.890  46.910  54.964  1.00  0.00    -0.354 N 
ATOM      2  H   UNL     1       4.279  47.535  54.448  1.00  0.00     0.163 HD
ENDROOT
BRANCH   1   3
ATOM      3  C   UNL     1       6.009  46.730  54.158  1.00  0.00     0.226 A 
ATOM      4  C   UNL     1       6.745  46.028  52.048  1.00  0.00     0.147 A 
ATOM      5  N   UNL     1       5.740  46.226  52.938  1.00  0.00    -0.195 NA
ATOM      6  C   UNL     1       8.047  46.323  52.456  1.00  0.00     0.082 A 
ATOM      7  C   UNL     1       8.199  46.827  53.732  1.00  0.00     0.165 A 
ATOM      8  C   UNL     1       9.359  46.251  51.947  1.00  0.00     0.149 A 
ATOM      9  N   UNL     1       7.224  47.056  54.622  1.00  0.00    -0.193 NA
ATOM     10  N   UNL     1       9.542  47.039  53.894  1.00  0.00    -0.250 N 
ATOM     11  N   UNL     1      10.279  46.690  52.814  1.00  0.00    -0.179 NA
ATOM     12  C   UNL     1      10.200  47.571  55.061  1.00  0.00     0.176 C 
BRANCH   4  13
ATOM     13  N   UNL     1       6.394  45.492  50.799  1.00  0.00    -0.339 N 
ATOM     14  H   UNL     1       7.132  45.764  50.152  1.00  0.00     0.168 HD
BRANCH  13  15
ATOM     15  C   UNL     1       5.972  44.169  50.525  1.00  0.00     0.043 A 
ATOM     16  C   UNL     1       6.805  43.320  49.768  1.00  0.00    -0.028 A 
ATOM     17  C   UNL     1       6.421  41.987  49.545  1.00  0.00     0.005 A 
ATOM     18  C   UNL     1       5.235  41.491  50.083  1.00  0.00     0.000 A 
ATOM     19  C   UNL     1       4.798  43.641  51.086  1.00  0.00     0.026 A 
ATOM     20  C   UNL     1       4.426  42.315  50.857  1.00  0.00     0.002 A 
ATOM     21  C   UNL     1       8.093  43.826  49.175  1.00  0.00     0.046 C 
ENDBRANCH  13  15
ENDBRANCH   4  13
ENDBRANCH   1   3
BRANCH   1  22
ATOM     22  C   UNL     1       4.272  45.682  55.431  1.00  0.00     0.116 C 
BRANCH  22  23
ATOM     23  C   UNL     1       2.782  45.672  55.076  1.00  0.00     0.024 C 
BRANCH  23  24
ATOM     24  C   UNL     1       2.439  45.042  53.711  1.00  0.00    -0.016 C 
ATOM     25  C   UNL     1       1.371  43.961  53.895  1.00  0.00     0.007 C 
ATOM     26  C   UNL     1       1.957  46.076  52.693  1.00  0.00     0.007 C 
ENDBRANCH  23  24
ENDBRANCH  22  23
ENDBRANCH   1  22
TORSDOF 6
ENDMDL
MODEL 2
REMARK VINA RESULT:    -8.972      1.696      5.454
REMARK INTER + INTRA:         -13.258
REMARK INTER:                 -12.763
REMARK INTRA:                  -0.495
REMARK UNBOUND:                -1.139
REMARK SMILES Cc1ccccc1Nc1nc(NCCC(C)C)nc2c1cnn2C
REMARK SMILES IDX 12 1 11 3 9 4 10 5 20 6 19 7 21 8 18 9 23 10 22 11 24 12
REMARK SMILES IDX 8 13 7 15 2 16 3 17 4 18 6 19 5 20 1 21 13 22 14 23 15 24
REMARK SMILES IDX 16 25 17 26
REMARK H PARENT 12 2 8 14
ROOT
ATOM      1  N   UNL     1       5.977  47.092  54.594  1.00  0.00    -0.354 N 
ATOM      2  H   UNL     1       5.831  47.337  55.568  1.00  0.00     0.163 HD
ENDROOT
BRANCH   1   3
ATOM      3  C   UNL     1       4.932  46.239  54.260  1.00  0.00     0.226 A 
ATOM      4  C   UNL     1       4.170  44.687  52.680  1.00  0.00     0.147 A 
ATOM      5  N   UNL     1       5.107  45.571  53.104  1.00  0.00    -0.195 NA
ATOM      6  C   UNL     1       3.019  44.533  53.455  1.00  0.00     0.082 A 
ATOM      7  C   UNL     1       2.948  45.276  54.616  1.00  0.00     0.165 A 
ATOM      8  C   UNL     1       1.806  43.816  53.421  1.00  0.00     0.149 A 
ATOM      9  N   UNL     1       3.869  46.137  55.071  1.00  0.00    -0.193 NA
ATOM     10  N   UNL     1       1.751  44.953  55.196  1.00  0.00    -0.250 N 
ATOM     11  N   UNL     1       1.027  44.061  54.481  1.00  0.00    -0.179 NA
ATOM     12  C   UNL     1       1.224  45.463  56.437  1.00  0.00     0.176 C 
BRANCH   4  13
ATOM     13  N   UNL     1       4.414  44.033  51.461  1.00  0.00    -0.339 N 
ATOM     14  H   UNL     1       3.675  44.327  50.824  1.00  0.00     0.168 HD
BRANCH  13  15
ATOM     15  C   UNL     1       5.645  43.947  50.769  1.00  0.00     0.043 A 
ATOM     16  C   UNL     1       5.986  42.748  50.110  1.00  0.00    -0.028 A 
ATOM     17  C   UNL     1       7.177  42.676  49.370  1.00  0.00     0.005 A 
ATOM     18  C   UNL     1       8.016  43.785  49.264  1.00  0.00     0.000 A 
ATOM     19  C   UNL     1       6.485  45.062  50.623  1.00  0.00     0.026 A 
ATOM     20  C   UNL     1       7.668  44.979  49.886  1.00  0.00     0.002 A 
ATOM     21  C   UNL     1       5.101  41.535  50.204  1.00  0.00     0.046 C 
ENDBRANCH  13  15
ENDBRANCH   4  13
ENDBRANCH   1   3
BRANCH   1  22
ATOM     22  C   UNL     1       7.301  46.590  54.271  1.00  0.00     0.116 C 
BRANCH  22  23
ATOM     23  C   UNL     1       7.975  47.502  53.241  1.00  0.00     0.024 C 
BRANCH  23  24
ATOM     24  C   UNL     1       9.517  47.458  53.238  1.00  0.00    -0.016 C 
ATOM     25  C   UNL     1      10.029  47.211  54.659  1.00  0.00     0.007 C 
ATOM     26  C   UNL     1      10.071  46.387  52.297  1.00  0.00     0.007 C 
ENDBRANCH  23  24
ENDBRANCH  22  23
ENDBRANCH   1  22
TORSDOF 6
ENDMDL
MODEL 3
REMARK VINA RESULT:    -8.568      2.544      6.654
REMARK INTER + INTRA:         -12.712
REMARK INTER:                 -11.941
REMARK INTRA:                  -0.772
REMARK UNBOUND:                -1.139
REMARK SMILES Cc1ccccc1Nc1nc(NCCC(C)C)nc2c1cnn2C
REMARK SMILES IDX 12 1 11 3 9 4 10 5 20 6 19 7 21 8 18 9 23 10 22 11 24 12
REMARK SMILES IDX 8 13 7 15 2 16 3 17 4 18 6 19 5 20 1 21 13 22 14 23 15 24
REMARK SMILES IDX 16 25 17 26
REMARK H PARENT 12 2 8 14
ROOT
ATOM      1  N   UNL     1       6.206  41.477  49.270  1.00  0.00    -0.354 N 
ATOM      2  H   UNL     1       6.361  40.706  49.911  1.00  0.00     0.163 HD
ENDROOT
BRANCH   1   3
ATOM      3  C   UNL     1       5.788  42.542  50.060  1.00  0.00     0.226 A 
ATOM      4  C   UNL     1       6.274  44.739  50.709  1.00  0.00     0.147 A 
ATOM      5  N   UNL     1       6.588  43.624  50.004  1.00  0.00    -0.195 NA
ATOM      6  C   UNL     1       5.134  44.705  51.513  1.00  0.00     0.082 A 
ATOM      7  C   UNL     1       4.396  43.538  51.495  1.00  0.00     0.165 A 
ATOM      8  C   UNL     1       4.449  45.541  52.418  1.00  0.00     0.149 A 
ATOM      9  N   UNL     1       4.668  42.432  50.789  1.00  0.00    -0.193 NA
ATOM     10  N   UNL     1       3.341  43.748  52.341  1.00  0.00    -0.250 N 
ATOM     11  N   UNL     1       3.350  44.969  52.926  1.00  0.00    -0.179 NA
ATOM     12  C   UNL     1       2.281  42.822  52.650  1.00  0.00     0.176 C 
BRANCH   4  13
ATOM     13  N   UNL     1       7.158  45.827  50.611  1.00  0.00    -0.339 N 
ATOM     14  H   UNL     1       6.615  46.606  50.244  1.00  0.00     0.168 HD
BRANCH  13  15
ATOM     15  C   UNL     1       8.060  46.286  51.600  1.00  0.00     0.043 A 
ATOM     16  C   UNL     1       9.410  45.882  51.545  1.00  0.00    -0.028 A 
ATOM     17  C   UNL     1      10.324  46.384  52.487  1.00  0.00     0.005 A 
ATOM     18  C   UNL     1       9.914  47.292  53.461  1.00  0.00     0.000 A 
ATOM     19  C   UNL     1       7.674  47.227  52.567  1.00  0.00     0.026 A 
ATOM     20  C   UNL     1       8.591  47.718  53.499  1.00  0.00     0.002 A 
ATOM     21  C   UNL     1       9.884  44.904  50.504  1.00  0.00     0.046 C 
ENDBRANCH  13  15
ENDBRANCH   4  13
ENDBRANCH   1   3
BRANCH   1  22
ATOM     22  C   UNL     1       5.346  41.183  48.138  1.00  0.00     0.116 C 
BRANCH  22  23
ATOM     23  C   UNL     1       5.810  41.964  46.904  1.00  0.00     0.024 C 
BRANCH  23  24
ATOM     24  C   UNL     1       5.220  41.481  45.564  1.00  0.00    -0.016 C 
ATOM     25  C   UNL     1       3.840  40.864  45.800  1.00  0.00     0.007 C 
ATOM     26  C   UNL     1       5.114  42.604  44.532  1.00  0.00     0.007 C 
ENDBRANCH  23  24
ENDBRANCH  22  23
ENDBRANCH   1  22
TORSDOF 6
ENDMDL
MODEL 4
REMARK VINA RESULT:    -8.566      1.649      5.287
REMARK INTER + INTRA:         -12.710
REMARK INTER:                 -11.850
REMARK INTRA:                  -0.860
REMARK UNBOUND:                -1.139
REMARK SMILES Cc1ccccc1Nc1nc(NCCC(C)C)nc2c1cnn2C
REMARK SMILES IDX 12 1 11 3 9 4 10 5 20 6 19 7 21 8 18 9 23 10 22 11 24 12
REMARK SMILES IDX 8 13 7 15 2 16 3 17 4 18 6 19 5 20 1 21 13 22 14 23 15 24
REMARK SMILES IDX 16 25 17 26
REMARK H PARENT 12 2 8 14
ROOT
ATOM      1  N   UNL     1       5.965  47.139  54.825  1.00  0.00    -0.354 N 
ATOM      2  H   UNL     1       5.865  47.250  55.828  1.00  0.00     0.163 HD
ENDROOT
BRANCH   1   3
ATOM      3  C   UNL     1       4.856  46.406  54.417  1.00  0.00     0.226 A 
ATOM      4  C   UNL     1       3.902  45.229  52.630  1.00  0.00     0.147 A 
ATOM      5  N   UNL     1       4.912  45.978  53.141  1.00  0.00    -0.195 NA
ATOM      6  C   UNL     1       2.807  44.962  53.452  1.00  0.00     0.082 A 
ATOM      7  C   UNL     1       2.859  45.459  54.739  1.00  0.00     0.165 A 
ATOM      8  C   UNL     1       1.561  44.307  53.378  1.00  0.00     0.149 A 
ATOM      9  N   UNL     1       3.853  46.179  55.277  1.00  0.00    -0.193 NA
ATOM     10  N   UNL     1       1.695  45.066  55.341  1.00  0.00    -0.250 N 
ATOM     11  N   UNL     1       0.876  44.360  54.527  1.00  0.00    -0.179 NA
ATOM     12  C   UNL     1       1.288  45.333  56.698  1.00  0.00     0.176 C 
BRANCH   4  13
ATOM     13  N   UNL     1       4.022  44.826  51.290  1.00  0.00    -0.339 N 
ATOM     14  H   UNL     1       4.250  45.663  50.757  1.00  0.00     0.168 HD
BRANCH  13  15
ATOM     15  C   UNL     1       4.751  43.719  50.793  1.00  0.00     0.043 A 
ATOM     16  C   UNL     1       6.066  43.914  50.322  1.00  0.00    -0.028 A 
ATOM     17  C   UNL     1       6.819  42.811  49.886  1.00  0.00     0.005 A 
ATOM     18  C   UNL     1       6.285  41.524  49.933  1.00  0.00     0.000 A 
ATOM     19  C   UNL     1       4.244  42.412  50.864  1.00  0.00     0.026 A 
ATOM     20  C   UNL     1       5.001  41.323  50.426  1.00  0.00     0.002 A 
ATOM     21  C   UNL     1       6.671  45.291  50.261  1.00  0.00     0.046 C 
ENDBRANCH  13  15
ENDBRANCH   4  13
ENDBRANCH   1   3
BRANCH   1  22
ATOM     22  C   UNL     1       7.242  46.611  54.381  1.00  0.00     0.116 C 
BRANCH  22  23
ATOM     23  C   UNL     1       7.853  47.529  53.316  1.00  0.00     0.024 C 
BRANCH  23  24
ATOM     24  C   UNL     1       9.391  47.482  53.217  1.00  0.00    -0.016 C 
ATOM     25  C   UNL     1       9.988  47.164  54.590  1.00  0.00     0.007 C 
ATOM     26  C   UNL     1       9.881  46.458  52.192  1.00  0.00     0.007 C 
ENDBRANCH  23  24
ENDBRANCH  22  23
ENDBRANCH   1  22
TORSDOF 6
ENDMDL
MODEL 5
REMARK VINA RESULT:    -8.542      2.027      5.171
REMARK INTER + INTRA:         -12.677
REMARK INTER:                 -11.261
REMARK INTRA:                  -1.416
REMARK UNBOUND:                -1.139
REMARK SMILES Cc1ccccc1Nc1nc(NCCC(C)C)nc2c1cnn2C
REMARK SMILES IDX 12 1 11 3 9 4 10 5 20 6 19 7 21 8 18 9 23 10 22 11 24 12
REMARK SMILES IDX 8 13 7 15 2 16 3 17 4 18 6 19 5 20 1 21 13 22 14 23 15 24
REMARK SMILES IDX 16 25 17 26
REMARK H PARENT 12 2 8 14
ROOT
ATOM      1  N   UNL     1       2.648  45.700  52.029  1.00  0.00    -0.354 N 
ATOM      2  H   UNL     1       1.875  45.043  52.070  1.00  0.00     0.163 HD
ENDROOT
BRANCH   1   3
ATOM      3  C   UNL     1       3.706  44.998  51.462  1.00  0.00     0.226 A 
ATOM      4  C   UNL     1       5.931  45.155  50.747  1.00  0.00     0.147 A 
ATOM      5  N   UNL     1       4.819  45.731  51.269  1.00  0.00    -0.195 NA
ATOM      6  C   UNL     1       5.861  43.809  50.386  1.00  0.00     0.082 A 
ATOM      7  C   UNL     1       4.665  43.163  50.624  1.00  0.00     0.165 A 
ATOM      8  C   UNL     1       6.681  42.825  49.797  1.00  0.00     0.149 A 
ATOM      9  N   UNL     1       3.561  43.700  51.161  1.00  0.00    -0.193 NA
ATOM     10  N   UNL     1       4.843  41.874  50.200  1.00  0.00    -0.250 N 
ATOM     11  N   UNL     1       6.072  41.639  49.684  1.00  0.00    -0.179 NA
ATOM     12  C   UNL     1       3.878  40.804  50.251  1.00  0.00     0.176 C 
BRANCH   4  13
ATOM     13  N   UNL     1       7.052  45.981  50.565  1.00  0.00    -0.339 N 
ATOM     14  H   UNL     1       6.727  46.797  50.050  1.00  0.00     0.168 HD
BRANCH  13  15
ATOM     15  C   UNL     1       7.995  46.370  51.546  1.00  0.00     0.043 A 
ATOM     16  C   UNL     1       9.308  45.859  51.484  1.00  0.00    -0.028 A 
ATOM     17  C   UNL     1      10.266  46.288  52.418  1.00  0.00     0.005 A 
ATOM     18  C   UNL     1       9.937  47.230  53.391  1.00  0.00     0.000 A 
ATOM     19  C   UNL     1       7.692  47.342  52.512  1.00  0.00     0.026 A 
ATOM     20  C   UNL     1       8.652  47.760  53.436  1.00  0.00     0.002 A 
ATOM     21  C   UNL     1       9.695  44.842  50.444  1.00  0.00     0.046 C 
ENDBRANCH  13  15
ENDBRANCH   4  13
ENDBRANCH   1   3
BRANCH   1  22
ATOM     22  C   UNL     1       2.961  46.372  53.277  1.00  0.00     0.116 C 
BRANCH  22  23
ATOM     23  C   UNL     1       3.361  45.347  54.343  1.00  0.00     0.024 C 
BRANCH  23  24
ATOM     24  C   UNL     1       4.707  45.622  55.044  1.00  0.00    -0.016 C 
ATOM     25  C   UNL     1       5.766  44.644  54.529  1.00  0.00     0.007 C 
ATOM     26  C   UNL     1       5.189  47.059  54.842  1.00  0.00     0.007 C 
ENDBRANCH  23  24
ENDBRANCH  22  23
ENDBRANCH   1  22
TORSDOF 6
ENDMDL
MODEL 6
REMARK VINA RESULT:    -8.474      1.828      5.254
REMARK INTER + INTRA:         -12.586
REMARK INTER:                 -11.723
REMARK INTRA:                  -0.864
REMARK UNBOUND:                -1.139
REMARK SMILES Cc1ccccc1Nc1nc(NCCC(C)C)nc2c1cnn2C
REMARK SMILES IDX 12 1 11 3 9 4 10 5 20 6 19 7 21 8 18 9 23 10 22 11 24 12
REMARK SMILES IDX 8 13 7 15 2 16 3 17 4 18 6 19 5 20 1 21 13 22 14 23 15 24
REMARK SMILES IDX 16 25 17 26
REMARK H PARENT 12 2 8 14
ROOT
ATOM      1  N   UNL     1       2.962  43.164  53.070  1.00  0.00    -0.354 N 
ATOM      2  H   UNL     1       3.394  42.960  53.965  1.00  0.00     0.163 HD
ENDROOT
BRANCH   1   3
ATOM      3  C   UNL     1       4.009  43.487  52.215  1.00  0.00     0.226 A 
ATOM      4  C   UNL     1       5.603  45.120  51.685  1.00  0.00     0.147 A 
ATOM      5  N   UNL     1       4.555  44.698  52.437  1.00  0.00    -0.195 NA
ATOM      6  C   UNL     1       6.054  44.282  50.664  1.00  0.00     0.082 A 
ATOM      7  C   UNL     1       5.410  43.068  50.527  1.00  0.00     0.165 A 
ATOM      8  C   UNL     1       7.022  44.285  49.640  1.00  0.00     0.149 A 
ATOM      9  N   UNL     1       4.392  42.616  51.270  1.00  0.00    -0.193 NA
ATOM     10  N   UNL     1       6.026  42.433  49.482  1.00  0.00    -0.250 N 
ATOM     11  N   UNL     1       7.017  43.159  48.915  1.00  0.00    -0.179 NA
ATOM     12  C   UNL     1       5.717  41.126  48.960  1.00  0.00     0.176 C 
BRANCH   4  13
ATOM     13  N   UNL     1       6.117  46.396  51.966  1.00  0.00    -0.339 N 
ATOM     14  H   UNL     1       5.396  46.887  52.490  1.00  0.00     0.168 HD
BRANCH  13  15
ATOM     15  C   UNL     1       7.395  46.706  52.490  1.00  0.00     0.043 A 
ATOM     16  C   UNL     1       7.541  46.910  53.878  1.00  0.00    -0.028 A 
ATOM     17  C   UNL     1       8.816  47.156  54.413  1.00  0.00     0.005 A 
ATOM     18  C   UNL     1       9.940  47.180  53.589  1.00  0.00     0.000 A 
ATOM     19  C   UNL     1       8.542  46.701  51.682  1.00  0.00     0.026 A 
ATOM     20  C   UNL     1       9.805  46.948  52.225  1.00  0.00     0.002 A 
ATOM     21  C   UNL     1       6.348  46.888  54.794  1.00  0.00     0.046 C 
ENDBRANCH  13  15
ENDBRANCH   4  13
ENDBRANCH   1   3
BRANCH   1  22
ATOM     22  C   UNL     1       1.883  44.135  53.107  1.00  0.00     0.116 C 
BRANCH  22  23
ATOM     23  C   UNL     1       1.211  44.127  54.484  1.00  0.00     0.024 C 
BRANCH  23  24
ATOM     24  C   UNL     1       1.435  45.398  55.328  1.00  0.00    -0.016 C 
ATOM     25  C   UNL     1       0.748  45.242  56.688  1.00  0.00     0.007 C 
ATOM     26  C   UNL     1       2.917  45.714  55.532  1.00  0.00     0.007 C 
ENDBRANCH  23  24
ENDBRANCH  22  23
ENDBRANCH   1  22
TORSDOF 6
ENDMDL
MODEL 7
REMARK VINA RESULT:    -8.284      2.022      5.737
REMARK INTER + INTRA:         -12.328
REMARK INTER:                 -11.352
REMARK INTRA:                  -0.977
REMARK UNBOUND:                -1.139
REMARK SMILES Cc1ccccc1Nc1nc(NCCC(C)C)nc2c1cnn2C
REMARK SMILES IDX 12 1 11 3 9 4 10 5 20 6 19 7 21 8 18 9 23 10 22 11 24 12
REMARK SMILES IDX 8 13 7 15 2 16 3 17 4 18 6 19 5 20 1 21 13 22 14 23 15 24
REMARK SMILES IDX 16 25 17 26
REMARK H PARENT 12 2 8 14
ROOT
ATOM      1  N   UNL     1       3.096  42.703  50.935  1.00  0.00    -0.354 N 
ATOM      2  H   UNL     1       2.873  43.132  50.043  1.00  0.00     0.163 HD
ENDROOT
BRANCH   1   3
ATOM      3  C   UNL     1       3.461  43.750  51.774  1.00  0.00     0.226 A 
ATOM      4  C   UNL     1       4.856  45.619  51.992  1.00  0.00     0.147 A 
ATOM      5  N   UNL     1       4.430  44.546  51.281  1.00  0.00    -0.195 NA
ATOM      6  C   UNL     1       4.291  45.836  53.250  1.00  0.00     0.082 A 
ATOM      7  C   UNL     1       3.312  44.949  53.652  1.00  0.00     0.165 A 
ATOM      8  C   UNL     1       4.420  46.732  54.330  1.00  0.00     0.149 A 
ATOM      9  N   UNL     1       2.854  43.897  52.960  1.00  0.00    -0.193 NA
ATOM     10  N   UNL     1       2.914  45.368  54.893  1.00  0.00    -0.250 N 
ATOM     11  N   UNL     1       3.581  46.458  55.337  1.00  0.00    -0.179 NA
ATOM     12  C   UNL     1       1.901  44.769  55.725  1.00  0.00     0.176 C 
BRANCH   4  13
ATOM     13  N   UNL     1       5.875  46.399  51.422  1.00  0.00    -0.339 N 
ATOM     14  H   UNL     1       5.476  47.323  51.265  1.00  0.00     0.168 HD
BRANCH  13  15
ATOM     15  C   UNL     1       7.213  46.518  51.869  1.00  0.00     0.043 A 
ATOM     16  C   UNL     1       8.240  45.861  51.159  1.00  0.00    -0.028 A 
ATOM     17  C   UNL     1       9.576  46.025  51.561  1.00  0.00     0.005 A 
ATOM     18  C   UNL     1       9.898  46.845  52.641  1.00  0.00     0.000 A 
ATOM     19  C   UNL     1       7.560  47.366  52.932  1.00  0.00     0.026 A 
ATOM     20  C   UNL     1       8.892  47.519  53.324  1.00  0.00     0.002 A 
ATOM     21  C   UNL     1       7.924  44.970  49.989  1.00  0.00     0.046 C 
ENDBRANCH  13  15
ENDBRANCH   4  13
ENDBRANCH   1   3
BRANCH   1  22
ATOM     22  C   UNL     1       4.048  41.608  50.879  1.00  0.00     0.116 C 
BRANCH  22  23
ATOM     23  C   UNL     1       4.237  41.146  49.430  1.00  0.00     0.024 C 
BRANCH  23  24
ATOM     24  C   UNL     1       5.695  41.151  48.927  1.00  0.00    -0.016 C 
ATOM     25  C   UNL     1       5.816  42.069  47.708  1.00  0.00     0.007 C 
ATOM     26  C   UNL     1       6.686  41.591  50.005  1.00  0.00     0.007 C 
ENDBRANCH  23  24
ENDBRANCH  22  23
ENDBRANCH   1  22
TORSDOF 6
ENDMDL
MODEL 8
REMARK VINA RESULT:    -8.264      1.718      5.107
REMARK INTER + INTRA:         -12.302
REMARK INTER:                 -11.350
REMARK INTRA:                  -0.951
REMARK UNBOUND:                -1.139
REMARK SMILES Cc1ccccc1Nc1nc(NCCC(C)C)nc2c1cnn2C
REMARK SMILES IDX 12 1 11 3 9 4 10 5 20 6 19 7 21 8 18 9 23 10 22 11 24 12
REMARK SMILES IDX 8 13 7 15 2 16 3 17 4 18 6 19 5 20 1 21 13 22 14 23 15 24
REMARK SMILES IDX 16 25 17 26
REMARK H PARENT 12 2 8 14
ROOT
ATOM      1  N   UNL     1       3.900  43.709  53.376  1.00  0.00    -0.354 N 
ATOM      2  H   UNL     1       4.281  42.985  53.977  1.00  0.00     0.163 HD
ENDROOT
BRANCH   1   3
ATOM      3  C   UNL     1       4.796  43.830  52.320  1.00  0.00     0.226 A 
ATOM      4  C   UNL     1       6.509  45.148  51.416  1.00  0.00     0.147 A 
ATOM      5  N   UNL     1       5.574  44.928  52.375  1.00  0.00    -0.195 NA
ATOM      6  C   UNL     1       6.599  44.230  50.369  1.00  0.00     0.082 A 
ATOM      7  C   UNL     1       5.743  43.147  50.416  1.00  0.00     0.165 A 
ATOM      8  C   UNL     1       7.331  44.047  49.179  1.00  0.00     0.149 A 
ATOM      9  N   UNL     1       4.830  42.892  51.363  1.00  0.00    -0.193 NA
ATOM     10  N   UNL     1       6.023  42.399  49.305  1.00  0.00    -0.250 N 
ATOM     11  N   UNL     1       6.991  42.931  48.524  1.00  0.00    -0.179 NA
ATOM     12  C   UNL     1       5.397  41.160  48.915  1.00  0.00     0.176 C 
BRANCH   4  13
ATOM     13  N   UNL     1       7.279  46.317  51.531  1.00  0.00    -0.339 N 
ATOM     14  H   UNL     1       6.661  47.092  51.295  1.00  0.00     0.168 HD
BRANCH  13  15
ATOM     15  C   UNL     1       8.125  46.680  52.606  1.00  0.00     0.043 A 
ATOM     16  C   UNL     1       9.509  46.429  52.511  1.00  0.00    -0.028 A 
ATOM     17  C   UNL     1      10.363  46.843  53.547  1.00  0.00     0.005 A 
ATOM     18  C   UNL     1       9.858  47.517  54.658  1.00  0.00     0.000 A 
ATOM     19  C   UNL     1       7.640  47.390  53.716  1.00  0.00     0.026 A 
ATOM     20  C   UNL     1       8.498  47.795  54.740  1.00  0.00     0.002 A 
ATOM     21  C   UNL     1      10.085  45.705  51.325  1.00  0.00     0.046 C 
ENDBRANCH  13  15
ENDBRANCH   4  13
ENDBRANCH   1   3
BRANCH   1  22
ATOM     22  C   UNL     1       3.568  44.957  54.039  1.00  0.00     0.116 C 
BRANCH  22  23
ATOM     23  C   UNL     1       2.080  45.273  53.857  1.00  0.00     0.024 C 
BRANCH  23  24
ATOM     24  C   UNL     1       1.732  46.072  52.584  1.00  0.00    -0.016 C 
ATOM     25  C   UNL     1       2.807  47.132  52.330  1.00  0.00     0.007 C 
ATOM     26  C   UNL     1       1.587  45.178  51.352  1.00  0.00     0.007 C 
ENDBRANCH  23  24
ENDBRANCH  22  23
ENDBRANCH   1  22
TORSDOF 6
ENDMDL
MODEL 9
REMARK VINA RESULT:    -8.240      2.007      5.300
REMARK INTER + INTRA:         -12.269
REMARK INTER:                 -11.511
REMARK INTRA:                  -0.758
REMARK UNBOUND:                -1.139
REMARK SMILES Cc1ccccc1Nc1nc(NCCC(C)C)nc2c1cnn2C
REMARK SMILES IDX 12 1 11 3 9 4 10 5 20 6 19 7 21 8 18 9 23 10 22 11 24 12
REMARK SMILES IDX 8 13 7 15 2 16 3 17 4 18 6 19 5 20 1 21 13 22 14 23 15 24
REMARK SMILES IDX 16 25 17 26
REMARK H PARENT 12 2 8 14
ROOT
ATOM      1  N   UNL     1       3.006  43.512  53.084  1.00  0.00    -0.354 N 
ATOM      2  H   UNL     1       2.815  44.405  53.525  1.00  0.00     0.163 HD
ENDROOT
BRANCH   1   3
ATOM      3  C   UNL     1       4.077  43.739  52.226  1.00  0.00     0.226 A 
ATOM      4  C   UNL     1       5.772  45.251  51.653  1.00  0.00     0.147 A 
ATOM      5  N   UNL     1       4.696  44.921  52.410  1.00  0.00    -0.195 NA
ATOM      6  C   UNL     1       6.176  44.351  50.665  1.00  0.00     0.082 A 
ATOM      7  C   UNL     1       5.460  43.175  50.565  1.00  0.00     0.165 A 
ATOM      8  C   UNL     1       7.149  44.258  49.650  1.00  0.00     0.149 A 
ATOM      9  N   UNL     1       4.410  42.813  51.316  1.00  0.00    -0.193 NA
ATOM     10  N   UNL     1       6.041  42.467  49.548  1.00  0.00    -0.250 N 
ATOM     11  N   UNL     1       7.079  43.110  48.965  1.00  0.00    -0.179 NA
ATOM     12  C   UNL     1       5.655  41.164  49.069  1.00  0.00     0.176 C 
BRANCH   4  13
ATOM     13  N   UNL     1       6.362  46.502  51.893  1.00  0.00    -0.339 N 
ATOM     14  H   UNL     1       5.640  47.085  52.312  1.00  0.00     0.168 HD
BRANCH  13  15
ATOM     15  C   UNL     1       7.609  46.753  52.514  1.00  0.00     0.043 A 
ATOM     16  C   UNL     1       7.652  47.003  53.902  1.00  0.00    -0.028 A 
ATOM     17  C   UNL     1       8.891  47.191  54.536  1.00  0.00     0.005 A 
ATOM     18  C   UNL     1      10.079  47.113  53.811  1.00  0.00     0.000 A 
ATOM     19  C   UNL     1       8.817  46.644  51.809  1.00  0.00     0.026 A 
ATOM     20  C   UNL     1      10.044  46.835  52.449  1.00  0.00     0.002 A 
ATOM     21  C   UNL     1       6.387  47.093  54.712  1.00  0.00     0.046 C 
ENDBRANCH  13  15
ENDBRANCH   4  13
ENDBRANCH   1   3
BRANCH   1  22
ATOM     22  C   UNL     1       1.862  42.863  52.471  1.00  0.00     0.116 C 
BRANCH  22  23
ATOM     23  C   UNL     1       0.748  42.667  53.505  1.00  0.00     0.024 C 
BRANCH  23  24
ATOM     24  C   UNL     1      -0.217  43.860  53.661  1.00  0.00    -0.016 C 
ATOM     25  C   UNL     1       0.098  44.612  54.958  1.00  0.00     0.007 C 
ATOM     26  C   UNL     1      -0.152  44.825  52.477  1.00  0.00     0.007 C 
ENDBRANCH  23  24
ENDBRANCH  22  23
ENDBRANCH   1  22
TORSDOF 6
ENDMDL
MODEL 10
REMARK VINA RESULT:    -8.235      2.798      6.057
REMARK INTER + INTRA:         -12.263
REMARK INTER:                 -11.522
REMARK INTRA:                  -0.741
REMARK UNBOUND:                -1.139
REMARK SMILES Cc1ccccc1Nc1nc(NCCC(C)C)nc2c1cnn2C
REMARK SMILES IDX 12 1 11 3 9 4 10 5 20 6 19 7 21 8 18 9 23 10 22 11 24 12
REMARK SMILES IDX 8 13 7 15 2 16 3 17 4 18 6 19 5 20 1 21 13 22 14 23 15 24
REMARK SMILES IDX 16 25 17 26
REMARK H PARENT 12 2 8 14
ROOT
ATOM      1  N   UNL     1       8.002  45.104  50.061  1.00  0.00    -0.354 N 
ATOM      2  H   UNL     1       7.980  45.291  49.064  1.00  0.00     0.163 HD
ENDROOT
BRANCH   1   3
ATOM      3  C   UNL     1       6.932  44.251  50.306  1.00  0.00     0.226 A 
ATOM      4  C   UNL     1       5.861  42.288  49.606  1.00  0.00     0.147 A 
ATOM      5  N   UNL     1       6.847  43.208  49.457  1.00  0.00    -0.195 NA
ATOM      6  C   UNL     1       4.932  42.486  50.628  1.00  0.00     0.082 A 
ATOM      7  C   UNL     1       5.117  43.595  51.430  1.00  0.00     0.165 A 
ATOM      8  C   UNL     1       3.767  41.876  51.135  1.00  0.00     0.149 A 
ATOM      9  N   UNL     1       6.095  44.504  51.322  1.00  0.00    -0.193 NA
ATOM     10  N   UNL     1       4.102  43.568  52.348  1.00  0.00    -0.250 N 
ATOM     11  N   UNL     1       3.255  42.525  52.187  1.00  0.00    -0.179 NA
ATOM     12  C   UNL     1       3.871  44.514  53.411  1.00  0.00     0.176 C 
BRANCH   4  13
ATOM     13  N   UNL     1       5.827  41.233  48.679  1.00  0.00    -0.339 N 
ATOM     14  H   UNL     1       5.566  40.399  49.203  1.00  0.00     0.168 HD
BRANCH  13  15
ATOM     15  C   UNL     1       5.196  41.228  47.413  1.00  0.00     0.043 A 
ATOM     16  C   UNL     1       3.958  40.570  47.261  1.00  0.00    -0.028 A 
ATOM     17  C   UNL     1       3.296  40.614  46.022  1.00  0.00     0.005 A 
ATOM     18  C   UNL     1       3.840  41.318  44.950  1.00  0.00     0.000 A 
ATOM     19  C   UNL     1       5.711  41.960  46.332  1.00  0.00     0.026 A 
ATOM     20  C   UNL     1       5.044  41.995  45.105  1.00  0.00     0.002 A 
ATOM     21  C   UNL     1       3.344  39.802  48.400  1.00  0.00     0.046 C 
ENDBRANCH  13  15
ENDBRANCH   4  13
ENDBRANCH   1   3
BRANCH   1  22
ATOM     22  C   UNL     1       8.053  46.278  50.914  1.00  0.00     0.116 C 
BRANCH  22  23
ATOM     23  C   UNL     1       9.312  46.244  51.786  1.00  0.00     0.024 C 
BRANCH  23  24
ATOM     24  C   UNL     1       9.491  47.455  52.723  1.00  0.00    -0.016 C 
ATOM     25  C   UNL     1       8.284  48.388  52.598  1.00  0.00     0.007 C 
ATOM     26  C   UNL     1       9.675  47.044  54.184  1.00  0.00     0.007 C 
ENDBRANCH  23  24
ENDBRANCH  22  23
ENDBRANCH   1  22
TORSDOF 6
ENDMDL
MODEL 11
REMARK VINA RESULT:    -8.210      1.830      5.917
REMARK INTER + INTRA:         -12.228
REMARK INTER:                 -11.341
REMARK INTRA:                  -0.888
REMARK UNBOUND:                -1.139
REMARK SMILES Cc1ccccc1Nc1nc(NCCC(C)C)nc2c1cnn2C
REMARK SMILES IDX 12 1 11 3 9 4 10 5 20 6 19 7 21 8 18 9 23 10 22 11 24 12
REMARK SMILES IDX 8 13 7 15 2 16 3 17 4 18 6 19 5 20 1 21 13 22 14 23 15 24
REMARK SMILES IDX 16 25 17 26
REMARK H PARENT 12 2 8 14
ROOT
ATOM      1  N   UNL     1       5.966  47.021  52.488  1.00  0.00    -0.354 N 
ATOM      2  H   UNL     1       5.089  47.327  52.895  1.00  0.00     0.163 HD
ENDROOT
BRANCH   1   3
ATOM      3  C   UNL     1       5.728  45.738  52.008  1.00  0.00     0.226 A 
ATOM      4  C   UNL     1       4.374  43.840  52.232  1.00  0.00     0.147 A 
ATOM      5  N   UNL     1       4.722  45.090  52.627  1.00  0.00    -0.195 NA
ATOM      6  C   UNL     1       5.114  43.248  51.208  1.00  0.00     0.082 A 
ATOM      7  C   UNL     1       6.126  44.006  50.654  1.00  0.00     0.165 A 
ATOM      8  C   UNL     1       5.171  42.023  50.513  1.00  0.00     0.149 A 
ATOM      9  N   UNL     1       6.475  45.251  51.007  1.00  0.00    -0.193 NA
ATOM     10  N   UNL     1       6.691  43.225  49.682  1.00  0.00    -0.250 N 
ATOM     11  N   UNL     1       6.127  42.000  49.576  1.00  0.00    -0.179 NA
ATOM     12  C   UNL     1       7.784  43.581  48.813  1.00  0.00     0.176 C 
BRANCH   4  13
ATOM     13  N   UNL     1       3.322  43.221  52.928  1.00  0.00    -0.339 N 
ATOM     14  H   UNL     1       3.532  43.326  53.919  1.00  0.00     0.168 HD
BRANCH  13  15
ATOM     15  C   UNL     1       1.935  43.389  52.705  1.00  0.00     0.043 A 
ATOM     16  C   UNL     1       1.157  44.063  53.669  1.00  0.00    -0.028 A 
ATOM     17  C   UNL     1      -0.209  44.289  53.426  1.00  0.00     0.005 A 
ATOM     18  C   UNL     1      -0.796  43.871  52.233  1.00  0.00     0.000 A 
ATOM     19  C   UNL     1       1.333  43.006  51.496  1.00  0.00     0.026 A 
ATOM     20  C   UNL     1      -0.026  43.234  51.266  1.00  0.00     0.002 A 
ATOM     21  C   UNL     1       1.762  44.528  54.966  1.00  0.00     0.046 C 
ENDBRANCH  13  15
ENDBRANCH   4  13
ENDBRANCH   1   3
BRANCH   1  22
ATOM     22  C   UNL     1       7.128  47.142  53.349  1.00  0.00     0.116 C 
BRANCH  22  23
ATOM     23  C   UNL     1       8.237  47.921  52.634  1.00  0.00     0.024 C 
BRANCH  23  24
ATOM     24  C   UNL     1       9.664  47.378  52.852  1.00  0.00    -0.016 C 
ATOM     25  C   UNL     1       9.905  47.147  54.346  1.00  0.00     0.007 C 
ATOM     26  C   UNL     1       9.923  46.084  52.081  1.00  0.00     0.007 C 
ENDBRANCH  23  24
ENDBRANCH  22  23
ENDBRANCH   1  22
TORSDOF 6
ENDMDL
MODEL 12
REMARK VINA RESULT:    -8.190      1.765      5.068
REMARK INTER + INTRA:         -12.203
REMARK INTER:                 -11.218
REMARK INTRA:                  -0.985
REMARK UNBOUND:                -1.139
REMARK SMILES Cc1ccccc1Nc1nc(NCCC(C)C)nc2c1cnn2C
REMARK SMILES IDX 12 1 11 3 9 4 10 5 20 6 19 7 21 8 18 9 23 10 22 11 24 12
REMARK SMILES IDX 8 13 7 15 2 16 3 17 4 18 6 19 5 20 1 21 13 22 14 23 15 24
REMARK SMILES IDX 16 25 17 26
REMARK H PARENT 12 2 8 14
ROOT
ATOM      1  N   UNL     1       3.151  44.558  54.453  1.00  0.00    -0.354 N 
ATOM      2  H   UNL     1       3.769  44.829  55.210  1.00  0.00     0.163 HD
ENDROOT
BRANCH   1   3
ATOM      3  C   UNL     1       3.969  44.396  53.341  1.00  0.00     0.226 A 
ATOM      4  C   UNL     1       5.738  45.333  52.124  1.00  0.00     0.147 A 
ATOM      5  N   UNL     1       4.864  45.386  53.160  1.00  0.00    -0.195 NA
ATOM      6  C   UNL     1       5.645  44.252  51.246  1.00  0.00     0.082 A 
ATOM      7  C   UNL     1       4.684  43.303  51.529  1.00  0.00     0.165 A 
ATOM      8  C   UNL     1       6.258  43.791  50.063  1.00  0.00     0.149 A 
ATOM      9  N   UNL     1       3.825  43.318  52.558  1.00  0.00    -0.193 NA
ATOM     10  N   UNL     1       4.791  42.356  50.547  1.00  0.00    -0.250 N 
ATOM     11  N   UNL     1       5.748  42.632  49.630  1.00  0.00    -0.179 NA
ATOM     12  C   UNL     1       4.006  41.154  50.413  1.00  0.00     0.176 C 
BRANCH   4  13
ATOM     13  N   UNL     1       6.637  46.404  51.992  1.00  0.00    -0.339 N 
ATOM     14  H   UNL     1       6.071  47.248  51.928  1.00  0.00     0.168 HD
BRANCH  13  15
ATOM     15  C   UNL     1       7.792  46.651  52.772  1.00  0.00     0.043 A 
ATOM     16  C   UNL     1       9.063  46.357  52.236  1.00  0.00    -0.028 A 
ATOM     17  C   UNL     1      10.217  46.657  52.980  1.00  0.00     0.005 A 
ATOM     18  C   UNL     1      10.117  47.261  54.232  1.00  0.00     0.000 A 
ATOM     19  C   UNL     1       7.714  47.290  54.019  1.00  0.00     0.026 A 
ATOM     20  C   UNL     1       8.868  47.582  54.750  1.00  0.00     0.002 A 
ATOM     21  C   UNL     1       9.204  45.706  50.887  1.00  0.00     0.046 C 
ENDBRANCH  13  15
ENDBRANCH   4  13
ENDBRANCH   1   3
BRANCH   1  22
ATOM     22  C   UNL     1       2.004  45.424  54.245  1.00  0.00     0.116 C 
BRANCH  22  23
ATOM     23  C   UNL     1       0.711  44.683  54.603  1.00  0.00     0.024 C 
BRANCH  23  24
ATOM     24  C   UNL     1      -0.019  44.029  53.412  1.00  0.00    -0.016 C 
ATOM     25  C   UNL     1       0.389  44.725  52.111  1.00  0.00     0.007 C 
ATOM     26  C   UNL     1       0.261  42.530  53.305  1.00  0.00     0.007 C 
ENDBRANCH  23  24
ENDBRANCH  22  23
ENDBRANCH   1  22
TORSDOF 6
ENDMDL
MODEL 13
REMARK VINA RESULT:    -8.108      1.895      5.942
REMARK INTER + INTRA:         -12.090
REMARK INTER:                 -11.374
REMARK INTRA:                  -0.717
REMARK UNBOUND:                -1.139
REMARK SMILES Cc1ccccc1Nc1nc(NCCC(C)C)nc2c1cnn2C
REMARK SMILES IDX 12 1 11 3 9 4 10 5 20 6 19 7 21 8 18 9 23 10 22 11 24 12
REMARK SMILES IDX 8 13 7 15 2 16 3 17 4 18 6 19 5 20 1 21 13 22 14 23 15 24
REMARK SMILES IDX 16 25 17 26
REMARK H PARENT 12 2 8 14
ROOT
ATOM      1  N   UNL     1       5.884  46.933  52.577  1.00  0.00    -0.354 N 
ATOM      2  H   UNL     1       5.585  46.894  53.545  1.00  0.00     0.163 HD
ENDROOT
BRANCH   1   3
ATOM      3  C   UNL     1       5.664  45.659  52.064  1.00  0.00     0.226 A 
ATOM      4  C   UNL     1       4.308  43.755  52.212  1.00  0.00     0.147 A 
ATOM      5  N   UNL     1       4.642  44.998  52.641  1.00  0.00    -0.195 NA
ATOM      6  C   UNL     1       5.079  43.184  51.198  1.00  0.00     0.082 A 
ATOM      7  C   UNL     1       6.106  43.955  50.690  1.00  0.00     0.165 A 
ATOM      8  C   UNL     1       5.160  41.973  50.481  1.00  0.00     0.149 A 
ATOM      9  N   UNL     1       6.441  45.194  51.076  1.00  0.00    -0.193 NA
ATOM     10  N   UNL     1       6.701  43.195  49.720  1.00  0.00    -0.250 N 
ATOM     11  N   UNL     1       6.143  41.971  49.573  1.00  0.00    -0.179 NA
ATOM     12  C   UNL     1       7.818  43.570  48.890  1.00  0.00     0.176 C 
BRANCH   4  13
ATOM     13  N   UNL     1       3.238  43.120  52.864  1.00  0.00    -0.339 N 
ATOM     14  H   UNL     1       3.625  42.696  53.706  1.00  0.00     0.168 HD
BRANCH  13  15
ATOM     15  C   UNL     1       1.961  43.665  53.139  1.00  0.00     0.043 A 
ATOM     16  C   UNL     1       0.957  43.605  52.150  1.00  0.00    -0.028 A 
ATOM     17  C   UNL     1      -0.330  44.087  52.437  1.00  0.00     0.005 A 
ATOM     18  C   UNL     1      -0.631  44.606  53.695  1.00  0.00     0.000 A 
ATOM     19  C   UNL     1       1.630  44.159  54.410  1.00  0.00     0.026 A 
ATOM     20  C   UNL     1       0.347  44.638  54.683  1.00  0.00     0.002 A 
ATOM     21  C   UNL     1       1.250  43.049  50.782  1.00  0.00     0.046 C 
ENDBRANCH  13  15
ENDBRANCH   4  13
ENDBRANCH   1   3
BRANCH   1  22
ATOM     22  C   UNL     1       7.222  47.454  52.359  1.00  0.00     0.116 C 
BRANCH  22  23
ATOM     23  C   UNL     1       8.041  47.365  53.650  1.00  0.00     0.024 C 
BRANCH  23  24
ATOM     24  C   UNL     1       9.569  47.461  53.465  1.00  0.00    -0.016 C 
ATOM     25  C   UNL     1      10.267  47.228  54.807  1.00  0.00     0.007 C 
ATOM     26  C   UNL     1      10.097  46.468  52.429  1.00  0.00     0.007 C 
ENDBRANCH  23  24
ENDBRANCH  22  23
ENDBRANCH   1  22
TORSDOF 6
ENDMDL
MODEL 14
REMARK VINA RESULT:    -8.099      1.892      5.114
REMARK INTER + INTRA:         -12.079
REMARK INTER:                 -11.331
REMARK INTRA:                  -0.749
REMARK UNBOUND:                -1.139
REMARK SMILES Cc1ccccc1Nc1nc(NCCC(C)C)nc2c1cnn2C
REMARK SMILES IDX 12 1 11 3 9 4 10 5 20 6 19 7 21 8 18 9 23 10 22 11 24 12
REMARK SMILES IDX 8 13 7 15 2 16 3 17 4 18 6 19 5 20 1 21 13 22 14 23 15 24
REMARK SMILES IDX 16 25 17 26
REMARK H PARENT 12 2 8 14
ROOT
ATOM      1  N   UNL     1       3.138  44.593  54.424  1.00  0.00    -0.354 N 
ATOM      2  H   UNL     1       3.735  44.920  55.176  1.00  0.00     0.163 HD
ENDROOT
BRANCH   1   3
ATOM      3  C   UNL     1       3.974  44.434  53.324  1.00  0.00     0.226 A 
ATOM      4  C   UNL     1       5.760  45.375  52.136  1.00  0.00     0.147 A 
ATOM      5  N   UNL     1       4.870  45.426  53.159  1.00  0.00    -0.195 NA
ATOM      6  C   UNL     1       5.683  44.295  51.256  1.00  0.00     0.082 A 
ATOM      7  C   UNL     1       4.719  43.344  51.523  1.00  0.00     0.165 A 
ATOM      8  C   UNL     1       6.315  43.837  50.082  1.00  0.00     0.149 A 
ATOM      9  N   UNL     1       3.845  43.356  52.538  1.00  0.00    -0.193 NA
ATOM     10  N   UNL     1       4.844  42.398  50.542  1.00  0.00    -0.250 N 
ATOM     11  N   UNL     1       5.814  42.677  49.640  1.00  0.00    -0.179 NA
ATOM     12  C   UNL     1       4.064  41.194  50.395  1.00  0.00     0.176 C 
BRANCH   4  13
ATOM     13  N   UNL     1       6.659  46.448  52.019  1.00  0.00    -0.339 N 
ATOM     14  H   UNL     1       6.092  47.293  51.966  1.00  0.00     0.168 HD
BRANCH  13  15
ATOM     15  C   UNL     1       7.813  46.685  52.802  1.00  0.00     0.043 A 
ATOM     16  C   UNL     1       9.084  46.396  52.265  1.00  0.00    -0.028 A 
ATOM     17  C   UNL     1      10.237  46.687  53.014  1.00  0.00     0.005 A 
ATOM     18  C   UNL     1      10.138  47.277  54.272  1.00  0.00     0.000 A 
ATOM     19  C   UNL     1       7.735  47.311  54.057  1.00  0.00     0.026 A 
ATOM     20  C   UNL     1       8.888  47.593  54.792  1.00  0.00     0.002 A 
ATOM     21  C   UNL     1       9.226  45.760  50.909  1.00  0.00     0.046 C 
ENDBRANCH  13  15
ENDBRANCH   4  13
ENDBRANCH   1   3
BRANCH   1  22
ATOM     22  C   UNL     1       1.953  45.394  54.177  1.00  0.00     0.116 C 
BRANCH  22  23
ATOM     23  C   UNL     1       0.705  44.504  54.175  1.00  0.00     0.024 C 
BRANCH  23  24
ATOM     24  C   UNL     1      -0.387  44.907  55.186  1.00  0.00    -0.016 C 
ATOM     25  C   UNL     1      -1.439  43.799  55.278  1.00  0.00     0.007 C 
ATOM     26  C   UNL     1       0.179  45.198  56.576  1.00  0.00     0.007 C 
ENDBRANCH  23  24
ENDBRANCH  22  23
ENDBRANCH   1  22
TORSDOF 6
ENDMDL
MODEL 15
REMARK VINA RESULT:    -8.088      1.926      6.476
REMARK INTER + INTRA:         -12.065
REMARK INTER:                 -11.156
REMARK INTRA:                  -0.908
REMARK UNBOUND:                -1.139
REMARK SMILES Cc1ccccc1Nc1nc(NCCC(C)C)nc2c1cnn2C
REMARK SMILES IDX 12 1 11 3 9 4 10 5 20 6 19 7 21 8 18 9 23 10 22 11 24 12
REMARK SMILES IDX 8 13 7 15 2 16 3 17 4 18 6 19 5 20 1 21 13 22 14 23 15 24
REMARK SMILES IDX 16 25 17 26
REMARK H PARENT 12 2 8 14
ROOT
ATOM      1  N   UNL     1       7.180  46.613  51.215  1.00  0.00    -0.354 N 
ATOM      2  H   UNL     1       7.147  47.046  50.298  1.00  0.00     0.163 HD
ENDROOT
BRANCH   1   3
ATOM      3  C   UNL     1       6.155  45.673  51.222  1.00  0.00     0.226 A 
ATOM      4  C   UNL     1       3.881  45.338  51.675  1.00  0.00     0.147 A 
ATOM      5  N   UNL     1       4.968  46.149  51.646  1.00  0.00    -0.195 NA
ATOM      6  C   UNL     1       4.050  44.005  51.296  1.00  0.00     0.082 A 
ATOM      7  C   UNL     1       5.315  43.631  50.887  1.00  0.00     0.165 A 
ATOM      8  C   UNL     1       3.286  42.824  51.202  1.00  0.00     0.149 A 
ATOM      9  N   UNL     1       6.399  44.417  50.825  1.00  0.00    -0.193 NA
ATOM     10  N   UNL     1       5.227  42.304  50.565  1.00  0.00    -0.250 N 
ATOM     11  N   UNL     1       3.994  41.781  50.753  1.00  0.00    -0.179 NA
ATOM     12  C   UNL     1       6.289  41.461  50.074  1.00  0.00     0.176 C 
BRANCH   4  13
ATOM     13  N   UNL     1       2.678  45.898  52.136  1.00  0.00    -0.339 N 
ATOM     14  H   UNL     1       2.030  45.873  51.350  1.00  0.00     0.168 HD
BRANCH  13  15
ATOM     15  C   UNL     1       1.997  45.588  53.337  1.00  0.00     0.043 A 
ATOM     16  C   UNL     1       0.687  45.070  53.275  1.00  0.00    -0.028 A 
ATOM     17  C   UNL     1       0.028  44.703  54.460  1.00  0.00     0.005 A 
ATOM     18  C   UNL     1       0.664  44.825  55.694  1.00  0.00     0.000 A 
ATOM     19  C   UNL     1       2.633  45.672  54.585  1.00  0.00     0.026 A 
ATOM     20  C   UNL     1       1.968  45.306  55.757  1.00  0.00     0.002 A 
ATOM     21  C   UNL     1      -0.027  44.924  51.958  1.00  0.00     0.046 C 
ENDBRANCH  13  15
ENDBRANCH   4  13
ENDBRANCH   1   3
BRANCH   1  22
ATOM     22  C   UNL     1       7.171  47.532  52.339  1.00  0.00     0.116 C 
BRANCH  22  23
ATOM     23  C   UNL     1       8.604  47.930  52.708  1.00  0.00     0.024 C 
BRANCH  23  24
ATOM     24  C   UNL     1       9.476  46.787  53.268  1.00  0.00    -0.016 C 
ATOM     25  C   UNL     1      10.507  46.364  52.218  1.00  0.00     0.007 C 
ATOM     26  C   UNL     1      10.188  47.175  54.564  1.00  0.00     0.007 C 
ENDBRANCH  23  24
ENDBRANCH  22  23
ENDBRANCH   1  22
TORSDOF 6
ENDMDL
MODEL 16
REMARK VINA RESULT:    -7.770      2.462      6.248
REMARK INTER + INTRA:         -11.635
REMARK INTER:                 -10.821
REMARK INTRA:                  -0.814
REMARK UNBOUND:                -1.139
REMARK SMILES Cc1ccccc1Nc1nc(NCCC(C)C)nc2c1cnn2C
REMARK SMILES IDX 12 1 11 3 9 4 10 5 20 6 19 7 21 8 18 9 23 10 22 11 24 12
REMARK SMILES IDX 8 13 7 15 2 16 3 17 4 18 6 19 5 20 1 21 13 22 14 23 15 24
REMARK SMILES IDX 16 25 17 26
REMARK H PARENT 12 2 8 14
ROOT
ATOM      1  N   UNL     1       4.497  41.546  50.946  1.00  0.00    -0.354 N 
ATOM      2  H   UNL     1       4.455  41.099  51.856  1.00  0.00     0.163 HD
ENDROOT
BRANCH   1   3
ATOM      3  C   UNL     1       4.333  42.905  51.189  1.00  0.00     0.226 A 
ATOM      4  C   UNL     1       5.315  45.017  50.940  1.00  0.00     0.147 A 
ATOM      5  N   UNL     1       5.365  43.671  50.783  1.00  0.00    -0.195 NA
ATOM      6  C   UNL     1       4.192  45.561  51.565  1.00  0.00     0.082 A 
ATOM      7  C   UNL     1       3.202  44.677  51.945  1.00  0.00     0.165 A 
ATOM      8  C   UNL     1       3.715  46.822  51.978  1.00  0.00     0.149 A 
ATOM      9  N   UNL     1       3.214  43.347  51.780  1.00  0.00    -0.193 NA
ATOM     10  N   UNL     1       2.220  45.437  52.519  1.00  0.00    -0.250 N 
ATOM     11  N   UNL     1       2.509  46.758  52.557  1.00  0.00    -0.179 NA
ATOM     12  C   UNL     1       0.970  44.968  53.064  1.00  0.00     0.176 C 
BRANCH   4  13
ATOM     13  N   UNL     1       6.429  45.752  50.503  1.00  0.00    -0.339 N 
ATOM     14  H   UNL     1       6.063  46.594  50.061  1.00  0.00     0.168 HD
BRANCH  13  15
ATOM     15  C   UNL     1       7.593  46.062  51.246  1.00  0.00     0.043 A 
ATOM     16  C   UNL     1       8.828  45.497  50.863  1.00  0.00    -0.028 A 
ATOM     17  C   UNL     1       9.997  45.848  51.557  1.00  0.00     0.005 A 
ATOM     18  C   UNL     1       9.953  46.765  52.606  1.00  0.00     0.000 A 
ATOM     19  C   UNL     1       7.574  47.008  52.282  1.00  0.00     0.026 A 
ATOM     20  C   UNL     1       8.743  47.348  52.966  1.00  0.00     0.002 A 
ATOM     21  C   UNL     1       8.909  44.506  49.733  1.00  0.00     0.046 C 
ENDBRANCH  13  15
ENDBRANCH   4  13
ENDBRANCH   1   3
BRANCH   1  22
ATOM     22  C   UNL     1       3.608  40.995  49.939  1.00  0.00     0.116 C 
BRANCH  22  23
ATOM     23  C   UNL     1       4.361  40.798  48.620  1.00  0.00     0.024 C 
BRANCH  23  24
ATOM     24  C   UNL     1       3.476  40.443  47.408  1.00  0.00    -0.016 C 
ATOM     25  C   UNL     1       4.196  40.826  46.113  1.00  0.00     0.007 C 
ATOM     26  C   UNL     1       3.099  38.962  47.370  1.00  0.00     0.007 C 
ENDBRANCH  23  24
ENDBRANCH  22  23
ENDBRANCH   1  22
TORSDOF 6
ENDMDL
MODEL 17
REMARK VINA RESULT:    -7.758      2.066      5.434
REMARK INTER + INTRA:         -11.618
REMARK INTER:                 -10.748
REMARK INTRA:                  -0.870
REMARK UNBOUND:                -1.139
REMARK SMILES Cc1ccccc1Nc1nc(NCCC(C)C)nc2c1cnn2C
REMARK SMILES IDX 12 1 11 3 9 4 10 5 20 6 19 7 21 8 18 9 23 10 22 11 24 12
REMARK SMILES IDX 8 13 7 15 2 16 3 17 4 18 6 19 5 20 1 21 13 22 14 23 15 24
REMARK SMILES IDX 16 25 17 26
REMARK H PARENT 12 2 8 14
ROOT
ATOM      1  N   UNL     1       5.953  46.879  52.827  1.00  0.00    -0.354 N 
ATOM      2  H   UNL     1       6.114  47.024  53.818  1.00  0.00     0.163 HD
ENDROOT
BRANCH   1   3
ATOM      3  C   UNL     1       5.099  45.785  52.742  1.00  0.00     0.226 A 
ATOM      4  C   UNL     1       4.907  43.571  52.003  1.00  0.00     0.147 A 
ATOM      5  N   UNL     1       5.631  44.711  52.127  1.00  0.00    -0.195 NA
ATOM      6  C   UNL     1       3.599  43.571  52.491  1.00  0.00     0.082 A 
ATOM      7  C   UNL     1       3.161  44.732  53.095  1.00  0.00     0.165 A 
ATOM      8  C   UNL     1       2.492  42.700  52.558  1.00  0.00     0.149 A 
ATOM      9  N   UNL     1       3.862  45.863  53.253  1.00  0.00    -0.193 NA
ATOM     10  N   UNL     1       1.874  44.487  53.491  1.00  0.00    -0.250 N 
ATOM     11  N   UNL     1       1.436  43.248  53.170  1.00  0.00    -0.179 NA
ATOM     12  C   UNL     1       0.993  45.396  54.180  1.00  0.00     0.176 C 
BRANCH   4  13
ATOM     13  N   UNL     1       5.521  42.493  51.343  1.00  0.00    -0.339 N 
ATOM     14  H   UNL     1       5.473  41.701  51.981  1.00  0.00     0.168 HD
BRANCH  13  15
ATOM     15  C   UNL     1       5.290  42.062  50.015  1.00  0.00     0.043 A 
ATOM     16  C   UNL     1       6.189  42.447  48.998  1.00  0.00    -0.028 A 
ATOM     17  C   UNL     1       6.001  41.971  47.689  1.00  0.00     0.005 A 
ATOM     18  C   UNL     1       4.949  41.107  47.391  1.00  0.00     0.000 A 
ATOM     19  C   UNL     1       4.257  41.165  49.702  1.00  0.00     0.026 A 
ATOM     20  C   UNL     1       4.080  40.700  48.397  1.00  0.00     0.002 A 
ATOM     21  C   UNL     1       7.335  43.377  49.289  1.00  0.00     0.046 C 
ENDBRANCH  13  15
ENDBRANCH   4  13
ENDBRANCH   1   3
BRANCH   1  22
ATOM     22  C   UNL     1       7.150  46.782  52.011  1.00  0.00     0.116 C 
BRANCH  22  23
ATOM     23  C   UNL     1       8.147  47.877  52.402  1.00  0.00     0.024 C 
BRANCH  23  24
ATOM     24  C   UNL     1       9.569  47.379  52.735  1.00  0.00    -0.016 C 
ATOM     25  C   UNL     1       9.681  47.106  54.237  1.00  0.00     0.007 C 
ATOM     26  C   UNL     1       9.948  46.122  51.952  1.00  0.00     0.007 C 
ENDBRANCH  23  24
ENDBRANCH  22  23
ENDBRANCH   1  22
TORSDOF 6
ENDMDL
MODEL 18
REMARK VINA RESULT:    -7.684      1.423      4.769
REMARK INTER + INTRA:         -11.519
REMARK INTER:                 -10.406
REMARK INTRA:                  -1.113
REMARK UNBOUND:                -1.139
REMARK SMILES Cc1ccccc1Nc1nc(NCCC(C)C)nc2c1cnn2C
REMARK SMILES IDX 12 1 11 3 9 4 10 5 20 6 19 7 21 8 18 9 23 10 22 11 24 12
REMARK SMILES IDX 8 13 7 15 2 16 3 17 4 18 6 19 5 20 1 21 13 22 14 23 15 24
REMARK SMILES IDX 16 25 17 26
REMARK H PARENT 12 2 8 14
ROOT
ATOM      1  N   UNL     1       6.158  43.880  49.553  1.00  0.00    -0.354 N 
ATOM      2  H   UNL     1       6.268  44.324  48.647  1.00  0.00     0.163 HD
ENDROOT
BRANCH   1   3
ATOM      3  C   UNL     1       6.522  44.842  50.488  1.00  0.00     0.226 A 
ATOM      4  C   UNL     1       5.710  46.352  52.084  1.00  0.00     0.147 A 
ATOM      5  N   UNL     1       5.485  45.416  51.128  1.00  0.00    -0.195 NA
ATOM      6  C   UNL     1       7.032  46.719  52.342  1.00  0.00     0.082 A 
ATOM      7  C   UNL     1       8.010  46.067  51.618  1.00  0.00     0.165 A 
ATOM      8  C   UNL     1       7.741  47.623  53.158  1.00  0.00     0.149 A 
ATOM      9  N   UNL     1       7.818  45.122  50.687  1.00  0.00    -0.193 NA
ATOM     10  N   UNL     1       9.202  46.585  52.047  1.00  0.00    -0.250 N 
ATOM     11  N   UNL     1       9.067  47.546  52.990  1.00  0.00    -0.179 NA
ATOM     12  C   UNL     1      10.519  46.214  51.595  1.00  0.00     0.176 C 
BRANCH   4  13
ATOM     13  N   UNL     1       4.582  46.916  52.703  1.00  0.00    -0.339 N 
ATOM     14  H   UNL     1       4.344  47.747  52.166  1.00  0.00     0.168 HD
BRANCH  13  15
ATOM     15  C   UNL     1       3.403  46.243  53.105  1.00  0.00     0.043 A 
ATOM     16  C   UNL     1       3.364  45.609  54.364  1.00  0.00    -0.028 A 
ATOM     17  C   UNL     1       2.177  44.993  54.795  1.00  0.00     0.005 A 
ATOM     18  C   UNL     1       1.033  45.021  54.000  1.00  0.00     0.000 A 
ATOM     19  C   UNL     1       2.231  46.290  52.334  1.00  0.00     0.026 A 
ATOM     20  C   UNL     1       1.058  45.673  52.772  1.00  0.00     0.002 A 
ATOM     21  C   UNL     1       4.582  45.563  55.246  1.00  0.00     0.046 C 
ENDBRANCH  13  15
ENDBRANCH   4  13
ENDBRANCH   1   3
BRANCH   1  22
ATOM     22  C   UNL     1       6.826  42.600  49.703  1.00  0.00     0.116 C 
BRANCH  22  23
ATOM     23  C   UNL     1       5.896  41.597  50.394  1.00  0.00     0.024 C 
BRANCH  23  24
ATOM     24  C   UNL     1       4.397  41.954  50.346  1.00  0.00    -0.016 C 
ATOM     25  C   UNL     1       3.613  40.806  49.704  1.00  0.00     0.007 C 
ATOM     26  C   UNL     1       3.823  42.260  51.730  1.00  0.00     0.007 C 
ENDBRANCH  23  24
ENDBRANCH  22  23
ENDBRANCH   1  22
TORSDOF 6
ENDMDL
MODEL 19
REMARK VINA RESULT:    -7.600      2.277      6.603
REMARK INTER + INTRA:         -11.405
REMARK INTER:                 -10.543
REMARK INTRA:                  -0.862
REMARK UNBOUND:                -1.139
REMARK SMILES Cc1ccccc1Nc1nc(NCCC(C)C)nc2c1cnn2C
REMARK SMILES IDX 12 1 11 3 9 4 10 5 20 6 19 7 21 8 18 9 23 10 22 11 24 12
REMARK SMILES IDX 8 13 7 15 2 16 3 17 4 18 6 19 5 20 1 21 13 22 14 23 15 24
REMARK SMILES IDX 16 25 17 26
REMARK H PARENT 12 2 8 14
ROOT
ATOM      1  N   UNL     1       4.302  41.520  51.587  1.00  0.00    -0.354 N 
ATOM      2  H   UNL     1       3.787  40.779  52.050  1.00  0.00     0.163 HD
ENDROOT
BRANCH   1   3
ATOM      3  C   UNL     1       3.716  42.706  52.014  1.00  0.00     0.226 A 
ATOM      4  C   UNL     1       3.968  45.034  52.098  1.00  0.00     0.147 A 
ATOM      5  N   UNL     1       4.443  43.810  51.754  1.00  0.00    -0.195 NA
ATOM      6  C   UNL     1       2.740  45.096  52.758  1.00  0.00     0.082 A 
ATOM      7  C   UNL     1       2.091  43.898  52.977  1.00  0.00     0.165 A 
ATOM      8  C   UNL     1       1.892  46.066  53.329  1.00  0.00     0.149 A 
ATOM      9  N   UNL     1       2.524  42.679  52.626  1.00  0.00    -0.193 NA
ATOM     10  N   UNL     1       0.926  44.215  53.622  1.00  0.00    -0.250 N 
ATOM     11  N   UNL     1       0.779  45.540  53.855  1.00  0.00    -0.179 NA
ATOM     12  C   UNL     1      -0.101  43.300  54.055  1.00  0.00     0.176 C 
BRANCH   4  13
ATOM     13  N   UNL     1       4.782  46.140  51.804  1.00  0.00    -0.339 N 
ATOM     14  H   UNL     1       4.257  46.966  52.085  1.00  0.00     0.168 HD
BRANCH  13  15
ATOM     15  C   UNL     1       6.151  46.302  52.125  1.00  0.00     0.043 A 
ATOM     16  C   UNL     1       6.516  46.630  53.447  1.00  0.00    -0.028 A 
ATOM     17  C   UNL     1       7.876  46.731  53.787  1.00  0.00     0.005 A 
ATOM     18  C   UNL     1       8.866  46.492  52.836  1.00  0.00     0.000 A 
ATOM     19  C   UNL     1       7.163  46.032  51.191  1.00  0.00     0.026 A 
ATOM     20  C   UNL     1       8.511  46.137  51.540  1.00  0.00     0.002 A 
ATOM     21  C   UNL     1       5.471  46.893  54.497  1.00  0.00     0.046 C 
ENDBRANCH  13  15
ENDBRANCH   4  13
ENDBRANCH   1   3
BRANCH   1  22
ATOM     22  C   UNL     1       4.425  41.386  50.147  1.00  0.00     0.116 C 
BRANCH  22  23
ATOM     23  C   UNL     1       5.897  41.475  49.732  1.00  0.00     0.024 C 
BRANCH  23  24
ATOM     24  C   UNL     1       6.242  42.649  48.792  1.00  0.00    -0.016 C 
ATOM     25  C   UNL     1       7.647  43.168  49.109  1.00  0.00     0.007 C 
ATOM     26  C   UNL     1       6.156  42.262  47.315  1.00  0.00     0.007 C 
ENDBRANCH  23  24
ENDBRANCH  22  23
ENDBRANCH   1  22
TORSDOF 6
ENDMDL
