MODEL 1
REMARK VINA RESULT:    -8.522      0.000      0.000
REMARK INTER + INTRA:         -12.767
REMARK INTER:                 -11.512
REMARK INTRA:                  -1.256
REMARK UNBOUND:                -1.256
REMARK SMILES CC(C)CCNc1nc(Nc2ccc(F)cc2)c2cnn(C)c2n1
REMARK SMILES IDX 6 1 5 3 4 4 2 5 1 6 3 7 7 8 8 9 24 10 9 11 23 12 18 13 21 14
REMARK SMILES IDX 19 15 20 16 22 17 10 18 11 20 12 21 17 22 13 23 16 24 14 25
REMARK SMILES IDX 15 26
REMARK H PARENT 6 2 10 19
ROOT
ATOM      1  N   UNL     1       2.449  45.769  51.739  1.00  0.00    -0.354 N 
ATOM      2  H   UNL     1       1.683  45.106  51.687  1.00  0.00     0.163 HD
ENDROOT
BRANCH   1   3
ATOM      3  C   UNL     1       2.593  46.440  53.021  1.00  0.00     0.116 C 
BRANCH   3   4
ATOM      4  C   UNL     1       2.932  45.429  54.121  1.00  0.00     0.024 C 
BRANCH   4   5
ATOM      5  C   UNL     1       4.131  45.853  54.992  1.00  0.00    -0.016 C 
ATOM      6  C   UNL     1       4.603  47.274  54.683  1.00  0.00     0.007 C 
ATOM      7  C   UNL     1       5.288  44.870  54.797  1.00  0.00     0.007 C 
ENDBRANCH   4   5
ENDBRANCH   3   4
ENDBRANCH   1   3
BRANCH   1   8
ATOM      8  C   UNL     1       3.563  45.064  51.295  1.00  0.00     0.226 A 
ATOM      9  N   UNL     1       4.687  45.798  51.219  1.00  0.00    -0.195 NA
ATOM     10  N   UNL     1       3.456  43.768  50.979  1.00  0.00    -0.193 NA
ATOM     11  C   UNL     1       5.860  45.244  50.810  1.00  0.00     0.147 A 
ATOM     12  C   UNL     1       4.617  43.235  50.575  1.00  0.00     0.165 A 
ATOM     13  C   UNL     1       5.828  43.888  50.462  1.00  0.00     0.082 A 
ATOM     14  N   UNL     1       4.845  41.943  50.191  1.00  0.00    -0.250 N 
ATOM     15  C   UNL     1       6.716  42.896  49.998  1.00  0.00     0.149 A 
ATOM     16  N   UNL     1       6.128  41.707  49.823  1.00  0.00    -0.179 NA
ATOM     17  C   UNL     1       3.885  40.868  50.148  1.00  0.00     0.176 C 
BRANCH  11  18
ATOM     18  N   UNL     1       7.041  45.998  50.708  1.00  0.00    -0.339 N 
ATOM     19  H   UNL     1       7.270  46.266  49.762  1.00  0.00     0.168 HD
BRANCH  18  20
ATOM     20  C   UNL     1       8.002  46.380  51.661  1.00  0.00     0.040 A 
ATOM     21  C   UNL     1       9.358  46.043  51.580  1.00  0.00     0.029 A 
ATOM     22  C   UNL     1       7.571  47.102  52.789  1.00  0.00     0.029 A 
ATOM     23  C   UNL     1      10.260  46.427  52.579  1.00  0.00     0.041 A 
ATOM     24  C   UNL     1       8.467  47.488  53.790  1.00  0.00     0.041 A 
ATOM     25  C   UNL     1       9.806  47.146  53.674  1.00  0.00     0.123 A 
ATOM     26  F   UNL     1      10.669  47.513  54.630  1.00  0.00    -0.207 F 
ENDBRANCH  18  20
ENDBRANCH  11  18
ENDBRANCH   1   8
TORSDOF 6
ENDMDL
MODEL 2
REMARK VINA RESULT:    -8.509      2.188      4.974
REMARK INTER + INTRA:         -12.749
REMARK INTER:                 -12.072
REMARK INTRA:                  -0.678
REMARK UNBOUND:                -1.256
REMARK SMILES CC(C)CCNc1nc(Nc2ccc(F)cc2)c2cnn(C)c2n1
REMARK SMILES IDX 6 1 5 3 4 4 2 5 1 6 3 7 7 8 8 9 24 10 9 11 23 12 18 13 21 14
REMARK SMILES IDX 19 15 20 16 22 17 10 18 11 20 12 21 17 22 13 23 16 24 14 25
REMARK SMILES IDX 15 26
REMARK H PARENT 6 2 10 19
ROOT
ATOM      1  N   UNL     1       6.262  41.622  49.395  1.00  0.00    -0.354 N 
ATOM      2  H   UNL     1       6.478  40.862  50.032  1.00  0.00     0.163 HD
ENDROOT
BRANCH   1   3
ATOM      3  C   UNL     1       5.433  41.252  48.259  1.00  0.00     0.116 C 
BRANCH   3   4
ATOM      4  C   UNL     1       5.843  42.044  47.013  1.00  0.00     0.024 C 
BRANCH   4   5
ATOM      5  C   UNL     1       5.256  41.476  45.707  1.00  0.00    -0.016 C 
ATOM      6  C   UNL     1       5.152  42.532  44.606  1.00  0.00     0.007 C 
ATOM      7  C   UNL     1       3.875  40.874  45.977  1.00  0.00     0.007 C 
ENDBRANCH   4   5
ENDBRANCH   3   4
ENDBRANCH   1   3
BRANCH   1   8
ATOM      8  C   UNL     1       5.763  42.637  50.205  1.00  0.00     0.226 A 
ATOM      9  N   UNL     1       6.540  43.733  50.257  1.00  0.00    -0.195 NA
ATOM     10  N   UNL     1       4.605  42.470  50.855  1.00  0.00    -0.193 NA
ATOM     11  C   UNL     1       6.179  44.813  51.001  1.00  0.00     0.147 A 
ATOM     12  C   UNL     1       4.262  43.539  51.586  1.00  0.00     0.165 A 
ATOM     13  C   UNL     1       4.976  44.714  51.711  1.00  0.00     0.082 A 
ATOM     14  N   UNL     1       3.143  43.691  52.356  1.00  0.00    -0.250 N 
ATOM     15  C   UNL     1       4.197  45.502  52.584  1.00  0.00     0.149 A 
ATOM     16  N   UNL     1       3.080  44.887  52.988  1.00  0.00    -0.179 NA
ATOM     17  C   UNL     1       2.081  42.733  52.540  1.00  0.00     0.176 C 
BRANCH  11  18
ATOM     18  N   UNL     1       6.984  45.961  51.083  1.00  0.00    -0.339 N 
ATOM     19  H   UNL     1       6.882  46.584  50.296  1.00  0.00     0.168 HD
BRANCH  18  20
ATOM     20  C   UNL     1       7.959  46.366  52.012  1.00  0.00     0.040 A 
ATOM     21  C   UNL     1       9.337  46.294  51.778  1.00  0.00     0.029 A 
ATOM     22  C   UNL     1       7.529  46.826  53.271  1.00  0.00     0.029 A 
ATOM     23  C   UNL     1      10.259  46.683  52.757  1.00  0.00     0.041 A 
ATOM     24  C   UNL     1       8.446  47.215  54.253  1.00  0.00     0.041 A 
ATOM     25  C   UNL     1       9.804  47.140  53.984  1.00  0.00     0.123 A 
ATOM     26  F   UNL     1      10.686  47.512  54.921  1.00  0.00    -0.207 F 
ENDBRANCH  18  20
ENDBRANCH  11  18
ENDBRANCH   1   8
TORSDOF 6
ENDMDL
MODEL 3
REMARK VINA RESULT:    -8.483      1.032      1.108
REMARK INTER + INTRA:         -12.714
REMARK INTER:                 -11.600
REMARK INTRA:                  -1.114
REMARK UNBOUND:                -1.256
REMARK SMILES CC(C)CCNc1nc(Nc2ccc(F)cc2)c2cnn(C)c2n1
REMARK SMILES IDX 6 1 5 3 4 4 2 5 1 6 3 7 7 8 8 9 24 10 9 11 23 12 18 13 21 14
REMARK SMILES IDX 19 15 20 16 22 17 10 18 11 20 12 21 17 22 13 23 16 24 14 25
REMARK SMILES IDX 15 26
REMARK H PARENT 6 2 10 19
ROOT
ATOM      1  N   UNL     1       2.913  44.216  52.435  1.00  0.00    -0.354 N 
ATOM      2  H   UNL     1       2.915  43.342  52.951  1.00  0.00     0.163 HD
ENDROOT
BRANCH   1   3
ATOM      3  C   UNL     1       2.652  45.400  53.239  1.00  0.00     0.116 C 
BRANCH   3   4
ATOM      4  C   UNL     1       2.815  45.086  54.729  1.00  0.00     0.024 C 
BRANCH   4   5
ATOM      5  C   UNL     1       3.987  45.838  55.388  1.00  0.00    -0.016 C 
ATOM      6  C   UNL     1       4.282  47.173  54.703  1.00  0.00     0.007 C 
ATOM      7  C   UNL     1       5.242  44.962  55.372  1.00  0.00     0.007 C 
ENDBRANCH   4   5
ENDBRANCH   3   4
ENDBRANCH   1   3
BRANCH   1   8
ATOM      8  C   UNL     1       4.108  44.216  51.726  1.00  0.00     0.226 A 
ATOM      9  N   UNL     1       4.885  45.291  51.950  1.00  0.00    -0.195 NA
ATOM     10  N   UNL     1       4.400  43.204  50.899  1.00  0.00    -0.193 NA
ATOM     11  C   UNL     1       6.090  45.427  51.334  1.00  0.00     0.147 A 
ATOM     12  C   UNL     1       5.588  43.351  50.297  1.00  0.00     0.165 A 
ATOM     13  C   UNL     1       6.465  44.406  50.453  1.00  0.00     0.082 A 
ATOM     14  N   UNL     1       6.176  42.496  49.407  1.00  0.00    -0.250 N 
ATOM     15  C   UNL     1       7.547  44.085  49.607  1.00  0.00     0.149 A 
ATOM     16  N   UNL     1       7.380  42.926  48.960  1.00  0.00    -0.179 NA
ATOM     17  C   UNL     1       5.648  41.242  48.930  1.00  0.00     0.176 C 
BRANCH  11  18
ATOM     18  N   UNL     1       6.907  46.550  51.542  1.00  0.00    -0.339 N 
ATOM     19  H   UNL     1       6.734  47.303  50.893  1.00  0.00     0.168 HD
BRANCH  18  20
ATOM     20  C   UNL     1       7.969  46.793  52.431  1.00  0.00     0.040 A 
ATOM     21  C   UNL     1       9.310  46.520  52.136  1.00  0.00     0.029 A 
ATOM     22  C   UNL     1       7.666  47.293  53.711  1.00  0.00     0.029 A 
ATOM     23  C   UNL     1      10.320  46.754  53.077  1.00  0.00     0.041 A 
ATOM     24  C   UNL     1       8.671  47.528  54.655  1.00  0.00     0.041 A 
ATOM     25  C   UNL     1       9.991  47.256  54.327  1.00  0.00     0.123 A 
ATOM     26  F   UNL     1      10.956  47.480  55.227  1.00  0.00    -0.207 F 
ENDBRANCH  18  20
ENDBRANCH  11  18
ENDBRANCH   1   8
TORSDOF 6
ENDMDL
MODEL 4
REMARK VINA RESULT:    -8.371      2.531      5.362
REMARK INTER + INTRA:         -12.563
REMARK INTER:                 -12.161
REMARK INTRA:                  -0.402
REMARK UNBOUND:                -1.256
REMARK SMILES CC(C)CCNc1nc(Nc2ccc(F)cc2)c2cnn(C)c2n1
REMARK SMILES IDX 6 1 5 3 4 4 2 5 1 6 3 7 7 8 8 9 24 10 9 11 23 12 18 13 21 14
REMARK SMILES IDX 19 15 20 16 22 17 10 18 11 20 12 21 17 22 13 23 16 24 14 25
REMARK SMILES IDX 15 26
REMARK H PARENT 6 2 10 19
ROOT
ATOM      1  N   UNL     1       5.906  47.072  54.915  1.00  0.00    -0.354 N 
ATOM      2  H   UNL     1       5.785  47.225  55.911  1.00  0.00     0.163 HD
ENDROOT
BRANCH   1   3
ATOM      3  C   UNL     1       7.236  46.636  54.520  1.00  0.00     0.116 C 
BRANCH   3   4
ATOM      4  C   UNL     1       7.748  47.470  53.341  1.00  0.00     0.024 C 
BRANCH   4   5
ATOM      5  C   UNL     1       9.284  47.570  53.283  1.00  0.00    -0.016 C 
ATOM      6  C   UNL     1       9.886  46.679  52.196  1.00  0.00     0.007 C 
ATOM      7  C   UNL     1       9.880  47.199  54.643  1.00  0.00     0.007 C 
ENDBRANCH   4   5
ENDBRANCH   3   4
ENDBRANCH   1   3
BRANCH   1   8
ATOM      8  C   UNL     1       4.860  46.231  54.552  1.00  0.00     0.226 A 
ATOM      9  N   UNL     1       5.089  45.514  53.438  1.00  0.00    -0.195 NA
ATOM     10  N   UNL     1       3.743  46.191  55.288  1.00  0.00    -0.193 NA
ATOM     11  C   UNL     1       4.161  44.640  52.963  1.00  0.00     0.147 A 
ATOM     12  C   UNL     1       2.836  45.328  54.810  1.00  0.00     0.165 A 
ATOM     13  C   UNL     1       2.963  44.542  53.682  1.00  0.00     0.082 A 
ATOM     14  N   UNL     1       1.603  45.050  55.330  1.00  0.00    -0.250 N 
ATOM     15  C   UNL     1       1.746  43.831  53.615  1.00  0.00     0.149 A 
ATOM     16  N   UNL     1       0.907  44.137  54.612  1.00  0.00    -0.179 NA
ATOM     17  C   UNL     1       1.015  45.618  56.518  1.00  0.00     0.176 C 
BRANCH  11  18
ATOM     18  N   UNL     1       4.374  43.895  51.792  1.00  0.00    -0.339 N 
ATOM     19  H   UNL     1       3.621  43.258  51.574  1.00  0.00     0.168 HD
BRANCH  18  20
ATOM     20  C   UNL     1       5.467  43.812  50.912  1.00  0.00     0.040 A 
ATOM     21  C   UNL     1       5.785  42.668  50.169  1.00  0.00     0.029 A 
ATOM     22  C   UNL     1       6.323  44.923  50.805  1.00  0.00     0.029 A 
ATOM     23  C   UNL     1       6.908  42.638  49.333  1.00  0.00     0.041 A 
ATOM     24  C   UNL     1       7.446  44.898  49.972  1.00  0.00     0.041 A 
ATOM     25  C   UNL     1       7.727  43.753  49.243  1.00  0.00     0.123 A 
ATOM     26  F   UNL     1       8.801  43.723  48.444  1.00  0.00    -0.207 F 
ENDBRANCH  18  20
ENDBRANCH  11  18
ENDBRANCH   1   8
TORSDOF 6
ENDMDL
MODEL 5
REMARK VINA RESULT:    -8.200      3.590      6.428
REMARK INTER + INTRA:         -12.331
REMARK INTER:                 -11.565
REMARK INTRA:                  -0.766
REMARK UNBOUND:                -1.256
REMARK SMILES CC(C)CCNc1nc(Nc2ccc(F)cc2)c2cnn(C)c2n1
REMARK SMILES IDX 6 1 5 3 4 4 2 5 1 6 3 7 7 8 8 9 24 10 9 11 23 12 18 13 21 14
REMARK SMILES IDX 19 15 20 16 22 17 10 18 11 20 12 21 17 22 13 23 16 24 14 25
REMARK SMILES IDX 15 26
REMARK H PARENT 6 2 10 19
ROOT
ATOM      1  N   UNL     1       6.027  46.912  52.549  1.00  0.00    -0.354 N 
ATOM      2  H   UNL     1       5.147  47.178  52.979  1.00  0.00     0.163 HD
ENDROOT
BRANCH   1   3
ATOM      3  C   UNL     1       7.191  47.034  53.412  1.00  0.00     0.116 C 
BRANCH   3   4
ATOM      4  C   UNL     1       8.268  47.895  52.743  1.00  0.00     0.024 C 
BRANCH   4   5
ATOM      5  C   UNL     1       9.698  47.369  52.969  1.00  0.00    -0.016 C 
ATOM      6  C   UNL     1       9.971  46.073  52.205  1.00  0.00     0.007 C 
ATOM      7  C   UNL     1       9.941  47.148  54.464  1.00  0.00     0.007 C 
ENDBRANCH   4   5
ENDBRANCH   3   4
ENDBRANCH   1   3
BRANCH   1   8
ATOM      8  C   UNL     1       5.797  45.648  52.016  1.00  0.00     0.226 A 
ATOM      9  N   UNL     1       4.769  44.989  52.580  1.00  0.00    -0.195 NA
ATOM     10  N   UNL     1       6.573  45.183  51.030  1.00  0.00    -0.193 NA
ATOM     11  C   UNL     1       4.418  43.745  52.158  1.00  0.00     0.147 A 
ATOM     12  C   UNL     1       6.218  43.956  50.625  1.00  0.00     0.165 A 
ATOM     13  C   UNL     1       5.185  43.190  51.126  1.00  0.00     0.082 A 
ATOM     14  N   UNL     1       6.801  43.209  49.639  1.00  0.00    -0.250 N 
ATOM     15  C   UNL     1       5.238  41.999  50.373  1.00  0.00     0.149 A 
ATOM     16  N   UNL     1       6.223  41.996  49.467  1.00  0.00    -0.179 NA
ATOM     17  C   UNL     1       7.920  43.586  48.812  1.00  0.00     0.176 C 
BRANCH  11  18
ATOM     18  N   UNL     1       3.359  43.033  52.746  1.00  0.00    -0.339 N 
ATOM     19  H   UNL     1       3.651  42.408  53.483  1.00  0.00     0.168 HD
BRANCH  18  20
ATOM     20  C   UNL     1       1.986  42.970  52.450  1.00  0.00     0.040 A 
ATOM     21  C   UNL     1       1.435  43.343  51.218  1.00  0.00     0.029 A 
ATOM     22  C   UNL     1       1.104  42.554  53.465  1.00  0.00     0.029 A 
ATOM     23  C   UNL     1       0.054  43.287  50.996  1.00  0.00     0.041 A 
ATOM     24  C   UNL     1      -0.276  42.497  53.249  1.00  0.00     0.041 A 
ATOM     25  C   UNL     1      -0.788  42.864  52.014  1.00  0.00     0.123 A 
ATOM     26  F   UNL     1      -2.109  42.811  51.802  1.00  0.00    -0.207 F 
ENDBRANCH  18  20
ENDBRANCH  11  18
ENDBRANCH   1   8
TORSDOF 6
ENDMDL
MODEL 6
REMARK VINA RESULT:    -8.135      3.680      6.732
REMARK INTER + INTRA:         -12.244
REMARK INTER:                 -11.463
REMARK INTRA:                  -0.782
REMARK UNBOUND:                -1.256
REMARK SMILES CC(C)CCNc1nc(Nc2ccc(F)cc2)c2cnn(C)c2n1
REMARK SMILES IDX 6 1 5 3 4 4 2 5 1 6 3 7 7 8 8 9 24 10 9 11 23 12 18 13 21 14
REMARK SMILES IDX 19 15 20 16 22 17 10 18 11 20 12 21 17 22 13 23 16 24 14 25
REMARK SMILES IDX 15 26
REMARK H PARENT 6 2 10 19
ROOT
ATOM      1  N   UNL     1       7.986  45.701  50.451  1.00  0.00    -0.354 N 
ATOM      2  H   UNL     1       7.962  45.935  49.464  1.00  0.00     0.163 HD
ENDROOT
BRANCH   1   3
ATOM      3  C   UNL     1       7.963  46.842  51.352  1.00  0.00     0.116 C 
BRANCH   3   4
ATOM      4  C   UNL     1       9.243  46.890  52.192  1.00  0.00     0.024 C 
BRANCH   4   5
ATOM      5  C   UNL     1       9.027  47.472  53.602  1.00  0.00    -0.016 C 
ATOM      6  C   UNL     1      10.187  47.158  54.547  1.00  0.00     0.007 C 
ATOM      7  C   UNL     1       7.721  46.935  54.192  1.00  0.00     0.007 C 
ENDBRANCH   4   5
ENDBRANCH   3   4
ENDBRANCH   1   3
BRANCH   1   8
ATOM      8  C   UNL     1       6.966  44.771  50.623  1.00  0.00     0.226 A 
ATOM      9  N   UNL     1       6.998  43.747  49.752  1.00  0.00    -0.195 NA
ATOM     10  N   UNL     1       6.056  44.943  51.589  1.00  0.00    -0.193 NA
ATOM     11  C   UNL     1       6.070  42.754  49.801  1.00  0.00     0.147 A 
ATOM     12  C   UNL     1       5.146  43.960  51.627  1.00  0.00     0.165 A 
ATOM     13  C   UNL     1       5.084  42.864  50.789  1.00  0.00     0.082 A 
ATOM     14  N   UNL     1       4.096  43.837  52.493  1.00  0.00    -0.250 N 
ATOM     15  C   UNL     1       3.954  42.149  51.238  1.00  0.00     0.149 A 
ATOM     16  N   UNL     1       3.341  42.734  52.273  1.00  0.00    -0.179 NA
ATOM     17  C   UNL     1       3.746  44.735  53.565  1.00  0.00     0.176 C 
BRANCH  11  18
ATOM     18  N   UNL     1       6.077  41.686  48.890  1.00  0.00    -0.339 N 
ATOM     19  H   UNL     1       6.834  41.034  49.035  1.00  0.00     0.168 HD
BRANCH  18  20
ATOM     20  C   UNL     1       5.277  41.396  47.771  1.00  0.00     0.040 A 
ATOM     21  C   UNL     1       4.133  40.591  47.817  1.00  0.00     0.029 A 
ATOM     22  C   UNL     1       5.674  41.901  46.519  1.00  0.00     0.029 A 
ATOM     23  C   UNL     1       3.396  40.313  46.660  1.00  0.00     0.041 A 
ATOM     24  C   UNL     1       4.943  41.626  45.359  1.00  0.00     0.041 A 
ATOM     25  C   UNL     1       3.808  40.833  45.442  1.00  0.00     0.123 A 
ATOM     26  F   UNL     1       3.104  40.566  44.335  1.00  0.00    -0.207 F 
ENDBRANCH  18  20
ENDBRANCH  11  18
ENDBRANCH   1   8
TORSDOF 6
ENDMDL
MODEL 7
REMARK VINA RESULT:    -8.126      2.983      5.688
REMARK INTER + INTRA:         -12.232
REMARK INTER:                 -11.336
REMARK INTRA:                  -0.896
REMARK UNBOUND:                -1.256
REMARK SMILES CC(C)CCNc1nc(Nc2ccc(F)cc2)c2cnn(C)c2n1
REMARK SMILES IDX 6 1 5 3 4 4 2 5 1 6 3 7 7 8 8 9 24 10 9 11 23 12 18 13 21 14
REMARK SMILES IDX 19 15 20 16 22 17 10 18 11 20 12 21 17 22 13 23 16 24 14 25
REMARK SMILES IDX 15 26
REMARK H PARENT 6 2 10 19
ROOT
ATOM      1  N   UNL     1       4.639  46.936  54.925  1.00  0.00    -0.354 N 
ATOM      2  H   UNL     1       4.047  47.490  54.315  1.00  0.00     0.163 HD
ENDROOT
BRANCH   1   3
ATOM      3  C   UNL     1       4.015  45.736  55.459  1.00  0.00     0.116 C 
BRANCH   3   4
ATOM      4  C   UNL     1       2.535  45.681  55.070  1.00  0.00     0.024 C 
BRANCH   4   5
ATOM      5  C   UNL     1       2.287  45.025  53.699  1.00  0.00    -0.016 C 
ATOM      6  C   UNL     1       1.821  46.031  52.645  1.00  0.00     0.007 C 
ATOM      7  C   UNL     1       1.252  43.906  53.837  1.00  0.00     0.007 C 
ENDBRANCH   4   5
ENDBRANCH   3   4
ENDBRANCH   1   3
BRANCH   1   8
ATOM      8  C   UNL     1       5.812  46.740  54.205  1.00  0.00     0.226 A 
ATOM      9  N   UNL     1       5.641  46.100  53.035  1.00  0.00    -0.195 NA
ATOM     10  N   UNL     1       6.982  47.171  54.693  1.00  0.00    -0.193 NA
ATOM     11  C   UNL     1       6.696  45.843  52.214  1.00  0.00     0.147 A 
ATOM     12  C   UNL     1       8.012  46.911  53.877  1.00  0.00     0.165 A 
ATOM     13  C   UNL     1       7.955  46.266  52.658  1.00  0.00     0.082 A 
ATOM     14  N   UNL     1       9.328  47.224  54.080  1.00  0.00    -0.250 N 
ATOM     15  C   UNL     1       9.294  46.242  52.215  1.00  0.00     0.149 A 
ATOM     16  N   UNL     1      10.140  46.818  53.075  1.00  0.00    -0.179 NA
ATOM     17  C   UNL     1       9.890  47.915  55.213  1.00  0.00     0.176 C 
BRANCH  11  18
ATOM     18  N   UNL     1       6.540  45.161  50.997  1.00  0.00    -0.339 N 
ATOM     19  H   UNL     1       6.878  45.676  50.197  1.00  0.00     0.168 HD
BRANCH  18  20
ATOM     20  C   UNL     1       5.935  43.934  50.674  1.00  0.00     0.040 A 
ATOM     21  C   UNL     1       6.443  43.040  49.723  1.00  0.00     0.029 A 
ATOM     22  C   UNL     1       4.721  43.603  51.304  1.00  0.00     0.029 A 
ATOM     23  C   UNL     1       5.775  41.847  49.423  1.00  0.00     0.041 A 
ATOM     24  C   UNL     1       4.049  42.413  51.007  1.00  0.00     0.041 A 
ATOM     25  C   UNL     1       4.585  41.545  50.067  1.00  0.00     0.123 A 
ATOM     26  F   UNL     1       3.946  40.404  49.779  1.00  0.00    -0.207 F 
ENDBRANCH  18  20
ENDBRANCH  11  18
ENDBRANCH   1   8
TORSDOF 6
ENDMDL
MODEL 8
REMARK VINA RESULT:    -8.101      1.654      2.130
REMARK INTER + INTRA:         -12.199
REMARK INTER:                 -11.477
REMARK INTRA:                  -0.721
REMARK UNBOUND:                -1.256
REMARK SMILES CC(C)CCNc1nc(Nc2ccc(F)cc2)c2cnn(C)c2n1
REMARK SMILES IDX 6 1 5 3 4 4 2 5 1 6 3 7 7 8 8 9 24 10 9 11 23 12 18 13 21 14
REMARK SMILES IDX 19 15 20 16 22 17 10 18 11 20 12 21 17 22 13 23 16 24 14 25
REMARK SMILES IDX 15 26
REMARK H PARENT 6 2 10 19
ROOT
ATOM      1  N   UNL     1       3.029  43.581  53.258  1.00  0.00    -0.354 N 
ATOM      2  H   UNL     1       3.461  43.206  54.096  1.00  0.00     0.163 HD
ENDROOT
BRANCH   1   3
ATOM      3  C   UNL     1       2.182  44.743  53.473  1.00  0.00     0.116 C 
BRANCH   3   4
ATOM      4  C   UNL     1       2.080  45.066  54.967  1.00  0.00     0.024 C 
BRANCH   4   5
ATOM      5  C   UNL     1       0.635  45.294  55.446  1.00  0.00    -0.016 C 
ATOM      6  C   UNL     1       0.510  45.244  56.970  1.00  0.00     0.007 C 
ATOM      7  C   UNL     1      -0.292  44.251  54.818  1.00  0.00     0.007 C 
ENDBRANCH   4   5
ENDBRANCH   3   4
ENDBRANCH   1   3
BRANCH   1   8
ATOM      8  C   UNL     1       4.078  43.753  52.361  1.00  0.00     0.226 A 
ATOM      9  N   UNL     1       4.782  44.884  52.545  1.00  0.00    -0.195 NA
ATOM     10  N   UNL     1       4.310  42.836  51.414  1.00  0.00    -0.193 NA
ATOM     11  C   UNL     1       5.844  45.186  51.750  1.00  0.00     0.147 A 
ATOM     12  C   UNL     1       5.356  43.146  50.637  1.00  0.00     0.165 A 
ATOM     13  C   UNL     1       6.150  44.272  50.734  1.00  0.00     0.082 A 
ATOM     14  N   UNL     1       5.854  42.420  49.590  1.00  0.00    -0.250 N 
ATOM     15  C   UNL     1       7.092  44.124  49.695  1.00  0.00     0.149 A 
ATOM     16  N   UNL     1       6.919  43.001  48.988  1.00  0.00    -0.179 NA
ATOM     17  C   UNL     1       5.365  41.154  49.103  1.00  0.00     0.176 C 
BRANCH  11  18
ATOM     18  N   UNL     1       6.581  46.370  51.915  1.00  0.00    -0.339 N 
ATOM     19  H   UNL     1       6.259  47.132  51.336  1.00  0.00     0.168 HD
BRANCH  18  20
ATOM     20  C   UNL     1       7.727  46.670  52.672  1.00  0.00     0.040 A 
ATOM     21  C   UNL     1       9.036  46.485  52.213  1.00  0.00     0.029 A 
ATOM     22  C   UNL     1       7.553  47.139  53.988  1.00  0.00     0.029 A 
ATOM     23  C   UNL     1      10.137  46.774  53.028  1.00  0.00     0.041 A 
ATOM     24  C   UNL     1       8.648  47.428  54.807  1.00  0.00     0.041 A 
ATOM     25  C   UNL     1       9.932  47.242  54.317  1.00  0.00     0.123 A 
ATOM     26  F   UNL     1      10.985  47.518  55.098  1.00  0.00    -0.207 F 
ENDBRANCH  18  20
ENDBRANCH  11  18
ENDBRANCH   1   8
TORSDOF 6
ENDMDL
MODEL 9
REMARK VINA RESULT:    -8.083      3.203      6.129
REMARK INTER + INTRA:         -12.174
REMARK INTER:                 -11.468
REMARK INTRA:                  -0.705
REMARK UNBOUND:                -1.256
REMARK SMILES CC(C)CCNc1nc(Nc2ccc(F)cc2)c2cnn(C)c2n1
REMARK SMILES IDX 6 1 5 3 4 4 2 5 1 6 3 7 7 8 8 9 24 10 9 11 23 12 18 13 21 14
REMARK SMILES IDX 19 15 20 16 22 17 10 18 11 20 12 21 17 22 13 23 16 24 14 25
REMARK SMILES IDX 15 26
REMARK H PARENT 6 2 10 19
ROOT
ATOM      1  N   UNL     1       7.014  46.238  51.240  1.00  0.00    -0.354 N 
ATOM      2  H   UNL     1       6.845  46.602  50.308  1.00  0.00     0.163 HD
ENDROOT
BRANCH   1   3
ATOM      3  C   UNL     1       6.932  47.225  52.306  1.00  0.00     0.116 C 
BRANCH   3   4
ATOM      4  C   UNL     1       8.319  47.790  52.624  1.00  0.00     0.024 C 
BRANCH   4   5
ATOM      5  C   UNL     1       9.295  46.736  53.180  1.00  0.00    -0.016 C 
ATOM      6  C   UNL     1      10.000  47.206  54.453  1.00  0.00     0.007 C 
ATOM      7  C   UNL     1      10.336  46.377  52.116  1.00  0.00     0.007 C 
ENDBRANCH   4   5
ENDBRANCH   3   4
ENDBRANCH   1   3
BRANCH   1   8
ATOM      8  C   UNL     1       6.162  45.146  51.358  1.00  0.00     0.226 A 
ATOM      9  N   UNL     1       5.254  45.257  52.343  1.00  0.00    -0.195 NA
ATOM     10  N   UNL     1       6.293  44.099  50.534  1.00  0.00    -0.193 NA
ATOM     11  C   UNL     1       4.346  44.271  52.576  1.00  0.00     0.147 A 
ATOM     12  C   UNL     1       5.395  43.134  50.774  1.00  0.00     0.165 A 
ATOM     13  C   UNL     1       4.419  43.141  51.751  1.00  0.00     0.082 A 
ATOM     14  N   UNL     1       5.258  41.947  50.109  1.00  0.00    -0.250 N 
ATOM     15  C   UNL     1       3.755  41.908  51.587  1.00  0.00     0.149 A 
ATOM     16  N   UNL     1       4.260  41.169  50.593  1.00  0.00    -0.179 NA
ATOM     17  C   UNL     1       6.045  41.481  48.995  1.00  0.00     0.176 C 
BRANCH  11  18
ATOM     18  N   UNL     1       3.401  44.361  53.610  1.00  0.00    -0.339 N 
ATOM     19  H   UNL     1       3.795  44.236  54.531  1.00  0.00     0.168 HD
BRANCH  18  20
ATOM     20  C   UNL     1       2.003  44.513  53.601  1.00  0.00     0.040 A 
ATOM     21  C   UNL     1       1.171  44.144  54.664  1.00  0.00     0.029 A 
ATOM     22  C   UNL     1       1.396  45.021  52.438  1.00  0.00     0.029 A 
ATOM     23  C   UNL     1      -0.218  44.291  54.581  1.00  0.00     0.041 A 
ATOM     24  C   UNL     1       0.008  45.170  52.349  1.00  0.00     0.041 A 
ATOM     25  C   UNL     1      -0.786  44.803  53.425  1.00  0.00     0.123 A 
ATOM     26  F   UNL     1      -2.115  44.944  53.345  1.00  0.00    -0.207 F 
ENDBRANCH  18  20
ENDBRANCH  11  18
ENDBRANCH   1   8
TORSDOF 6
ENDMDL
MODEL 10
REMARK VINA RESULT:    -8.053      1.550      4.551
REMARK INTER + INTRA:         -12.133
REMARK INTER:                 -11.536
REMARK INTRA:                  -0.596
REMARK UNBOUND:                -1.256
REMARK SMILES CC(C)CCNc1nc(Nc2ccc(F)cc2)c2cnn(C)c2n1
REMARK SMILES IDX 6 1 5 3 4 4 2 5 1 6 3 7 7 8 8 9 24 10 9 11 23 12 18 13 21 14
REMARK SMILES IDX 19 15 20 16 22 17 10 18 11 20 12 21 17 22 13 23 16 24 14 25
REMARK SMILES IDX 15 26
REMARK H PARENT 6 2 10 19
ROOT
ATOM      1  N   UNL     1       4.289  41.719  51.502  1.00  0.00    -0.354 N 
ATOM      2  H   UNL     1       3.621  41.259  52.110  1.00  0.00     0.163 HD
ENDROOT
BRANCH   1   3
ATOM      3  C   UNL     1       4.279  41.260  50.122  1.00  0.00     0.116 C 
BRANCH   3   4
ATOM      4  C   UNL     1       5.700  41.247  49.549  1.00  0.00     0.024 C 
BRANCH   4   5
ATOM      5  C   UNL     1       5.980  42.413  48.583  1.00  0.00    -0.016 C 
ATOM      6  C   UNL     1       5.949  41.978  47.118  1.00  0.00     0.007 C 
ATOM      7  C   UNL     1       7.338  43.041  48.906  1.00  0.00     0.007 C 
ENDBRANCH   4   5
ENDBRANCH   3   4
ENDBRANCH   1   3
BRANCH   1   8
ATOM      8  C   UNL     1       4.067  43.079  51.690  1.00  0.00     0.226 A 
ATOM      9  N   UNL     1       5.143  43.852  51.459  1.00  0.00    -0.195 NA
ATOM     10  N   UNL     1       2.862  43.516  52.075  1.00  0.00    -0.193 NA
ATOM     11  C   UNL     1       5.077  45.204  51.593  1.00  0.00     0.147 A 
ATOM     12  C   UNL     1       2.810  44.848  52.206  1.00  0.00     0.165 A 
ATOM     13  C   UNL     1       3.845  45.737  51.994  1.00  0.00     0.082 A 
ATOM     14  N   UNL     1       1.731  45.603  52.575  1.00  0.00    -0.250 N 
ATOM     15  C   UNL     1       3.280  47.000  52.268  1.00  0.00     0.149 A 
ATOM     16  N   UNL     1       1.994  46.931  52.629  1.00  0.00    -0.179 NA
ATOM     17  C   UNL     1       0.408  45.126  52.895  1.00  0.00     0.176 C 
BRANCH  11  18
ATOM     18  N   UNL     1       6.193  46.027  51.374  1.00  0.00    -0.339 N 
ATOM     19  H   UNL     1       6.241  46.405  50.439  1.00  0.00     0.168 HD
BRANCH  18  20
ATOM     20  C   UNL     1       7.293  46.360  52.183  1.00  0.00     0.040 A 
ATOM     21  C   UNL     1       7.188  46.732  53.529  1.00  0.00     0.029 A 
ATOM     22  C   UNL     1       8.573  46.370  51.598  1.00  0.00     0.029 A 
ATOM     23  C   UNL     1       8.320  47.084  54.273  1.00  0.00     0.041 A 
ATOM     24  C   UNL     1       9.707  46.721  52.336  1.00  0.00     0.041 A 
ATOM     25  C   UNL     1       9.568  47.075  53.670  1.00  0.00     0.123 A 
ATOM     26  F   UNL     1      10.651  47.412  54.382  1.00  0.00    -0.207 F 
ENDBRANCH  18  20
ENDBRANCH  11  18
ENDBRANCH   1   8
TORSDOF 6
ENDMDL
MODEL 11
REMARK VINA RESULT:    -8.017      3.463      6.496
REMARK INTER + INTRA:         -12.084
REMARK INTER:                 -11.383
REMARK INTRA:                  -0.701
REMARK UNBOUND:                -1.256
REMARK SMILES CC(C)CCNc1nc(Nc2ccc(F)cc2)c2cnn(C)c2n1
REMARK SMILES IDX 6 1 5 3 4 4 2 5 1 6 3 7 7 8 8 9 24 10 9 11 23 12 18 13 21 14
REMARK SMILES IDX 19 15 20 16 22 17 10 18 11 20 12 21 17 22 13 23 16 24 14 25
REMARK SMILES IDX 15 26
REMARK H PARENT 6 2 10 19
ROOT
ATOM      1  N   UNL     1       6.978  46.053  51.301  1.00  0.00    -0.354 N 
ATOM      2  H   UNL     1       6.910  46.390  50.346  1.00  0.00     0.163 HD
ENDROOT
BRANCH   1   3
ATOM      3  C   UNL     1       6.908  47.087  52.322  1.00  0.00     0.116 C 
BRANCH   3   4
ATOM      4  C   UNL     1       8.291  47.702  52.560  1.00  0.00     0.024 C 
BRANCH   4   5
ATOM      5  C   UNL     1       9.310  46.707  53.146  1.00  0.00    -0.016 C 
ATOM      6  C   UNL     1       9.991  47.242  54.406  1.00  0.00     0.007 C 
ATOM      7  C   UNL     1      10.367  46.365  52.094  1.00  0.00     0.007 C 
ENDBRANCH   4   5
ENDBRANCH   3   4
ENDBRANCH   1   3
BRANCH   1   8
ATOM      8  C   UNL     1       6.025  45.045  51.393  1.00  0.00     0.226 A 
ATOM      9  N   UNL     1       6.268  43.981  50.608  1.00  0.00    -0.195 NA
ATOM     10  N   UNL     1       4.972  45.187  52.208  1.00  0.00    -0.193 NA
ATOM     11  C   UNL     1       5.428  42.911  50.596  1.00  0.00     0.147 A 
ATOM     12  C   UNL     1       4.152  44.128  52.185  1.00  0.00     0.165 A 
ATOM     13  C   UNL     1       4.303  42.985  51.425  1.00  0.00     0.082 A 
ATOM     14  N   UNL     1       3.000  43.958  52.903  1.00  0.00    -0.250 N 
ATOM     15  C   UNL     1       3.183  42.195  51.760  1.00  0.00     0.149 A 
ATOM     16  N   UNL     1       2.379  42.780  52.656  1.00  0.00    -0.179 NA
ATOM     17  C   UNL     1       2.424  44.880  53.850  1.00  0.00     0.176 C 
BRANCH  11  18
ATOM     18  N   UNL     1       5.656  41.797  49.771  1.00  0.00    -0.339 N 
ATOM     19  H   UNL     1       6.315  41.136  50.155  1.00  0.00     0.168 HD
BRANCH  18  20
ATOM     20  C   UNL     1       5.202  41.469  48.482  1.00  0.00     0.040 A 
ATOM     21  C   UNL     1       5.775  41.963  47.304  1.00  0.00     0.029 A 
ATOM     22  C   UNL     1       4.075  40.635  48.364  1.00  0.00     0.029 A 
ATOM     23  C   UNL     1       5.255  41.624  46.048  1.00  0.00     0.041 A 
ATOM     24  C   UNL     1       3.551  40.294  47.113  1.00  0.00     0.041 A 
ATOM     25  C   UNL     1       4.149  40.793  45.965  1.00  0.00     0.123 A 
ATOM     26  F   UNL     1       3.652  40.469  44.765  1.00  0.00    -0.207 F 
ENDBRANCH  18  20
ENDBRANCH  11  18
ENDBRANCH   1   8
TORSDOF 6
ENDMDL
MODEL 12
REMARK VINA RESULT:    -7.995      1.310      1.907
REMARK INTER + INTRA:         -12.055
REMARK INTER:                 -11.228
REMARK INTRA:                  -0.828
REMARK UNBOUND:                -1.256
REMARK SMILES CC(C)CCNc1nc(Nc2ccc(F)cc2)c2cnn(C)c2n1
REMARK SMILES IDX 6 1 5 3 4 4 2 5 1 6 3 7 7 8 8 9 24 10 9 11 23 12 18 13 21 14
REMARK SMILES IDX 19 15 20 16 22 17 10 18 11 20 12 21 17 22 13 23 16 24 14 25
REMARK SMILES IDX 15 26
REMARK H PARENT 6 2 10 19
ROOT
ATOM      1  N   UNL     1       2.456  45.648  52.561  1.00  0.00    -0.354 N 
ATOM      2  H   UNL     1       1.662  45.100  52.248  1.00  0.00     0.163 HD
ENDROOT
BRANCH   1   3
ATOM      3  C   UNL     1       2.557  45.812  54.003  1.00  0.00     0.116 C 
BRANCH   3   4
ATOM      4  C   UNL     1       1.885  44.642  54.726  1.00  0.00     0.024 C 
BRANCH   4   5
ATOM      5  C   UNL     1       0.616  44.132  54.016  1.00  0.00    -0.016 C 
ATOM      6  C   UNL     1      -0.636  44.281  54.880  1.00  0.00     0.007 C 
ATOM      7  C   UNL     1       0.797  42.666  53.617  1.00  0.00     0.007 C 
ENDBRANCH   4   5
ENDBRANCH   3   4
ENDBRANCH   1   3
BRANCH   1   8
ATOM      8  C   UNL     1       3.557  45.070  51.938  1.00  0.00     0.226 A 
ATOM      9  N   UNL     1       4.638  45.867  51.873  1.00  0.00    -0.195 NA
ATOM     10  N   UNL     1       3.480  43.822  51.459  1.00  0.00    -0.193 NA
ATOM     11  C   UNL     1       5.794  45.437  51.300  1.00  0.00     0.147 A 
ATOM     12  C   UNL     1       4.623  43.411  50.895  1.00  0.00     0.165 A 
ATOM     13  C   UNL     1       5.791  44.139  50.775  1.00  0.00     0.082 A 
ATOM     14  N   UNL     1       4.873  42.195  50.322  1.00  0.00    -0.250 N 
ATOM     15  C   UNL     1       6.677  43.266  50.111  1.00  0.00     0.149 A 
ATOM     16  N   UNL     1       6.128  42.080  49.825  1.00  0.00    -0.179 NA
ATOM     17  C   UNL     1       3.960  41.084  50.211  1.00  0.00     0.176 C 
BRANCH  11  18
ATOM     18  N   UNL     1       6.928  46.260  51.207  1.00  0.00    -0.339 N 
ATOM     19  H   UNL     1       7.064  46.660  50.290  1.00  0.00     0.168 HD
BRANCH  18  20
ATOM     20  C   UNL     1       7.947  46.569  52.125  1.00  0.00     0.040 A 
ATOM     21  C   UNL     1       9.308  46.345  51.884  1.00  0.00     0.029 A 
ATOM     22  C   UNL     1       7.580  47.090  53.379  1.00  0.00     0.029 A 
ATOM     23  C   UNL     1      10.273  46.645  52.852  1.00  0.00     0.041 A 
ATOM     24  C   UNL     1       8.540  47.391  54.350  1.00  0.00     0.041 A 
ATOM     25  C   UNL     1       9.880  47.165  54.075  1.00  0.00     0.123 A 
ATOM     26  F   UNL     1      10.803  47.452  55.002  1.00  0.00    -0.207 F 
ENDBRANCH  18  20
ENDBRANCH  11  18
ENDBRANCH   1   8
TORSDOF 6
ENDMDL
MODEL 13
REMARK VINA RESULT:    -7.989      2.635      5.635
REMARK INTER + INTRA:         -12.046
REMARK INTER:                 -11.331
REMARK INTRA:                  -0.715
REMARK UNBOUND:                -1.256
REMARK SMILES CC(C)CCNc1nc(Nc2ccc(F)cc2)c2cnn(C)c2n1
REMARK SMILES IDX 6 1 5 3 4 4 2 5 1 6 3 7 7 8 8 9 24 10 9 11 23 12 18 13 21 14
REMARK SMILES IDX 19 15 20 16 22 17 10 18 11 20 12 21 17 22 13 23 16 24 14 25
REMARK SMILES IDX 15 26
REMARK H PARENT 6 2 10 19
ROOT
ATOM      1  N   UNL     1       6.886  46.514  51.184  1.00  0.00    -0.354 N 
ATOM      2  H   UNL     1       6.700  47.007  50.317  1.00  0.00     0.163 HD
ENDROOT
BRANCH   1   3
ATOM      3  C   UNL     1       6.901  47.352  52.373  1.00  0.00     0.116 C 
BRANCH   3   4
ATOM      4  C   UNL     1       8.316  47.869  52.648  1.00  0.00     0.024 C 
BRANCH   4   5
ATOM      5  C   UNL     1       9.277  46.779  53.158  1.00  0.00    -0.016 C 
ATOM      6  C   UNL     1      10.041  47.212  54.410  1.00  0.00     0.007 C 
ATOM      7  C   UNL     1      10.267  46.400  52.055  1.00  0.00     0.007 C 
ENDBRANCH   4   5
ENDBRANCH   3   4
ENDBRANCH   1   3
BRANCH   1   8
ATOM      8  C   UNL     1       5.981  45.459  51.197  1.00  0.00     0.226 A 
ATOM      9  N   UNL     1       4.770  45.776  51.689  1.00  0.00    -0.195 NA
ATOM     10  N   UNL     1       6.348  44.252  50.751  1.00  0.00    -0.193 NA
ATOM     11  C   UNL     1       3.776  44.850  51.758  1.00  0.00     0.147 A 
ATOM     12  C   UNL     1       5.362  43.348  50.825  1.00  0.00     0.165 A 
ATOM     13  C   UNL     1       4.085  43.561  51.307  1.00  0.00     0.082 A 
ATOM     14  N   UNL     1       5.411  42.035  50.446  1.00  0.00    -0.250 N 
ATOM     15  C   UNL     1       3.452  42.307  51.175  1.00  0.00     0.149 A 
ATOM     16  N   UNL     1       4.251  41.368  50.656  1.00  0.00    -0.179 NA
ATOM     17  C   UNL     1       6.536  41.340  49.872  1.00  0.00     0.176 C 
BRANCH  11  18
ATOM     18  N   UNL     1       2.511  45.156  52.284  1.00  0.00    -0.339 N 
ATOM     19  H   UNL     1       1.859  45.505  51.596  1.00  0.00     0.168 HD
BRANCH  18  20
ATOM     20  C   UNL     1       2.006  45.144  53.596  1.00  0.00     0.040 A 
ATOM     21  C   UNL     1       2.765  45.465  54.727  1.00  0.00     0.029 A 
ATOM     22  C   UNL     1       0.673  44.738  53.793  1.00  0.00     0.029 A 
ATOM     23  C   UNL     1       2.212  45.402  56.012  1.00  0.00     0.041 A 
ATOM     24  C   UNL     1       0.115  44.673  55.074  1.00  0.00     0.041 A 
ATOM     25  C   UNL     1       0.893  45.007  56.173  1.00  0.00     0.123 A 
ATOM     26  F   UNL     1       0.364  44.946  57.401  1.00  0.00    -0.207 F 
ENDBRANCH  18  20
ENDBRANCH  11  18
ENDBRANCH   1   8
TORSDOF 6
ENDMDL
MODEL 14
REMARK VINA RESULT:    -7.927      2.836      6.081
REMARK INTER + INTRA:         -11.963
REMARK INTER:                 -11.314
REMARK INTRA:                  -0.648
REMARK UNBOUND:                -1.256
REMARK SMILES CC(C)CCNc1nc(Nc2ccc(F)cc2)c2cnn(C)c2n1
REMARK SMILES IDX 6 1 5 3 4 4 2 5 1 6 3 7 7 8 8 9 24 10 9 11 23 12 18 13 21 14
REMARK SMILES IDX 19 15 20 16 22 17 10 18 11 20 12 21 17 22 13 23 16 24 14 25
REMARK SMILES IDX 15 26
REMARK H PARENT 6 2 10 19
ROOT
ATOM      1  N   UNL     1       5.816  47.152  54.723  1.00  0.00    -0.354 N 
ATOM      2  H   UNL     1       5.858  47.334  55.720  1.00  0.00     0.163 HD
ENDROOT
BRANCH   1   3
ATOM      3  C   UNL     1       7.017  46.557  54.158  1.00  0.00     0.116 C 
BRANCH   3   4
ATOM      4  C   UNL     1       7.665  47.509  53.148  1.00  0.00     0.024 C 
BRANCH   4   5
ATOM      5  C   UNL     1       9.203  47.533  53.230  1.00  0.00    -0.016 C 
ATOM      6  C   UNL     1       9.846  46.363  52.485  1.00  0.00     0.007 C 
ATOM      7  C   UNL     1       9.646  47.518  54.695  1.00  0.00     0.007 C 
ENDBRANCH   4   5
ENDBRANCH   3   4
ENDBRANCH   1   3
BRANCH   1   8
ATOM      8  C   UNL     1       4.640  46.433  54.540  1.00  0.00     0.226 A 
ATOM      9  N   UNL     1       4.561  45.794  53.359  1.00  0.00    -0.195 NA
ATOM     10  N   UNL     1       3.702  46.423  55.495  1.00  0.00    -0.193 NA
ATOM     11  C   UNL     1       3.473  45.042  53.040  1.00  0.00     0.147 A 
ATOM     12  C   UNL     1       2.635  45.681  55.168  1.00  0.00     0.165 A 
ATOM     13  C   UNL     1       2.448  44.983  53.992  1.00  0.00     0.082 A 
ATOM     14  N   UNL     1       1.516  45.463  55.923  1.00  0.00    -0.250 N 
ATOM     15  C   UNL     1       1.180  44.383  54.143  1.00  0.00     0.149 A 
ATOM     16  N   UNL     1       0.600  44.673  55.314  1.00  0.00    -0.179 NA
ATOM     17  C   UNL     1       1.246  45.977  57.242  1.00  0.00     0.176 C 
BRANCH  11  18
ATOM     18  N   UNL     1       3.364  44.381  51.806  1.00  0.00    -0.339 N 
ATOM     19  H   UNL     1       2.500  44.571  51.319  1.00  0.00     0.168 HD
BRANCH  18  20
ATOM     20  C   UNL     1       4.192  43.447  51.159  1.00  0.00     0.040 A 
ATOM     21  C   UNL     1       3.891  42.084  51.046  1.00  0.00     0.029 A 
ATOM     22  C   UNL     1       5.420  43.894  50.636  1.00  0.00     0.029 A 
ATOM     23  C   UNL     1       4.773  41.198  50.417  1.00  0.00     0.041 A 
ATOM     24  C   UNL     1       6.305  43.013  50.007  1.00  0.00     0.041 A 
ATOM     25  C   UNL     1       5.971  41.671  49.904  1.00  0.00     0.123 A 
ATOM     26  F   UNL     1       6.816  40.823  49.303  1.00  0.00    -0.207 F 
ENDBRANCH  18  20
ENDBRANCH  11  18
ENDBRANCH   1   8
TORSDOF 6
ENDMDL
MODEL 15
REMARK VINA RESULT:    -7.880      2.536      4.974
REMARK INTER + INTRA:         -11.900
REMARK INTER:                 -11.313
REMARK INTRA:                  -0.587
REMARK UNBOUND:                -1.256
REMARK SMILES CC(C)CCNc1nc(Nc2ccc(F)cc2)c2cnn(C)c2n1
REMARK SMILES IDX 6 1 5 3 4 4 2 5 1 6 3 7 7 8 8 9 24 10 9 11 23 12 18 13 21 14
REMARK SMILES IDX 19 15 20 16 22 17 10 18 11 20 12 21 17 22 13 23 16 24 14 25
REMARK SMILES IDX 15 26
REMARK H PARENT 6 2 10 19
ROOT
ATOM      1  N   UNL     1       4.798  46.599  55.018  1.00  0.00    -0.354 N 
ATOM      2  H   UNL     1       5.185  46.115  55.822  1.00  0.00     0.163 HD
ENDROOT
BRANCH   1   3
ATOM      3  C   UNL     1       5.782  47.227  54.150  1.00  0.00     0.116 C 
BRANCH   3   4
ATOM      4  C   UNL     1       7.198  46.786  54.534  1.00  0.00     0.024 C 
BRANCH   4   5
ATOM      5  C   UNL     1       8.302  47.568  53.799  1.00  0.00    -0.016 C 
ATOM      6  C   UNL     1       7.919  47.904  52.357  1.00  0.00     0.007 C 
ATOM      7  C   UNL     1       9.605  46.765  53.812  1.00  0.00     0.007 C 
ENDBRANCH   4   5
ENDBRANCH   3   4
ENDBRANCH   1   3
BRANCH   1   8
ATOM      8  C   UNL     1       3.958  45.672  54.412  1.00  0.00     0.226 A 
ATOM      9  N   UNL     1       4.509  45.026  53.369  1.00  0.00    -0.195 NA
ATOM     10  N   UNL     1       2.714  45.489  54.872  1.00  0.00    -0.193 NA
ATOM     11  C   UNL     1       3.813  44.082  52.681  1.00  0.00     0.147 A 
ATOM     12  C   UNL     1       2.038  44.559  54.184  1.00  0.00     0.165 A 
ATOM     13  C   UNL     1       2.501  43.835  53.104  1.00  0.00     0.082 A 
ATOM     14  N   UNL     1       0.756  44.137  54.404  1.00  0.00    -0.250 N 
ATOM     15  C   UNL     1       1.415  43.008  52.749  1.00  0.00     0.149 A 
ATOM     16  N   UNL     1       0.344  43.187  53.531  1.00  0.00    -0.179 NA
ATOM     17  C   UNL     1      -0.144  44.595  55.433  1.00  0.00     0.176 C 
BRANCH  11  18
ATOM     18  N   UNL     1       4.364  43.409  51.579  1.00  0.00    -0.339 N 
ATOM     19  H   UNL     1       3.827  42.607  51.283  1.00  0.00     0.168 HD
BRANCH  18  20
ATOM     20  C   UNL     1       5.559  43.594  50.861  1.00  0.00     0.040 A 
ATOM     21  C   UNL     1       6.286  44.791  50.852  1.00  0.00     0.029 A 
ATOM     22  C   UNL     1       6.030  42.534  50.064  1.00  0.00     0.029 A 
ATOM     23  C   UNL     1       7.453  44.923  50.091  1.00  0.00     0.041 A 
ATOM     24  C   UNL     1       7.194  42.661  49.301  1.00  0.00     0.041 A 
ATOM     25  C   UNL     1       7.896  43.857  49.323  1.00  0.00     0.123 A 
ATOM     26  F   UNL     1       9.012  43.983  48.594  1.00  0.00    -0.207 F 
ENDBRANCH  18  20
ENDBRANCH  11  18
ENDBRANCH   1   8
TORSDOF 6
ENDMDL
MODEL 16
REMARK VINA RESULT:    -7.785      1.890      4.643
REMARK INTER + INTRA:         -11.771
REMARK INTER:                 -11.016
REMARK INTRA:                  -0.755
REMARK UNBOUND:                -1.256
REMARK SMILES CC(C)CCNc1nc(Nc2ccc(F)cc2)c2cnn(C)c2n1
REMARK SMILES IDX 6 1 5 3 4 4 2 5 1 6 3 7 7 8 8 9 24 10 9 11 23 12 18 13 21 14
REMARK SMILES IDX 19 15 20 16 22 17 10 18 11 20 12 21 17 22 13 23 16 24 14 25
REMARK SMILES IDX 15 26
REMARK H PARENT 6 2 10 19
ROOT
ATOM      1  N   UNL     1       4.099  42.461  50.485  1.00  0.00    -0.354 N 
ATOM      2  H   UNL     1       4.472  43.125  49.815  1.00  0.00     0.163 HD
ENDROOT
BRANCH   1   3
ATOM      3  C   UNL     1       4.965  41.328  50.771  1.00  0.00     0.116 C 
BRANCH   3   4
ATOM      4  C   UNL     1       6.298  41.470  50.030  1.00  0.00     0.024 C 
BRANCH   4   5
ATOM      5  C   UNL     1       6.326  42.652  49.043  1.00  0.00    -0.016 C 
ATOM      6  C   UNL     1       6.127  42.208  47.593  1.00  0.00     0.007 C 
ATOM      7  C   UNL     1       7.651  43.407  49.174  1.00  0.00     0.007 C 
ENDBRANCH   4   5
ENDBRANCH   3   4
ENDBRANCH   1   3
BRANCH   1   8
ATOM      8  C   UNL     1       3.726  43.231  51.582  1.00  0.00     0.226 A 
ATOM      9  N   UNL     1       4.619  44.176  51.924  1.00  0.00    -0.195 NA
ATOM     10  N   UNL     1       2.565  42.995  52.205  1.00  0.00    -0.193 NA
ATOM     11  C   UNL     1       4.389  45.013  52.971  1.00  0.00     0.147 A 
ATOM     12  C   UNL     1       2.351  43.824  53.235  1.00  0.00     0.165 A 
ATOM     13  C   UNL     1       3.192  44.828  53.673  1.00  0.00     0.082 A 
ATOM     14  N   UNL     1       1.265  43.849  54.066  1.00  0.00    -0.250 N 
ATOM     15  C   UNL     1       2.516  45.391  54.775  1.00  0.00     0.149 A 
ATOM     16  N   UNL     1       1.343  44.800  55.027  1.00  0.00    -0.179 NA
ATOM     17  C   UNL     1       0.106  42.994  54.004  1.00  0.00     0.176 C 
BRANCH  11  18
ATOM     18  N   UNL     1       5.317  45.994  53.354  1.00  0.00    -0.339 N 
ATOM     19  H   UNL     1       4.932  46.700  53.965  1.00  0.00     0.168 HD
BRANCH  18  20
ATOM     20  C   UNL     1       6.655  46.223  52.987  1.00  0.00     0.040 A 
ATOM     21  C   UNL     1       7.117  46.199  51.666  1.00  0.00     0.029 A 
ATOM     22  C   UNL     1       7.599  46.440  54.009  1.00  0.00     0.029 A 
ATOM     23  C   UNL     1       8.469  46.403  51.368  1.00  0.00     0.041 A 
ATOM     24  C   UNL     1       8.951  46.643  53.717  1.00  0.00     0.041 A 
ATOM     25  C   UNL     1       9.373  46.623  52.396  1.00  0.00     0.123 A 
ATOM     26  F   UNL     1      10.667  46.817  52.111  1.00  0.00    -0.207 F 
ENDBRANCH  18  20
ENDBRANCH  11  18
ENDBRANCH   1   8
TORSDOF 6
ENDMDL
MODEL 17
REMARK VINA RESULT:    -7.601      2.959      5.460
REMARK INTER + INTRA:         -11.522
REMARK INTER:                 -10.903
REMARK INTRA:                  -0.620
REMARK UNBOUND:                -1.256
REMARK SMILES CC(C)CCNc1nc(Nc2ccc(F)cc2)c2cnn(C)c2n1
REMARK SMILES IDX 6 1 5 3 4 4 2 5 1 6 3 7 7 8 8 9 24 10 9 11 23 12 18 13 21 14
REMARK SMILES IDX 19 15 20 16 22 17 10 18 11 20 12 21 17 22 13 23 16 24 14 25
REMARK SMILES IDX 15 26
REMARK H PARENT 6 2 10 19
ROOT
ATOM      1  N   UNL     1       3.809  45.798  55.180  1.00  0.00    -0.354 N 
ATOM      2  H   UNL     1       4.284  45.241  55.882  1.00  0.00     0.163 HD
ENDROOT
BRANCH   1   3
ATOM      3  C   UNL     1       4.687  46.526  54.278  1.00  0.00     0.116 C 
BRANCH   3   4
ATOM      4  C   UNL     1       6.150  46.357  54.699  1.00  0.00     0.024 C 
BRANCH   4   5
ATOM      5  C   UNL     1       7.124  46.286  53.508  1.00  0.00    -0.016 C 
ATOM      6  C   UNL     1       8.522  46.794  53.865  1.00  0.00     0.007 C 
ATOM      7  C   UNL     1       6.568  47.091  52.332  1.00  0.00     0.007 C 
ENDBRANCH   4   5
ENDBRANCH   3   4
ENDBRANCH   1   3
BRANCH   1   8
ATOM      8  C   UNL     1       2.910  44.925  54.579  1.00  0.00     0.226 A 
ATOM      9  N   UNL     1       3.442  44.171  53.600  1.00  0.00    -0.195 NA
ATOM     10  N   UNL     1       1.633  44.891  54.981  1.00  0.00    -0.193 NA
ATOM     11  C   UNL     1       2.688  43.263  52.925  1.00  0.00     0.147 A 
ATOM     12  C   UNL     1       0.900  43.995  54.306  1.00  0.00     0.165 A 
ATOM     13  C   UNL     1       1.339  43.169  53.291  1.00  0.00     0.082 A 
ATOM     14  N   UNL     1      -0.426  43.712  54.479  1.00  0.00    -0.250 N 
ATOM     15  C   UNL     1       0.194  42.434  52.921  1.00  0.00     0.149 A 
ATOM     16  N   UNL     1      -0.890  42.760  53.635  1.00  0.00    -0.179 NA
ATOM     17  C   UNL     1      -1.324  44.312  55.435  1.00  0.00     0.176 C 
BRANCH  11  18
ATOM     18  N   UNL     1       3.221  42.479  51.889  1.00  0.00    -0.339 N 
ATOM     19  H   UNL     1       2.695  41.637  51.706  1.00  0.00     0.168 HD
BRANCH  18  20
ATOM     20  C   UNL     1       4.387  42.605  51.115  1.00  0.00     0.040 A 
ATOM     21  C   UNL     1       5.010  41.534  50.462  1.00  0.00     0.029 A 
ATOM     22  C   UNL     1       4.996  43.871  51.027  1.00  0.00     0.029 A 
ATOM     23  C   UNL     1       6.190  41.719  49.731  1.00  0.00     0.041 A 
ATOM     24  C   UNL     1       6.174  44.062  50.299  1.00  0.00     0.041 A 
ATOM     25  C   UNL     1       6.760  42.981  49.656  1.00  0.00     0.123 A 
ATOM     26  F   UNL     1       7.888  43.158  48.958  1.00  0.00    -0.207 F 
ENDBRANCH  18  20
ENDBRANCH  11  18
ENDBRANCH   1   8
TORSDOF 6
ENDMDL
MODEL 18
REMARK VINA RESULT:    -7.492      3.124      6.807
REMARK INTER + INTRA:         -11.375
REMARK INTER:                 -10.424
REMARK INTRA:                  -0.951
REMARK UNBOUND:                -1.256
REMARK SMILES CC(C)CCNc1nc(Nc2ccc(F)cc2)c2cnn(C)c2n1
REMARK SMILES IDX 6 1 5 3 4 4 2 5 1 6 3 7 7 8 8 9 24 10 9 11 23 12 18 13 21 14
REMARK SMILES IDX 19 15 20 16 22 17 10 18 11 20 12 21 17 22 13 23 16 24 14 25
REMARK SMILES IDX 15 26
REMARK H PARENT 6 2 10 19
ROOT
ATOM      1  N   UNL     1       8.061  45.162  49.619  1.00  0.00    -0.354 N 
ATOM      2  H   UNL     1       8.940  45.642  49.458  1.00  0.00     0.163 HD
ENDROOT
BRANCH   1   3
ATOM      3  C   UNL     1       8.128  43.712  49.526  1.00  0.00     0.116 C 
BRANCH   3   4
ATOM      4  C   UNL     1       6.938  43.169  48.729  1.00  0.00     0.024 C 
BRANCH   4   5
ATOM      5  C   UNL     1       6.209  42.009  49.434  1.00  0.00    -0.016 C 
ATOM      6  C   UNL     1       5.352  41.187  48.471  1.00  0.00     0.007 C 
ATOM      7  C   UNL     1       5.334  42.556  50.564  1.00  0.00     0.007 C 
ENDBRANCH   4   5
ENDBRANCH   3   4
ENDBRANCH   1   3
BRANCH   1   8
ATOM      8  C   UNL     1       7.591  45.671  50.825  1.00  0.00     0.226 A 
ATOM      9  N   UNL     1       6.250  45.707  50.925  1.00  0.00    -0.195 NA
ATOM     10  N   UNL     1       8.453  46.081  51.763  1.00  0.00    -0.193 NA
ATOM     11  C   UNL     1       5.643  46.171  52.050  1.00  0.00     0.147 A 
ATOM     12  C   UNL     1       7.843  46.538  52.865  1.00  0.00     0.165 A 
ATOM     13  C   UNL     1       6.481  46.618  53.078  1.00  0.00     0.082 A 
ATOM     14  N   UNL     1       8.434  47.020  53.999  1.00  0.00    -0.250 N 
ATOM     15  C   UNL     1       6.364  47.166  54.373  1.00  0.00     0.149 A 
ATOM     16  N   UNL     1       7.548  47.420  54.942  1.00  0.00    -0.179 NA
ATOM     17  C   UNL     1       9.848  47.130  54.261  1.00  0.00     0.176 C 
BRANCH  11  18
ATOM     18  N   UNL     1       4.245  46.232  52.167  1.00  0.00    -0.339 N 
ATOM     19  H   UNL     1       3.892  47.163  52.333  1.00  0.00     0.168 HD
BRANCH  18  20
ATOM     20  C   UNL     1       3.254  45.234  52.174  1.00  0.00     0.040 A 
ATOM     21  C   UNL     1       3.226  44.170  53.083  1.00  0.00     0.029 A 
ATOM     22  C   UNL     1       2.258  45.277  51.181  1.00  0.00     0.029 A 
ATOM     23  C   UNL     1       2.229  43.189  53.018  1.00  0.00     0.041 A 
ATOM     24  C   UNL     1       1.260  44.300  51.111  1.00  0.00     0.041 A 
ATOM     25  C   UNL     1       1.256  43.263  52.033  1.00  0.00     0.123 A 
ATOM     26  F   UNL     1       0.303  42.325  51.971  1.00  0.00    -0.207 F 
ENDBRANCH  18  20
ENDBRANCH  11  18
ENDBRANCH   1   8
TORSDOF 6
ENDMDL
MODEL 19
REMARK VINA RESULT:    -7.305      3.079      5.790
REMARK INTER + INTRA:         -11.123
REMARK INTER:                  -9.846
REMARK INTRA:                  -1.277
REMARK UNBOUND:                -1.256
REMARK SMILES CC(C)CCNc1nc(Nc2ccc(F)cc2)c2cnn(C)c2n1
REMARK SMILES IDX 6 1 5 3 4 4 2 5 1 6 3 7 7 8 8 9 24 10 9 11 23 12 18 13 21 14
REMARK SMILES IDX 19 15 20 16 22 17 10 18 11 20 12 21 17 22 13 23 16 24 14 25
REMARK SMILES IDX 15 26
REMARK H PARENT 6 2 10 19
ROOT
ATOM      1  N   UNL     1       1.302  42.670  52.472  1.00  0.00    -0.354 N 
ATOM      2  H   UNL     1       0.357  42.407  52.212  1.00  0.00     0.163 HD
ENDROOT
BRANCH   1   3
ATOM      3  C   UNL     1       2.090  43.260  51.401  1.00  0.00     0.116 C 
BRANCH   3   4
ATOM      4  C   UNL     1       3.332  42.411  51.117  1.00  0.00     0.024 C 
BRANCH   4   5
ATOM      5  C   UNL     1       4.654  43.173  51.327  1.00  0.00    -0.016 C 
ATOM      6  C   UNL     1       4.490  44.684  51.159  1.00  0.00     0.007 C 
ATOM      7  C   UNL     1       5.713  42.658  50.349  1.00  0.00     0.007 C 
ENDBRANCH   4   5
ENDBRANCH   3   4
ENDBRANCH   1   3
BRANCH   1   8
ATOM      8  C   UNL     1       1.155  43.447  53.616  1.00  0.00     0.226 A 
ATOM      9  N   UNL     1       2.260  44.128  53.966  1.00  0.00    -0.195 NA
ATOM     10  N   UNL     1      -0.012  43.465  54.271  1.00  0.00    -0.193 NA
ATOM     11  C   UNL     1       2.268  44.938  55.059  1.00  0.00     0.147 A 
ATOM     12  C   UNL     1       0.009  44.265  55.346  1.00  0.00     0.165 A 
ATOM     13  C   UNL     1       1.080  45.011  55.797  1.00  0.00     0.082 A 
ATOM     14  N   UNL     1      -1.016  44.508  56.217  1.00  0.00    -0.250 N 
ATOM     15  C   UNL     1       0.590  45.661  56.948  1.00  0.00     0.149 A 
ATOM     16  N   UNL     1      -0.685  45.358  57.218  1.00  0.00    -0.179 NA
ATOM     17  C   UNL     1      -2.350  43.962  56.161  1.00  0.00     0.176 C 
BRANCH  11  18
ATOM     18  N   UNL     1       3.417  45.645  55.451  1.00  0.00    -0.339 N 
ATOM     19  H   UNL     1       3.386  45.970  56.406  1.00  0.00     0.168 HD
BRANCH  18  20
ATOM     20  C   UNL     1       4.562  46.050  54.744  1.00  0.00     0.040 A 
ATOM     21  C   UNL     1       4.619  47.197  53.942  1.00  0.00     0.029 A 
ATOM     22  C   UNL     1       5.707  45.234  54.804  1.00  0.00     0.029 A 
ATOM     23  C   UNL     1       5.781  47.530  53.237  1.00  0.00     0.041 A 
ATOM     24  C   UNL     1       6.870  45.561  54.102  1.00  0.00     0.041 A 
ATOM     25  C   UNL     1       6.896  46.709  53.324  1.00  0.00     0.123 A 
ATOM     26  F   UNL     1       8.007  47.027  52.649  1.00  0.00    -0.207 F 
ENDBRANCH  18  20
ENDBRANCH  11  18
ENDBRANCH   1   8
TORSDOF 6
ENDMDL
