MODEL 1
REMARK VINA RESULT:    -8.596      0.000      0.000
REMARK INTER + INTRA:         -12.683
REMARK INTER:                 -11.862
REMARK INTRA:                  -0.821
REMARK UNBOUND:                -0.821
REMARK SMILES Cc1ccc(CNc2nc(NCCO)nc3c2cnn3C)cc1
REMARK SMILES IDX 8 1 9 2 10 3 15 4 16 5 17 6 18 7 19 8 20 9 21 10 7 11 6 13
REMARK SMILES IDX 5 14 2 15 3 16 23 17 4 18 22 19 1 20 11 21 12 23 13 24 14 25
REMARK H PARENT 7 12 11 22 14 26
ROOT
ATOM      1  C   UNL     1       6.180  44.270  51.033  1.00  0.00     0.143 A 
ATOM      2  N   UNL     1       5.380  44.547  52.095  1.00  0.00    -0.195 NA
ATOM      3  C   UNL     1       4.305  43.782  52.362  1.00  0.00     0.226 A 
ATOM      4  N   UNL     1       3.912  42.713  51.659  1.00  0.00    -0.193 NA
ATOM      5  C   UNL     1       4.712  42.458  50.613  1.00  0.00     0.165 A 
ATOM      6  C   UNL     1       5.833  43.173  50.241  1.00  0.00     0.082 A 
ATOM      7  C   UNL     1       6.301  42.518  49.085  1.00  0.00     0.149 A 
ATOM      8  N   UNL     1       5.555  41.459  48.748  1.00  0.00    -0.179 NA
ATOM      9  N   UNL     1       4.590  41.448  49.697  1.00  0.00    -0.250 N 
ATOM     10  C   UNL     1       3.573  40.428  49.662  1.00  0.00     0.176 C 
ENDROOT
BRANCH   1  11
ATOM     11  N   UNL     1       7.286  45.069  50.754  1.00  0.00    -0.365 N 
ATOM     12  H   UNL     1       8.165  44.650  51.032  1.00  0.00     0.162 HD
BRANCH  11  13
ATOM     13  C   UNL     1       7.154  46.470  51.114  1.00  0.00     0.150 C 
BRANCH  13  14
ATOM     14  C   UNL     1       8.059  46.761  52.288  1.00  0.00    -0.029 A 
ATOM     15  C   UNL     1       9.755  47.251  54.487  1.00  0.00    -0.051 A 
ATOM     16  C   UNL     1      10.285  46.830  53.262  1.00  0.00     0.004 A 
ATOM     17  C   UNL     1       8.373  47.439  54.600  1.00  0.00     0.004 A 
ATOM     18  C   UNL     1       9.445  46.580  52.175  1.00  0.00     0.006 A 
ATOM     19  C   UNL     1       7.531  47.188  53.514  1.00  0.00     0.006 A 
ATOM     20  C   UNL     1      10.661  47.552  55.643  1.00  0.00     0.044 C 
ENDBRANCH  13  14
ENDBRANCH  11  13
ENDBRANCH   1  11
BRANCH   3  21
ATOM     21  N   UNL     1       3.504  44.080  53.460  1.00  0.00    -0.352 N 
ATOM     22  H   UNL     1       3.650  43.314  54.109  1.00  0.00     0.163 HD
BRANCH  21  23
ATOM     23  C   UNL     1       2.104  44.343  53.154  1.00  0.00     0.144 C 
BRANCH  23  24
ATOM     24  C   UNL     1       1.164  43.377  53.880  1.00  0.00     0.177 C 
BRANCH  24  25
ATOM     25  O   UNL     1       1.477  42.031  53.520  1.00  0.00    -0.395 OA
ATOM     26  H   UNL     1       2.282  42.071  52.976  1.00  0.00     0.210 HD
ENDBRANCH  24  25
ENDBRANCH  23  24
ENDBRANCH  21  23
ENDBRANCH   3  21
TORSDOF 7
ENDMDL
MODEL 2
REMARK VINA RESULT:    -8.526      1.178      1.278
REMARK INTER + INTRA:         -12.587
REMARK INTER:                 -11.877
REMARK INTRA:                  -0.710
REMARK UNBOUND:                -0.821
REMARK SMILES Cc1ccc(CNc2nc(NCCO)nc3c2cnn3C)cc1
REMARK SMILES IDX 8 1 9 2 10 3 15 4 16 5 17 6 18 7 19 8 20 9 21 10 7 11 6 13
REMARK SMILES IDX 5 14 2 15 3 16 23 17 4 18 22 19 1 20 11 21 12 23 13 24 14 25
REMARK H PARENT 7 12 11 22 14 26
ROOT
ATOM      1  C   UNL     1       6.151  44.249  51.030  1.00  0.00     0.143 A 
ATOM      2  N   UNL     1       5.346  44.520  52.089  1.00  0.00    -0.195 NA
ATOM      3  C   UNL     1       4.270  43.753  52.347  1.00  0.00     0.226 A 
ATOM      4  N   UNL     1       3.881  42.687  51.637  1.00  0.00    -0.193 NA
ATOM      5  C   UNL     1       4.687  42.437  50.594  1.00  0.00     0.165 A 
ATOM      6  C   UNL     1       5.809  43.156  50.231  1.00  0.00     0.082 A 
ATOM      7  C   UNL     1       6.284  42.506  49.074  1.00  0.00     0.149 A 
ATOM      8  N   UNL     1       5.541  41.448  48.729  1.00  0.00    -0.179 NA
ATOM      9  N   UNL     1       4.571  41.431  49.673  1.00  0.00    -0.250 N 
ATOM     10  C   UNL     1       3.555  40.411  49.628  1.00  0.00     0.176 C 
ENDROOT
BRANCH   1  11
ATOM     11  N   UNL     1       7.258  45.050  50.760  1.00  0.00    -0.365 N 
ATOM     12  H   UNL     1       8.135  44.633  51.043  1.00  0.00     0.162 HD
BRANCH  11  13
ATOM     13  C   UNL     1       7.121  46.451  51.121  1.00  0.00     0.150 C 
BRANCH  13  14
ATOM     14  C   UNL     1       8.028  46.744  52.293  1.00  0.00    -0.029 A 
ATOM     15  C   UNL     1       9.729  47.239  54.488  1.00  0.00    -0.051 A 
ATOM     16  C   UNL     1      10.256  46.817  53.262  1.00  0.00     0.004 A 
ATOM     17  C   UNL     1       8.346  47.426  54.604  1.00  0.00     0.004 A 
ATOM     18  C   UNL     1       9.414  46.564  52.178  1.00  0.00     0.006 A 
ATOM     19  C   UNL     1       7.502  47.173  53.519  1.00  0.00     0.006 A 
ATOM     20  C   UNL     1      10.636  47.544  55.642  1.00  0.00     0.044 C 
ENDBRANCH  13  14
ENDBRANCH  11  13
ENDBRANCH   1  11
BRANCH   3  21
ATOM     21  N   UNL     1       3.462  44.045  53.442  1.00  0.00    -0.352 N 
ATOM     22  H   UNL     1       2.627  43.484  53.310  1.00  0.00     0.163 HD
BRANCH  21  23
ATOM     23  C   UNL     1       3.201  45.462  53.661  1.00  0.00     0.144 C 
BRANCH  23  24
ATOM     24  C   UNL     1       3.685  45.930  55.036  1.00  0.00     0.177 C 
BRANCH  24  25
ATOM     25  O   UNL     1       4.269  44.837  55.745  1.00  0.00    -0.395 OA
ATOM     26  H   UNL     1       5.215  44.835  55.519  1.00  0.00     0.210 HD
ENDBRANCH  24  25
ENDBRANCH  23  24
ENDBRANCH  21  23
ENDBRANCH   3  21
TORSDOF 7
ENDMDL
MODEL 3
REMARK VINA RESULT:    -8.433      1.466      3.632
REMARK INTER + INTRA:         -12.458
REMARK INTER:                 -11.712
REMARK INTRA:                  -0.747
REMARK UNBOUND:                -0.821
REMARK SMILES Cc1ccc(CNc2nc(NCCO)nc3c2cnn3C)cc1
REMARK SMILES IDX 8 1 9 2 10 3 15 4 16 5 17 6 18 7 19 8 20 9 21 10 7 11 6 13
REMARK SMILES IDX 5 14 2 15 3 16 23 17 4 18 22 19 1 20 11 21 12 23 13 24 14 25
REMARK H PARENT 7 12 11 22 14 26
ROOT
ATOM      1  C   UNL     1       5.050  44.753  51.303  1.00  0.00     0.143 A 
ATOM      2  N   UNL     1       5.467  43.582  50.758  1.00  0.00    -0.195 NA
ATOM      3  C   UNL     1       4.780  42.444  50.969  1.00  0.00     0.226 A 
ATOM      4  N   UNL     1       3.662  42.329  51.698  1.00  0.00    -0.193 NA
ATOM      5  C   UNL     1       3.269  43.496  52.230  1.00  0.00     0.165 A 
ATOM      6  C   UNL     1       3.895  44.718  52.086  1.00  0.00     0.082 A 
ATOM      7  C   UNL     1       3.106  45.608  52.842  1.00  0.00     0.149 A 
ATOM      8  N   UNL     1       2.051  45.014  53.412  1.00  0.00    -0.179 NA
ATOM      9  N   UNL     1       2.177  43.724  53.024  1.00  0.00    -0.250 N 
ATOM     10  C   UNL     1       1.204  42.754  53.458  1.00  0.00     0.176 C 
ENDROOT
BRANCH   1  11
ATOM     11  N   UNL     1       5.769  45.928  51.089  1.00  0.00    -0.365 N 
ATOM     12  H   UNL     1       5.288  46.591  50.495  1.00  0.00     0.162 HD
BRANCH  11  13
ATOM     13  C   UNL     1       7.175  45.753  50.770  1.00  0.00     0.150 C 
BRANCH  13  14
ATOM     14  C   UNL     1       8.004  46.210  51.947  1.00  0.00    -0.029 A 
ATOM     15  C   UNL     1       9.534  47.115  54.137  1.00  0.00    -0.051 A 
ATOM     16  C   UNL     1       8.147  46.966  54.253  1.00  0.00     0.004 A 
ATOM     17  C   UNL     1      10.152  46.794  52.923  1.00  0.00     0.004 A 
ATOM     18  C   UNL     1       7.389  46.526  53.166  1.00  0.00     0.006 A 
ATOM     19  C   UNL     1       9.394  46.354  51.834  1.00  0.00     0.006 A 
ATOM     20  C   UNL     1      10.352  47.554  55.313  1.00  0.00     0.044 C 
ENDBRANCH  13  14
ENDBRANCH  11  13
ENDBRANCH   1  11
BRANCH   3  21
ATOM     21  N   UNL     1       5.221  41.256  50.395  1.00  0.00    -0.352 N 
ATOM     22  H   UNL     1       6.178  41.147  50.717  1.00  0.00     0.163 HD
BRANCH  21  23
ATOM     23  C   UNL     1       5.064  41.168  48.949  1.00  0.00     0.144 C 
BRANCH  23  24
ATOM     24  C   UNL     1       3.792  40.414  48.553  1.00  0.00     0.177 C 
BRANCH  24  25
ATOM     25  O   UNL     1       3.150  39.897  49.718  1.00  0.00    -0.395 OA
ATOM     26  H   UNL     1       2.614  39.140  49.426  1.00  0.00     0.210 HD
ENDBRANCH  24  25
ENDBRANCH  23  24
ENDBRANCH  21  23
ENDBRANCH   3  21
TORSDOF 7
ENDMDL
MODEL 4
REMARK VINA RESULT:    -8.376      2.026      4.058
REMARK INTER + INTRA:         -12.380
REMARK INTER:                 -11.741
REMARK INTRA:                  -0.639
REMARK UNBOUND:                -0.821
REMARK SMILES Cc1ccc(CNc2nc(NCCO)nc3c2cnn3C)cc1
REMARK SMILES IDX 8 1 9 2 10 3 15 4 16 5 17 6 18 7 19 8 20 9 21 10 7 11 6 13
REMARK SMILES IDX 5 14 2 15 3 16 23 17 4 18 22 19 1 20 11 21 12 23 13 24 14 25
REMARK H PARENT 7 12 11 22 14 26
ROOT
ATOM      1  C   UNL     1       4.608  45.013  51.653  1.00  0.00     0.143 A 
ATOM      2  N   UNL     1       4.956  43.792  51.174  1.00  0.00    -0.195 NA
ATOM      3  C   UNL     1       4.203  42.709  51.442  1.00  0.00     0.226 A 
ATOM      4  N   UNL     1       3.080  42.698  52.170  1.00  0.00    -0.193 NA
ATOM      5  C   UNL     1       2.754  43.913  52.637  1.00  0.00     0.165 A 
ATOM      6  C   UNL     1       3.450  45.088  52.431  1.00  0.00     0.082 A 
ATOM      7  C   UNL     1       2.713  46.061  53.134  1.00  0.00     0.149 A 
ATOM      8  N   UNL     1       1.624  45.561  53.729  1.00  0.00    -0.179 NA
ATOM      9  N   UNL     1       1.675  44.246  53.411  1.00  0.00    -0.250 N 
ATOM     10  C   UNL     1       0.645  43.360  53.891  1.00  0.00     0.176 C 
ENDROOT
BRANCH   1  11
ATOM     11  N   UNL     1       5.394  46.130  51.381  1.00  0.00    -0.365 N 
ATOM     12  H   UNL     1       4.920  46.830  50.823  1.00  0.00     0.162 HD
BRANCH  11  13
ATOM     13  C   UNL     1       6.754  45.851  50.955  1.00  0.00     0.150 C 
BRANCH  13  14
ATOM     14  C   UNL     1       7.705  46.263  52.054  1.00  0.00    -0.029 A 
ATOM     15  C   UNL     1       9.466  47.084  54.098  1.00  0.00    -0.051 A 
ATOM     16  C   UNL     1       8.084  47.064  54.318  1.00  0.00     0.004 A 
ATOM     17  C   UNL     1       9.962  46.677  52.855  1.00  0.00     0.004 A 
ATOM     18  C   UNL     1       7.211  46.665  53.303  1.00  0.00     0.006 A 
ATOM     19  C   UNL     1       9.090  46.278  51.838  1.00  0.00     0.006 A 
ATOM     20  C   UNL     1      10.404  47.480  55.199  1.00  0.00     0.044 C 
ENDBRANCH  13  14
ENDBRANCH  11  13
ENDBRANCH   1  11
BRANCH   3  21
ATOM     21  N   UNL     1       4.576  41.468  50.935  1.00  0.00    -0.352 N 
ATOM     22  H   UNL     1       4.808  40.908  51.750  1.00  0.00     0.163 HD
BRANCH  21  23
ATOM     23  C   UNL     1       5.618  41.500  49.917  1.00  0.00     0.144 C 
BRANCH  23  24
ATOM     24  C   UNL     1       5.083  41.123  48.533  1.00  0.00     0.177 C 
BRANCH  24  25
ATOM     25  O   UNL     1       6.042  41.463  47.532  1.00  0.00    -0.395 OA
ATOM     26  H   UNL     1       6.588  42.177  47.904  1.00  0.00     0.210 HD
ENDBRANCH  24  25
ENDBRANCH  23  24
ENDBRANCH  21  23
ENDBRANCH   3  21
TORSDOF 7
ENDMDL
MODEL 5
REMARK VINA RESULT:    -8.104      1.550      2.289
REMARK INTER + INTRA:         -12.004
REMARK INTER:                 -11.137
REMARK INTRA:                  -0.867
REMARK UNBOUND:                -0.821
REMARK SMILES Cc1ccc(CNc2nc(NCCO)nc3c2cnn3C)cc1
REMARK SMILES IDX 8 1 9 2 10 3 15 4 16 5 17 6 18 7 19 8 20 9 21 10 7 11 6 13
REMARK SMILES IDX 5 14 2 15 3 16 23 17 4 18 22 19 1 20 11 21 12 23 13 24 14 25
REMARK H PARENT 7 12 11 22 14 26
ROOT
ATOM      1  C   UNL     1       4.201  45.154  51.684  1.00  0.00     0.143 A 
ATOM      2  N   UNL     1       3.268  44.405  52.326  1.00  0.00    -0.195 NA
ATOM      3  C   UNL     1       3.305  43.061  52.263  1.00  0.00     0.226 A 
ATOM      4  N   UNL     1       4.213  42.334  51.602  1.00  0.00    -0.193 NA
ATOM      5  C   UNL     1       5.124  43.091  50.972  1.00  0.00     0.165 A 
ATOM      6  C   UNL     1       5.182  44.470  50.962  1.00  0.00     0.082 A 
ATOM      7  C   UNL     1       6.299  44.770  50.156  1.00  0.00     0.149 A 
ATOM      8  N   UNL     1       6.918  43.676  49.698  1.00  0.00    -0.179 NA
ATOM      9  N   UNL     1       6.178  42.665  50.209  1.00  0.00    -0.250 N 
ATOM     10  C   UNL     1       6.545  41.302  49.921  1.00  0.00     0.176 C 
ENDROOT
BRANCH   1  11
ATOM     11  N   UNL     1       4.155  46.545  51.744  1.00  0.00    -0.365 N 
ATOM     12  H   UNL     1       4.628  46.996  50.971  1.00  0.00     0.162 HD
BRANCH  11  13
ATOM     13  C   UNL     1       4.447  47.126  53.043  1.00  0.00     0.150 C 
BRANCH  13  14
ATOM     14  C   UNL     1       5.944  47.131  53.251  1.00  0.00    -0.029 A 
ATOM     15  C   UNL     1       8.731  47.180  53.675  1.00  0.00    -0.051 A 
ATOM     16  C   UNL     1       7.876  46.638  54.641  1.00  0.00     0.004 A 
ATOM     17  C   UNL     1       8.184  47.683  52.489  1.00  0.00     0.004 A 
ATOM     18  C   UNL     1       6.495  46.621  54.435  1.00  0.00     0.006 A 
ATOM     19  C   UNL     1       6.802  47.667  52.281  1.00  0.00     0.006 A 
ATOM     20  C   UNL     1      10.216  47.167  53.881  1.00  0.00     0.044 C 
ENDBRANCH  13  14
ENDBRANCH  11  13
ENDBRANCH   1  11
BRANCH   3  21
ATOM     21  N   UNL     1       2.342  42.313  52.934  1.00  0.00    -0.352 N 
ATOM     22  H   UNL     1       2.102  41.560  52.298  1.00  0.00     0.163 HD
BRANCH  21  23
ATOM     23  C   UNL     1       1.197  43.070  53.423  1.00  0.00     0.144 C 
BRANCH  23  24
ATOM     24  C   UNL     1      -0.132  42.472  52.953  1.00  0.00     0.177 C 
BRANCH  24  25
ATOM     25  O   UNL     1      -0.237  41.117  53.390  1.00  0.00    -0.395 OA
ATOM     26  H   UNL     1       0.183  41.076  54.267  1.00  0.00     0.210 HD
ENDBRANCH  24  25
ENDBRANCH  23  24
ENDBRANCH  21  23
ENDBRANCH   3  21
TORSDOF 7
ENDMDL
MODEL 6
REMARK VINA RESULT:    -8.068      2.447      6.385
REMARK INTER + INTRA:         -11.955
REMARK INTER:                 -11.578
REMARK INTRA:                  -0.377
REMARK UNBOUND:                -0.821
REMARK SMILES Cc1ccc(CNc2nc(NCCO)nc3c2cnn3C)cc1
REMARK SMILES IDX 8 1 9 2 10 3 15 4 16 5 17 6 18 7 19 8 20 9 21 10 7 11 6 13
REMARK SMILES IDX 5 14 2 15 3 16 23 17 4 18 22 19 1 20 11 21 12 23 13 24 14 25
REMARK H PARENT 7 12 11 22 14 26
ROOT
ATOM      1  C   UNL     1       6.929  46.371  51.971  1.00  0.00     0.143 A 
ATOM      2  N   UNL     1       5.886  46.578  52.814  1.00  0.00    -0.195 NA
ATOM      3  C   UNL     1       6.097  46.959  54.088  1.00  0.00     0.226 A 
ATOM      4  N   UNL     1       7.293  47.173  54.652  1.00  0.00    -0.193 NA
ATOM      5  C   UNL     1       8.310  46.960  53.804  1.00  0.00     0.165 A 
ATOM      6  C   UNL     1       8.214  46.564  52.485  1.00  0.00     0.082 A 
ATOM      7  C   UNL     1       9.550  46.469  52.048  1.00  0.00     0.149 A 
ATOM      8  N   UNL     1      10.434  46.792  52.999  1.00  0.00    -0.179 NA
ATOM      9  N   UNL     1       9.649  47.085  54.062  1.00  0.00    -0.250 N 
ATOM     10  C   UNL     1      10.259  47.482  55.305  1.00  0.00     0.176 C 
ENDROOT
BRANCH   1  11
ATOM     11  N   UNL     1       6.707  45.967  50.657  1.00  0.00    -0.365 N 
ATOM     12  H   UNL     1       5.733  45.998  50.386  1.00  0.00     0.162 HD
BRANCH  11  13
ATOM     13  C   UNL     1       7.402  44.759  50.246  1.00  0.00     0.150 C 
BRANCH  13  14
ATOM     14  C   UNL     1       6.393  43.646  50.084  1.00  0.00    -0.029 A 
ATOM     15  C   UNL     1       4.529  41.546  49.824  1.00  0.00    -0.051 A 
ATOM     16  C   UNL     1       4.363  42.524  50.811  1.00  0.00     0.004 A 
ATOM     17  C   UNL     1       5.626  41.633  48.959  1.00  0.00     0.004 A 
ATOM     18  C   UNL     1       5.290  43.560  50.945  1.00  0.00     0.006 A 
ATOM     19  C   UNL     1       6.555  42.669  49.092  1.00  0.00     0.006 A 
ATOM     20  C   UNL     1       3.516  40.453  49.659  1.00  0.00     0.044 C 
ENDBRANCH  13  14
ENDBRANCH  11  13
ENDBRANCH   1  11
BRANCH   3  21
ATOM     21  N   UNL     1       5.012  47.172  54.933  1.00  0.00    -0.352 N 
ATOM     22  H   UNL     1       5.300  46.799  55.831  1.00  0.00     0.163 HD
BRANCH  21  23
ATOM     23  C   UNL     1       3.738  46.654  54.451  1.00  0.00     0.144 C 
BRANCH  23  24
ATOM     24  C   UNL     1       3.218  45.506  55.321  1.00  0.00     0.177 C 
BRANCH  24  25
ATOM     25  O   UNL     1       4.299  44.654  55.699  1.00  0.00    -0.395 OA
ATOM     26  H   UNL     1       5.070  44.938  55.179  1.00  0.00     0.210 HD
ENDBRANCH  24  25
ENDBRANCH  23  24
ENDBRANCH  21  23
ENDBRANCH   3  21
TORSDOF 7
ENDMDL
MODEL 7
REMARK VINA RESULT:    -8.024      2.506      3.775
REMARK INTER + INTRA:         -11.894
REMARK INTER:                 -11.001
REMARK INTRA:                  -0.893
REMARK UNBOUND:                -0.821
REMARK SMILES Cc1ccc(CNc2nc(NCCO)nc3c2cnn3C)cc1
REMARK SMILES IDX 8 1 9 2 10 3 15 4 16 5 17 6 18 7 19 8 20 9 21 10 7 11 6 13
REMARK SMILES IDX 5 14 2 15 3 16 23 17 4 18 22 19 1 20 11 21 12 23 13 24 14 25
REMARK H PARENT 7 12 11 22 14 26
ROOT
ATOM      1  C   UNL     1       3.908  45.435  54.502  1.00  0.00     0.143 A 
ATOM      2  N   UNL     1       2.750  45.760  55.132  1.00  0.00    -0.195 NA
ATOM      3  C   UNL     1       1.572  45.280  54.693  1.00  0.00     0.226 A 
ATOM      4  N   UNL     1       1.401  44.468  53.642  1.00  0.00    -0.193 NA
ATOM      5  C   UNL     1       2.555  44.161  53.032  1.00  0.00     0.165 A 
ATOM      6  C   UNL     1       3.816  44.596  53.389  1.00  0.00     0.082 A 
ATOM      7  C   UNL     1       4.673  44.012  52.435  1.00  0.00     0.149 A 
ATOM      8  N   UNL     1       4.023  43.251  51.547  1.00  0.00    -0.179 NA
ATOM      9  N   UNL     1       2.730  43.363  51.934  1.00  0.00    -0.250 N 
ATOM     10  C   UNL     1       1.707  42.668  51.194  1.00  0.00     0.176 C 
ENDROOT
BRANCH   1  11
ATOM     11  N   UNL     1       5.125  45.940  54.954  1.00  0.00    -0.365 N 
ATOM     12  H   UNL     1       5.215  45.930  55.962  1.00  0.00     0.162 HD
BRANCH  11  13
ATOM     13  C   UNL     1       5.560  47.177  54.329  1.00  0.00     0.150 C 
BRANCH  13  14
ATOM     14  C   UNL     1       6.875  46.934  53.626  1.00  0.00    -0.029 A 
ATOM     15  C   UNL     1       9.340  46.532  52.318  1.00  0.00    -0.051 A 
ATOM     16  C   UNL     1       9.298  46.761  53.698  1.00  0.00     0.004 A 
ATOM     17  C   UNL     1       8.140  46.492  51.599  1.00  0.00     0.004 A 
ATOM     18  C   UNL     1       8.078  46.968  54.345  1.00  0.00     0.006 A 
ATOM     19  C   UNL     1       6.918  46.699  52.245  1.00  0.00     0.006 A 
ATOM     20  C   UNL     1      10.647  46.276  51.629  1.00  0.00     0.044 C 
ENDBRANCH  13  14
ENDBRANCH  11  13
ENDBRANCH   1  11
BRANCH   3  21
ATOM     21  N   UNL     1       0.398  45.621  55.358  1.00  0.00    -0.352 N 
ATOM     22  H   UNL     1       0.288  46.618  55.206  1.00  0.00     0.163 HD
BRANCH  21  23
ATOM     23  C   UNL     1       0.338  45.220  56.758  1.00  0.00     0.144 C 
BRANCH  23  24
ATOM     24  C   UNL     1       0.488  46.414  57.705  1.00  0.00     0.177 C 
BRANCH  24  25
ATOM     25  O   UNL     1       1.850  46.544  58.112  1.00  0.00    -0.395 OA
ATOM     26  H   UNL     1       1.909  46.163  59.004  1.00  0.00     0.210 HD
ENDBRANCH  24  25
ENDBRANCH  23  24
ENDBRANCH  21  23
ENDBRANCH   3  21
TORSDOF 7
ENDMDL
MODEL 8
REMARK VINA RESULT:    -7.994      2.150      4.482
REMARK INTER + INTRA:         -11.853
REMARK INTER:                 -11.188
REMARK INTRA:                  -0.665
REMARK UNBOUND:                -0.821
REMARK SMILES Cc1ccc(CNc2nc(NCCO)nc3c2cnn3C)cc1
REMARK SMILES IDX 8 1 9 2 10 3 15 4 16 5 17 6 18 7 19 8 20 9 21 10 7 11 6 13
REMARK SMILES IDX 5 14 2 15 3 16 23 17 4 18 22 19 1 20 11 21 12 23 13 24 14 25
REMARK H PARENT 7 12 11 22 14 26
ROOT
ATOM      1  C   UNL     1       3.928  44.625  53.593  1.00  0.00     0.143 A 
ATOM      2  N   UNL     1       4.488  43.780  52.690  1.00  0.00    -0.195 NA
ATOM      3  C   UNL     1       3.736  42.868  52.046  1.00  0.00     0.226 A 
ATOM      4  N   UNL     1       2.418  42.690  52.201  1.00  0.00    -0.193 NA
ATOM      5  C   UNL     1       1.884  43.531  53.099  1.00  0.00     0.165 A 
ATOM      6  C   UNL     1       2.555  44.499  53.821  1.00  0.00     0.082 A 
ATOM      7  C   UNL     1       1.561  45.091  54.624  1.00  0.00     0.149 A 
ATOM      8  N   UNL     1       0.348  44.562  54.426  1.00  0.00    -0.179 NA
ATOM      9  N   UNL     1       0.576  43.610  53.492  1.00  0.00    -0.250 N 
ATOM     10  C   UNL     1      -0.522  42.805  53.018  1.00  0.00     0.176 C 
ENDROOT
BRANCH   1  11
ATOM     11  N   UNL     1       4.710  45.562  54.265  1.00  0.00    -0.365 N 
ATOM     12  H   UNL     1       4.380  45.765  55.200  1.00  0.00     0.162 HD
BRANCH  11  13
ATOM     13  C   UNL     1       5.079  46.737  53.495  1.00  0.00     0.150 C 
BRANCH  13  14
ATOM     14  C   UNL     1       6.517  46.599  53.052  1.00  0.00    -0.029 A 
ATOM     15  C   UNL     1       9.206  46.396  52.228  1.00  0.00    -0.051 A 
ATOM     16  C   UNL     1       8.892  46.670  53.564  1.00  0.00     0.004 A 
ATOM     17  C   UNL     1       8.166  46.210  51.310  1.00  0.00     0.004 A 
ATOM     18  C   UNL     1       7.561  46.778  53.971  1.00  0.00     0.006 A 
ATOM     19  C   UNL     1       6.833  46.319  51.715  1.00  0.00     0.006 A 
ATOM     20  C   UNL     1      10.635  46.245  51.798  1.00  0.00     0.044 C 
ENDBRANCH  13  14
ENDBRANCH  11  13
ENDBRANCH   1  11
BRANCH   3  21
ATOM     21  N   UNL     1       4.330  42.016  51.119  1.00  0.00    -0.352 N 
ATOM     22  H   UNL     1       4.501  41.153  51.626  1.00  0.00     0.163 HD
BRANCH  21  23
ATOM     23  C   UNL     1       5.504  42.554  50.443  1.00  0.00     0.144 C 
BRANCH  23  24
ATOM     24  C   UNL     1       6.101  41.557  49.447  1.00  0.00     0.177 C 
BRANCH  24  25
ATOM     25  O   UNL     1       7.191  40.860  50.050  1.00  0.00    -0.395 OA
ATOM     26  H   UNL     1       6.859  39.976  50.283  1.00  0.00     0.210 HD
ENDBRANCH  24  25
ENDBRANCH  23  24
ENDBRANCH  21  23
ENDBRANCH   3  21
TORSDOF 7
ENDMDL
MODEL 9
REMARK VINA RESULT:    -7.921      3.088      4.971
REMARK INTER + INTRA:         -11.752
REMARK INTER:                 -11.142
REMARK INTRA:                  -0.609
REMARK UNBOUND:                -0.821
REMARK SMILES Cc1ccc(CNc2nc(NCCO)nc3c2cnn3C)cc1
REMARK SMILES IDX 8 1 9 2 10 3 15 4 16 5 17 6 18 7 19 8 20 9 21 10 7 11 6 13
REMARK SMILES IDX 5 14 2 15 3 16 23 17 4 18 22 19 1 20 11 21 12 23 13 24 14 25
REMARK H PARENT 7 12 11 22 14 26
ROOT
ATOM      1  C   UNL     1       2.950  44.449  53.735  1.00  0.00     0.143 A 
ATOM      2  N   UNL     1       3.057  45.117  54.912  1.00  0.00    -0.195 NA
ATOM      3  C   UNL     1       1.969  45.357  55.666  1.00  0.00     0.226 A 
ATOM      4  N   UNL     1       0.716  44.987  55.372  1.00  0.00    -0.193 NA
ATOM      5  C   UNL     1       0.631  44.331  54.205  1.00  0.00     0.165 A 
ATOM      6  C   UNL     1       1.673  44.034  53.350  1.00  0.00     0.082 A 
ATOM      7  C   UNL     1       1.064  43.360  52.273  1.00  0.00     0.149 A 
ATOM      8  N   UNL     1      -0.258  43.218  52.428  1.00  0.00    -0.179 NA
ATOM      9  N   UNL     1      -0.495  43.823  53.615  1.00  0.00    -0.250 N 
ATOM     10  C   UNL     1      -1.841  43.877  54.126  1.00  0.00     0.176 C 
ENDROOT
BRANCH   1  11
ATOM     11  N   UNL     1       4.077  44.211  52.952  1.00  0.00    -0.365 N 
ATOM     12  H   UNL     1       4.876  43.888  53.484  1.00  0.00     0.162 HD
BRANCH  11  13
ATOM     13  C   UNL     1       4.389  45.238  51.973  1.00  0.00     0.150 C 
BRANCH  13  14
ATOM     14  C   UNL     1       5.843  45.622  52.115  1.00  0.00    -0.029 A 
ATOM     15  C   UNL     1       8.543  46.391  52.385  1.00  0.00    -0.051 A 
ATOM     16  C   UNL     1       7.703  46.345  53.503  1.00  0.00     0.004 A 
ATOM     17  C   UNL     1       8.027  46.037  51.133  1.00  0.00     0.004 A 
ATOM     18  C   UNL     1       6.364  45.972  53.368  1.00  0.00     0.006 A 
ATOM     19  C   UNL     1       6.687  45.664  50.996  1.00  0.00     0.006 A 
ATOM     20  C   UNL     1       9.989  46.759  52.535  1.00  0.00     0.044 C 
ENDBRANCH  13  14
ENDBRANCH  11  13
ENDBRANCH   1  11
BRANCH   3  21
ATOM     21  N   UNL     1       2.103  46.038  56.872  1.00  0.00    -0.352 N 
ATOM     22  H   UNL     1       2.851  45.561  57.363  1.00  0.00     0.163 HD
BRANCH  21  23
ATOM     23  C   UNL     1       0.876  46.179  57.646  1.00  0.00     0.144 C 
BRANCH  23  24
ATOM     24  C   UNL     1       1.062  47.095  58.858  1.00  0.00     0.177 C 
BRANCH  24  25
ATOM     25  O   UNL     1       2.248  46.733  59.565  1.00  0.00    -0.395 OA
ATOM     26  H   UNL     1       1.992  46.041  60.198  1.00  0.00     0.210 HD
ENDBRANCH  24  25
ENDBRANCH  23  24
ENDBRANCH  21  23
ENDBRANCH   3  21
TORSDOF 7
ENDMDL
MODEL 10
REMARK VINA RESULT:    -7.839      2.072      3.834
REMARK INTER + INTRA:         -11.639
REMARK INTER:                 -11.454
REMARK INTRA:                  -0.185
REMARK UNBOUND:                -0.821
REMARK SMILES Cc1ccc(CNc2nc(NCCO)nc3c2cnn3C)cc1
REMARK SMILES IDX 8 1 9 2 10 3 15 4 16 5 17 6 18 7 19 8 20 9 21 10 7 11 6 13
REMARK SMILES IDX 5 14 2 15 3 16 23 17 4 18 22 19 1 20 11 21 12 23 13 24 14 25
REMARK H PARENT 7 12 11 22 14 26
ROOT
ATOM      1  C   UNL     1       6.800  43.932  50.067  1.00  0.00     0.143 A 
ATOM      2  N   UNL     1       6.784  43.017  49.065  1.00  0.00    -0.195 NA
ATOM      3  C   UNL     1       5.794  42.109  48.980  1.00  0.00     0.226 A 
ATOM      4  N   UNL     1       4.759  42.000  49.822  1.00  0.00    -0.193 NA
ATOM      5  C   UNL     1       4.794  42.910  50.807  1.00  0.00     0.165 A 
ATOM      6  C   UNL     1       5.758  43.881  50.995  1.00  0.00     0.082 A 
ATOM      7  C   UNL     1       5.350  44.560  52.161  1.00  0.00     0.149 A 
ATOM      8  N   UNL     1       4.211  44.078  52.673  1.00  0.00    -0.179 NA
ATOM      9  N   UNL     1       3.896  43.070  51.827  1.00  0.00    -0.250 N 
ATOM     10  C   UNL     1       2.705  42.293  52.063  1.00  0.00     0.176 C 
ENDROOT
BRANCH   1  11
ATOM     11  N   UNL     1       7.831  44.865  50.157  1.00  0.00    -0.365 N 
ATOM     12  H   UNL     1       8.656  44.509  50.622  1.00  0.00     0.162 HD
BRANCH  11  13
ATOM     13  C   UNL     1       7.436  46.196  50.582  1.00  0.00     0.150 C 
BRANCH  13  14
ATOM     14  C   UNL     1       8.219  46.567  51.819  1.00  0.00    -0.029 A 
ATOM     15  C   UNL     1       9.684  47.208  54.142  1.00  0.00    -0.051 A 
ATOM     16  C   UNL     1      10.325  46.648  53.030  1.00  0.00     0.004 A 
ATOM     17  C   UNL     1       8.309  47.458  54.079  1.00  0.00     0.004 A 
ATOM     18  C   UNL     1       9.598  46.324  51.883  1.00  0.00     0.006 A 
ATOM     19  C   UNL     1       7.580  47.133  52.931  1.00  0.00     0.006 A 
ATOM     20  C   UNL     1      10.470  47.587  55.361  1.00  0.00     0.044 C 
ENDBRANCH  13  14
ENDBRANCH  11  13
ENDBRANCH   1  11
BRANCH   3  21
ATOM     21  N   UNL     1       5.794  41.184  47.941  1.00  0.00    -0.352 N 
ATOM     22  H   UNL     1       6.669  40.678  48.038  1.00  0.00     0.163 HD
BRANCH  21  23
ATOM     23  C   UNL     1       5.572  41.741  46.613  1.00  0.00     0.144 C 
BRANCH  23  24
ATOM     24  C   UNL     1       4.319  41.165  45.949  1.00  0.00     0.177 C 
BRANCH  24  25
ATOM     25  O   UNL     1       3.951  39.940  46.584  1.00  0.00    -0.395 OA
ATOM     26  H   UNL     1       2.989  39.852  46.477  1.00  0.00     0.210 HD
ENDBRANCH  24  25
ENDBRANCH  23  24
ENDBRANCH  21  23
ENDBRANCH   3  21
TORSDOF 7
ENDMDL
MODEL 11
REMARK VINA RESULT:    -7.826      2.129      4.795
REMARK INTER + INTRA:         -11.621
REMARK INTER:                 -10.953
REMARK INTRA:                  -0.669
REMARK UNBOUND:                -0.821
REMARK SMILES Cc1ccc(CNc2nc(NCCO)nc3c2cnn3C)cc1
REMARK SMILES IDX 8 1 9 2 10 3 15 4 16 5 17 6 18 7 19 8 20 9 21 10 7 11 6 13
REMARK SMILES IDX 5 14 2 15 3 16 23 17 4 18 22 19 1 20 11 21 12 23 13 24 14 25
REMARK H PARENT 7 12 11 22 14 26
ROOT
ATOM      1  C   UNL     1       3.514  44.908  54.211  1.00  0.00     0.143 A 
ATOM      2  N   UNL     1       3.734  44.051  53.181  1.00  0.00    -0.195 NA
ATOM      3  C   UNL     1       2.738  43.280  52.706  1.00  0.00     0.226 A 
ATOM      4  N   UNL     1       1.478  43.263  53.158  1.00  0.00    -0.193 NA
ATOM      5  C   UNL     1       1.282  44.113  54.177  1.00  0.00     0.165 A 
ATOM      6  C   UNL     1       2.225  44.945  54.748  1.00  0.00     0.082 A 
ATOM      7  C   UNL     1       1.529  45.612  55.776  1.00  0.00     0.149 A 
ATOM      8  N   UNL     1       0.242  45.254  55.851  1.00  0.00    -0.179 NA
ATOM      9  N   UNL     1       0.119  44.335  54.865  1.00  0.00    -0.250 N 
ATOM     10  C   UNL     1      -1.156  43.705  54.638  1.00  0.00     0.176 C 
ENDROOT
BRANCH   1  11
ATOM     11  N   UNL     1       4.549  45.698  54.707  1.00  0.00    -0.365 N 
ATOM     12  H   UNL     1       4.491  45.856  55.705  1.00  0.00     0.162 HD
BRANCH  11  13
ATOM     13  C   UNL     1       4.856  46.887  53.932  1.00  0.00     0.150 C 
BRANCH  13  14
ATOM     14  C   UNL     1       6.270  46.781  53.412  1.00  0.00    -0.029 A 
ATOM     15  C   UNL     1       8.904  46.529  52.438  1.00  0.00    -0.051 A 
ATOM     16  C   UNL     1       7.812  46.378  51.577  1.00  0.00     0.004 A 
ATOM     17  C   UNL     1       8.671  46.821  53.787  1.00  0.00     0.004 A 
ATOM     18  C   UNL     1       6.507  46.495  52.060  1.00  0.00     0.006 A 
ATOM     19  C   UNL     1       7.365  46.937  54.272  1.00  0.00     0.006 A 
ATOM     20  C   UNL     1      10.305  46.437  51.912  1.00  0.00     0.044 C 
ENDBRANCH  13  14
ENDBRANCH  11  13
ENDBRANCH   1  11
BRANCH   3  21
ATOM     21  N   UNL     1       2.984  42.414  51.645  1.00  0.00    -0.352 N 
ATOM     22  H   UNL     1       2.705  41.498  51.982  1.00  0.00     0.163 HD
BRANCH  21  23
ATOM     23  C   UNL     1       4.335  42.464  51.102  1.00  0.00     0.144 C 
BRANCH  23  24
ATOM     24  C   UNL     1       4.629  41.279  50.178  1.00  0.00     0.177 C 
BRANCH  24  25
ATOM     25  O   UNL     1       3.514  40.387  50.162  1.00  0.00    -0.395 OA
ATOM     26  H   UNL     1       3.322  40.168  51.090  1.00  0.00     0.210 HD
ENDBRANCH  24  25
ENDBRANCH  23  24
ENDBRANCH  21  23
ENDBRANCH   3  21
TORSDOF 7
ENDMDL
MODEL 12
REMARK VINA RESULT:    -7.747      3.803      6.354
REMARK INTER + INTRA:         -11.512
REMARK INTER:                 -10.982
REMARK INTRA:                  -0.531
REMARK UNBOUND:                -0.821
REMARK SMILES Cc1ccc(CNc2nc(NCCO)nc3c2cnn3C)cc1
REMARK SMILES IDX 8 1 9 2 10 3 15 4 16 5 17 6 18 7 19 8 20 9 21 10 7 11 6 13
REMARK SMILES IDX 5 14 2 15 3 16 23 17 4 18 22 19 1 20 11 21 12 23 13 24 14 25
REMARK H PARENT 7 12 11 22 14 26
ROOT
ATOM      1  C   UNL     1       1.953  44.381  54.168  1.00  0.00     0.143 A 
ATOM      2  N   UNL     1       2.268  45.122  55.261  1.00  0.00    -0.195 NA
ATOM      3  C   UNL     1       1.337  45.404  56.191  1.00  0.00     0.226 A 
ATOM      4  N   UNL     1       0.057  45.010  56.160  1.00  0.00    -0.193 NA
ATOM      5  C   UNL     1      -0.235  44.283  55.072  1.00  0.00     0.165 A 
ATOM      6  C   UNL     1       0.633  43.938  54.055  1.00  0.00     0.082 A 
ATOM      7  C   UNL     1      -0.156  43.195  53.155  1.00  0.00     0.149 A 
ATOM      8  N   UNL     1      -1.423  43.058  53.564  1.00  0.00    -0.179 NA
ATOM      9  N   UNL     1      -1.444  43.735  54.736  1.00  0.00    -0.250 N 
ATOM     10  C   UNL     1      -2.671  43.815  55.486  1.00  0.00     0.176 C 
ENDROOT
BRANCH   1  11
ATOM     11  N   UNL     1       2.917  44.098  53.203  1.00  0.00    -0.365 N 
ATOM     12  H   UNL     1       3.634  43.461  53.525  1.00  0.00     0.162 HD
BRANCH  11  13
ATOM     13  C   UNL     1       3.426  45.245  52.471  1.00  0.00     0.150 C 
BRANCH  13  14
ATOM     14  C   UNL     1       4.584  44.801  51.608  1.00  0.00    -0.029 A 
ATOM     15  C   UNL     1       6.765  43.944  50.040  1.00  0.00    -0.051 A 
ATOM     16  C   UNL     1       5.740  43.053  50.377  1.00  0.00     0.004 A 
ATOM     17  C   UNL     1       6.684  45.270  50.480  1.00  0.00     0.004 A 
ATOM     18  C   UNL     1       4.663  43.475  51.160  1.00  0.00     0.006 A 
ATOM     19  C   UNL     1       5.608  45.694  51.265  1.00  0.00     0.006 A 
ATOM     20  C   UNL     1       7.903  43.500  49.170  1.00  0.00     0.044 C 
ENDBRANCH  13  14
ENDBRANCH  11  13
ENDBRANCH   1  11
BRANCH   3  21
ATOM     21  N   UNL     1       1.683  46.159  57.307  1.00  0.00    -0.352 N 
ATOM     22  H   UNL     1       2.267  45.548  57.868  1.00  0.00     0.163 HD
BRANCH  21  23
ATOM     23  C   UNL     1       0.564  46.747  58.032  1.00  0.00     0.144 C 
BRANCH  23  24
ATOM     24  C   UNL     1       0.993  47.322  59.384  1.00  0.00     0.177 C 
BRANCH  24  25
ATOM     25  O   UNL     1       2.278  46.816  59.743  1.00  0.00    -0.395 OA
ATOM     26  H   UNL     1       2.131  45.935  60.128  1.00  0.00     0.210 HD
ENDBRANCH  24  25
ENDBRANCH  23  24
ENDBRANCH  21  23
ENDBRANCH   3  21
TORSDOF 7
ENDMDL
MODEL 13
REMARK VINA RESULT:    -7.668      1.854      2.620
REMARK INTER + INTRA:         -11.402
REMARK INTER:                 -10.468
REMARK INTRA:                  -0.934
REMARK UNBOUND:                -0.821
REMARK SMILES Cc1ccc(CNc2nc(NCCO)nc3c2cnn3C)cc1
REMARK SMILES IDX 8 1 9 2 10 3 15 4 16 5 17 6 18 7 19 8 20 9 21 10 7 11 6 13
REMARK SMILES IDX 5 14 2 15 3 16 23 17 4 18 22 19 1 20 11 21 12 23 13 24 14 25
REMARK H PARENT 7 12 11 22 14 26
ROOT
ATOM      1  C   UNL     1       4.051  45.643  52.638  1.00  0.00     0.143 A 
ATOM      2  N   UNL     1       3.029  45.326  53.474  1.00  0.00    -0.195 NA
ATOM      3  C   UNL     1       2.493  44.091  53.465  1.00  0.00     0.226 A 
ATOM      4  N   UNL     1       2.878  43.078  52.680  1.00  0.00    -0.193 NA
ATOM      5  C   UNL     1       3.885  43.411  51.859  1.00  0.00     0.165 A 
ATOM      6  C   UNL     1       4.507  44.642  51.777  1.00  0.00     0.082 A 
ATOM      7  C   UNL     1       5.475  44.481  50.766  1.00  0.00     0.149 A 
ATOM      8  N   UNL     1       5.488  43.246  50.250  1.00  0.00    -0.179 NA
ATOM      9  N   UNL     1       4.506  42.615  50.935  1.00  0.00    -0.250 N 
ATOM     10  C   UNL     1       4.214  41.234  50.644  1.00  0.00     0.176 C 
ENDROOT
BRANCH   1  11
ATOM     11  N   UNL     1       4.597  46.925  52.643  1.00  0.00    -0.365 N 
ATOM     12  H   UNL     1       4.935  47.221  51.736  1.00  0.00     0.162 HD
BRANCH  11  13
ATOM     13  C   UNL     1       5.503  47.215  53.741  1.00  0.00     0.150 C 
BRANCH  13  14
ATOM     14  C   UNL     1       6.922  46.980  53.278  1.00  0.00    -0.029 A 
ATOM     15  C   UNL     1       9.555  46.495  52.391  1.00  0.00    -0.051 A 
ATOM     16  C   UNL     1       8.571  46.924  51.493  1.00  0.00     0.004 A 
ATOM     17  C   UNL     1       9.216  46.324  53.738  1.00  0.00     0.004 A 
ATOM     18  C   UNL     1       7.266  47.157  51.931  1.00  0.00     0.006 A 
ATOM     19  C   UNL     1       7.910  46.556  54.178  1.00  0.00     0.006 A 
ATOM     20  C   UNL     1      10.964  46.279  51.928  1.00  0.00     0.044 C 
ENDBRANCH  13  14
ENDBRANCH  11  13
ENDBRANCH   1  11
BRANCH   3  21
ATOM     21  N   UNL     1       1.451  43.786  54.335  1.00  0.00    -0.352 N 
ATOM     22  H   UNL     1       0.827  43.190  53.801  1.00  0.00     0.163 HD
BRANCH  21  23
ATOM     23  C   UNL     1       0.798  44.935  54.949  1.00  0.00     0.144 C 
BRANCH  23  24
ATOM     24  C   UNL     1       1.222  45.126  56.408  1.00  0.00     0.177 C 
BRANCH  24  25
ATOM     25  O   UNL     1       2.391  45.943  56.471  1.00  0.00    -0.395 OA
ATOM     26  H   UNL     1       3.134  45.386  56.183  1.00  0.00     0.210 HD
ENDBRANCH  24  25
ENDBRANCH  23  24
ENDBRANCH  21  23
ENDBRANCH   3  21
TORSDOF 7
ENDMDL
MODEL 14
REMARK VINA RESULT:    -7.660      3.416      6.282
REMARK INTER + INTRA:         -11.391
REMARK INTER:                 -10.859
REMARK INTRA:                  -0.532
REMARK UNBOUND:                -0.821
REMARK SMILES Cc1ccc(CNc2nc(NCCO)nc3c2cnn3C)cc1
REMARK SMILES IDX 8 1 9 2 10 3 15 4 16 5 17 6 18 7 19 8 20 9 21 10 7 11 6 13
REMARK SMILES IDX 5 14 2 15 3 16 23 17 4 18 22 19 1 20 11 21 12 23 13 24 14 25
REMARK H PARENT 7 12 11 22 14 26
ROOT
ATOM      1  C   UNL     1       2.087  43.954  53.116  1.00  0.00     0.143 A 
ATOM      2  N   UNL     1       2.985  44.676  53.834  1.00  0.00    -0.195 NA
ATOM      3  C   UNL     1       2.645  45.207  55.023  1.00  0.00     0.226 A 
ATOM      4  N   UNL     1       1.450  45.095  55.617  1.00  0.00    -0.193 NA
ATOM      5  C   UNL     1       0.577  44.381  54.892  1.00  0.00     0.165 A 
ATOM      6  C   UNL     1       0.811  43.796  53.663  1.00  0.00     0.082 A 
ATOM      7  C   UNL     1      -0.413  43.185  53.325  1.00  0.00     0.149 A 
ATOM      8  N   UNL     1      -1.353  43.346  54.263  1.00  0.00    -0.179 NA
ATOM      9  N   UNL     1      -0.722  44.083  55.208  1.00  0.00    -0.250 N 
ATOM     10  C   UNL     1      -1.435  44.469  56.399  1.00  0.00     0.176 C 
ENDROOT
BRANCH   1  11
ATOM     11  N   UNL     1       2.439  43.414  51.881  1.00  0.00    -0.365 N 
ATOM     12  H   UNL     1       1.647  43.259  51.270  1.00  0.00     0.162 HD
BRANCH  11  13
ATOM     13  C   UNL     1       3.381  42.309  51.926  1.00  0.00     0.150 C 
BRANCH  13  14
ATOM     14  C   UNL     1       4.620  42.691  51.150  1.00  0.00    -0.029 A 
ATOM     15  C   UNL     1       6.901  43.429  49.666  1.00  0.00    -0.051 A 
ATOM     16  C   UNL     1       6.217  44.377  50.435  1.00  0.00     0.004 A 
ATOM     17  C   UNL     1       6.444  42.106  49.655  1.00  0.00     0.004 A 
ATOM     18  C   UNL     1       5.083  44.014  51.164  1.00  0.00     0.006 A 
ATOM     19  C   UNL     1       5.308  41.741  50.384  1.00  0.00     0.006 A 
ATOM     20  C   UNL     1       8.138  43.811  48.910  1.00  0.00     0.044 C 
ENDBRANCH  13  14
ENDBRANCH  11  13
ENDBRANCH   1  11
BRANCH   3  21
ATOM     21  N   UNL     1       3.583  45.939  55.745  1.00  0.00    -0.352 N 
ATOM     22  H   UNL     1       3.186  46.869  55.827  1.00  0.00     0.163 HD
BRANCH  21  23
ATOM     23  C   UNL     1       4.938  45.913  55.208  1.00  0.00     0.144 C 
BRANCH  23  24
ATOM     24  C   UNL     1       5.239  47.143  54.347  1.00  0.00     0.177 C 
BRANCH  24  25
ATOM     25  O   UNL     1       4.583  48.289  54.889  1.00  0.00    -0.395 OA
ATOM     26  H   UNL     1       3.827  48.476  54.307  1.00  0.00     0.210 HD
ENDBRANCH  24  25
ENDBRANCH  23  24
ENDBRANCH  21  23
ENDBRANCH   3  21
TORSDOF 7
ENDMDL
MODEL 15
REMARK VINA RESULT:    -7.653      3.110      7.045
REMARK INTER + INTRA:         -11.382
REMARK INTER:                 -10.449
REMARK INTRA:                  -0.933
REMARK UNBOUND:                -0.821
REMARK SMILES Cc1ccc(CNc2nc(NCCO)nc3c2cnn3C)cc1
REMARK SMILES IDX 8 1 9 2 10 3 15 4 16 5 17 6 18 7 19 8 20 9 21 10 7 11 6 13
REMARK SMILES IDX 5 14 2 15 3 16 23 17 4 18 22 19 1 20 11 21 12 23 13 24 14 25
REMARK H PARENT 7 12 11 22 14 26
ROOT
ATOM      1  C   UNL     1       7.117  45.896  50.941  1.00  0.00     0.143 A 
ATOM      2  N   UNL     1       8.251  46.449  51.442  1.00  0.00    -0.195 NA
ATOM      3  C   UNL     1       8.230  47.124  52.606  1.00  0.00     0.226 A 
ATOM      4  N   UNL     1       7.153  47.324  53.375  1.00  0.00    -0.193 NA
ATOM      5  C   UNL     1       6.042  46.774  52.862  1.00  0.00     0.165 A 
ATOM      6  C   UNL     1       5.944  46.067  51.680  1.00  0.00     0.082 A 
ATOM      7  C   UNL     1       4.580  45.722  51.588  1.00  0.00     0.149 A 
ATOM      8  N   UNL     1       3.862  46.156  52.631  1.00  0.00    -0.179 NA
ATOM      9  N   UNL     1       4.780  46.797  53.392  1.00  0.00    -0.250 N 
ATOM     10  C   UNL     1       4.369  47.416  54.627  1.00  0.00     0.176 C 
ENDROOT
BRANCH   1  11
ATOM     11  N   UNL     1       7.140  45.206  49.732  1.00  0.00    -0.365 N 
ATOM     12  H   UNL     1       6.266  45.256  49.223  1.00  0.00     0.162 HD
BRANCH  11  13
ATOM     13  C   UNL     1       7.725  43.877  49.781  1.00  0.00     0.150 C 
BRANCH  13  14
ATOM     14  C   UNL     1       6.673  42.865  49.391  1.00  0.00    -0.029 A 
ATOM     15  C   UNL     1       4.680  41.016  48.643  1.00  0.00    -0.051 A 
ATOM     16  C   UNL     1       5.523  41.579  47.679  1.00  0.00     0.004 A 
ATOM     17  C   UNL     1       4.850  41.373  49.985  1.00  0.00     0.004 A 
ATOM     18  C   UNL     1       6.505  42.501  48.048  1.00  0.00     0.006 A 
ATOM     19  C   UNL     1       5.832  42.296  50.356  1.00  0.00     0.006 A 
ATOM     20  C   UNL     1       3.648  40.001  48.251  1.00  0.00     0.044 C 
ENDBRANCH  13  14
ENDBRANCH  11  13
ENDBRANCH   1  11
BRANCH   3  21
ATOM     21  N   UNL     1       9.406  47.677  53.103  1.00  0.00    -0.352 N 
ATOM     22  H   UNL     1       9.966  47.888  52.284  1.00  0.00     0.163 HD
BRANCH  21  23
ATOM     23  C   UNL     1      10.095  46.873  54.105  1.00  0.00     0.144 C 
BRANCH  23  24
ATOM     24  C   UNL     1      10.194  47.593  55.452  1.00  0.00     0.177 C 
BRANCH  24  25
ATOM     25  O   UNL     1       9.153  48.563  55.563  1.00  0.00    -0.395 OA
ATOM     26  H   UNL     1       9.476  49.367  55.121  1.00  0.00     0.210 HD
ENDBRANCH  24  25
ENDBRANCH  23  24
ENDBRANCH  21  23
ENDBRANCH   3  21
TORSDOF 7
ENDMDL
MODEL 16
REMARK VINA RESULT:    -7.622      3.076      6.826
REMARK INTER + INTRA:         -11.340
REMARK INTER:                 -10.546
REMARK INTRA:                  -0.794
REMARK UNBOUND:                -0.821
REMARK SMILES Cc1ccc(CNc2nc(NCCO)nc3c2cnn3C)cc1
REMARK SMILES IDX 8 1 9 2 10 3 15 4 16 5 17 6 18 7 19 8 20 9 21 10 7 11 6 13
REMARK SMILES IDX 5 14 2 15 3 16 23 17 4 18 22 19 1 20 11 21 12 23 13 24 14 25
REMARK H PARENT 7 12 11 22 14 26
ROOT
ATOM      1  C   UNL     1       5.678  46.971  52.685  1.00  0.00     0.143 A 
ATOM      2  N   UNL     1       6.803  47.566  53.157  1.00  0.00    -0.195 NA
ATOM      3  C   UNL     1       8.013  47.233  52.668  1.00  0.00     0.226 A 
ATOM      4  N   UNL     1       8.246  46.329  51.708  1.00  0.00    -0.193 NA
ATOM      5  C   UNL     1       7.123  45.751  51.257  1.00  0.00     0.165 A 
ATOM      6  C   UNL     1       5.836  46.008  51.686  1.00  0.00     0.082 A 
ATOM      7  C   UNL     1       5.031  45.141  50.920  1.00  0.00     0.149 A 
ATOM      8  N   UNL     1       5.737  44.399  50.059  1.00  0.00    -0.179 NA
ATOM      9  N   UNL     1       7.012  44.791  50.288  1.00  0.00    -0.250 N 
ATOM     10  C   UNL     1       8.083  44.193  49.533  1.00  0.00     0.176 C 
ENDROOT
BRANCH   1  11
ATOM     11  N   UNL     1       4.429  47.311  53.199  1.00  0.00    -0.365 N 
ATOM     12  H   UNL     1       4.225  48.301  53.138  1.00  0.00     0.162 HD
BRANCH  11  13
ATOM     13  C   UNL     1       4.095  46.713  54.480  1.00  0.00     0.150 C 
BRANCH  13  14
ATOM     14  C   UNL     1       2.795  45.956  54.342  1.00  0.00    -0.029 A 
ATOM     15  C   UNL     1       0.342  44.589  54.085  1.00  0.00    -0.051 A 
ATOM     16  C   UNL     1       0.868  45.311  53.008  1.00  0.00     0.004 A 
ATOM     17  C   UNL     1       1.058  44.543  55.287  1.00  0.00     0.004 A 
ATOM     18  C   UNL     1       2.079  45.994  53.137  1.00  0.00     0.006 A 
ATOM     19  C   UNL     1       2.270  45.227  55.418  1.00  0.00     0.006 A 
ATOM     20  C   UNL     1      -0.941  43.828  53.936  1.00  0.00     0.044 C 
ENDBRANCH  13  14
ENDBRANCH  11  13
ENDBRANCH   1  11
BRANCH   3  21
ATOM     21  N   UNL     1       9.152  47.860  53.162  1.00  0.00    -0.352 N 
ATOM     22  H   UNL     1       9.626  48.230  52.344  1.00  0.00     0.163 HD
BRANCH  21  23
ATOM     23  C   UNL     1       9.995  47.034  54.017  1.00  0.00     0.144 C 
BRANCH  23  24
ATOM     24  C   UNL     1      10.185  47.649  55.406  1.00  0.00     0.177 C 
BRANCH  24  25
ATOM     25  O   UNL     1       9.187  48.643  55.639  1.00  0.00    -0.395 OA
ATOM     26  H   UNL     1       8.657  48.698  54.825  1.00  0.00     0.210 HD
ENDBRANCH  24  25
ENDBRANCH  23  24
ENDBRANCH  21  23
ENDBRANCH   3  21
TORSDOF 7
ENDMDL
MODEL 17
REMARK VINA RESULT:    -7.565      3.400      4.986
REMARK INTER + INTRA:         -11.261
REMARK INTER:                 -10.637
REMARK INTRA:                  -0.623
REMARK UNBOUND:                -0.821
REMARK SMILES Cc1ccc(CNc2nc(NCCO)nc3c2cnn3C)cc1
REMARK SMILES IDX 8 1 9 2 10 3 15 4 16 5 17 6 18 7 19 8 20 9 21 10 7 11 6 13
REMARK SMILES IDX 5 14 2 15 3 16 23 17 4 18 22 19 1 20 11 21 12 23 13 24 14 25
REMARK H PARENT 7 12 11 22 14 26
ROOT
ATOM      1  C   UNL     1       2.913  45.928  53.401  1.00  0.00     0.143 A 
ATOM      2  N   UNL     1       2.778  45.923  54.752  1.00  0.00    -0.195 NA
ATOM      3  C   UNL     1       1.842  45.160  55.345  1.00  0.00     0.226 A 
ATOM      4  N   UNL     1       0.977  44.354  54.717  1.00  0.00    -0.193 NA
ATOM      5  C   UNL     1       1.123  44.375  53.384  1.00  0.00     0.165 A 
ATOM      6  C   UNL     1       2.040  45.119  52.669  1.00  0.00     0.082 A 
ATOM      7  C   UNL     1       1.776  44.803  51.321  1.00  0.00     0.149 A 
ATOM      8  N   UNL     1       0.784  43.917  51.179  1.00  0.00    -0.179 NA
ATOM      9  N   UNL     1       0.401  43.675  52.455  1.00  0.00    -0.250 N 
ATOM     10  C   UNL     1      -0.675  42.752  52.710  1.00  0.00     0.176 C 
ENDROOT
BRANCH   1  11
ATOM     11  N   UNL     1       3.877  46.726  52.789  1.00  0.00    -0.365 N 
ATOM     12  H   UNL     1       3.762  46.798  51.786  1.00  0.00     0.162 HD
BRANCH  11  13
ATOM     13  C   UNL     1       5.245  46.494  53.216  1.00  0.00     0.150 C 
BRANCH  13  14
ATOM     14  C   UNL     1       6.006  45.838  52.087  1.00  0.00    -0.029 A 
ATOM     15  C   UNL     1       7.438  44.575  50.013  1.00  0.00    -0.051 A 
ATOM     16  C   UNL     1       6.203  44.068  50.434  1.00  0.00     0.004 A 
ATOM     17  C   UNL     1       7.944  45.726  50.626  1.00  0.00     0.004 A 
ATOM     18  C   UNL     1       5.497  44.689  51.467  1.00  0.00     0.006 A 
ATOM     19  C   UNL     1       7.239  46.348  51.660  1.00  0.00     0.006 A 
ATOM     20  C   UNL     1       8.179  43.928  48.881  1.00  0.00     0.044 C 
ENDBRANCH  13  14
ENDBRANCH  11  13
ENDBRANCH   1  11
BRANCH   3  21
ATOM     21  N   UNL     1       1.726  45.165  56.732  1.00  0.00    -0.352 N 
ATOM     22  H   UNL     1       1.873  44.200  57.013  1.00  0.00     0.163 HD
BRANCH  21  23
ATOM     23  C   UNL     1       0.500  45.756  57.251  1.00  0.00     0.144 C 
BRANCH  23  24
ATOM     24  C   UNL     1       0.781  46.842  58.293  1.00  0.00     0.177 C 
BRANCH  24  25
ATOM     25  O   UNL     1       1.986  46.541  58.996  1.00  0.00    -0.395 OA
ATOM     26  H   UNL     1       2.076  47.215  59.692  1.00  0.00     0.210 HD
ENDBRANCH  24  25
ENDBRANCH  23  24
ENDBRANCH  21  23
ENDBRANCH   3  21
TORSDOF 7
ENDMDL
MODEL 18
REMARK VINA RESULT:    -7.465      2.615      4.673
REMARK INTER + INTRA:         -11.122
REMARK INTER:                 -10.246
REMARK INTRA:                  -0.876
REMARK UNBOUND:                -0.821
REMARK SMILES Cc1ccc(CNc2nc(NCCO)nc3c2cnn3C)cc1
REMARK SMILES IDX 8 1 9 2 10 3 15 4 16 5 17 6 18 7 19 8 20 9 21 10 7 11 6 13
REMARK SMILES IDX 5 14 2 15 3 16 23 17 4 18 22 19 1 20 11 21 12 23 13 24 14 25
REMARK H PARENT 7 12 11 22 14 26
ROOT
ATOM      1  C   UNL     1       3.114  44.558  51.925  1.00  0.00     0.143 A 
ATOM      2  N   UNL     1       2.030  44.400  51.124  1.00  0.00    -0.195 NA
ATOM      3  C   UNL     1       0.785  44.505  51.625  1.00  0.00     0.226 A 
ATOM      4  N   UNL     1       0.475  44.767  52.901  1.00  0.00    -0.193 NA
ATOM      5  C   UNL     1       1.559  44.917  53.677  1.00  0.00     0.165 A 
ATOM      6  C   UNL     1       2.877  44.826  53.275  1.00  0.00     0.082 A 
ATOM      7  C   UNL     1       3.620  45.044  54.453  1.00  0.00     0.149 A 
ATOM      8  N   UNL     1       2.847  45.272  55.521  1.00  0.00    -0.179 NA
ATOM      9  N   UNL     1       1.593  45.186  55.019  1.00  0.00    -0.250 N 
ATOM     10  C   UNL     1       0.464  45.375  55.894  1.00  0.00     0.176 C 
ENDROOT
BRANCH   1  11
ATOM     11  N   UNL     1       4.401  44.439  51.405  1.00  0.00    -0.365 N 
ATOM     12  H   UNL     1       5.051  43.992  52.039  1.00  0.00     0.162 HD
BRANCH  11  13
ATOM     13  C   UNL     1       4.926  45.627  50.754  1.00  0.00     0.150 C 
BRANCH  13  14
ATOM     14  C   UNL     1       6.229  46.011  51.414  1.00  0.00    -0.029 A 
ATOM     15  C   UNL     1       8.653  46.780  52.633  1.00  0.00    -0.051 A 
ATOM     16  C   UNL     1       7.427  47.092  53.232  1.00  0.00     0.004 A 
ATOM     17  C   UNL     1       8.658  46.069  51.428  1.00  0.00     0.004 A 
ATOM     18  C   UNL     1       6.226  46.718  52.625  1.00  0.00     0.006 A 
ATOM     19  C   UNL     1       7.457  45.694  50.818  1.00  0.00     0.006 A 
ATOM     20  C   UNL     1       9.942  47.152  53.302  1.00  0.00     0.044 C 
ENDBRANCH  13  14
ENDBRANCH  11  13
ENDBRANCH   1  11
BRANCH   3  21
ATOM     21  N   UNL     1      -0.312  44.346  50.785  1.00  0.00    -0.352 N 
ATOM     22  H   UNL     1      -0.286  45.146  50.161  1.00  0.00     0.163 HD
BRANCH  21  23
ATOM     23  C   UNL     1      -1.590  44.157  51.459  1.00  0.00     0.144 C 
BRANCH  23  24
ATOM     24  C   UNL     1      -2.533  45.345  51.250  1.00  0.00     0.177 C 
BRANCH  24  25
ATOM     25  O   UNL     1      -2.079  46.466  52.009  1.00  0.00    -0.395 OA
ATOM     26  H   UNL     1      -1.168  46.263  52.283  1.00  0.00     0.210 HD
ENDBRANCH  24  25
ENDBRANCH  23  24
ENDBRANCH  21  23
ENDBRANCH   3  21
TORSDOF 7
ENDMDL
MODEL 19
REMARK VINA RESULT:    -7.453      2.604      7.136
REMARK INTER + INTRA:         -11.106
REMARK INTER:                 -10.568
REMARK INTRA:                  -0.538
REMARK UNBOUND:                -0.821
REMARK SMILES Cc1ccc(CNc2nc(NCCO)nc3c2cnn3C)cc1
REMARK SMILES IDX 8 1 9 2 10 3 15 4 16 5 17 6 18 7 19 8 20 9 21 10 7 11 6 13
REMARK SMILES IDX 5 14 2 15 3 16 23 17 4 18 22 19 1 20 11 21 12 23 13 24 14 25
REMARK H PARENT 7 12 11 22 14 26
ROOT
ATOM      1  C   UNL     1       5.122  44.923  53.767  1.00  0.00     0.143 A 
ATOM      2  N   UNL     1       4.890  44.241  52.617  1.00  0.00    -0.195 NA
ATOM      3  C   UNL     1       5.646  44.459  51.525  1.00  0.00     0.226 A 
ATOM      4  N   UNL     1       6.665  45.324  51.439  1.00  0.00    -0.193 NA
ATOM      5  C   UNL     1       6.875  45.991  52.584  1.00  0.00     0.165 A 
ATOM      6  C   UNL     1       6.164  45.854  53.759  1.00  0.00     0.082 A 
ATOM      7  C   UNL     1       6.761  46.775  54.642  1.00  0.00     0.149 A 
ATOM      8  N   UNL     1       7.783  47.439  54.089  1.00  0.00    -0.179 NA
ATOM      9  N   UNL     1       7.828  46.942  52.831  1.00  0.00    -0.250 N 
ATOM     10  C   UNL     1       8.823  47.432  51.911  1.00  0.00     0.176 C 
ENDROOT
BRANCH   1  11
ATOM     11  N   UNL     1       4.331  44.701  54.893  1.00  0.00    -0.365 N 
ATOM     12  H   UNL     1       3.894  43.789  54.903  1.00  0.00     0.162 HD
BRANCH  11  13
ATOM     13  C   UNL     1       3.445  45.792  55.261  1.00  0.00     0.150 C 
BRANCH  13  14
ATOM     14  C   UNL     1       2.027  45.272  55.313  1.00  0.00    -0.029 A 
ATOM     15  C   UNL     1      -0.634  44.341  55.377  1.00  0.00    -0.051 A 
ATOM     16  C   UNL     1       0.175  44.104  54.260  1.00  0.00     0.004 A 
ATOM     17  C   UNL     1      -0.098  45.035  56.468  1.00  0.00     0.004 A 
ATOM     18  C   UNL     1       1.490  44.571  54.225  1.00  0.00     0.006 A 
ATOM     19  C   UNL     1       1.218  45.505  56.434  1.00  0.00     0.006 A 
ATOM     20  C   UNL     1      -2.035  43.810  55.428  1.00  0.00     0.044 C 
ENDBRANCH  13  14
ENDBRANCH  11  13
ENDBRANCH   1  11
BRANCH   3  21
ATOM     21  N   UNL     1       5.396  43.743  50.359  1.00  0.00    -0.352 N 
ATOM     22  H   UNL     1       4.586  43.169  50.570  1.00  0.00     0.163 HD
BRANCH  21  23
ATOM     23  C   UNL     1       6.532  43.001  49.828  1.00  0.00     0.144 C 
BRANCH  23  24
ATOM     24  C   UNL     1       6.242  41.501  49.725  1.00  0.00     0.177 C 
BRANCH  24  25
ATOM     25  O   UNL     1       7.404  40.755  50.089  1.00  0.00    -0.395 OA
ATOM     26  H   UNL     1       7.526  40.080  49.399  1.00  0.00     0.210 HD
ENDBRANCH  24  25
ENDBRANCH  23  24
ENDBRANCH  21  23
ENDBRANCH   3  21
TORSDOF 7
ENDMDL
MODEL 20
REMARK VINA RESULT:    -7.362      2.526      4.772
REMARK INTER + INTRA:         -10.981
REMARK INTER:                 -10.413
REMARK INTRA:                  -0.568
REMARK UNBOUND:                -0.821
REMARK SMILES Cc1ccc(CNc2nc(NCCO)nc3c2cnn3C)cc1
REMARK SMILES IDX 8 1 9 2 10 3 15 4 16 5 17 6 18 7 19 8 20 9 21 10 7 11 6 13
REMARK SMILES IDX 5 14 2 15 3 16 23 17 4 18 22 19 1 20 11 21 12 23 13 24 14 25
REMARK H PARENT 7 12 11 22 14 26
ROOT
ATOM      1  C   UNL     1       2.996  43.805  52.680  1.00  0.00     0.143 A 
ATOM      2  N   UNL     1       2.003  42.955  52.314  1.00  0.00    -0.195 NA
ATOM      3  C   UNL     1       0.892  42.833  53.066  1.00  0.00     0.226 A 
ATOM      4  N   UNL     1       0.639  43.497  54.200  1.00  0.00    -0.193 NA
ATOM      5  C   UNL     1       1.633  44.329  54.547  1.00  0.00     0.165 A 
ATOM      6  C   UNL     1       2.813  44.531  53.859  1.00  0.00     0.082 A 
ATOM      7  C   UNL     1       3.514  45.477  54.635  1.00  0.00     0.149 A 
ATOM      8  N   UNL     1       2.836  45.864  55.722  1.00  0.00    -0.179 NA
ATOM      9  N   UNL     1       1.692  45.145  55.644  1.00  0.00    -0.250 N 
ATOM     10  C   UNL     1       0.691  45.294  56.669  1.00  0.00     0.176 C 
ENDROOT
BRANCH   1  11
ATOM     11  N   UNL     1       4.148  43.923  51.905  1.00  0.00    -0.365 N 
ATOM     12  H   UNL     1       4.981  43.586  52.370  1.00  0.00     0.162 HD
BRANCH  11  13
ATOM     13  C   UNL     1       4.318  45.195  51.225  1.00  0.00     0.150 C 
BRANCH  13  14
ATOM     14  C   UNL     1       5.750  45.648  51.389  1.00  0.00    -0.029 A 
ATOM     15  C   UNL     1       8.435  46.447  51.714  1.00  0.00    -0.051 A 
ATOM     16  C   UNL     1       8.080  45.546  50.704  1.00  0.00     0.004 A 
ATOM     17  C   UNL     1       7.436  46.956  52.551  1.00  0.00     0.004 A 
ATOM     18  C   UNL     1       6.752  45.145  50.547  1.00  0.00     0.006 A 
ATOM     19  C   UNL     1       6.106  46.555  52.396  1.00  0.00     0.006 A 
ATOM     20  C   UNL     1       9.855  46.904  51.860  1.00  0.00     0.044 C 
ENDBRANCH  13  14
ENDBRANCH  11  13
ENDBRANCH   1  11
BRANCH   3  21
ATOM     21  N   UNL     1      -0.116  41.960  52.668  1.00  0.00    -0.352 N 
ATOM     22  H   UNL     1       0.336  41.303  52.040  1.00  0.00     0.163 HD
BRANCH  21  23
ATOM     23  C   UNL     1      -1.304  42.595  52.113  1.00  0.00     0.144 C 
BRANCH  23  24
ATOM     24  C   UNL     1      -0.953  43.716  51.131  1.00  0.00     0.177 C 
BRANCH  24  25
ATOM     25  O   UNL     1      -0.290  43.172  49.990  1.00  0.00    -0.395 OA
ATOM     26  H   UNL     1       0.592  42.891  50.290  1.00  0.00     0.210 HD
ENDBRANCH  24  25
ENDBRANCH  23  24
ENDBRANCH  21  23
ENDBRANCH   3  21
TORSDOF 7
ENDMDL
