MODEL 1
REMARK VINA RESULT:    -8.650      0.000      0.000
REMARK INTER + INTRA:         -13.373
REMARK INTER:                 -12.190
REMARK INTRA:                  -1.182
REMARK UNBOUND:                -1.182
REMARK SMILES Cc1ccc(Nc2nc(NCCCNC=O)nc3c2cnn3C)cc1
REMARK SMILES IDX 10 1 9 3 7 4 8 5 19 6 18 7 20 8 17 9 22 10 21 11 23 12 6 13
REMARK SMILES IDX 5 15 2 16 3 17 25 18 4 19 24 20 1 21 11 22 12 23 13 24 14 25
REMARK SMILES IDX 15 26 16 28
REMARK H PARENT 10 2 6 14 14 27
ROOT
ATOM      1  N   UNL     1       2.279  45.389  52.246  1.00  0.00    -0.354 N 
ATOM      2  H   UNL     1       2.645  45.936  53.019  1.00  0.00     0.163 HD
ENDROOT
BRANCH   1   3
ATOM      3  C   UNL     1       3.396  44.796  51.665  1.00  0.00     0.226 A 
ATOM      4  C   UNL     1       5.652  45.143  51.085  1.00  0.00     0.147 A 
ATOM      5  N   UNL     1       4.487  45.581  51.632  1.00  0.00    -0.195 NA
ATOM      6  C   UNL     1       5.652  43.839  50.573  1.00  0.00     0.082 A 
ATOM      7  C   UNL     1       4.475  43.122  50.662  1.00  0.00     0.165 A 
ATOM      8  C   UNL     1       6.551  42.954  49.939  1.00  0.00     0.149 A 
ATOM      9  N   UNL     1       3.321  43.542  51.200  1.00  0.00    -0.193 NA
ATOM     10  N   UNL     1       4.728  41.904  50.093  1.00  0.00    -0.250 N 
ATOM     11  N   UNL     1       6.000  41.771  49.648  1.00  0.00    -0.179 NA
ATOM     12  C   UNL     1       3.803  40.811  49.934  1.00  0.00     0.176 C 
BRANCH   4  13
ATOM     13  N   UNL     1       6.807  45.938  51.056  1.00  0.00    -0.339 N 
ATOM     14  H   UNL     1       6.963  46.397  50.170  1.00  0.00     0.168 HD
BRANCH  13  15
ATOM     15  C   UNL     1       7.744  46.285  52.046  1.00  0.00     0.040 A 
ATOM     16  C   UNL     1       9.522  47.061  54.119  1.00  0.00    -0.051 A 
ATOM     17  C   UNL     1      10.005  46.699  52.860  1.00  0.00     0.005 A 
ATOM     18  C   UNL     1       8.142  47.060  54.332  1.00  0.00     0.005 A 
ATOM     19  C   UNL     1       9.126  46.316  51.839  1.00  0.00     0.026 A 
ATOM     20  C   UNL     1       7.269  46.675  53.309  1.00  0.00     0.026 A 
ATOM     21  C   UNL     1      10.463  47.505  55.198  1.00  0.00     0.044 C 
ENDBRANCH  13  15
ENDBRANCH   4  13
ENDBRANCH   1   3
BRANCH   1  22
ATOM     22  C   UNL     1       1.219  44.459  52.596  1.00  0.00     0.118 C 
BRANCH  22  23
ATOM     23  C   UNL     1       1.480  43.900  53.995  1.00  0.00     0.042 C 
BRANCH  23  24
ATOM     24  C   UNL     1       1.762  45.003  55.013  1.00  0.00     0.117 C 
BRANCH  24  25
ATOM     25  N   UNL     1       3.075  44.905  55.616  1.00  0.00    -0.359 N 
ATOM     26  C   UNL     1       4.053  45.838  55.381  1.00  0.00     0.337 C 
ATOM     27  H   UNL     1       3.272  44.149  56.261  1.00  0.00     0.163 HD
ATOM     28  O   UNL     1       3.948  46.811  54.650  1.00  0.00    -0.279 OA
ENDBRANCH  24  25
ENDBRANCH  23  24
ENDBRANCH  22  23
ENDBRANCH   1  22
TORSDOF 7
ENDMDL
MODEL 2
REMARK VINA RESULT:    -8.413      2.145      4.507
REMARK INTER + INTRA:         -13.038
REMARK INTER:                 -12.083
REMARK INTRA:                  -0.955
REMARK UNBOUND:                -1.182
REMARK SMILES Cc1ccc(Nc2nc(NCCCNC=O)nc3c2cnn3C)cc1
REMARK SMILES IDX 10 1 9 3 7 4 8 5 19 6 18 7 20 8 17 9 22 10 21 11 23 12 6 13
REMARK SMILES IDX 5 15 2 16 3 17 25 18 4 19 24 20 1 21 11 22 12 23 13 24 14 25
REMARK SMILES IDX 15 26 16 28
REMARK H PARENT 10 2 6 14 14 27
ROOT
ATOM      1  N   UNL     1       4.576  41.767  51.211  1.00  0.00    -0.354 N 
ATOM      2  H   UNL     1       5.589  41.704  51.162  1.00  0.00     0.163 HD
ENDROOT
BRANCH   1   3
ATOM      3  C   UNL     1       4.310  43.112  51.445  1.00  0.00     0.226 A 
ATOM      4  C   UNL     1       5.284  45.252  51.572  1.00  0.00     0.147 A 
ATOM      5  N   UNL     1       5.386  43.914  51.358  1.00  0.00    -0.195 NA
ATOM      6  C   UNL     1       4.007  45.744  51.874  1.00  0.00     0.082 A 
ATOM      7  C   UNL     1       2.974  44.829  51.934  1.00  0.00     0.165 A 
ATOM      8  C   UNL     1       3.393  46.982  52.162  1.00  0.00     0.149 A 
ATOM      9  N   UNL     1       3.061  43.508  51.724  1.00  0.00    -0.193 NA
ATOM     10  N   UNL     1       1.852  45.545  52.249  1.00  0.00    -0.250 N 
ATOM     11  N   UNL     1       2.079  46.873  52.386  1.00  0.00    -0.179 NA
ATOM     12  C   UNL     1       0.519  45.032  52.439  1.00  0.00     0.176 C 
BRANCH   4  13
ATOM     13  N   UNL     1       6.390  46.110  51.470  1.00  0.00    -0.339 N 
ATOM     14  H   UNL     1       6.399  46.663  50.625  1.00  0.00     0.168 HD
BRANCH  13  15
ATOM     15  C   UNL     1       7.443  46.409  52.353  1.00  0.00     0.040 A 
ATOM     16  C   UNL     1       9.466  47.088  54.225  1.00  0.00    -0.051 A 
ATOM     17  C   UNL     1       9.792  46.738  52.913  1.00  0.00     0.005 A 
ATOM     18  C   UNL     1       8.120  47.124  54.592  1.00  0.00     0.005 A 
ATOM     19  C   UNL     1       8.792  46.403  51.992  1.00  0.00     0.026 A 
ATOM     20  C   UNL     1       7.125  46.786  53.667  1.00  0.00     0.026 A 
ATOM     21  C   UNL     1      10.536  47.482  55.198  1.00  0.00     0.044 C 
ENDBRANCH  13  15
ENDBRANCH   4  13
ENDBRANCH   1   3
BRANCH   1  22
ATOM     22  C   UNL     1       3.868  41.203  50.074  1.00  0.00     0.118 C 
BRANCH  22  23
ATOM     23  C   UNL     1       4.857  40.957  48.936  1.00  0.00     0.042 C 
BRANCH  23  24
ATOM     24  C   UNL     1       6.256  41.475  49.264  1.00  0.00     0.117 C 
BRANCH  24  25
ATOM     25  N   UNL     1       6.579  42.718  48.595  1.00  0.00    -0.359 N 
ATOM     26  C   UNL     1       7.730  43.411  48.868  1.00  0.00     0.337 C 
ATOM     27  H   UNL     1       5.960  43.072  47.876  1.00  0.00     0.163 HD
ATOM     28  O   UNL     1       8.578  43.092  49.688  1.00  0.00    -0.279 OA
ENDBRANCH  24  25
ENDBRANCH  23  24
ENDBRANCH  22  23
ENDBRANCH   1  22
TORSDOF 7
ENDMDL
MODEL 3
REMARK VINA RESULT:    -8.382      2.675      5.191
REMARK INTER + INTRA:         -12.995
REMARK INTER:                 -12.249
REMARK INTRA:                  -0.746
REMARK UNBOUND:                -1.182
REMARK SMILES Cc1ccc(Nc2nc(NCCCNC=O)nc3c2cnn3C)cc1
REMARK SMILES IDX 10 1 9 3 7 4 8 5 19 6 18 7 20 8 17 9 22 10 21 11 23 12 6 13
REMARK SMILES IDX 5 15 2 16 3 17 25 18 4 19 24 20 1 21 11 22 12 23 13 24 14 25
REMARK SMILES IDX 15 26 16 28
REMARK H PARENT 10 2 6 14 14 27
ROOT
ATOM      1  N   UNL     1       4.554  41.854  50.826  1.00  0.00    -0.354 N 
ATOM      2  H   UNL     1       4.432  41.350  51.699  1.00  0.00     0.163 HD
ENDROOT
BRANCH   1   3
ATOM      3  C   UNL     1       4.363  43.192  51.152  1.00  0.00     0.226 A 
ATOM      4  C   UNL     1       5.450  45.267  51.400  1.00  0.00     0.147 A 
ATOM      5  N   UNL     1       5.478  43.942  51.097  1.00  0.00    -0.195 NA
ATOM      6  C   UNL     1       4.205  45.801  51.760  1.00  0.00     0.082 A 
ATOM      7  C   UNL     1       3.127  44.939  51.781  1.00  0.00     0.165 A 
ATOM      8  C   UNL     1       3.663  47.047  52.142  1.00  0.00     0.149 A 
ATOM      9  N   UNL     1       3.142  43.632  51.483  1.00  0.00    -0.193 NA
ATOM     10  N   UNL     1       2.050  45.688  52.167  1.00  0.00    -0.250 N 
ATOM     11  N   UNL     1       2.349  46.991  52.386  1.00  0.00    -0.179 NA
ATOM     12  C   UNL     1       0.695  45.232  52.350  1.00  0.00     0.176 C 
BRANCH   4  13
ATOM     13  N   UNL     1       6.597  46.072  51.331  1.00  0.00    -0.339 N 
ATOM     14  H   UNL     1       6.699  46.561  50.453  1.00  0.00     0.168 HD
BRANCH  13  15
ATOM     15  C   UNL     1       7.586  46.394  52.276  1.00  0.00     0.040 A 
ATOM     16  C   UNL     1       9.476  47.121  54.266  1.00  0.00    -0.051 A 
ATOM     17  C   UNL     1       9.891  46.762  52.982  1.00  0.00     0.005 A 
ATOM     18  C   UNL     1       8.109  47.142  54.546  1.00  0.00     0.005 A 
ATOM     19  C   UNL     1       8.957  46.403  52.003  1.00  0.00     0.026 A 
ATOM     20  C   UNL     1       7.180  46.781  53.564  1.00  0.00     0.026 A 
ATOM     21  C   UNL     1      10.477  47.540  55.301  1.00  0.00     0.044 C 
ENDBRANCH  13  15
ENDBRANCH   4  13
ENDBRANCH   1   3
BRANCH   1  22
ATOM     22  C   UNL     1       5.797  41.577  50.124  1.00  0.00     0.118 C 
BRANCH  22  23
ATOM     23  C   UNL     1       5.503  41.374  48.638  1.00  0.00     0.042 C 
BRANCH  23  24
ATOM     24  C   UNL     1       4.168  40.671  48.404  1.00  0.00     0.117 C 
BRANCH  24  25
ATOM     25  N   UNL     1       3.949  40.301  47.021  1.00  0.00    -0.359 N 
ATOM     26  C   UNL     1       3.116  39.270  46.668  1.00  0.00     0.337 C 
ATOM     27  H   UNL     1       4.390  40.840  46.287  1.00  0.00     0.163 HD
ATOM     28  O   UNL     1       2.501  38.554  47.444  1.00  0.00    -0.279 OA
ENDBRANCH  24  25
ENDBRANCH  23  24
ENDBRANCH  22  23
ENDBRANCH   1  22
TORSDOF 7
ENDMDL
MODEL 4
REMARK VINA RESULT:    -8.380      1.596      1.878
REMARK INTER + INTRA:         -12.992
REMARK INTER:                 -11.984
REMARK INTRA:                  -1.008
REMARK UNBOUND:                -1.182
REMARK SMILES Cc1ccc(Nc2nc(NCCCNC=O)nc3c2cnn3C)cc1
REMARK SMILES IDX 10 1 9 3 7 4 8 5 19 6 18 7 20 8 17 9 22 10 21 11 23 12 6 13
REMARK SMILES IDX 5 15 2 16 3 17 25 18 4 19 24 20 1 21 11 22 12 23 13 24 14 25
REMARK SMILES IDX 15 26 16 28
REMARK H PARENT 10 2 6 14 14 27
ROOT
ATOM      1  N   UNL     1       2.448  46.393  51.773  1.00  0.00    -0.354 N 
ATOM      2  H   UNL     1       2.879  47.224  52.169  1.00  0.00     0.163 HD
ENDROOT
BRANCH   1   3
ATOM      3  C   UNL     1       3.512  45.562  51.437  1.00  0.00     0.226 A 
ATOM      4  C   UNL     1       5.842  45.489  51.107  1.00  0.00     0.147 A 
ATOM      5  N   UNL     1       4.711  46.171  51.427  1.00  0.00    -0.195 NA
ATOM      6  C   UNL     1       5.690  44.130  50.801  1.00  0.00     0.082 A 
ATOM      7  C   UNL     1       4.412  43.609  50.845  1.00  0.00     0.165 A 
ATOM      8  C   UNL     1       6.500  43.036  50.428  1.00  0.00     0.149 A 
ATOM      9  N   UNL     1       3.290  44.270  51.161  1.00  0.00    -0.193 NA
ATOM     10  N   UNL     1       4.529  42.290  50.503  1.00  0.00    -0.250 N 
ATOM     11  N   UNL     1       5.803  41.908  50.251  1.00  0.00    -0.179 NA
ATOM     12  C   UNL     1       3.464  41.324  50.393  1.00  0.00     0.176 C 
BRANCH   4  13
ATOM     13  N   UNL     1       7.106  46.100  51.107  1.00  0.00    -0.339 N 
ATOM     14  H   UNL     1       7.407  46.413  50.195  1.00  0.00     0.168 HD
BRANCH  13  15
ATOM     15  C   UNL     1       7.996  46.435  52.142  1.00  0.00     0.040 A 
ATOM     16  C   UNL     1       9.678  47.190  54.301  1.00  0.00    -0.051 A 
ATOM     17  C   UNL     1      10.219  46.810  53.071  1.00  0.00     0.005 A 
ATOM     18  C   UNL     1       8.290  47.217  54.442  1.00  0.00     0.005 A 
ATOM     19  C   UNL     1       9.387  46.438  52.008  1.00  0.00     0.026 A 
ATOM     20  C   UNL     1       7.464  46.842  53.376  1.00  0.00     0.026 A 
ATOM     21  C   UNL     1      10.571  47.622  55.426  1.00  0.00     0.044 C 
ENDBRANCH  13  15
ENDBRANCH   4  13
ENDBRANCH   1   3
BRANCH   1  22
ATOM     22  C   UNL     1       1.437  45.767  52.609  1.00  0.00     0.118 C 
BRANCH  22  23
ATOM     23  C   UNL     1       2.002  45.555  54.013  1.00  0.00     0.042 C 
BRANCH  23  24
ATOM     24  C   UNL     1       1.466  44.282  54.665  1.00  0.00     0.117 C 
BRANCH  24  25
ATOM     25  N   UNL     1       1.610  43.107  53.832  1.00  0.00    -0.359 N 
ATOM     26  C   UNL     1       0.537  42.323  53.491  1.00  0.00     0.337 C 
ATOM     27  H   UNL     1       2.520  42.873  53.453  1.00  0.00     0.163 HD
ATOM     28  O   UNL     1      -0.617  42.499  53.851  1.00  0.00    -0.279 OA
ENDBRANCH  24  25
ENDBRANCH  23  24
ENDBRANCH  22  23
ENDBRANCH   1  22
TORSDOF 7
ENDMDL
MODEL 5
REMARK VINA RESULT:    -8.269      2.210      4.719
REMARK INTER + INTRA:         -12.835
REMARK INTER:                 -11.581
REMARK INTRA:                  -1.254
REMARK UNBOUND:                -1.182
REMARK SMILES Cc1ccc(Nc2nc(NCCCNC=O)nc3c2cnn3C)cc1
REMARK SMILES IDX 10 1 9 3 7 4 8 5 19 6 18 7 20 8 17 9 22 10 21 11 23 12 6 13
REMARK SMILES IDX 5 15 2 16 3 17 25 18 4 19 24 20 1 21 11 22 12 23 13 24 14 25
REMARK SMILES IDX 15 26 16 28
REMARK H PARENT 10 2 6 14 14 27
ROOT
ATOM      1  N   UNL     1       3.767  41.540  50.800  1.00  0.00    -0.354 N 
ATOM      2  H   UNL     1       3.327  40.808  51.350  1.00  0.00     0.163 HD
ENDROOT
BRANCH   1   3
ATOM      3  C   UNL     1       3.487  42.720  51.482  1.00  0.00     0.226 A 
ATOM      4  C   UNL     1       4.249  44.910  51.892  1.00  0.00     0.147 A 
ATOM      5  N   UNL     1       4.383  43.703  51.283  1.00  0.00    -0.195 NA
ATOM      6  C   UNL     1       3.131  45.073  52.721  1.00  0.00     0.082 A 
ATOM      7  C   UNL     1       2.275  43.997  52.850  1.00  0.00     0.165 A 
ATOM      8  C   UNL     1       2.559  46.073  53.536  1.00  0.00     0.149 A 
ATOM      9  N   UNL     1       2.396  42.803  52.254  1.00  0.00    -0.193 NA
ATOM     10  N   UNL     1       1.287  44.400  53.706  1.00  0.00    -0.250 N 
ATOM     11  N   UNL     1       1.431  45.676  54.135  1.00  0.00    -0.179 NA
ATOM     12  C   UNL     1       0.164  43.621  54.165  1.00  0.00     0.176 C 
BRANCH   4  13
ATOM     13  N   UNL     1       5.162  45.955  51.685  1.00  0.00    -0.339 N 
ATOM     14  H   UNL     1       4.853  46.637  51.007  1.00  0.00     0.168 HD
BRANCH  13  15
ATOM     15  C   UNL     1       6.385  46.281  52.298  1.00  0.00     0.040 A 
ATOM     16  C   UNL     1       8.774  46.978  53.664  1.00  0.00    -0.051 A 
ATOM     17  C   UNL     1       8.732  46.938  52.268  1.00  0.00     0.005 A 
ATOM     18  C   UNL     1       7.608  46.693  54.376  1.00  0.00     0.005 A 
ATOM     19  C   UNL     1       7.553  46.594  51.597  1.00  0.00     0.026 A 
ATOM     20  C   UNL     1       6.432  46.348  53.700  1.00  0.00     0.026 A 
ATOM     21  C   UNL     1      10.029  47.382  54.378  1.00  0.00     0.044 C 
ENDBRANCH  13  15
ENDBRANCH   4  13
ENDBRANCH   1   3
BRANCH   1  22
ATOM     22  C   UNL     1       5.176  41.332  50.512  1.00  0.00     0.118 C 
BRANCH  22  23
ATOM     23  C   UNL     1       5.376  41.252  48.999  1.00  0.00     0.042 C 
BRANCH  23  24
ATOM     24  C   UNL     1       6.288  42.360  48.478  1.00  0.00     0.117 C 
BRANCH  24  25
ATOM     25  N   UNL     1       6.726  43.276  49.511  1.00  0.00    -0.359 N 
ATOM     26  C   UNL     1       7.939  43.914  49.449  1.00  0.00     0.337 C 
ATOM     27  H   UNL     1       6.108  43.486  50.284  1.00  0.00     0.163 HD
ATOM     28  O   UNL     1       8.772  43.778  48.565  1.00  0.00    -0.279 OA
ENDBRANCH  24  25
ENDBRANCH  23  24
ENDBRANCH  22  23
ENDBRANCH   1  22
TORSDOF 7
ENDMDL
MODEL 6
REMARK VINA RESULT:    -8.264      2.682      5.291
REMARK INTER + INTRA:         -12.828
REMARK INTER:                 -12.049
REMARK INTRA:                  -0.780
REMARK UNBOUND:                -1.182
REMARK SMILES Cc1ccc(Nc2nc(NCCCNC=O)nc3c2cnn3C)cc1
REMARK SMILES IDX 10 1 9 3 7 4 8 5 19 6 18 7 20 8 17 9 22 10 21 11 23 12 6 13
REMARK SMILES IDX 5 15 2 16 3 17 25 18 4 19 24 20 1 21 11 22 12 23 13 24 14 25
REMARK SMILES IDX 15 26 16 28
REMARK H PARENT 10 2 6 14 14 27
ROOT
ATOM      1  N   UNL     1       4.631  42.024  50.831  1.00  0.00    -0.354 N 
ATOM      2  H   UNL     1       4.625  41.509  51.706  1.00  0.00     0.163 HD
ENDROOT
BRANCH   1   3
ATOM      3  C   UNL     1       4.422  43.350  51.193  1.00  0.00     0.226 A 
ATOM      4  C   UNL     1       5.479  45.433  51.491  1.00  0.00     0.147 A 
ATOM      5  N   UNL     1       5.525  44.118  51.153  1.00  0.00    -0.195 NA
ATOM      6  C   UNL     1       4.228  45.940  51.869  1.00  0.00     0.082 A 
ATOM      7  C   UNL     1       3.162  45.062  51.870  1.00  0.00     0.165 A 
ATOM      8  C   UNL     1       3.668  47.167  52.285  1.00  0.00     0.149 A 
ATOM      9  N   UNL     1       3.195  43.763  51.539  1.00  0.00    -0.193 NA
ATOM     10  N   UNL     1       2.076  45.785  52.278  1.00  0.00    -0.250 N 
ATOM     11  N   UNL     1       2.356  47.086  52.531  1.00  0.00    -0.179 NA
ATOM     12  C   UNL     1       0.728  45.304  52.454  1.00  0.00     0.176 C 
BRANCH   4  13
ATOM     13  N   UNL     1       6.614  46.256  51.440  1.00  0.00    -0.339 N 
ATOM     14  H   UNL     1       6.683  46.802  50.593  1.00  0.00     0.168 HD
BRANCH  13  15
ATOM     15  C   UNL     1       7.628  46.531  52.374  1.00  0.00     0.040 A 
ATOM     16  C   UNL     1       9.572  47.165  54.344  1.00  0.00    -0.051 A 
ATOM     17  C   UNL     1       9.955  46.801  53.051  1.00  0.00     0.005 A 
ATOM     18  C   UNL     1       8.211  47.237  54.643  1.00  0.00     0.005 A 
ATOM     19  C   UNL     1       8.994  46.488  52.082  1.00  0.00     0.026 A 
ATOM     20  C   UNL     1       7.255  46.922  53.670  1.00  0.00     0.026 A 
ATOM     21  C   UNL     1      10.602  47.534  55.368  1.00  0.00     0.044 C 
ENDBRANCH  13  15
ENDBRANCH   4  13
ENDBRANCH   1   3
BRANCH   1  22
ATOM     22  C   UNL     1       5.800  41.806  49.996  1.00  0.00     0.118 C 
BRANCH  22  23
ATOM     23  C   UNL     1       5.367  41.165  48.678  1.00  0.00     0.042 C 
BRANCH  23  24
ATOM     24  C   UNL     1       5.809  41.983  47.466  1.00  0.00     0.117 C 
BRANCH  24  25
ATOM     25  N   UNL     1       5.890  41.204  46.248  1.00  0.00    -0.359 N 
ATOM     26  C   UNL     1       5.085  41.460  45.167  1.00  0.00     0.337 C 
ATOM     27  H   UNL     1       6.587  40.473  46.170  1.00  0.00     0.163 HD
ATOM     28  O   UNL     1       4.222  42.323  45.110  1.00  0.00    -0.279 OA
ENDBRANCH  24  25
ENDBRANCH  23  24
ENDBRANCH  22  23
ENDBRANCH   1  22
TORSDOF 7
ENDMDL
MODEL 7
REMARK VINA RESULT:    -8.223      1.434      1.923
REMARK INTER + INTRA:         -12.771
REMARK INTER:                 -11.684
REMARK INTRA:                  -1.087
REMARK UNBOUND:                -1.182
REMARK SMILES Cc1ccc(Nc2nc(NCCCNC=O)nc3c2cnn3C)cc1
REMARK SMILES IDX 10 1 9 3 7 4 8 5 19 6 18 7 20 8 17 9 22 10 21 11 23 12 6 13
REMARK SMILES IDX 5 15 2 16 3 17 25 18 4 19 24 20 1 21 11 22 12 23 13 24 14 25
REMARK SMILES IDX 15 26 16 28
REMARK H PARENT 10 2 6 14 14 27
ROOT
ATOM      1  N   UNL     1       3.038  43.943  53.474  1.00  0.00    -0.354 N 
ATOM      2  H   UNL     1       2.140  43.886  53.002  1.00  0.00     0.163 HD
ENDROOT
BRANCH   1   3
ATOM      3  C   UNL     1       3.984  43.826  52.460  1.00  0.00     0.226 A 
ATOM      4  C   UNL     1       5.885  44.834  51.504  1.00  0.00     0.147 A 
ATOM      5  N   UNL     1       4.903  44.807  52.443  1.00  0.00    -0.195 NA
ATOM      6  C   UNL     1       5.890  43.788  50.572  1.00  0.00     0.082 A 
ATOM      7  C   UNL     1       4.899  42.832  50.686  1.00  0.00     0.165 A 
ATOM      8  C   UNL     1       6.651  43.369  49.460  1.00  0.00     0.149 A 
ATOM      9  N   UNL     1       3.927  42.794  51.608  1.00  0.00    -0.193 NA
ATOM     10  N   UNL     1       5.114  41.940  49.672  1.00  0.00    -0.250 N 
ATOM     11  N   UNL     1       6.191  42.241  48.907  1.00  0.00    -0.179 NA
ATOM     12  C   UNL     1       4.331  40.770  49.364  1.00  0.00     0.176 C 
BRANCH   4  13
ATOM     13  N   UNL     1       6.865  45.838  51.478  1.00  0.00    -0.339 N 
ATOM     14  H   UNL     1       6.843  46.407  50.643  1.00  0.00     0.168 HD
BRANCH  13  15
ATOM     15  C   UNL     1       7.816  46.260  52.424  1.00  0.00     0.040 A 
ATOM     16  C   UNL     1       9.623  47.188  54.406  1.00  0.00    -0.051 A 
ATOM     17  C   UNL     1      10.087  46.749  53.164  1.00  0.00     0.005 A 
ATOM     18  C   UNL     1       8.248  47.187  54.646  1.00  0.00     0.005 A 
ATOM     19  C   UNL     1       9.193  46.291  52.189  1.00  0.00     0.026 A 
ATOM     20  C   UNL     1       7.360  46.726  53.668  1.00  0.00     0.026 A 
ATOM     21  C   UNL     1      10.580  47.712  55.436  1.00  0.00     0.044 C 
ENDBRANCH  13  15
ENDBRANCH   4  13
ENDBRANCH   1   3
BRANCH   1  22
ATOM     22  C   UNL     1       3.212  45.106  54.328  1.00  0.00     0.118 C 
BRANCH  22  23
ATOM     23  C   UNL     1       1.855  45.525  54.892  1.00  0.00     0.042 C 
BRANCH  23  24
ATOM     24  C   UNL     1       0.729  44.601  54.435  1.00  0.00     0.117 C 
BRANCH  24  25
ATOM     25  N   UNL     1      -0.251  45.262  53.599  1.00  0.00    -0.359 N 
ATOM     26  C   UNL     1      -0.161  45.255  52.230  1.00  0.00     0.337 C 
ATOM     27  H   UNL     1      -1.051  45.710  54.029  1.00  0.00     0.163 HD
ATOM     28  O   UNL     1       0.730  44.733  51.577  1.00  0.00    -0.279 OA
ENDBRANCH  24  25
ENDBRANCH  23  24
ENDBRANCH  22  23
ENDBRANCH   1  22
TORSDOF 7
ENDMDL
MODEL 8
REMARK VINA RESULT:    -8.215      2.923      5.500
REMARK INTER + INTRA:         -12.759
REMARK INTER:                 -12.035
REMARK INTRA:                  -0.724
REMARK UNBOUND:                -1.182
REMARK SMILES Cc1ccc(Nc2nc(NCCCNC=O)nc3c2cnn3C)cc1
REMARK SMILES IDX 10 1 9 3 7 4 8 5 19 6 18 7 20 8 17 9 22 10 21 11 23 12 6 13
REMARK SMILES IDX 5 15 2 16 3 17 25 18 4 19 24 20 1 21 11 22 12 23 13 24 14 25
REMARK SMILES IDX 15 26 16 28
REMARK H PARENT 10 2 6 14 14 27
ROOT
ATOM      1  N   UNL     1       6.481  41.979  48.950  1.00  0.00    -0.354 N 
ATOM      2  H   UNL     1       7.247  42.469  48.497  1.00  0.00     0.163 HD
ENDROOT
BRANCH   1   3
ATOM      3  C   UNL     1       5.970  42.884  49.873  1.00  0.00     0.226 A 
ATOM      4  C   UNL     1       6.380  44.933  50.961  1.00  0.00     0.147 A 
ATOM      5  N   UNL     1       6.743  43.965  50.078  1.00  0.00    -0.195 NA
ATOM      6  C   UNL     1       5.163  44.745  51.630  1.00  0.00     0.082 A 
ATOM      7  C   UNL     1       4.449  43.599  51.340  1.00  0.00     0.165 A 
ATOM      8  C   UNL     1       4.372  45.414  52.589  1.00  0.00     0.149 A 
ATOM      9  N   UNL     1       4.796  42.640  50.471  1.00  0.00    -0.193 NA
ATOM     10  N   UNL     1       3.324  43.646  52.117  1.00  0.00    -0.250 N 
ATOM     11  N   UNL     1       3.247  44.757  52.888  1.00  0.00    -0.179 NA
ATOM     12  C   UNL     1       2.272  42.664  52.181  1.00  0.00     0.176 C 
BRANCH   4  13
ATOM     13  N   UNL     1       7.162  46.077  51.177  1.00  0.00    -0.339 N 
ATOM     14  H   UNL     1       7.081  46.770  50.446  1.00  0.00     0.168 HD
BRANCH  13  15
ATOM     15  C   UNL     1       7.973  46.482  52.252  1.00  0.00     0.040 A 
ATOM     16  C   UNL     1       9.726  47.220  54.360  1.00  0.00    -0.051 A 
ATOM     17  C   UNL     1       8.341  47.256  54.535  1.00  0.00     0.005 A 
ATOM     18  C   UNL     1      10.234  46.788  53.133  1.00  0.00     0.005 A 
ATOM     19  C   UNL     1       7.478  46.892  53.493  1.00  0.00     0.026 A 
ATOM     20  C   UNL     1       9.367  46.427  52.096  1.00  0.00     0.026 A 
ATOM     21  C   UNL     1      10.647  47.576  55.488  1.00  0.00     0.044 C 
ENDBRANCH  13  15
ENDBRANCH   4  13
ENDBRANCH   1   3
BRANCH   1  22
ATOM     22  C   UNL     1       5.490  41.418  48.046  1.00  0.00     0.118 C 
BRANCH  22  23
ATOM     23  C   UNL     1       5.767  41.909  46.626  1.00  0.00     0.042 C 
BRANCH  23  24
ATOM     24  C   UNL     1       4.649  41.531  45.656  1.00  0.00     0.117 C 
BRANCH  24  25
ATOM     25  N   UNL     1       4.210  40.158  45.794  1.00  0.00    -0.359 N 
ATOM     26  C   UNL     1       2.886  39.831  45.941  1.00  0.00     0.337 C 
ATOM     27  H   UNL     1       4.891  39.411  45.743  1.00  0.00     0.163 HD
ATOM     28  O   UNL     1       1.958  40.623  45.993  1.00  0.00    -0.279 OA
ENDBRANCH  24  25
ENDBRANCH  23  24
ENDBRANCH  22  23
ENDBRANCH   1  22
TORSDOF 7
ENDMDL
MODEL 9
REMARK VINA RESULT:    -8.150      2.706      5.173
REMARK INTER + INTRA:         -12.668
REMARK INTER:                 -11.881
REMARK INTRA:                  -0.786
REMARK UNBOUND:                -1.182
REMARK SMILES Cc1ccc(Nc2nc(NCCCNC=O)nc3c2cnn3C)cc1
REMARK SMILES IDX 10 1 9 3 7 4 8 5 19 6 18 7 20 8 17 9 22 10 21 11 23 12 6 13
REMARK SMILES IDX 5 15 2 16 3 17 25 18 4 19 24 20 1 21 11 22 12 23 13 24 14 25
REMARK SMILES IDX 15 26 16 28
REMARK H PARENT 10 2 6 14 14 27
ROOT
ATOM      1  N   UNL     1       3.964  41.540  51.151  1.00  0.00    -0.354 N 
ATOM      2  H   UNL     1       4.425  41.176  51.980  1.00  0.00     0.163 HD
ENDROOT
BRANCH   1   3
ATOM      3  C   UNL     1       3.880  42.913  51.359  1.00  0.00     0.226 A 
ATOM      4  C   UNL     1       5.122  44.912  51.403  1.00  0.00     0.147 A 
ATOM      5  N   UNL     1       5.045  43.568  51.220  1.00  0.00    -0.195 NA
ATOM      6  C   UNL     1       3.929  45.569  51.732  1.00  0.00     0.082 A 
ATOM      7  C   UNL     1       2.790  44.796  51.846  1.00  0.00     0.165 A 
ATOM      8  C   UNL     1       3.488  46.881  52.009  1.00  0.00     0.149 A 
ATOM      9  N   UNL     1       2.702  43.471  51.667  1.00  0.00    -0.193 NA
ATOM     10  N   UNL     1       1.780  45.657  52.178  1.00  0.00    -0.250 N 
ATOM     11  N   UNL     1       2.179  46.947  52.275  1.00  0.00    -0.179 NA
ATOM     12  C   UNL     1       0.399  45.322  52.422  1.00  0.00     0.176 C 
BRANCH   4  13
ATOM     13  N   UNL     1       6.324  45.619  51.246  1.00  0.00    -0.339 N 
ATOM     14  H   UNL     1       6.516  45.889  50.292  1.00  0.00     0.168 HD
BRANCH  13  15
ATOM     15  C   UNL     1       7.271  46.096  52.170  1.00  0.00     0.040 A 
ATOM     16  C   UNL     1       9.295  46.998  53.944  1.00  0.00    -0.051 A 
ATOM     17  C   UNL     1       7.978  46.838  54.382  1.00  0.00     0.005 A 
ATOM     18  C   UNL     1       9.604  46.680  52.621  1.00  0.00     0.005 A 
ATOM     19  C   UNL     1       6.982  46.393  53.504  1.00  0.00     0.026 A 
ATOM     20  C   UNL     1       8.603  46.237  51.748  1.00  0.00     0.026 A 
ATOM     21  C   UNL     1      10.366  47.439  54.896  1.00  0.00     0.044 C 
ENDBRANCH  13  15
ENDBRANCH   4  13
ENDBRANCH   1   3
BRANCH   1  22
ATOM     22  C   UNL     1       4.576  41.159  49.890  1.00  0.00     0.118 C 
BRANCH  22  23
ATOM     23  C   UNL     1       3.511  40.562  48.971  1.00  0.00     0.042 C 
BRANCH  23  24
ATOM     24  C   UNL     1       3.998  40.432  47.530  1.00  0.00     0.117 C 
BRANCH  24  25
ATOM     25  N   UNL     1       5.253  41.113  47.285  1.00  0.00    -0.359 N 
ATOM     26  C   UNL     1       5.494  41.792  46.118  1.00  0.00     0.337 C 
ATOM     27  H   UNL     1       5.961  41.126  48.008  1.00  0.00     0.163 HD
ATOM     28  O   UNL     1       4.724  41.883  45.174  1.00  0.00    -0.279 OA
ENDBRANCH  24  25
ENDBRANCH  23  24
ENDBRANCH  22  23
ENDBRANCH   1  22
TORSDOF 7
ENDMDL
MODEL 10
REMARK VINA RESULT:    -8.115      1.762      2.273
REMARK INTER + INTRA:         -12.618
REMARK INTER:                 -11.976
REMARK INTRA:                  -0.642
REMARK UNBOUND:                -1.182
REMARK SMILES Cc1ccc(Nc2nc(NCCCNC=O)nc3c2cnn3C)cc1
REMARK SMILES IDX 10 1 9 3 7 4 8 5 19 6 18 7 20 8 17 9 22 10 21 11 23 12 6 13
REMARK SMILES IDX 5 15 2 16 3 17 25 18 4 19 24 20 1 21 11 22 12 23 13 24 14 25
REMARK SMILES IDX 15 26 16 28
REMARK H PARENT 10 2 6 14 14 27
ROOT
ATOM      1  N   UNL     1       2.758  44.161  53.703  1.00  0.00    -0.354 N 
ATOM      2  H   UNL     1       1.876  44.281  53.214  1.00  0.00     0.163 HD
ENDROOT
BRANCH   1   3
ATOM      3  C   UNL     1       3.702  43.969  52.700  1.00  0.00     0.226 A 
ATOM      4  C   UNL     1       5.633  44.874  51.701  1.00  0.00     0.147 A 
ATOM      5  N   UNL     1       4.649  44.921  52.637  1.00  0.00    -0.195 NA
ATOM      6  C   UNL     1       5.609  43.784  50.821  1.00  0.00     0.082 A 
ATOM      7  C   UNL     1       4.591  42.863  50.979  1.00  0.00     0.165 A 
ATOM      8  C   UNL     1       6.359  43.290  49.733  1.00  0.00     0.149 A 
ATOM      9  N   UNL     1       3.617  42.898  51.899  1.00  0.00    -0.193 NA
ATOM     10  N   UNL     1       4.782  41.918  50.010  1.00  0.00    -0.250 N 
ATOM     11  N   UNL     1       5.868  42.150  49.235  1.00  0.00    -0.179 NA
ATOM     12  C   UNL     1       3.967  40.756  49.757  1.00  0.00     0.176 C 
BRANCH   4  13
ATOM     13  N   UNL     1       6.641  45.847  51.629  1.00  0.00    -0.339 N 
ATOM     14  H   UNL     1       6.663  46.346  50.751  1.00  0.00     0.168 HD
BRANCH  13  15
ATOM     15  C   UNL     1       7.571  46.321  52.572  1.00  0.00     0.040 A 
ATOM     16  C   UNL     1       9.558  47.193  54.402  1.00  0.00    -0.051 A 
ATOM     17  C   UNL     1       8.204  47.238  54.740  1.00  0.00     0.005 A 
ATOM     18  C   UNL     1       9.919  46.684  53.153  1.00  0.00     0.005 A 
ATOM     19  C   UNL     1       7.226  46.808  53.835  1.00  0.00     0.026 A 
ATOM     20  C   UNL     1       8.937  46.257  52.253  1.00  0.00     0.026 A 
ATOM     21  C   UNL     1      10.605  47.620  55.387  1.00  0.00     0.044 C 
ENDBRANCH  13  15
ENDBRANCH   4  13
ENDBRANCH   1   3
BRANCH   1  22
ATOM     22  C   UNL     1       3.089  45.218  54.645  1.00  0.00     0.118 C 
BRANCH  22  23
ATOM     23  C   UNL     1       1.966  45.347  55.673  1.00  0.00     0.042 C 
BRANCH  23  24
ATOM     24  C   UNL     1       0.620  44.882  55.121  1.00  0.00     0.117 C 
BRANCH  24  25
ATOM     25  N   UNL     1      -0.483  45.741  55.499  1.00  0.00    -0.359 N 
ATOM     26  C   UNL     1      -1.218  45.521  56.636  1.00  0.00     0.337 C 
ATOM     27  H   UNL     1      -0.698  46.553  54.933  1.00  0.00     0.163 HD
ATOM     28  O   UNL     1      -1.054  44.600  57.423  1.00  0.00    -0.279 OA
ENDBRANCH  24  25
ENDBRANCH  23  24
ENDBRANCH  22  23
ENDBRANCH   1  22
TORSDOF 7
ENDMDL
MODEL 11
REMARK VINA RESULT:    -8.074      2.635      7.184
REMARK INTER + INTRA:         -12.560
REMARK INTER:                 -11.713
REMARK INTRA:                  -0.847
REMARK UNBOUND:                -1.182
REMARK SMILES Cc1ccc(Nc2nc(NCCCNC=O)nc3c2cnn3C)cc1
REMARK SMILES IDX 10 1 9 3 7 4 8 5 19 6 18 7 20 8 17 9 22 10 21 11 23 12 6 13
REMARK SMILES IDX 5 15 2 16 3 17 25 18 4 19 24 20 1 21 11 22 12 23 13 24 14 25
REMARK SMILES IDX 15 26 16 28
REMARK H PARENT 10 2 6 14 14 27
ROOT
ATOM      1  N   UNL     1       7.879  45.689  50.447  1.00  0.00    -0.354 N 
ATOM      2  H   UNL     1       8.708  45.145  50.229  1.00  0.00     0.163 HD
ENDROOT
BRANCH   1   3
ATOM      3  C   UNL     1       6.871  44.750  50.633  1.00  0.00     0.226 A 
ATOM      4  C   UNL     1       5.984  42.721  49.829  1.00  0.00     0.147 A 
ATOM      5  N   UNL     1       6.911  43.714  49.776  1.00  0.00    -0.195 NA
ATOM      6  C   UNL     1       5.001  42.834  50.821  1.00  0.00     0.082 A 
ATOM      7  C   UNL     1       5.057  43.939  51.647  1.00  0.00     0.165 A 
ATOM      8  C   UNL     1       3.876  42.114  51.278  1.00  0.00     0.149 A 
ATOM      9  N   UNL     1       5.967  44.922  51.607  1.00  0.00    -0.193 NA
ATOM     10  N   UNL     1       4.001  43.822  52.509  1.00  0.00    -0.250 N 
ATOM     11  N   UNL     1       3.263  42.704  52.310  1.00  0.00    -0.179 NA
ATOM     12  C   UNL     1       3.627  44.741  53.554  1.00  0.00     0.176 C 
BRANCH   4  13
ATOM     13  N   UNL     1       6.018  41.623  48.956  1.00  0.00    -0.339 N 
ATOM     14  H   UNL     1       6.707  40.927  49.205  1.00  0.00     0.168 HD
BRANCH  13  15
ATOM     15  C   UNL     1       5.224  41.264  47.853  1.00  0.00     0.040 A 
ATOM     16  C   UNL     1       3.681  40.661  45.548  1.00  0.00    -0.051 A 
ATOM     17  C   UNL     1       3.304  40.186  46.806  1.00  0.00     0.005 A 
ATOM     18  C   UNL     1       4.819  41.462  45.448  1.00  0.00     0.005 A 
ATOM     19  C   UNL     1       4.068  40.485  47.941  1.00  0.00     0.026 A 
ATOM     20  C   UNL     1       5.579  41.756  46.586  1.00  0.00     0.026 A 
ATOM     21  C   UNL     1       2.841  40.369  44.340  1.00  0.00     0.044 C 
ENDBRANCH  13  15
ENDBRANCH   4  13
ENDBRANCH   1   3
BRANCH   1  22
ATOM     22  C   UNL     1       8.033  46.631  51.544  1.00  0.00     0.118 C 
BRANCH  22  23
ATOM     23  C   UNL     1       9.516  46.771  51.885  1.00  0.00     0.042 C 
BRANCH  23  24
ATOM     24  C   UNL     1       9.836  46.262  53.289  1.00  0.00     0.117 C 
BRANCH  24  25
ATOM     25  N   UNL     1      10.149  47.321  54.225  1.00  0.00    -0.359 N 
ATOM     26  C   UNL     1       9.179  47.942  54.970  1.00  0.00     0.337 C 
ATOM     27  H   UNL     1      11.115  47.590  54.368  1.00  0.00     0.163 HD
ATOM     28  O   UNL     1       7.981  47.704  54.921  1.00  0.00    -0.279 OA
ENDBRANCH  24  25
ENDBRANCH  23  24
ENDBRANCH  22  23
ENDBRANCH   1  22
TORSDOF 7
ENDMDL
MODEL 12
REMARK VINA RESULT:    -7.872      2.102      5.535
REMARK INTER + INTRA:         -12.276
REMARK INTER:                 -11.878
REMARK INTRA:                  -0.398
REMARK UNBOUND:                -1.182
REMARK SMILES Cc1ccc(Nc2nc(NCCCNC=O)nc3c2cnn3C)cc1
REMARK SMILES IDX 10 1 9 3 7 4 8 5 19 6 18 7 20 8 17 9 22 10 21 11 23 12 6 13
REMARK SMILES IDX 5 15 2 16 3 17 25 18 4 19 24 20 1 21 11 22 12 23 13 24 14 25
REMARK SMILES IDX 15 26 16 28
REMARK H PARENT 10 2 6 14 14 27
ROOT
ATOM      1  N   UNL     1       3.848  46.345  55.444  1.00  0.00    -0.354 N 
ATOM      2  H   UNL     1       3.213  46.914  55.996  1.00  0.00     0.163 HD
ENDROOT
BRANCH   1   3
ATOM      3  C   UNL     1       3.033  45.414  54.807  1.00  0.00     0.226 A 
ATOM      4  C   UNL     1       2.935  43.861  53.040  1.00  0.00     0.147 A 
ATOM      5  N   UNL     1       3.611  44.789  53.767  1.00  0.00    -0.195 NA
ATOM      6  C   UNL     1       1.620  43.590  53.439  1.00  0.00     0.082 A 
ATOM      7  C   UNL     1       1.128  44.289  54.524  1.00  0.00     0.165 A 
ATOM      8  C   UNL     1       0.548  42.758  53.047  1.00  0.00     0.149 A 
ATOM      9  N   UNL     1       1.785  45.205  55.248  1.00  0.00    -0.193 NA
ATOM     10  N   UNL     1      -0.157  43.857  54.702  1.00  0.00    -0.250 N 
ATOM     11  N   UNL     1      -0.537  42.908  53.814  1.00  0.00    -0.179 NA
ATOM     12  C   UNL     1      -1.092  44.305  55.704  1.00  0.00     0.176 C 
BRANCH   4  13
ATOM     13  N   UNL     1       3.525  43.184  51.962  1.00  0.00    -0.339 N 
ATOM     14  H   UNL     1       2.973  42.412  51.615  1.00  0.00     0.168 HD
BRANCH  13  15
ATOM     15  C   UNL     1       4.695  43.422  51.219  1.00  0.00     0.040 A 
ATOM     16  C   UNL     1       7.082  43.749  49.717  1.00  0.00    -0.051 A 
ATOM     17  C   UNL     1       6.546  44.810  50.451  1.00  0.00     0.005 A 
ATOM     18  C   UNL     1       6.434  42.513  49.758  1.00  0.00     0.005 A 
ATOM     19  C   UNL     1       5.368  44.646  51.190  1.00  0.00     0.026 A 
ATOM     20  C   UNL     1       5.256  42.356  50.497  1.00  0.00     0.026 A 
ATOM     21  C   UNL     1       8.362  43.918  48.956  1.00  0.00     0.044 C 
ENDBRANCH  13  15
ENDBRANCH   4  13
ENDBRANCH   1   3
BRANCH   1  22
ATOM     22  C   UNL     1       4.722  47.088  54.552  1.00  0.00     0.118 C 
BRANCH  22  23
ATOM     23  C   UNL     1       6.141  46.528  54.655  1.00  0.00     0.042 C 
BRANCH  23  24
ATOM     24  C   UNL     1       7.058  47.075  53.563  1.00  0.00     0.117 C 
BRANCH  24  25
ATOM     25  N   UNL     1       8.453  46.740  53.765  1.00  0.00    -0.359 N 
ATOM     26  C   UNL     1       9.261  47.471  54.599  1.00  0.00     0.337 C 
ATOM     27  H   UNL     1       8.839  45.921  53.313  1.00  0.00     0.163 HD
ATOM     28  O   UNL     1       8.925  48.464  55.227  1.00  0.00    -0.279 OA
ENDBRANCH  24  25
ENDBRANCH  23  24
ENDBRANCH  22  23
ENDBRANCH   1  22
TORSDOF 7
ENDMDL
MODEL 13
REMARK VINA RESULT:    -7.862      2.134      5.760
REMARK INTER + INTRA:         -12.262
REMARK INTER:                 -11.536
REMARK INTRA:                  -0.726
REMARK UNBOUND:                -1.182
REMARK SMILES Cc1ccc(Nc2nc(NCCCNC=O)nc3c2cnn3C)cc1
REMARK SMILES IDX 10 1 9 3 7 4 8 5 19 6 18 7 20 8 17 9 22 10 21 11 23 12 6 13
REMARK SMILES IDX 5 15 2 16 3 17 25 18 4 19 24 20 1 21 11 22 12 23 13 24 14 25
REMARK SMILES IDX 15 26 16 28
REMARK H PARENT 10 2 6 14 14 27
ROOT
ATOM      1  N   UNL     1       4.703  46.963  54.981  1.00  0.00    -0.354 N 
ATOM      2  H   UNL     1       4.954  47.559  55.765  1.00  0.00     0.163 HD
ENDROOT
BRANCH   1   3
ATOM      3  C   UNL     1       5.884  46.794  54.266  1.00  0.00     0.226 A 
ATOM      4  C   UNL     1       6.794  45.951  52.264  1.00  0.00     0.147 A 
ATOM      5  N   UNL     1       5.729  46.195  53.072  1.00  0.00    -0.195 NA
ATOM      6  C   UNL     1       8.047  46.365  52.737  1.00  0.00     0.082 A 
ATOM      7  C   UNL     1       8.088  46.973  53.976  1.00  0.00     0.165 A 
ATOM      8  C   UNL     1       9.392  46.353  52.310  1.00  0.00     0.149 A 
ATOM      9  N   UNL     1       7.045  47.219  54.781  1.00  0.00    -0.193 NA
ATOM     10  N   UNL     1       9.403  47.268  54.210  1.00  0.00    -0.250 N 
ATOM     11  N   UNL     1      10.226  46.906  53.197  1.00  0.00    -0.179 NA
ATOM     12  C   UNL     1       9.956  47.898  55.382  1.00  0.00     0.176 C 
BRANCH   4  13
ATOM     13  N   UNL     1       6.653  45.344  51.007  1.00  0.00    -0.339 N 
ATOM     14  H   UNL     1       7.185  45.794  50.275  1.00  0.00     0.168 HD
BRANCH  13  15
ATOM     15  C   UNL     1       5.983  44.181  50.586  1.00  0.00     0.040 A 
ATOM     16  C   UNL     1       4.547  41.841  49.867  1.00  0.00    -0.051 A 
ATOM     17  C   UNL     1       5.792  42.120  49.298  1.00  0.00     0.005 A 
ATOM     18  C   UNL     1       4.032  42.724  50.818  1.00  0.00     0.005 A 
ATOM     19  C   UNL     1       6.497  43.276  49.655  1.00  0.00     0.026 A 
ATOM     20  C   UNL     1       4.742  43.878  51.168  1.00  0.00     0.026 A 
ATOM     21  C   UNL     1       3.810  40.585  49.510  1.00  0.00     0.044 C 
ENDBRANCH  13  15
ENDBRANCH   4  13
ENDBRANCH   1   3
BRANCH   1  22
ATOM     22  C   UNL     1       4.034  45.724  55.339  1.00  0.00     0.118 C 
BRANCH  22  23
ATOM     23  C   UNL     1       2.549  45.833  54.994  1.00  0.00     0.042 C 
BRANCH  23  24
ATOM     24  C   UNL     1       2.168  44.958  53.802  1.00  0.00     0.117 C 
BRANCH  24  25
ATOM     25  N   UNL     1       1.835  43.598  54.172  1.00  0.00    -0.359 N 
ATOM     26  C   UNL     1       1.191  42.748  53.310  1.00  0.00     0.337 C 
ATOM     27  H   UNL     1       2.118  43.246  55.078  1.00  0.00     0.163 HD
ATOM     28  O   UNL     1       0.816  43.028  52.181  1.00  0.00    -0.279 OA
ENDBRANCH  24  25
ENDBRANCH  23  24
ENDBRANCH  22  23
ENDBRANCH   1  22
TORSDOF 7
ENDMDL
MODEL 14
REMARK VINA RESULT:    -7.803      2.090      5.668
REMARK INTER + INTRA:         -12.178
REMARK INTER:                 -11.628
REMARK INTRA:                  -0.550
REMARK UNBOUND:                -1.182
REMARK SMILES Cc1ccc(Nc2nc(NCCCNC=O)nc3c2cnn3C)cc1
REMARK SMILES IDX 10 1 9 3 7 4 8 5 19 6 18 7 20 8 17 9 22 10 21 11 23 12 6 13
REMARK SMILES IDX 5 15 2 16 3 17 25 18 4 19 24 20 1 21 11 22 12 23 13 24 14 25
REMARK SMILES IDX 15 26 16 28
REMARK H PARENT 10 2 6 14 14 27
ROOT
ATOM      1  N   UNL     1       3.735  45.928  55.636  1.00  0.00    -0.354 N 
ATOM      2  H   UNL     1       3.425  46.880  55.466  1.00  0.00     0.163 HD
ENDROOT
BRANCH   1   3
ATOM      3  C   UNL     1       2.828  45.126  54.950  1.00  0.00     0.226 A 
ATOM      4  C   UNL     1       2.554  43.743  53.064  1.00  0.00     0.147 A 
ATOM      5  N   UNL     1       3.325  44.546  53.843  1.00  0.00    -0.195 NA
ATOM      6  C   UNL     1       1.230  43.550  53.479  1.00  0.00     0.082 A 
ATOM      7  C   UNL     1       0.827  44.194  54.633  1.00  0.00     0.165 A 
ATOM      8  C   UNL     1       0.082  42.848  53.054  1.00  0.00     0.149 A 
ATOM      9  N   UNL     1       1.578  44.986  55.411  1.00  0.00    -0.193 NA
ATOM     10  N   UNL     1      -0.486  43.858  54.816  1.00  0.00    -0.250 N 
ATOM     11  N   UNL     1      -0.968  43.023  53.864  1.00  0.00    -0.179 NA
ATOM     12  C   UNL     1      -1.354  44.295  55.880  1.00  0.00     0.176 C 
BRANCH   4  13
ATOM     13  N   UNL     1       3.057  43.114  51.915  1.00  0.00    -0.339 N 
ATOM     14  H   UNL     1       2.386  42.519  51.450  1.00  0.00     0.168 HD
BRANCH  13  15
ATOM     15  C   UNL     1       4.286  43.215  51.240  1.00  0.00     0.040 A 
ATOM     16  C   UNL     1       6.742  43.571  49.861  1.00  0.00    -0.051 A 
ATOM     17  C   UNL     1       6.137  42.314  49.933  1.00  0.00     0.005 A 
ATOM     18  C   UNL     1       6.102  44.657  50.460  1.00  0.00     0.005 A 
ATOM     19  C   UNL     1       4.926  42.141  50.614  1.00  0.00     0.026 A 
ATOM     20  C   UNL     1       4.892  44.477  51.141  1.00  0.00     0.026 A 
ATOM     21  C   UNL     1       8.020  43.759  49.100  1.00  0.00     0.044 C 
ENDBRANCH  13  15
ENDBRANCH   4  13
ENDBRANCH   1   3
BRANCH   1  22
ATOM     22  C   UNL     1       5.129  45.668  55.315  1.00  0.00     0.118 C 
BRANCH  22  23
ATOM     23  C   UNL     1       5.700  46.858  54.545  1.00  0.00     0.042 C 
BRANCH  23  24
ATOM     24  C   UNL     1       7.224  46.813  54.461  1.00  0.00     0.117 C 
BRANCH  24  25
ATOM     25  N   UNL     1       7.718  46.590  53.117  1.00  0.00    -0.359 N 
ATOM     26  C   UNL     1       8.020  47.629  52.274  1.00  0.00     0.337 C 
ATOM     27  H   UNL     1       7.884  45.644  52.799  1.00  0.00     0.163 HD
ATOM     28  O   UNL     1       7.895  48.817  52.533  1.00  0.00    -0.279 OA
ENDBRANCH  24  25
ENDBRANCH  23  24
ENDBRANCH  22  23
ENDBRANCH   1  22
TORSDOF 7
ENDMDL
MODEL 15
REMARK VINA RESULT:    -7.708      2.210      6.810
REMARK INTER + INTRA:         -12.045
REMARK INTER:                 -10.611
REMARK INTRA:                  -1.434
REMARK UNBOUND:                -1.182
REMARK SMILES Cc1ccc(Nc2nc(NCCCNC=O)nc3c2cnn3C)cc1
REMARK SMILES IDX 10 1 9 3 7 4 8 5 19 6 18 7 20 8 17 9 22 10 21 11 23 12 6 13
REMARK SMILES IDX 5 15 2 16 3 17 25 18 4 19 24 20 1 21 11 22 12 23 13 24 14 25
REMARK SMILES IDX 15 26 16 28
REMARK H PARENT 10 2 6 14 14 27
ROOT
ATOM      1  N   UNL     1       7.990  45.156  49.591  1.00  0.00    -0.354 N 
ATOM      2  H   UNL     1       7.358  45.483  48.867  1.00  0.00     0.163 HD
ENDROOT
BRANCH   1   3
ATOM      3  C   UNL     1       7.466  45.656  50.779  1.00  0.00     0.226 A 
ATOM      4  C   UNL     1       5.466  46.184  51.904  1.00  0.00     0.147 A 
ATOM      5  N   UNL     1       6.122  45.709  50.814  1.00  0.00    -0.195 NA
ATOM      6  C   UNL     1       6.259  46.602  52.981  1.00  0.00     0.082 A 
ATOM      7  C   UNL     1       7.629  46.500  52.836  1.00  0.00     0.165 A 
ATOM      8  C   UNL     1       6.085  47.141  54.274  1.00  0.00     0.149 A 
ATOM      9  N   UNL     1       8.288  46.032  51.767  1.00  0.00    -0.193 NA
ATOM     10  N   UNL     1       8.169  46.972  54.001  1.00  0.00    -0.250 N 
ATOM     11  N   UNL     1       7.242  47.364  54.907  1.00  0.00    -0.179 NA
ATOM     12  C   UNL     1       9.569  47.082  54.327  1.00  0.00     0.176 C 
BRANCH   4  13
ATOM     13  N   UNL     1       4.065  46.232  51.969  1.00  0.00    -0.339 N 
ATOM     14  H   UNL     1       3.679  47.142  51.765  1.00  0.00     0.168 HD
BRANCH  13  15
ATOM     15  C   UNL     1       3.092  45.240  52.182  1.00  0.00     0.040 A 
ATOM     16  C   UNL     1       1.042  43.301  52.499  1.00  0.00    -0.051 A 
ATOM     17  C   UNL     1       1.949  43.559  53.529  1.00  0.00     0.005 A 
ATOM     18  C   UNL     1       1.146  44.036  51.317  1.00  0.00     0.005 A 
ATOM     19  C   UNL     1       2.960  44.515  53.370  1.00  0.00     0.026 A 
ATOM     20  C   UNL     1       2.158  44.989  51.163  1.00  0.00     0.026 A 
ATOM     21  C   UNL     1      -0.061  42.303  52.686  1.00  0.00     0.044 C 
ENDBRANCH  13  15
ENDBRANCH   4  13
ENDBRANCH   1   3
BRANCH   1  22
ATOM     22  C   UNL     1       8.233  43.723  49.597  1.00  0.00     0.118 C 
BRANCH  22  23
ATOM     23  C   UNL     1       7.097  43.016  48.858  1.00  0.00     0.042 C 
BRANCH  23  24
ATOM     24  C   UNL     1       6.389  41.988  49.737  1.00  0.00     0.117 C 
BRANCH  24  25
ATOM     25  N   UNL     1       5.384  42.568  50.604  1.00  0.00    -0.359 N 
ATOM     26  C   UNL     1       4.243  41.889  50.950  1.00  0.00     0.337 C 
ATOM     27  H   UNL     1       5.540  43.486  51.001  1.00  0.00     0.163 HD
ATOM     28  O   UNL     1       3.937  40.770  50.568  1.00  0.00    -0.279 OA
ENDBRANCH  24  25
ENDBRANCH  23  24
ENDBRANCH  22  23
ENDBRANCH   1  22
TORSDOF 7
ENDMDL
MODEL 16
REMARK VINA RESULT:    -7.645      2.134      5.859
REMARK INTER + INTRA:         -11.956
REMARK INTER:                 -10.477
REMARK INTRA:                  -1.480
REMARK UNBOUND:                -1.182
REMARK SMILES Cc1ccc(Nc2nc(NCCCNC=O)nc3c2cnn3C)cc1
REMARK SMILES IDX 10 1 9 3 7 4 8 5 19 6 18 7 20 8 17 9 22 10 21 11 23 12 6 13
REMARK SMILES IDX 5 15 2 16 3 17 25 18 4 19 24 20 1 21 11 22 12 23 13 24 14 25
REMARK SMILES IDX 15 26 16 28
REMARK H PARENT 10 2 6 14 14 27
ROOT
ATOM      1  N   UNL     1       6.699  43.164  49.231  1.00  0.00    -0.354 N 
ATOM      2  H   UNL     1       6.018  43.421  48.523  1.00  0.00     0.163 HD
ENDROOT
BRANCH   1   3
ATOM      3  C   UNL     1       6.766  44.264  50.080  1.00  0.00     0.226 A 
ATOM      4  C   UNL     1       5.476  45.831  51.274  1.00  0.00     0.147 A 
ATOM      5  N   UNL     1       5.570  44.751  50.455  1.00  0.00    -0.195 NA
ATOM      6  C   UNL     1       6.683  46.395  51.708  1.00  0.00     0.082 A 
ATOM      7  C   UNL     1       7.853  45.811  51.263  1.00  0.00     0.165 A 
ATOM      8  C   UNL     1       7.116  47.463  52.524  1.00  0.00     0.149 A 
ATOM      9  N   UNL     1       7.958  44.746  50.456  1.00  0.00    -0.193 NA
ATOM     10  N   UNL     1       8.873  46.540  51.810  1.00  0.00    -0.250 N 
ATOM     11  N   UNL     1       8.448  47.556  52.599  1.00  0.00    -0.179 NA
ATOM     12  C   UNL     1      10.287  46.329  51.628  1.00  0.00     0.176 C 
BRANCH   4  13
ATOM     13  N   UNL     1       4.239  46.345  51.692  1.00  0.00    -0.339 N 
ATOM     14  H   UNL     1       3.841  47.018  51.053  1.00  0.00     0.168 HD
BRANCH  13  15
ATOM     15  C   UNL     1       3.408  46.043  52.785  1.00  0.00     0.040 A 
ATOM     16  C   UNL     1       1.849  45.359  55.058  1.00  0.00    -0.051 A 
ATOM     17  C   UNL     1       1.241  45.686  53.844  1.00  0.00     0.005 A 
ATOM     18  C   UNL     1       3.244  45.350  55.125  1.00  0.00     0.005 A 
ATOM     19  C   UNL     1       2.012  46.023  52.725  1.00  0.00     0.026 A 
ATOM     20  C   UNL     1       4.009  45.689  54.004  1.00  0.00     0.026 A 
ATOM     21  C   UNL     1       1.022  44.963  56.244  1.00  0.00     0.044 C 
ENDBRANCH  13  15
ENDBRANCH   4  13
ENDBRANCH   1   3
BRANCH   1  22
ATOM     22  C   UNL     1       6.441  41.902  49.903  1.00  0.00     0.118 C 
BRANCH  22  23
ATOM     23  C   UNL     1       5.243  41.216  49.248  1.00  0.00     0.042 C 
BRANCH  23  24
ATOM     24  C   UNL     1       3.989  41.291  50.118  1.00  0.00     0.117 C 
BRANCH  24  25
ATOM     25  N   UNL     1       4.232  41.860  51.427  1.00  0.00    -0.359 N 
ATOM     26  C   UNL     1       3.246  42.495  52.137  1.00  0.00     0.337 C 
ATOM     27  H   UNL     1       5.145  41.755  51.853  1.00  0.00     0.163 HD
ATOM     28  O   UNL     1       2.097  42.670  51.760  1.00  0.00    -0.279 OA
ENDBRANCH  24  25
ENDBRANCH  23  24
ENDBRANCH  22  23
ENDBRANCH   1  22
TORSDOF 7
ENDMDL
MODEL 17
REMARK VINA RESULT:    -7.596      2.945      4.040
REMARK INTER + INTRA:         -11.887
REMARK INTER:                 -10.837
REMARK INTRA:                  -1.049
REMARK UNBOUND:                -1.182
REMARK SMILES Cc1ccc(Nc2nc(NCCCNC=O)nc3c2cnn3C)cc1
REMARK SMILES IDX 10 1 9 3 7 4 8 5 19 6 18 7 20 8 17 9 22 10 21 11 23 12 6 13
REMARK SMILES IDX 5 15 2 16 3 17 25 18 4 19 24 20 1 21 11 22 12 23 13 24 14 25
REMARK SMILES IDX 15 26 16 28
REMARK H PARENT 10 2 6 14 14 27
ROOT
ATOM      1  N   UNL     1       2.190  45.562  56.544  1.00  0.00    -0.354 N 
ATOM      2  H   UNL     1       2.977  45.077  56.964  1.00  0.00     0.163 HD
ENDROOT
BRANCH   1   3
ATOM      3  C   UNL     1       2.559  45.766  55.218  1.00  0.00     0.226 A 
ATOM      4  C   UNL     1       4.178  46.753  53.822  1.00  0.00     0.147 A 
ATOM      5  N   UNL     1       3.696  46.466  55.060  1.00  0.00    -0.195 NA
ATOM      6  C   UNL     1       3.435  46.276  52.734  1.00  0.00     0.082 A 
ATOM      7  C   UNL     1       2.284  45.566  53.014  1.00  0.00     0.165 A 
ATOM      8  C   UNL     1       3.497  46.296  51.324  1.00  0.00     0.149 A 
ATOM      9  N   UNL     1       1.800  45.275  54.230  1.00  0.00    -0.193 NA
ATOM     10  N   UNL     1       1.745  45.226  51.804  1.00  0.00    -0.250 N 
ATOM     11  N   UNL     1       2.476  45.653  50.747  1.00  0.00    -0.179 NA
ATOM     12  C   UNL     1       0.528  44.489  51.572  1.00  0.00     0.176 C 
BRANCH   4  13
ATOM     13  N   UNL     1       5.371  47.467  53.634  1.00  0.00    -0.339 N 
ATOM     14  H   UNL     1       5.329  48.423  53.955  1.00  0.00     0.168 HD
BRANCH  13  15
ATOM     15  C   UNL     1       6.639  47.085  53.160  1.00  0.00     0.040 A 
ATOM     16  C   UNL     1       9.262  46.396  52.321  1.00  0.00    -0.051 A 
ATOM     17  C   UNL     1       8.185  46.323  51.435  1.00  0.00     0.005 A 
ATOM     18  C   UNL     1       9.029  46.840  53.623  1.00  0.00     0.005 A 
ATOM     19  C   UNL     1       6.892  46.663  51.852  1.00  0.00     0.026 A 
ATOM     20  C   UNL     1       7.734  47.177  54.034  1.00  0.00     0.026 A 
ATOM     21  C   UNL     1      10.651  46.066  51.861  1.00  0.00     0.044 C 
ENDBRANCH  13  15
ENDBRANCH   4  13
ENDBRANCH   1   3
BRANCH   1  22
ATOM     22  C   UNL     1       0.902  44.910  56.715  1.00  0.00     0.118 C 
BRANCH  22  23
ATOM     23  C   UNL     1      -0.143  45.953  57.111  1.00  0.00     0.042 C 
BRANCH  23  24
ATOM     24  C   UNL     1      -1.440  45.800  56.320  1.00  0.00     0.117 C 
BRANCH  24  25
ATOM     25  N   UNL     1      -1.232  45.349  54.960  1.00  0.00    -0.359 N 
ATOM     26  C   UNL     1      -1.874  44.248  54.454  1.00  0.00     0.337 C 
ATOM     27  H   UNL     1      -0.626  45.880  54.347  1.00  0.00     0.163 HD
ATOM     28  O   UNL     1      -2.649  43.530  55.068  1.00  0.00    -0.279 OA
ENDBRANCH  24  25
ENDBRANCH  23  24
ENDBRANCH  22  23
ENDBRANCH   1  22
TORSDOF 7
ENDMDL
MODEL 18
REMARK VINA RESULT:    -7.468      1.919      6.545
REMARK INTER + INTRA:         -11.707
REMARK INTER:                 -10.881
REMARK INTRA:                  -0.826
REMARK UNBOUND:                -1.182
REMARK SMILES Cc1ccc(Nc2nc(NCCCNC=O)nc3c2cnn3C)cc1
REMARK SMILES IDX 10 1 9 3 7 4 8 5 19 6 18 7 20 8 17 9 22 10 21 11 23 12 6 13
REMARK SMILES IDX 5 15 2 16 3 17 25 18 4 19 24 20 1 21 11 22 12 23 13 24 14 25
REMARK SMILES IDX 15 26 16 28
REMARK H PARENT 10 2 6 14 14 27
ROOT
ATOM      1  N   UNL     1       6.928  46.351  51.576  1.00  0.00    -0.354 N 
ATOM      2  H   UNL     1       6.366  47.104  51.189  1.00  0.00     0.163 HD
ENDROOT
BRANCH   1   3
ATOM      3  C   UNL     1       6.073  45.254  51.626  1.00  0.00     0.226 A 
ATOM      4  C   UNL     1       4.164  44.373  52.687  1.00  0.00     0.147 A 
ATOM      5  N   UNL     1       5.073  45.369  52.517  1.00  0.00    -0.195 NA
ATOM      6  C   UNL     1       4.322  43.237  51.882  1.00  0.00     0.082 A 
ATOM      7  C   UNL     1       5.384  43.228  50.999  1.00  0.00     0.165 A 
ATOM      8  C   UNL     1       3.686  41.994  51.674  1.00  0.00     0.149 A 
ATOM      9  N   UNL     1       6.285  44.204  50.821  1.00  0.00    -0.193 NA
ATOM     10  N   UNL     1       5.325  42.026  50.348  1.00  0.00    -0.250 N 
ATOM     11  N   UNL     1       4.285  41.251  50.737  1.00  0.00    -0.179 NA
ATOM     12  C   UNL     1       6.231  41.541  49.337  1.00  0.00     0.176 C 
BRANCH   4  13
ATOM     13  N   UNL     1       3.103  44.479  53.598  1.00  0.00    -0.339 N 
ATOM     14  H   UNL     1       3.394  44.713  54.537  1.00  0.00     0.168 HD
BRANCH  13  15
ATOM     15  C   UNL     1       1.707  44.406  53.441  1.00  0.00     0.040 A 
ATOM     16  C   UNL     1      -1.102  44.107  53.164  1.00  0.00    -0.051 A 
ATOM     17  C   UNL     1      -0.425  45.146  52.521  1.00  0.00     0.005 A 
ATOM     18  C   UNL     1      -0.365  43.201  53.927  1.00  0.00     0.005 A 
ATOM     19  C   UNL     1       0.960  45.291  52.660  1.00  0.00     0.026 A 
ATOM     20  C   UNL     1       1.019  43.352  54.063  1.00  0.00     0.026 A 
ATOM     21  C   UNL     1      -2.580  43.934  52.985  1.00  0.00     0.044 C 
ENDBRANCH  13  15
ENDBRANCH   4  13
ENDBRANCH   1   3
BRANCH   1  22
ATOM     22  C   UNL     1       8.184  46.103  50.888  1.00  0.00     0.118 C 
BRANCH  22  23
ATOM     23  C   UNL     1       9.313  46.822  51.625  1.00  0.00     0.042 C 
BRANCH  23  24
ATOM     24  C   UNL     1       9.536  46.260  53.027  1.00  0.00     0.117 C 
BRANCH  24  25
ATOM     25  N   UNL     1      10.096  47.227  53.949  1.00  0.00    -0.359 N 
ATOM     26  C   UNL     1       9.318  47.903  54.854  1.00  0.00     0.337 C 
ATOM     27  H   UNL     1      11.096  47.384  53.959  1.00  0.00     0.163 HD
ATOM     28  O   UNL     1       8.106  47.795  54.972  1.00  0.00    -0.279 OA
ENDBRANCH  24  25
ENDBRANCH  23  24
ENDBRANCH  22  23
ENDBRANCH   1  22
TORSDOF 7
ENDMDL
MODEL 19
REMARK VINA RESULT:    -7.463      2.489      5.770
REMARK INTER + INTRA:         -11.700
REMARK INTER:                 -10.215
REMARK INTRA:                  -1.485
REMARK UNBOUND:                -1.182
REMARK SMILES Cc1ccc(Nc2nc(NCCCNC=O)nc3c2cnn3C)cc1
REMARK SMILES IDX 10 1 9 3 7 4 8 5 19 6 18 7 20 8 17 9 22 10 21 11 23 12 6 13
REMARK SMILES IDX 5 15 2 16 3 17 25 18 4 19 24 20 1 21 11 22 12 23 13 24 14 25
REMARK SMILES IDX 15 26 16 28
REMARK H PARENT 10 2 6 14 14 27
ROOT
ATOM      1  N   UNL     1       0.685  43.054  52.744  1.00  0.00    -0.354 N 
ATOM      2  H   UNL     1       0.999  42.129  53.022  1.00  0.00     0.163 HD
ENDROOT
BRANCH   1   3
ATOM      3  C   UNL     1       0.748  43.819  53.905  1.00  0.00     0.226 A 
ATOM      4  C   UNL     1       2.206  44.972  55.350  1.00  0.00     0.147 A 
ATOM      5  N   UNL     1       1.986  44.226  54.235  1.00  0.00    -0.195 NA
ATOM      6  C   UNL     1       1.082  45.296  56.120  1.00  0.00     0.082 A 
ATOM      7  C   UNL     1      -0.142  44.826  55.685  1.00  0.00     0.165 A 
ATOM      8  C   UNL     1       0.780  46.009  57.301  1.00  0.00     0.149 A 
ATOM      9  N   UNL     1      -0.372  44.091  54.588  1.00  0.00    -0.193 NA
ATOM     10  N   UNL     1      -1.062  45.261  56.598  1.00  0.00    -0.250 N 
ATOM     11  N   UNL     1      -0.524  46.000  57.598  1.00  0.00    -0.179 NA
ATOM     12  C   UNL     1      -2.482  45.013  56.587  1.00  0.00     0.176 C 
BRANCH   4  13
ATOM     13  N   UNL     1       3.487  45.423  55.704  1.00  0.00    -0.339 N 
ATOM     14  H   UNL     1       3.717  45.273  56.676  1.00  0.00     0.168 HD
BRANCH  13  15
ATOM     15  C   UNL     1       4.542  45.967  54.950  1.00  0.00     0.040 A 
ATOM     16  C   UNL     1       6.567  47.120  53.328  1.00  0.00    -0.051 A 
ATOM     17  C   UNL     1       6.864  46.082  54.214  1.00  0.00     0.005 A 
ATOM     18  C   UNL     1       5.247  47.564  53.236  1.00  0.00     0.005 A 
ATOM     19  C   UNL     1       5.863  45.516  55.013  1.00  0.00     0.026 A 
ATOM     20  C   UNL     1       4.252  46.995  54.039  1.00  0.00     0.026 A 
ATOM     21  C   UNL     1       7.634  47.700  52.448  1.00  0.00     0.044 C 
ENDBRANCH  13  15
ENDBRANCH   4  13
ENDBRANCH   1   3
BRANCH   1  22
ATOM     22  C   UNL     1       1.387  43.628  51.608  1.00  0.00     0.118 C 
BRANCH  22  23
ATOM     23  C   UNL     1       2.265  42.555  50.964  1.00  0.00     0.042 C 
BRANCH  23  24
ATOM     24  C   UNL     1       3.587  42.369  51.705  1.00  0.00     0.117 C 
BRANCH  24  25
ATOM     25  N   UNL     1       4.178  43.616  52.144  1.00  0.00    -0.359 N 
ATOM     26  C   UNL     1       5.237  44.190  51.487  1.00  0.00     0.337 C 
ATOM     27  H   UNL     1       3.778  44.105  52.936  1.00  0.00     0.163 HD
ATOM     28  O   UNL     1       5.801  43.728  50.506  1.00  0.00    -0.279 OA
ENDBRANCH  24  25
ENDBRANCH  23  24
ENDBRANCH  22  23
ENDBRANCH   1  22
TORSDOF 7
ENDMDL
