MODEL 1
REMARK VINA RESULT:    -7.898      0.000      0.000
REMARK INTER + INTRA:         -11.472
REMARK INTER:                 -10.900
REMARK INTRA:                  -0.572
REMARK UNBOUND:                -0.572
REMARK SMILES COc1ccc(Nc2nc(NCCO)nc3c2ncn3C)cc1
REMARK SMILES IDX 8 1 9 2 10 3 15 4 16 5 17 6 18 7 19 8 20 9 21 10 7 11 6 13
REMARK SMILES IDX 3 14 4 15 23 16 5 17 22 18 2 19 1 20 11 21 12 23 13 24 14 25
REMARK H PARENT 7 12 11 22 14 26
ROOT
ATOM      1  C   UNL     1       5.913  44.650  51.603  1.00  0.00     0.164 A 
ATOM      2  N   UNL     1       4.904  44.635  52.517  1.00  0.00    -0.193 NA
ATOM      3  C   UNL     1       3.951  43.684  52.474  1.00  0.00     0.226 A 
ATOM      4  N   UNL     1       3.877  42.678  51.584  1.00  0.00    -0.193 NA
ATOM      5  C   UNL     1       4.876  42.717  50.694  1.00  0.00     0.167 A 
ATOM      6  C   UNL     1       5.905  43.635  50.630  1.00  0.00     0.150 A 
ATOM      7  N   UNL     1       6.755  43.353  49.576  1.00  0.00    -0.231 NA
ATOM      8  C   UNL     1       6.237  42.281  49.010  1.00  0.00     0.201 A 
ATOM      9  N   UNL     1       5.103  41.864  49.652  1.00  0.00    -0.318 N 
ATOM     10  C   UNL     1       4.284  40.736  49.299  1.00  0.00     0.153 C 
ENDROOT
BRANCH   1  11
ATOM     11  N   UNL     1       6.935  45.610  51.594  1.00  0.00    -0.338 N 
ATOM     12  H   UNL     1       7.162  45.891  50.645  1.00  0.00     0.168 HD
BRANCH  11  13
ATOM     13  C   UNL     1       7.660  46.248  52.608  1.00  0.00     0.040 A 
ATOM     14  C   UNL     1       9.252  47.513  54.588  1.00  0.00     0.119 A 
ATOM     15  C   UNL     1       9.832  47.056  53.408  1.00  0.00     0.048 A 
ATOM     16  C   UNL     1       7.882  47.336  54.776  1.00  0.00     0.048 A 
ATOM     17  C   UNL     1       9.041  46.431  52.433  1.00  0.00     0.030 A 
ATOM     18  C   UNL     1       7.097  46.711  53.799  1.00  0.00     0.030 A 
BRANCH  14  19
ATOM     19  O   UNL     1       9.900  48.137  55.617  1.00  0.00    -0.497 OA
ATOM     20  C   UNL     1      11.029  47.469  56.163  1.00  0.00     0.278 C 
ENDBRANCH  14  19
ENDBRANCH  11  13
ENDBRANCH   1  11
BRANCH   3  21
ATOM     21  N   UNL     1       2.979  43.799  53.464  1.00  0.00    -0.352 N 
ATOM     22  H   UNL     1       2.200  43.236  53.125  1.00  0.00     0.163 HD
BRANCH  21  23
ATOM     23  C   UNL     1       2.601  45.159  53.823  1.00  0.00     0.144 C 
BRANCH  23  24
ATOM     24  C   UNL     1       2.900  45.457  55.298  1.00  0.00     0.177 C 
BRANCH  24  25
ATOM     25  O   UNL     1       4.134  44.859  55.696  1.00  0.00    -0.395 OA
ATOM     26  H   UNL     1       4.494  45.382  56.432  1.00  0.00     0.210 HD
ENDBRANCH  24  25
ENDBRANCH  23  24
ENDBRANCH  21  23
ENDBRANCH   3  21
TORSDOF 7
ENDMDL
MODEL 2
REMARK VINA RESULT:    -7.859      2.005      3.760
REMARK INTER + INTRA:         -11.418
REMARK INTER:                 -10.871
REMARK INTRA:                  -0.547
REMARK UNBOUND:                -0.572
REMARK SMILES COc1ccc(Nc2nc(NCCO)nc3c2ncn3C)cc1
REMARK SMILES IDX 8 1 9 2 10 3 15 4 16 5 17 6 18 7 19 8 20 9 21 10 7 11 6 13
REMARK SMILES IDX 3 14 4 15 23 16 5 17 22 18 2 19 1 20 11 21 12 23 13 24 14 25
REMARK H PARENT 7 12 11 22 14 26
ROOT
ATOM      1  C   UNL     1       5.973  44.957  51.177  1.00  0.00     0.164 A 
ATOM      2  N   UNL     1       6.105  43.640  50.859  1.00  0.00    -0.193 NA
ATOM      3  C   UNL     1       5.025  42.841  50.775  1.00  0.00     0.226 A 
ATOM      4  N   UNL     1       3.748  43.215  50.971  1.00  0.00    -0.193 NA
ATOM      5  C   UNL     1       3.644  44.512  51.287  1.00  0.00     0.167 A 
ATOM      6  C   UNL     1       4.669  45.429  51.407  1.00  0.00     0.150 A 
ATOM      7  N   UNL     1       4.178  46.678  51.742  1.00  0.00    -0.231 NA
ATOM      8  C   UNL     1       2.875  46.510  51.829  1.00  0.00     0.201 A 
ATOM      9  N   UNL     1       2.509  45.219  51.562  1.00  0.00    -0.318 N 
ATOM     10  C   UNL     1       1.172  44.686  51.574  1.00  0.00     0.153 C 
ENDROOT
BRANCH   1  11
ATOM     11  N   UNL     1       7.058  45.842  51.279  1.00  0.00    -0.338 N 
ATOM     12  H   UNL     1       7.383  46.126  50.359  1.00  0.00     0.168 HD
BRANCH  11  13
ATOM     13  C   UNL     1       7.737  46.405  52.365  1.00  0.00     0.040 A 
ATOM     14  C   UNL     1       9.240  47.527  54.495  1.00  0.00     0.119 A 
ATOM     15  C   UNL     1       9.866  47.180  53.302  1.00  0.00     0.048 A 
ATOM     16  C   UNL     1       7.868  47.311  54.623  1.00  0.00     0.048 A 
ATOM     17  C   UNL     1       9.119  46.625  52.252  1.00  0.00     0.030 A 
ATOM     18  C   UNL     1       7.127  46.757  53.571  1.00  0.00     0.030 A 
BRANCH  14  19
ATOM     19  O   UNL     1       9.842  48.073  55.594  1.00  0.00    -0.497 OA
ATOM     20  C   UNL     1      11.019  47.432  56.066  1.00  0.00     0.278 C 
ENDBRANCH  14  19
ENDBRANCH  11  13
ENDBRANCH   1  11
BRANCH   3  21
ATOM     21  N   UNL     1       5.312  41.519  50.451  1.00  0.00    -0.352 N 
ATOM     22  H   UNL     1       6.228  41.347  50.862  1.00  0.00     0.163 HD
BRANCH  21  23
ATOM     23  C   UNL     1       5.238  41.184  49.035  1.00  0.00     0.144 C 
BRANCH  23  24
ATOM     24  C   UNL     1       3.884  40.561  48.672  1.00  0.00     0.177 C 
BRANCH  24  25
ATOM     25  O   UNL     1       3.198  40.119  49.845  1.00  0.00    -0.395 OA
ATOM     26  H   UNL     1       3.115  40.880  50.444  1.00  0.00     0.210 HD
ENDBRANCH  24  25
ENDBRANCH  23  24
ENDBRANCH  21  23
ENDBRANCH   3  21
TORSDOF 7
ENDMDL
MODEL 3
REMARK VINA RESULT:    -7.856      2.290      6.449
REMARK INTER + INTRA:         -11.413
REMARK INTER:                 -10.933
REMARK INTRA:                  -0.480
REMARK UNBOUND:                -0.572
REMARK SMILES COc1ccc(Nc2nc(NCCO)nc3c2ncn3C)cc1
REMARK SMILES IDX 8 1 9 2 10 3 15 4 16 5 17 6 18 7 19 8 20 9 21 10 7 11 6 13
REMARK SMILES IDX 3 14 4 15 23 16 5 17 22 18 2 19 1 20 11 21 12 23 13 24 14 25
REMARK H PARENT 7 12 11 22 14 26
ROOT
ATOM      1  C   UNL     1       6.674  45.874  52.257  1.00  0.00     0.164 A 
ATOM      2  N   UNL     1       5.671  46.256  53.095  1.00  0.00    -0.193 NA
ATOM      3  C   UNL     1       5.944  46.895  54.248  1.00  0.00     0.226 A 
ATOM      4  N   UNL     1       7.167  47.232  54.695  1.00  0.00    -0.193 NA
ATOM      5  C   UNL     1       8.136  46.843  53.857  1.00  0.00     0.167 A 
ATOM      6  C   UNL     1       7.987  46.181  52.654  1.00  0.00     0.150 A 
ATOM      7  N   UNL     1       9.215  45.949  52.063  1.00  0.00    -0.231 NA
ATOM      8  C   UNL     1      10.091  46.459  52.904  1.00  0.00     0.201 A 
ATOM      9  N   UNL     1       9.484  47.007  54.000  1.00  0.00    -0.318 N 
ATOM     10  C   UNL     1      10.136  47.642  55.115  1.00  0.00     0.153 C 
ENDROOT
BRANCH   1  11
ATOM     11  N   UNL     1       6.456  45.207  51.042  1.00  0.00    -0.338 N 
ATOM     12  H   UNL     1       6.867  45.720  50.267  1.00  0.00     0.168 HD
BRANCH  11  13
ATOM     13  C   UNL     1       5.823  44.004  50.709  1.00  0.00     0.040 A 
ATOM     14  C   UNL     1       4.437  41.596  50.132  1.00  0.00     0.119 A 
ATOM     15  C   UNL     1       3.892  42.526  51.012  1.00  0.00     0.048 A 
ATOM     16  C   UNL     1       5.672  41.870  49.545  1.00  0.00     0.048 A 
ATOM     17  C   UNL     1       4.581  43.714  51.294  1.00  0.00     0.030 A 
ATOM     18  C   UNL     1       6.356  43.058  49.831  1.00  0.00     0.030 A 
BRANCH  14  19
ATOM     19  O   UNL     1       3.877  40.403  49.769  1.00  0.00    -0.497 OA
ATOM     20  C   UNL     1       3.630  40.207  48.383  1.00  0.00     0.278 C 
ENDBRANCH  14  19
ENDBRANCH  11  13
ENDBRANCH   1  11
BRANCH   3  21
ATOM     21  N   UNL     1       4.822  47.215  55.007  1.00  0.00    -0.352 N 
ATOM     22  H   UNL     1       5.029  46.851  55.936  1.00  0.00     0.163 HD
BRANCH  21  23
ATOM     23  C   UNL     1       3.546  46.758  54.474  1.00  0.00     0.144 C 
BRANCH  23  24
ATOM     24  C   UNL     1       2.935  45.653  55.345  1.00  0.00     0.177 C 
BRANCH  24  25
ATOM     25  O   UNL     1       3.872  44.594  55.554  1.00  0.00    -0.395 OA
ATOM     26  H   UNL     1       4.223  44.683  56.456  1.00  0.00     0.210 HD
ENDBRANCH  24  25
ENDBRANCH  23  24
ENDBRANCH  21  23
ENDBRANCH   3  21
TORSDOF 7
ENDMDL
MODEL 4
REMARK VINA RESULT:    -7.748      2.994      4.252
REMARK INTER + INTRA:         -11.265
REMARK INTER:                 -10.704
REMARK INTRA:                  -0.561
REMARK UNBOUND:                -0.572
REMARK SMILES COc1ccc(Nc2nc(NCCO)nc3c2ncn3C)cc1
REMARK SMILES IDX 8 1 9 2 10 3 15 4 16 5 17 6 18 7 19 8 20 9 21 10 7 11 6 13
REMARK SMILES IDX 3 14 4 15 23 16 5 17 22 18 2 19 1 20 11 21 12 23 13 24 14 25
REMARK H PARENT 7 12 11 22 14 26
ROOT
ATOM      1  C   UNL     1       3.293  45.938  53.386  1.00  0.00     0.164 A 
ATOM      2  N   UNL     1       3.154  46.290  54.694  1.00  0.00    -0.193 NA
ATOM      3  C   UNL     1       2.332  45.601  55.508  1.00  0.00     0.226 A 
ATOM      4  N   UNL     1       1.590  44.533  55.163  1.00  0.00    -0.193 NA
ATOM      5  C   UNL     1       1.740  44.209  53.872  1.00  0.00     0.167 A 
ATOM      6  C   UNL     1       2.545  44.834  52.941  1.00  0.00     0.150 A 
ATOM      7  N   UNL     1       2.445  44.217  51.708  1.00  0.00    -0.231 NA
ATOM      8  C   UNL     1       1.585  43.237  51.896  1.00  0.00     0.201 A 
ATOM      9  N   UNL     1       1.134  43.196  53.187  1.00  0.00    -0.318 N 
ATOM     10  C   UNL     1       0.187  42.263  53.736  1.00  0.00     0.153 C 
ENDROOT
BRANCH   1  11
ATOM     11  N   UNL     1       4.134  46.613  52.488  1.00  0.00    -0.338 N 
ATOM     12  H   UNL     1       3.657  47.405  52.068  1.00  0.00     0.168 HD
BRANCH  11  13
ATOM     13  C   UNL     1       5.463  46.422  52.092  1.00  0.00     0.040 A 
ATOM     14  C   UNL     1       8.111  45.938  51.192  1.00  0.00     0.119 A 
ATOM     15  C   UNL     1       7.032  45.333  50.555  1.00  0.00     0.048 A 
ATOM     16  C   UNL     1       7.866  46.781  52.276  1.00  0.00     0.048 A 
ATOM     17  C   UNL     1       5.725  45.575  51.004  1.00  0.00     0.030 A 
ATOM     18  C   UNL     1       6.559  47.018  52.721  1.00  0.00     0.030 A 
BRANCH  14  19
ATOM     19  O   UNL     1       9.429  45.793  50.862  1.00  0.00    -0.497 OA
ATOM     20  C   UNL     1      10.383  46.222  51.825  1.00  0.00     0.278 C 
ENDBRANCH  14  19
ENDBRANCH  11  13
ENDBRANCH   1  11
BRANCH   3  21
ATOM     21  N   UNL     1       2.283  46.078  56.814  1.00  0.00    -0.352 N 
ATOM     22  H   UNL     1       2.942  45.494  57.326  1.00  0.00     0.163 HD
BRANCH  21  23
ATOM     23  C   UNL     1       0.959  46.129  57.420  1.00  0.00     0.144 C 
BRANCH  23  24
ATOM     24  C   UNL     1       0.955  46.982  58.695  1.00  0.00     0.177 C 
BRANCH  24  25
ATOM     25  O   UNL     1       2.139  46.755  59.461  1.00  0.00    -0.395 OA
ATOM     26  H   UNL     1       2.782  46.305  58.888  1.00  0.00     0.210 HD
ENDBRANCH  24  25
ENDBRANCH  23  24
ENDBRANCH  21  23
ENDBRANCH   3  21
TORSDOF 7
ENDMDL
MODEL 5
REMARK VINA RESULT:    -7.729      1.161      1.236
REMARK INTER + INTRA:         -11.238
REMARK INTER:                 -10.684
REMARK INTRA:                  -0.554
REMARK UNBOUND:                -0.572
REMARK SMILES COc1ccc(Nc2nc(NCCO)nc3c2ncn3C)cc1
REMARK SMILES IDX 8 1 9 2 10 3 15 4 16 5 17 6 18 7 19 8 20 9 21 10 7 11 6 13
REMARK SMILES IDX 3 14 4 15 23 16 5 17 22 18 2 19 1 20 11 21 12 23 13 24 14 25
REMARK H PARENT 7 12 11 22 14 26
ROOT
ATOM      1  C   UNL     1       5.823  44.891  51.395  1.00  0.00     0.164 A 
ATOM      2  N   UNL     1       4.668  45.293  51.994  1.00  0.00    -0.193 NA
ATOM      3  C   UNL     1       3.556  44.537  51.923  1.00  0.00     0.226 A 
ATOM      4  N   UNL     1       3.445  43.351  51.297  1.00  0.00    -0.193 NA
ATOM      5  C   UNL     1       4.591  42.979  50.712  1.00  0.00     0.167 A 
ATOM      6  C   UNL     1       5.790  43.664  50.711  1.00  0.00     0.150 A 
ATOM      7  N   UNL     1       6.755  42.968  50.006  1.00  0.00    -0.231 NA
ATOM      8  C   UNL     1       6.139  41.882  49.583  1.00  0.00     0.201 A 
ATOM      9  N   UNL     1       4.832  41.849  49.986  1.00  0.00    -0.318 N 
ATOM     10  C   UNL     1       3.872  40.817  49.698  1.00  0.00     0.153 C 
ENDROOT
BRANCH   1  11
ATOM     11  N   UNL     1       7.014  45.631  51.434  1.00  0.00    -0.338 N 
ATOM     12  H   UNL     1       7.414  45.725  50.505  1.00  0.00     0.168 HD
BRANCH  11  13
ATOM     13  C   UNL     1       7.718  46.260  52.467  1.00  0.00     0.040 A 
ATOM     14  C   UNL     1       9.271  47.501  54.493  1.00  0.00     0.119 A 
ATOM     15  C   UNL     1       9.883  46.997  53.350  1.00  0.00     0.048 A 
ATOM     16  C   UNL     1       7.887  47.383  54.622  1.00  0.00     0.048 A 
ATOM     17  C   UNL     1       9.112  46.384  52.352  1.00  0.00     0.030 A 
ATOM     18  C   UNL     1       7.122  46.769  53.622  1.00  0.00     0.030 A 
BRANCH  14  19
ATOM     19  O   UNL     1       9.897  48.119  55.539  1.00  0.00    -0.497 OA
ATOM     20  C   UNL     1      11.014  47.448  56.106  1.00  0.00     0.278 C 
ENDBRANCH  14  19
ENDBRANCH  11  13
ENDBRANCH   1  11
BRANCH   3  21
ATOM     21  N   UNL     1       2.451  45.076  52.574  1.00  0.00    -0.352 N 
ATOM     22  H   UNL     1       2.615  46.082  52.566  1.00  0.00     0.163 HD
BRANCH  21  23
ATOM     23  C   UNL     1       2.175  44.543  53.901  1.00  0.00     0.144 C 
BRANCH  23  24
ATOM     24  C   UNL     1       1.080  43.469  53.861  1.00  0.00     0.177 C 
BRANCH  24  25
ATOM     25  O   UNL     1       1.630  42.196  53.518  1.00  0.00    -0.395 OA
ATOM     26  H   UNL     1       2.248  41.940  54.224  1.00  0.00     0.210 HD
ENDBRANCH  24  25
ENDBRANCH  23  24
ENDBRANCH  21  23
ENDBRANCH   3  21
TORSDOF 7
ENDMDL
MODEL 6
REMARK VINA RESULT:    -7.698      2.348      4.308
REMARK INTER + INTRA:         -11.195
REMARK INTER:                 -10.567
REMARK INTRA:                  -0.628
REMARK UNBOUND:                -0.572
REMARK SMILES COc1ccc(Nc2nc(NCCO)nc3c2ncn3C)cc1
REMARK SMILES IDX 8 1 9 2 10 3 15 4 16 5 17 6 18 7 19 8 20 9 21 10 7 11 6 13
REMARK SMILES IDX 3 14 4 15 23 16 5 17 22 18 2 19 1 20 11 21 12 23 13 24 14 25
REMARK H PARENT 7 12 11 22 14 26
ROOT
ATOM      1  C   UNL     1       4.359  44.838  51.841  1.00  0.00     0.164 A 
ATOM      2  N   UNL     1       4.559  43.596  51.321  1.00  0.00    -0.193 NA
ATOM      3  C   UNL     1       3.687  42.599  51.564  1.00  0.00     0.226 A 
ATOM      4  N   UNL     1       2.564  42.693  52.299  1.00  0.00    -0.193 NA
ATOM      5  C   UNL     1       2.391  43.921  52.804  1.00  0.00     0.167 A 
ATOM      6  C   UNL     1       3.210  45.019  52.631  1.00  0.00     0.150 A 
ATOM      7  N   UNL     1       2.707  46.120  53.299  1.00  0.00    -0.231 NA
ATOM      8  C   UNL     1       1.603  45.686  53.872  1.00  0.00     0.201 A 
ATOM      9  N   UNL     1       1.375  44.365  53.599  1.00  0.00    -0.318 N 
ATOM     10  C   UNL     1       0.269  43.571  54.066  1.00  0.00     0.153 C 
ENDROOT
BRANCH   1  11
ATOM     11  N   UNL     1       5.228  45.918  51.625  1.00  0.00    -0.338 N 
ATOM     12  H   UNL     1       4.835  46.572  50.955  1.00  0.00     0.168 HD
BRANCH  11  13
ATOM     13  C   UNL     1       6.478  46.263  52.153  1.00  0.00     0.040 A 
ATOM     14  C   UNL     1       9.071  46.930  53.094  1.00  0.00     0.119 A 
ATOM     15  C   UNL     1       8.876  46.582  51.761  1.00  0.00     0.048 A 
ATOM     16  C   UNL     1       7.972  46.943  53.953  1.00  0.00     0.048 A 
ATOM     17  C   UNL     1       7.593  46.253  51.301  1.00  0.00     0.030 A 
ATOM     18  C   UNL     1       6.692  46.613  53.488  1.00  0.00     0.030 A 
BRANCH  14  19
ATOM     19  O   UNL     1      10.259  47.272  53.675  1.00  0.00    -0.497 OA
ATOM     20  C   UNL     1      10.280  47.358  55.093  1.00  0.00     0.278 C 
ENDBRANCH  14  19
ENDBRANCH  11  13
ENDBRANCH   1  11
BRANCH   3  21
ATOM     21  N   UNL     1       4.024  41.384  50.976  1.00  0.00    -0.352 N 
ATOM     22  H   UNL     1       4.080  40.729  51.755  1.00  0.00     0.163 HD
BRANCH  21  23
ATOM     23  C   UNL     1       5.216  41.396  50.138  1.00  0.00     0.144 C 
BRANCH  23  24
ATOM     24  C   UNL     1       4.885  41.044  48.682  1.00  0.00     0.177 C 
BRANCH  24  25
ATOM     25  O   UNL     1       6.006  41.296  47.833  1.00  0.00    -0.395 OA
ATOM     26  H   UNL     1       6.762  41.526  48.399  1.00  0.00     0.210 HD
ENDBRANCH  24  25
ENDBRANCH  23  24
ENDBRANCH  21  23
ENDBRANCH   3  21
TORSDOF 7
ENDMDL
MODEL 7
REMARK VINA RESULT:    -7.672      2.044      4.185
REMARK INTER + INTRA:         -11.160
REMARK INTER:                 -10.452
REMARK INTRA:                  -0.708
REMARK UNBOUND:                -0.572
REMARK SMILES COc1ccc(Nc2nc(NCCO)nc3c2ncn3C)cc1
REMARK SMILES IDX 8 1 9 2 10 3 15 4 16 5 17 6 18 7 19 8 20 9 21 10 7 11 6 13
REMARK SMILES IDX 3 14 4 15 23 16 5 17 22 18 2 19 1 20 11 21 12 23 13 24 14 25
REMARK H PARENT 7 12 11 22 14 26
ROOT
ATOM      1  C   UNL     1       4.560  44.768  51.776  1.00  0.00     0.164 A 
ATOM      2  N   UNL     1       4.780  43.509  51.307  1.00  0.00    -0.193 NA
ATOM      3  C   UNL     1       3.894  42.523  51.541  1.00  0.00     0.226 A 
ATOM      4  N   UNL     1       2.738  42.643  52.218  1.00  0.00    -0.193 NA
ATOM      5  C   UNL     1       2.545  43.888  52.673  1.00  0.00     0.167 A 
ATOM      6  C   UNL     1       3.376  44.978  52.503  1.00  0.00     0.150 A 
ATOM      7  N   UNL     1       2.845  46.102  53.110  1.00  0.00    -0.231 NA
ATOM      8  C   UNL     1       1.714  45.689  53.643  1.00  0.00     0.201 A 
ATOM      9  N   UNL     1       1.494  44.360  53.404  1.00  0.00    -0.318 N 
ATOM     10  C   UNL     1       0.364  43.585  53.844  1.00  0.00     0.153 C 
ENDROOT
BRANCH   1  11
ATOM     11  N   UNL     1       5.443  45.838  51.565  1.00  0.00    -0.338 N 
ATOM     12  H   UNL     1       5.086  46.469  50.854  1.00  0.00     0.168 HD
BRANCH  11  13
ATOM     13  C   UNL     1       6.665  46.201  52.144  1.00  0.00     0.040 A 
ATOM     14  C   UNL     1       9.073  46.954  53.443  1.00  0.00     0.119 A 
ATOM     15  C   UNL     1       7.896  46.813  54.173  1.00  0.00     0.048 A 
ATOM     16  C   UNL     1       9.043  46.721  52.069  1.00  0.00     0.048 A 
ATOM     17  C   UNL     1       6.709  46.441  53.526  1.00  0.00     0.030 A 
ATOM     18  C   UNL     1       7.855  46.350  51.428  1.00  0.00     0.030 A 
BRANCH  14  19
ATOM     19  O   UNL     1      10.295  47.309  53.942  1.00  0.00    -0.497 OA
ATOM     20  C   UNL     1      10.393  47.460  55.351  1.00  0.00     0.278 C 
ENDBRANCH  14  19
ENDBRANCH  11  13
ENDBRANCH   1  11
BRANCH   3  21
ATOM     21  N   UNL     1       4.254  41.288  51.011  1.00  0.00    -0.352 N 
ATOM     22  H   UNL     1       5.176  41.100  51.402  1.00  0.00     0.163 HD
BRANCH  21  23
ATOM     23  C   UNL     1       4.206  41.185  49.558  1.00  0.00     0.144 C 
BRANCH  23  24
ATOM     24  C   UNL     1       5.612  41.210  48.945  1.00  0.00     0.177 C 
BRANCH  24  25
ATOM     25  O   UNL     1       6.611  41.122  49.961  1.00  0.00    -0.395 OA
ATOM     26  H   UNL     1       7.434  41.494  49.601  1.00  0.00     0.210 HD
ENDBRANCH  24  25
ENDBRANCH  23  24
ENDBRANCH  21  23
ENDBRANCH   3  21
TORSDOF 7
ENDMDL
MODEL 8
REMARK VINA RESULT:    -7.606      2.863      4.697
REMARK INTER + INTRA:         -11.068
REMARK INTER:                 -10.607
REMARK INTRA:                  -0.461
REMARK UNBOUND:                -0.572
REMARK SMILES COc1ccc(Nc2nc(NCCO)nc3c2ncn3C)cc1
REMARK SMILES IDX 8 1 9 2 10 3 15 4 16 5 17 6 18 7 19 8 20 9 21 10 7 11 6 13
REMARK SMILES IDX 3 14 4 15 23 16 5 17 22 18 2 19 1 20 11 21 12 23 13 24 14 25
REMARK H PARENT 7 12 11 22 14 26
ROOT
ATOM      1  C   UNL     1       3.081  44.366  53.937  1.00  0.00     0.164 A 
ATOM      2  N   UNL     1       3.048  45.053  55.112  1.00  0.00    -0.193 NA
ATOM      3  C   UNL     1       1.877  45.316  55.724  1.00  0.00     0.226 A 
ATOM      4  N   UNL     1       0.659  44.950  55.288  1.00  0.00    -0.193 NA
ATOM      5  C   UNL     1       0.716  44.281  54.129  1.00  0.00     0.167 A 
ATOM      6  C   UNL     1       1.846  43.953  53.407  1.00  0.00     0.150 A 
ATOM      7  N   UNL     1       1.515  43.253  52.261  1.00  0.00    -0.231 NA
ATOM      8  C   UNL     1       0.200  43.169  52.292  1.00  0.00     0.201 A 
ATOM      9  N   UNL     1      -0.323  43.775  53.401  1.00  0.00    -0.318 N 
ATOM     10  C   UNL     1      -1.715  43.876  53.747  1.00  0.00     0.153 C 
ENDROOT
BRANCH   1  11
ATOM     11  N   UNL     1       4.266  44.058  53.253  1.00  0.00    -0.338 N 
ATOM     12  H   UNL     1       4.284  43.081  52.977  1.00  0.00     0.168 HD
BRANCH  11  13
ATOM     13  C   UNL     1       5.378  44.819  52.871  1.00  0.00     0.040 A 
ATOM     14  C   UNL     1       7.606  46.321  51.959  1.00  0.00     0.119 A 
ATOM     15  C   UNL     1       6.770  45.683  51.048  1.00  0.00     0.048 A 
ATOM     16  C   UNL     1       7.330  46.205  53.321  1.00  0.00     0.048 A 
ATOM     17  C   UNL     1       5.670  44.942  51.503  1.00  0.00     0.030 A 
ATOM     18  C   UNL     1       6.230  45.464  53.770  1.00  0.00     0.030 A 
BRANCH  14  19
ATOM     19  O   UNL     1       8.707  47.072  51.656  1.00  0.00    -0.497 OA
ATOM     20  C   UNL     1       9.973  46.445  51.807  1.00  0.00     0.278 C 
ENDBRANCH  14  19
ENDBRANCH  11  13
ENDBRANCH   1  11
BRANCH   3  21
ATOM     21  N   UNL     1       1.996  46.032  56.910  1.00  0.00    -0.352 N 
ATOM     22  H   UNL     1       2.692  45.521  57.450  1.00  0.00     0.163 HD
BRANCH  21  23
ATOM     23  C   UNL     1       0.755  46.266  57.635  1.00  0.00     0.144 C 
BRANCH  23  24
ATOM     24  C   UNL     1       0.986  47.115  58.891  1.00  0.00     0.177 C 
BRANCH  24  25
ATOM     25  O   UNL     1       2.225  46.773  59.514  1.00  0.00    -0.395 OA
ATOM     26  H   UNL     1       2.840  46.489  58.816  1.00  0.00     0.210 HD
ENDBRANCH  24  25
ENDBRANCH  23  24
ENDBRANCH  21  23
ENDBRANCH   3  21
TORSDOF 7
ENDMDL
MODEL 9
REMARK VINA RESULT:    -7.420      2.536      4.245
REMARK INTER + INTRA:         -10.811
REMARK INTER:                 -10.328
REMARK INTRA:                  -0.483
REMARK UNBOUND:                -0.572
REMARK SMILES COc1ccc(Nc2nc(NCCO)nc3c2ncn3C)cc1
REMARK SMILES IDX 8 1 9 2 10 3 15 4 16 5 17 6 18 7 19 8 20 9 21 10 7 11 6 13
REMARK SMILES IDX 3 14 4 15 23 16 5 17 22 18 2 19 1 20 11 21 12 23 13 24 14 25
REMARK H PARENT 7 12 11 22 14 26
ROOT
ATOM      1  C   UNL     1       3.570  44.493  52.626  1.00  0.00     0.164 A 
ATOM      2  N   UNL     1       4.188  43.361  52.189  1.00  0.00    -0.193 NA
ATOM      3  C   UNL     1       3.509  42.433  51.489  1.00  0.00     0.226 A 
ATOM      4  N   UNL     1       2.212  42.499  51.138  1.00  0.00    -0.193 NA
ATOM      5  C   UNL     1       1.625  43.617  51.582  1.00  0.00     0.167 A 
ATOM      6  C   UNL     1       2.208  44.637  52.308  1.00  0.00     0.150 A 
ATOM      7  N   UNL     1       1.291  45.634  52.584  1.00  0.00    -0.231 NA
ATOM      8  C   UNL     1       0.169  45.214  52.036  1.00  0.00     0.201 A 
ATOM      9  N   UNL     1       0.325  44.002  51.422  1.00  0.00    -0.318 N 
ATOM     10  C   UNL     1      -0.691  43.252  50.732  1.00  0.00     0.153 C 
ENDROOT
BRANCH   1  11
ATOM     11  N   UNL     1       4.221  45.498  53.358  1.00  0.00    -0.338 N 
ATOM     12  H   UNL     1       3.595  45.912  54.043  1.00  0.00     0.168 HD
BRANCH  11  13
ATOM     13  C   UNL     1       5.526  46.004  53.340  1.00  0.00     0.040 A 
ATOM     14  C   UNL     1       8.174  47.007  53.158  1.00  0.00     0.119 A 
ATOM     15  C   UNL     1       7.477  46.657  52.007  1.00  0.00     0.048 A 
ATOM     16  C   UNL     1       7.549  46.855  54.395  1.00  0.00     0.048 A 
ATOM     17  C   UNL     1       6.168  46.161  52.101  1.00  0.00     0.030 A 
ATOM     18  C   UNL     1       6.242  46.359  54.484  1.00  0.00     0.030 A 
BRANCH  14  19
ATOM     19  O   UNL     1       9.447  47.501  53.213  1.00  0.00    -0.497 OA
ATOM     20  C   UNL     1      10.178  47.260  54.407  1.00  0.00     0.278 C 
ENDBRANCH  14  19
ENDBRANCH  11  13
ENDBRANCH   1  11
BRANCH   3  21
ATOM     21  N   UNL     1       4.266  41.326  51.117  1.00  0.00    -0.352 N 
ATOM     22  H   UNL     1       4.940  41.210  51.873  1.00  0.00     0.163 HD
BRANCH  21  23
ATOM     23  C   UNL     1       4.879  41.393  49.797  1.00  0.00     0.144 C 
BRANCH  23  24
ATOM     24  C   UNL     1       6.338  41.861  49.876  1.00  0.00     0.177 C 
BRANCH  24  25
ATOM     25  O   UNL     1       7.215  40.756  50.097  1.00  0.00    -0.395 OA
ATOM     26  H   UNL     1       7.271  40.608  51.057  1.00  0.00     0.210 HD
ENDBRANCH  24  25
ENDBRANCH  23  24
ENDBRANCH  21  23
ENDBRANCH   3  21
TORSDOF 7
ENDMDL
MODEL 10
REMARK VINA RESULT:    -7.392      2.233      6.322
REMARK INTER + INTRA:         -10.773
REMARK INTER:                 -10.288
REMARK INTRA:                  -0.484
REMARK UNBOUND:                -0.572
REMARK SMILES COc1ccc(Nc2nc(NCCO)nc3c2ncn3C)cc1
REMARK SMILES IDX 8 1 9 2 10 3 15 4 16 5 17 6 18 7 19 8 20 9 21 10 7 11 6 13
REMARK SMILES IDX 3 14 4 15 23 16 5 17 22 18 2 19 1 20 11 21 12 23 13 24 14 25
REMARK H PARENT 7 12 11 22 14 26
ROOT
ATOM      1  C   UNL     1       5.749  46.953  52.644  1.00  0.00     0.164 A 
ATOM      2  N   UNL     1       6.878  47.547  53.121  1.00  0.00    -0.193 NA
ATOM      3  C   UNL     1       8.089  47.209  52.640  1.00  0.00     0.226 A 
ATOM      4  N   UNL     1       8.332  46.303  51.676  1.00  0.00    -0.193 NA
ATOM      5  C   UNL     1       7.209  45.730  51.226  1.00  0.00     0.167 A 
ATOM      6  C   UNL     1       5.916  45.986  51.637  1.00  0.00     0.150 A 
ATOM      7  N   UNL     1       5.012  45.205  50.942  1.00  0.00    -0.231 NA
ATOM      8  C   UNL     1       5.755  44.483  50.127  1.00  0.00     0.201 A 
ATOM      9  N   UNL     1       7.086  44.767  50.266  1.00  0.00    -0.318 N 
ATOM     10  C   UNL     1       8.172  44.164  49.541  1.00  0.00     0.153 C 
ENDROOT
BRANCH   1  11
ATOM     11  N   UNL     1       4.459  47.262  53.101  1.00  0.00    -0.338 N 
ATOM     12  H   UNL     1       4.317  48.267  53.137  1.00  0.00     0.168 HD
BRANCH  11  13
ATOM     13  C   UNL     1       3.364  46.477  53.482  1.00  0.00     0.040 A 
ATOM     14  C   UNL     1       1.071  44.939  54.137  1.00  0.00     0.119 A 
ATOM     15  C   UNL     1       1.105  45.681  52.961  1.00  0.00     0.048 A 
ATOM     16  C   UNL     1       2.180  44.968  54.982  1.00  0.00     0.048 A 
ATOM     17  C   UNL     1       2.240  46.440  52.641  1.00  0.00     0.030 A 
ATOM     18  C   UNL     1       3.311  45.728  54.659  1.00  0.00     0.030 A 
BRANCH  14  19
ATOM     19  O   UNL     1       0.036  44.159  54.570  1.00  0.00    -0.497 OA
ATOM     20  C   UNL     1      -0.249  42.992  53.811  1.00  0.00     0.278 C 
ENDBRANCH  14  19
ENDBRANCH  11  13
ENDBRANCH   1  11
BRANCH   3  21
ATOM     21  N   UNL     1       9.152  47.889  53.227  1.00  0.00    -0.352 N 
ATOM     22  H   UNL     1       9.633  48.335  52.447  1.00  0.00     0.163 HD
BRANCH  21  23
ATOM     23  C   UNL     1      10.028  47.088  54.070  1.00  0.00     0.144 C 
BRANCH  23  24
ATOM     24  C   UNL     1      10.181  47.700  55.468  1.00  0.00     0.177 C 
BRANCH  24  25
ATOM     25  O   UNL     1       9.175  48.686  55.703  1.00  0.00    -0.395 OA
ATOM     26  H   UNL     1       8.309  48.266  55.564  1.00  0.00     0.210 HD
ENDBRANCH  24  25
ENDBRANCH  23  24
ENDBRANCH  21  23
ENDBRANCH   3  21
TORSDOF 7
ENDMDL
MODEL 11
REMARK VINA RESULT:    -7.294      2.882      6.461
REMARK INTER + INTRA:         -10.638
REMARK INTER:                 -10.050
REMARK INTRA:                  -0.587
REMARK UNBOUND:                -0.572
REMARK SMILES COc1ccc(Nc2nc(NCCO)nc3c2ncn3C)cc1
REMARK SMILES IDX 8 1 9 2 10 3 15 4 16 5 17 6 18 7 19 8 20 9 21 10 7 11 6 13
REMARK SMILES IDX 3 14 4 15 23 16 5 17 22 18 2 19 1 20 11 21 12 23 13 24 14 25
REMARK H PARENT 7 12 11 22 14 26
ROOT
ATOM      1  C   UNL     1       5.485  46.277  51.845  1.00  0.00     0.164 A 
ATOM      2  N   UNL     1       5.485  45.246  50.957  1.00  0.00    -0.193 NA
ATOM      3  C   UNL     1       6.640  44.771  50.452  1.00  0.00     0.226 A 
ATOM      4  N   UNL     1       7.874  45.219  50.747  1.00  0.00    -0.193 NA
ATOM      5  C   UNL     1       7.849  46.235  51.618  1.00  0.00     0.167 A 
ATOM      6  C   UNL     1       6.737  46.810  52.202  1.00  0.00     0.150 A 
ATOM      7  N   UNL     1       7.100  47.835  53.055  1.00  0.00    -0.231 NA
ATOM      8  C   UNL     1       8.415  47.880  52.979  1.00  0.00     0.201 A 
ATOM      9  N   UNL     1       8.908  46.933  52.124  1.00  0.00    -0.318 N 
ATOM     10  C   UNL     1      10.291  46.705  51.801  1.00  0.00     0.153 C 
ENDROOT
BRANCH   1  11
ATOM     11  N   UNL     1       4.318  46.815  52.408  1.00  0.00    -0.338 N 
ATOM     12  H   UNL     1       4.177  47.774  52.106  1.00  0.00     0.168 HD
BRANCH  11  13
ATOM     13  C   UNL     1       3.335  46.293  53.257  1.00  0.00     0.040 A 
ATOM     14  C   UNL     1       1.245  45.251  54.870  1.00  0.00     0.119 A 
ATOM     15  C   UNL     1       1.014  45.555  53.532  1.00  0.00     0.048 A 
ATOM     16  C   UNL     1       2.517  45.469  55.398  1.00  0.00     0.048 A 
ATOM     17  C   UNL     1       2.049  46.070  52.739  1.00  0.00     0.030 A 
ATOM     18  C   UNL     1       3.548  45.984  54.602  1.00  0.00     0.030 A 
BRANCH  14  19
ATOM     19  O   UNL     1       0.333  44.746  55.753  1.00  0.00    -0.497 OA
ATOM     20  C   UNL     1       0.343  45.288  57.066  1.00  0.00     0.278 C 
ENDBRANCH  14  19
ENDBRANCH  11  13
ENDBRANCH   1  11
BRANCH   3  21
ATOM     21  N   UNL     1       6.487  43.723  49.550  1.00  0.00    -0.352 N 
ATOM     22  H   UNL     1       6.160  44.168  48.694  1.00  0.00     0.163 HD
BRANCH  21  23
ATOM     23  C   UNL     1       5.639  42.625  49.995  1.00  0.00     0.144 C 
BRANCH  23  24
ATOM     24  C   UNL     1       6.073  41.291  49.376  1.00  0.00     0.177 C 
BRANCH  24  25
ATOM     25  O   UNL     1       7.245  40.789  50.021  1.00  0.00    -0.395 OA
ATOM     26  H   UNL     1       7.923  40.650  49.338  1.00  0.00     0.210 HD
ENDBRANCH  24  25
ENDBRANCH  23  24
ENDBRANCH  21  23
ENDBRANCH   3  21
TORSDOF 7
ENDMDL
MODEL 12
REMARK VINA RESULT:    -7.191      3.346      7.378
REMARK INTER + INTRA:         -10.496
REMARK INTER:                  -9.731
REMARK INTRA:                  -0.765
REMARK UNBOUND:                -0.572
REMARK SMILES COc1ccc(Nc2nc(NCCO)nc3c2ncn3C)cc1
REMARK SMILES IDX 8 1 9 2 10 3 15 4 16 5 17 6 18 7 19 8 20 9 21 10 7 11 6 13
REMARK SMILES IDX 3 14 4 15 23 16 5 17 22 18 2 19 1 20 11 21 12 23 13 24 14 25
REMARK H PARENT 7 12 11 22 14 26
ROOT
ATOM      1  C   UNL     1       5.020  42.256  50.491  1.00  0.00     0.164 A 
ATOM      2  N   UNL     1       3.995  41.951  51.334  1.00  0.00    -0.193 NA
ATOM      3  C   UNL     1       3.641  42.796  52.321  1.00  0.00     0.226 A 
ATOM      4  N   UNL     1       4.211  43.986  52.586  1.00  0.00    -0.193 NA
ATOM      5  C   UNL     1       5.218  44.261  51.748  1.00  0.00     0.167 A 
ATOM      6  C   UNL     1       5.676  43.481  50.705  1.00  0.00     0.150 A 
ATOM      7  N   UNL     1       6.732  44.095  50.055  1.00  0.00    -0.231 NA
ATOM      8  C   UNL     1       6.909  45.226  50.706  1.00  0.00     0.201 A 
ATOM      9  N   UNL     1       6.018  45.367  51.735  1.00  0.00    -0.318 N 
ATOM     10  C   UNL     1       5.933  46.474  52.650  1.00  0.00     0.153 C 
ENDROOT
BRANCH   1  11
ATOM     11  N   UNL     1       5.436  41.421  49.443  1.00  0.00    -0.338 N 
ATOM     12  H   UNL     1       6.252  40.880  49.712  1.00  0.00     0.168 HD
BRANCH  11  13
ATOM     13  C   UNL     1       4.945  41.184  48.154  1.00  0.00     0.040 A 
ATOM     14  C   UNL     1       4.052  40.796  45.488  1.00  0.00     0.119 A 
ATOM     15  C   UNL     1       5.183  41.564  45.744  1.00  0.00     0.048 A 
ATOM     16  C   UNL     1       3.369  40.226  46.563  1.00  0.00     0.048 A 
ATOM     17  C   UNL     1       5.621  41.754  47.063  1.00  0.00     0.030 A 
ATOM     18  C   UNL     1       3.810  40.419  47.878  1.00  0.00     0.030 A 
BRANCH  14  19
ATOM     19  O   UNL     1       3.517  40.530  44.259  1.00  0.00    -0.497 OA
ATOM     20  C   UNL     1       4.040  39.408  43.561  1.00  0.00     0.278 C 
ENDBRANCH  14  19
ENDBRANCH  11  13
ENDBRANCH   1  11
BRANCH   3  21
ATOM     21  N   UNL     1       2.584  42.350  53.108  1.00  0.00    -0.352 N 
ATOM     22  H   UNL     1       2.491  41.362  52.877  1.00  0.00     0.163 HD
BRANCH  21  23
ATOM     23  C   UNL     1       1.340  43.097  52.979  1.00  0.00     0.144 C 
BRANCH  23  24
ATOM     24  C   UNL     1       0.981  43.825  54.280  1.00  0.00     0.177 C 
BRANCH  24  25
ATOM     25  O   UNL     1       2.159  44.274  54.952  1.00  0.00    -0.395 OA
ATOM     26  H   UNL     1       2.622  43.491  55.296  1.00  0.00     0.210 HD
ENDBRANCH  24  25
ENDBRANCH  23  24
ENDBRANCH  21  23
ENDBRANCH   3  21
TORSDOF 7
ENDMDL
MODEL 13
REMARK VINA RESULT:    -7.061      2.598      5.073
REMARK INTER + INTRA:         -10.316
REMARK INTER:                  -9.815
REMARK INTRA:                  -0.502
REMARK UNBOUND:                -0.572
REMARK SMILES COc1ccc(Nc2nc(NCCO)nc3c2ncn3C)cc1
REMARK SMILES IDX 8 1 9 2 10 3 15 4 16 5 17 6 18 7 19 8 20 9 21 10 7 11 6 13
REMARK SMILES IDX 3 14 4 15 23 16 5 17 22 18 2 19 1 20 11 21 12 23 13 24 14 25
REMARK H PARENT 7 12 11 22 14 26
ROOT
ATOM      1  C   UNL     1       3.273  45.007  54.027  1.00  0.00     0.164 A 
ATOM      2  N   UNL     1       3.442  44.067  53.058  1.00  0.00    -0.193 NA
ATOM      3  C   UNL     1       2.452  43.206  52.753  1.00  0.00     0.226 A 
ATOM      4  N   UNL     1       1.234  43.169  53.323  1.00  0.00    -0.193 NA
ATOM      5  C   UNL     1       1.093  44.100  54.276  1.00  0.00     0.167 A 
ATOM      6  C   UNL     1       2.028  45.032  54.680  1.00  0.00     0.150 A 
ATOM      7  N   UNL     1       1.523  45.833  55.688  1.00  0.00    -0.231 NA
ATOM      8  C   UNL     1       0.302  45.383  55.890  1.00  0.00     0.201 A 
ATOM      9  N   UNL     1       0.001  44.337  55.060  1.00  0.00    -0.318 N 
ATOM     10  C   UNL     1      -1.237  43.606  55.016  1.00  0.00     0.153 C 
ENDROOT
BRANCH   1  11
ATOM     11  N   UNL     1       4.264  45.933  54.390  1.00  0.00    -0.338 N 
ATOM     12  H   UNL     1       4.024  46.399  55.260  1.00  0.00     0.168 HD
BRANCH  11  13
ATOM     13  C   UNL     1       5.484  46.305  53.815  1.00  0.00     0.040 A 
ATOM     14  C   UNL     1       8.018  47.055  52.781  1.00  0.00     0.119 A 
ATOM     15  C   UNL     1       7.881  46.714  54.123  1.00  0.00     0.048 A 
ATOM     16  C   UNL     1       6.891  47.023  51.960  1.00  0.00     0.048 A 
ATOM     17  C   UNL     1       6.627  46.345  54.629  1.00  0.00     0.030 A 
ATOM     18  C   UNL     1       5.641  46.653  52.471  1.00  0.00     0.030 A 
BRANCH  14  19
ATOM     19  O   UNL     1       9.175  47.432  52.158  1.00  0.00    -0.497 OA
ATOM     20  C   UNL     1      10.150  46.420  51.949  1.00  0.00     0.278 C 
ENDBRANCH  14  19
ENDBRANCH  11  13
ENDBRANCH   1  11
BRANCH   3  21
ATOM     21  N   UNL     1       2.770  42.296  51.751  1.00  0.00    -0.352 N 
ATOM     22  H   UNL     1       2.716  41.385  52.205  1.00  0.00     0.163 HD
BRANCH  21  23
ATOM     23  C   UNL     1       4.032  42.528  51.062  1.00  0.00     0.144 C 
BRANCH  23  24
ATOM     24  C   UNL     1       4.569  41.243  50.420  1.00  0.00     0.177 C 
BRANCH  24  25
ATOM     25  O   UNL     1       3.501  40.348  50.104  1.00  0.00    -0.395 OA
ATOM     26  H   UNL     1       3.891  39.549  49.710  1.00  0.00     0.210 HD
ENDBRANCH  24  25
ENDBRANCH  23  24
ENDBRANCH  21  23
ENDBRANCH   3  21
TORSDOF 7
ENDMDL
MODEL 14
REMARK VINA RESULT:    -7.033      2.771      5.866
REMARK INTER + INTRA:         -10.278
REMARK INTER:                  -9.603
REMARK INTRA:                  -0.675
REMARK UNBOUND:                -0.572
REMARK SMILES COc1ccc(Nc2nc(NCCO)nc3c2ncn3C)cc1
REMARK SMILES IDX 8 1 9 2 10 3 15 4 16 5 17 6 18 7 19 8 20 9 21 10 7 11 6 13
REMARK SMILES IDX 3 14 4 15 23 16 5 17 22 18 2 19 1 20 11 21 12 23 13 24 14 25
REMARK H PARENT 7 12 11 22 14 26
ROOT
ATOM      1  C   UNL     1       2.755  43.773  53.102  1.00  0.00     0.164 A 
ATOM      2  N   UNL     1       3.537  44.608  53.841  1.00  0.00    -0.193 NA
ATOM      3  C   UNL     1       3.028  45.272  54.896  1.00  0.00     0.226 A 
ATOM      4  N   UNL     1       1.761  45.198  55.341  1.00  0.00    -0.193 NA
ATOM      5  C   UNL     1       1.011  44.376  54.597  1.00  0.00     0.167 A 
ATOM      6  C   UNL     1       1.412  43.645  53.496  1.00  0.00     0.150 A 
ATOM      7  N   UNL     1       0.361  42.903  52.987  1.00  0.00    -0.231 NA
ATOM      8  C   UNL     1      -0.659  43.191  53.769  1.00  0.00     0.201 A 
ATOM      9  N   UNL     1      -0.311  44.076  54.753  1.00  0.00    -0.318 N 
ATOM     10  C   UNL     1      -1.176  44.608  55.772  1.00  0.00     0.153 C 
ENDROOT
BRANCH   1  11
ATOM     11  N   UNL     1       3.224  43.052  51.993  1.00  0.00    -0.338 N 
ATOM     12  H   UNL     1       2.539  42.366  51.690  1.00  0.00     0.168 HD
BRANCH  11  13
ATOM     13  C   UNL     1       4.402  43.111  51.240  1.00  0.00     0.040 A 
ATOM     14  C   UNL     1       6.789  43.084  49.705  1.00  0.00     0.119 A 
ATOM     15  C   UNL     1       6.096  41.902  49.945  1.00  0.00     0.048 A 
ATOM     16  C   UNL     1       6.290  44.274  50.233  1.00  0.00     0.048 A 
ATOM     17  C   UNL     1       4.917  41.920  50.705  1.00  0.00     0.030 A 
ATOM     18  C   UNL     1       5.113  44.287  50.991  1.00  0.00     0.030 A 
BRANCH  14  19
ATOM     19  O   UNL     1       7.944  43.212  48.986  1.00  0.00    -0.497 OA
ATOM     20  C   UNL     1       8.899  44.148  49.466  1.00  0.00     0.278 C 
ENDBRANCH  14  19
ENDBRANCH  11  13
ENDBRANCH   1  11
BRANCH   3  21
ATOM     21  N   UNL     1       3.939  46.095  55.551  1.00  0.00    -0.352 N 
ATOM     22  H   UNL     1       3.378  46.618  56.220  1.00  0.00     0.163 HD
BRANCH  21  23
ATOM     23  C   UNL     1       4.758  46.941  54.692  1.00  0.00     0.144 C 
BRANCH  23  24
ATOM     24  C   UNL     1       6.243  46.565  54.781  1.00  0.00     0.177 C 
BRANCH  24  25
ATOM     25  O   UNL     1       6.524  45.414  53.983  1.00  0.00    -0.395 OA
ATOM     26  H   UNL     1       7.176  45.672  53.310  1.00  0.00     0.210 HD
ENDBRANCH  24  25
ENDBRANCH  23  24
ENDBRANCH  21  23
ENDBRANCH   3  21
TORSDOF 7
ENDMDL
MODEL 15
REMARK VINA RESULT:    -6.966      3.284      7.735
REMARK INTER + INTRA:         -10.185
REMARK INTER:                  -9.472
REMARK INTRA:                  -0.712
REMARK UNBOUND:                -0.572
REMARK SMILES COc1ccc(Nc2nc(NCCO)nc3c2ncn3C)cc1
REMARK SMILES IDX 8 1 9 2 10 3 15 4 16 5 17 6 18 7 19 8 20 9 21 10 7 11 6 13
REMARK SMILES IDX 3 14 4 15 23 16 5 17 22 18 2 19 1 20 11 21 12 23 13 24 14 25
REMARK H PARENT 7 12 11 22 14 26
ROOT
ATOM      1  C   UNL     1       6.113  42.982  49.963  1.00  0.00     0.164 A 
ATOM      2  N   UNL     1       6.970  44.039  49.927  1.00  0.00    -0.193 NA
ATOM      3  C   UNL     1       6.846  45.056  50.801  1.00  0.00     0.226 A 
ATOM      4  N   UNL     1       5.922  45.154  51.774  1.00  0.00    -0.193 NA
ATOM      5  C   UNL     1       5.088  44.107  51.787  1.00  0.00     0.167 A 
ATOM      6  C   UNL     1       5.109  43.010  50.948  1.00  0.00     0.150 A 
ATOM      7  N   UNL     1       4.094  42.126  51.264  1.00  0.00    -0.231 NA
ATOM      8  C   UNL     1       3.468  42.689  52.277  1.00  0.00     0.201 A 
ATOM      9  N   UNL     1       4.034  43.885  52.625  1.00  0.00    -0.318 N 
ATOM     10  C   UNL     1       3.602  44.765  53.678  1.00  0.00     0.153 C 
ENDROOT
BRANCH   1  11
ATOM     11  N   UNL     1       6.189  41.892  49.083  1.00  0.00    -0.338 N 
ATOM     12  H   UNL     1       6.981  41.297  49.310  1.00  0.00     0.168 HD
BRANCH  11  13
ATOM     13  C   UNL     1       5.400  41.473  48.006  1.00  0.00     0.040 A 
ATOM     14  C   UNL     1       3.878  40.709  45.735  1.00  0.00     0.119 A 
ATOM     15  C   UNL     1       4.984  41.540  45.591  1.00  0.00     0.048 A 
ATOM     16  C   UNL     1       3.534  40.263  47.011  1.00  0.00     0.048 A 
ATOM     17  C   UNL     1       5.733  41.915  46.716  1.00  0.00     0.030 A 
ATOM     18  C   UNL     1       4.285  40.641  48.131  1.00  0.00     0.030 A 
BRANCH  14  19
ATOM     19  O   UNL     1       3.064  40.267  44.731  1.00  0.00    -0.497 OA
ATOM     20  C   UNL     1       3.355  38.987  44.185  1.00  0.00     0.278 C 
ENDBRANCH  14  19
ENDBRANCH  11  13
ENDBRANCH   1  11
BRANCH   3  21
ATOM     21  N   UNL     1       7.785  46.070  50.640  1.00  0.00    -0.352 N 
ATOM     22  H   UNL     1       8.429  45.714  49.935  1.00  0.00     0.163 HD
BRANCH  21  23
ATOM     23  C   UNL     1       8.446  46.519  51.858  1.00  0.00     0.144 C 
BRANCH  23  24
ATOM     24  C   UNL     1       8.022  47.943  52.238  1.00  0.00     0.177 C 
BRANCH  24  25
ATOM     25  O   UNL     1       6.825  47.926  53.018  1.00  0.00    -0.395 OA
ATOM     26  H   UNL     1       7.028  47.487  53.862  1.00  0.00     0.210 HD
ENDBRANCH  24  25
ENDBRANCH  23  24
ENDBRANCH  21  23
ENDBRANCH   3  21
TORSDOF 7
ENDMDL
MODEL 16
REMARK VINA RESULT:    -6.946      2.769      7.130
REMARK INTER + INTRA:         -10.158
REMARK INTER:                  -9.694
REMARK INTRA:                  -0.464
REMARK UNBOUND:                -0.572
REMARK SMILES COc1ccc(Nc2nc(NCCO)nc3c2ncn3C)cc1
REMARK SMILES IDX 8 1 9 2 10 3 15 4 16 5 17 6 18 7 19 8 20 9 21 10 7 11 6 13
REMARK SMILES IDX 3 14 4 15 23 16 5 17 22 18 2 19 1 20 11 21 12 23 13 24 14 25
REMARK H PARENT 7 12 11 22 14 26
ROOT
ATOM      1  C   UNL     1       5.033  44.868  53.497  1.00  0.00     0.164 A 
ATOM      2  N   UNL     1       4.943  44.314  52.256  1.00  0.00    -0.193 NA
ATOM      3  C   UNL     1       5.865  44.585  51.313  1.00  0.00     0.226 A 
ATOM      4  N   UNL     1       6.938  45.383  51.462  1.00  0.00    -0.193 NA
ATOM      5  C   UNL     1       7.003  45.919  52.688  1.00  0.00     0.167 A 
ATOM      6  C   UNL     1       6.124  45.723  53.734  1.00  0.00     0.150 A 
ATOM      7  N   UNL     1       6.517  46.439  54.850  1.00  0.00    -0.231 NA
ATOM      8  C   UNL     1       7.615  47.063  54.475  1.00  0.00     0.201 A 
ATOM      9  N   UNL     1       7.944  46.778  53.178  1.00  0.00    -0.318 N 
ATOM     10  C   UNL     1       9.072  47.290  52.447  1.00  0.00     0.153 C 
ENDROOT
BRANCH   1  11
ATOM     11  N   UNL     1       4.107  44.625  54.523  1.00  0.00    -0.338 N 
ATOM     12  H   UNL     1       4.580  44.378  55.388  1.00  0.00     0.168 HD
BRANCH  11  13
ATOM     13  C   UNL     1       2.710  44.677  54.585  1.00  0.00     0.040 A 
ATOM     14  C   UNL     1      -0.111  44.852  54.841  1.00  0.00     0.119 A 
ATOM     15  C   UNL     1       0.717  45.456  55.781  1.00  0.00     0.048 A 
ATOM     16  C   UNL     1       0.470  44.161  53.778  1.00  0.00     0.048 A 
ATOM     17  C   UNL     1       2.111  45.367  55.651  1.00  0.00     0.030 A 
ATOM     18  C   UNL     1       1.863  44.075  53.653  1.00  0.00     0.030 A 
BRANCH  14  19
ATOM     19  O   UNL     1      -1.478  44.859  54.845  1.00  0.00    -0.497 OA
ATOM     20  C   UNL     1      -2.126  44.150  53.798  1.00  0.00     0.278 C 
ENDBRANCH  14  19
ENDBRANCH  11  13
ENDBRANCH   1  11
BRANCH   3  21
ATOM     21  N   UNL     1       5.640  43.957  50.092  1.00  0.00    -0.352 N 
ATOM     22  H   UNL     1       4.725  43.520  50.193  1.00  0.00     0.163 HD
BRANCH  21  23
ATOM     23  C   UNL     1       6.680  43.035  49.655  1.00  0.00     0.144 C 
BRANCH  23  24
ATOM     24  C   UNL     1       6.221  41.575  49.765  1.00  0.00     0.177 C 
BRANCH  24  25
ATOM     25  O   UNL     1       7.315  40.724  50.110  1.00  0.00    -0.395 OA
ATOM     26  H   UNL     1       7.774  40.483  49.287  1.00  0.00     0.210 HD
ENDBRANCH  24  25
ENDBRANCH  23  24
ENDBRANCH  21  23
ENDBRANCH   3  21
TORSDOF 7
ENDMDL
MODEL 17
REMARK VINA RESULT:    -6.923      2.516      4.351
REMARK INTER + INTRA:         -10.126
REMARK INTER:                  -9.809
REMARK INTRA:                  -0.317
REMARK UNBOUND:                -0.572
REMARK SMILES COc1ccc(Nc2nc(NCCO)nc3c2ncn3C)cc1
REMARK SMILES IDX 8 1 9 2 10 3 15 4 16 5 17 6 18 7 19 8 20 9 21 10 7 11 6 13
REMARK SMILES IDX 3 14 4 15 23 16 5 17 22 18 2 19 1 20 11 21 12 23 13 24 14 25
REMARK H PARENT 7 12 11 22 14 26
ROOT
ATOM      1  C   UNL     1       6.595  44.572  50.617  1.00  0.00     0.164 A 
ATOM      2  N   UNL     1       6.803  43.530  49.766  1.00  0.00    -0.193 NA
ATOM      3  C   UNL     1       5.936  42.500  49.714  1.00  0.00     0.226 A 
ATOM      4  N   UNL     1       4.812  42.375  50.442  1.00  0.00    -0.193 NA
ATOM      5  C   UNL     1       4.631  43.409  51.274  1.00  0.00     0.167 A 
ATOM      6  C   UNL     1       5.444  44.516  51.422  1.00  0.00     0.150 A 
ATOM      7  N   UNL     1       4.933  45.379  52.374  1.00  0.00    -0.231 NA
ATOM      8  C   UNL     1       3.831  44.794  52.796  1.00  0.00     0.201 A 
ATOM      9  N   UNL     1       3.611  43.603  52.160  1.00  0.00    -0.318 N 
ATOM     10  C   UNL     1       2.510  42.704  52.379  1.00  0.00     0.153 C 
ENDROOT
BRANCH   1  11
ATOM     11  N   UNL     1       7.458  45.673  50.718  1.00  0.00    -0.338 N 
ATOM     12  H   UNL     1       7.649  46.071  49.802  1.00  0.00     0.168 HD
BRANCH  11  13
ATOM     13  C   UNL     1       8.065  46.319  51.801  1.00  0.00     0.040 A 
ATOM     14  C   UNL     1       9.195  47.733  53.987  1.00  0.00     0.119 A 
ATOM     15  C   UNL     1       8.010  48.172  53.405  1.00  0.00     0.048 A 
ATOM     16  C   UNL     1       9.812  46.592  53.476  1.00  0.00     0.048 A 
ATOM     17  C   UNL     1       7.455  47.470  52.324  1.00  0.00     0.030 A 
ATOM     18  C   UNL     1       9.255  45.895  52.396  1.00  0.00     0.030 A 
BRANCH  14  19
ATOM     19  O   UNL     1       9.842  48.317  55.039  1.00  0.00    -0.497 OA
ATOM     20  C   UNL     1      10.724  47.491  55.788  1.00  0.00     0.278 C 
ENDBRANCH  14  19
ENDBRANCH  11  13
ENDBRANCH   1  11
BRANCH   3  21
ATOM     21  N   UNL     1       6.281  41.503  48.807  1.00  0.00    -0.352 N 
ATOM     22  H   UNL     1       7.179  41.801  48.428  1.00  0.00     0.163 HD
BRANCH  21  23
ATOM     23  C   UNL     1       5.288  41.208  47.783  1.00  0.00     0.144 C 
BRANCH  23  24
ATOM     24  C   UNL     1       5.610  41.919  46.463  1.00  0.00     0.177 C 
BRANCH  24  25
ATOM     25  O   UNL     1       4.602  41.654  45.485  1.00  0.00    -0.395 OA
ATOM     26  H   UNL     1       3.921  42.343  45.567  1.00  0.00     0.210 HD
ENDBRANCH  24  25
ENDBRANCH  23  24
ENDBRANCH  21  23
ENDBRANCH   3  21
TORSDOF 7
ENDMDL
MODEL 18
REMARK VINA RESULT:    -6.863      1.795      5.845
REMARK INTER + INTRA:         -10.043
REMARK INTER:                  -9.575
REMARK INTRA:                  -0.469
REMARK UNBOUND:                -0.572
REMARK SMILES COc1ccc(Nc2nc(NCCO)nc3c2ncn3C)cc1
REMARK SMILES IDX 8 1 9 2 10 3 15 4 16 5 17 6 18 7 19 8 20 9 21 10 7 11 6 13
REMARK SMILES IDX 3 14 4 15 23 16 5 17 22 18 2 19 1 20 11 21 12 23 13 24 14 25
REMARK H PARENT 7 12 11 22 14 26
ROOT
ATOM      1  C   UNL     1       4.862  44.684  52.084  1.00  0.00     0.164 A 
ATOM      2  N   UNL     1       5.371  45.867  52.526  1.00  0.00    -0.193 NA
ATOM      3  C   UNL     1       6.512  46.361  52.008  1.00  0.00     0.226 A 
ATOM      4  N   UNL     1       7.251  45.793  51.038  1.00  0.00    -0.193 NA
ATOM      5  C   UNL     1       6.733  44.630  50.624  1.00  0.00     0.167 A 
ATOM      6  C   UNL     1       5.580  44.020  51.075  1.00  0.00     0.150 A 
ATOM      7  N   UNL     1       5.358  42.828  50.408  1.00  0.00    -0.231 NA
ATOM      8  C   UNL     1       6.371  42.722  49.573  1.00  0.00     0.201 A 
ATOM      9  N   UNL     1       7.225  43.786  49.670  1.00  0.00    -0.318 N 
ATOM     10  C   UNL     1       8.431  43.990  48.913  1.00  0.00     0.153 C 
ENDROOT
BRANCH   1  11
ATOM     11  N   UNL     1       3.678  44.117  52.581  1.00  0.00    -0.338 N 
ATOM     12  H   UNL     1       3.489  43.224  52.136  1.00  0.00     0.168 HD
BRANCH  11  13
ATOM     13  C   UNL     1       2.755  44.522  53.552  1.00  0.00     0.040 A 
ATOM     14  C   UNL     1       0.778  45.327  55.422  1.00  0.00     0.119 A 
ATOM     15  C   UNL     1       0.407  44.879  54.158  1.00  0.00     0.048 A 
ATOM     16  C   UNL     1       2.133  45.373  55.748  1.00  0.00     0.048 A 
ATOM     17  C   UNL     1       1.388  44.483  53.237  1.00  0.00     0.030 A 
ATOM     18  C   UNL     1       3.109  44.976  54.824  1.00  0.00     0.030 A 
BRANCH  14  19
ATOM     19  O   UNL     1      -0.068  45.741  56.412  1.00  0.00    -0.497 OA
ATOM     20  C   UNL     1       0.530  46.295  57.576  1.00  0.00     0.278 C 
ENDBRANCH  14  19
ENDBRANCH  11  13
ENDBRANCH   1  11
BRANCH   3  21
ATOM     21  N   UNL     1       6.918  47.572  52.561  1.00  0.00    -0.352 N 
ATOM     22  H   UNL     1       6.301  48.265  52.140  1.00  0.00     0.163 HD
BRANCH  21  23
ATOM     23  C   UNL     1       8.332  47.890  52.419  1.00  0.00     0.144 C 
BRANCH  23  24
ATOM     24  C   UNL     1       9.119  47.541  53.688  1.00  0.00     0.177 C 
BRANCH  24  25
ATOM     25  O   UNL     1       8.399  47.937  54.857  1.00  0.00    -0.395 OA
ATOM     26  H   UNL     1       9.025  48.382  55.454  1.00  0.00     0.210 HD
ENDBRANCH  24  25
ENDBRANCH  23  24
ENDBRANCH  21  23
ENDBRANCH   3  21
TORSDOF 7
ENDMDL
MODEL 19
REMARK VINA RESULT:    -6.756      2.110      5.872
REMARK INTER + INTRA:          -9.895
REMARK INTER:                  -9.283
REMARK INTRA:                  -0.612
REMARK UNBOUND:                -0.572
REMARK SMILES COc1ccc(Nc2nc(NCCO)nc3c2ncn3C)cc1
REMARK SMILES IDX 8 1 9 2 10 3 15 4 16 5 17 6 18 7 19 8 20 9 21 10 7 11 6 13
REMARK SMILES IDX 3 14 4 15 23 16 5 17 22 18 2 19 1 20 11 21 12 23 13 24 14 25
REMARK H PARENT 7 12 11 22 14 26
ROOT
ATOM      1  C   UNL     1       4.738  45.648  51.772  1.00  0.00     0.164 A 
ATOM      2  N   UNL     1       5.923  46.284  51.560  1.00  0.00    -0.193 NA
ATOM      3  C   UNL     1       6.948  45.646  50.963  1.00  0.00     0.226 A 
ATOM      4  N   UNL     1       6.937  44.378  50.515  1.00  0.00    -0.193 NA
ATOM      5  C   UNL     1       5.764  43.773  50.739  1.00  0.00     0.167 A 
ATOM      6  C   UNL     1       4.645  44.314  51.340  1.00  0.00     0.150 A 
ATOM      7  N   UNL     1       3.617  43.390  51.393  1.00  0.00    -0.231 NA
ATOM      8  C   UNL     1       4.117  42.305  50.837  1.00  0.00     0.201 A 
ATOM      9  N   UNL     1       5.409  42.492  50.428  1.00  0.00    -0.318 N 
ATOM     10  C   UNL     1       6.256  41.519  49.790  1.00  0.00     0.153 C 
ENDROOT
BRANCH   1  11
ATOM     11  N   UNL     1       3.632  46.257  52.386  1.00  0.00    -0.338 N 
ATOM     12  H   UNL     1       3.331  47.074  51.864  1.00  0.00     0.168 HD
BRANCH  11  13
ATOM     13  C   UNL     1       2.880  45.950  53.526  1.00  0.00     0.040 A 
ATOM     14  C   UNL     1       1.477  45.340  55.916  1.00  0.00     0.119 A 
ATOM     15  C   UNL     1       2.818  45.705  55.964  1.00  0.00     0.048 A 
ATOM     16  C   UNL     1       0.840  45.279  54.677  1.00  0.00     0.048 A 
ATOM     17  C   UNL     1       3.508  46.005  54.780  1.00  0.00     0.030 A 
ATOM     18  C   UNL     1       1.534  45.579  53.497  1.00  0.00     0.030 A 
BRANCH  14  19
ATOM     19  O   UNL     1       0.687  45.024  56.985  1.00  0.00    -0.497 OA
ATOM     20  C   UNL     1      -0.719  45.075  56.782  1.00  0.00     0.278 C 
ENDBRANCH  14  19
ENDBRANCH  11  13
ENDBRANCH   1  11
BRANCH   3  21
ATOM     21  N   UNL     1       8.099  46.415  50.820  1.00  0.00    -0.352 N 
ATOM     22  H   UNL     1       8.771  45.792  50.376  1.00  0.00     0.163 HD
BRANCH  21  23
ATOM     23  C   UNL     1       8.599  47.036  52.039  1.00  0.00     0.144 C 
BRANCH  23  24
ATOM     24  C   UNL     1       9.920  46.403  52.494  1.00  0.00     0.177 C 
BRANCH  24  25
ATOM     25  O   UNL     1      10.656  45.905  51.375  1.00  0.00    -0.395 OA
ATOM     26  H   UNL     1      11.159  46.647  50.997  1.00  0.00     0.210 HD
ENDBRANCH  24  25
ENDBRANCH  23  24
ENDBRANCH  21  23
ENDBRANCH   3  21
TORSDOF 7
ENDMDL
MODEL 20
REMARK VINA RESULT:    -6.709      2.873      6.972
REMARK INTER + INTRA:          -9.830
REMARK INTER:                  -9.250
REMARK INTRA:                  -0.580
REMARK UNBOUND:                -0.572
REMARK SMILES COc1ccc(Nc2nc(NCCO)nc3c2ncn3C)cc1
REMARK SMILES IDX 8 1 9 2 10 3 15 4 16 5 17 6 18 7 19 8 20 9 21 10 7 11 6 13
REMARK SMILES IDX 3 14 4 15 23 16 5 17 22 18 2 19 1 20 11 21 12 23 13 24 14 25
REMARK H PARENT 7 12 11 22 14 26
ROOT
ATOM      1  C   UNL     1       4.501  43.888  52.171  1.00  0.00     0.164 A 
ATOM      2  N   UNL     1       4.841  45.127  52.620  1.00  0.00    -0.193 NA
ATOM      3  C   UNL     1       5.879  45.794  52.079  1.00  0.00     0.226 A 
ATOM      4  N   UNL     1       6.664  45.357  51.079  1.00  0.00    -0.193 NA
ATOM      5  C   UNL     1       6.313  44.135  50.657  1.00  0.00     0.167 A 
ATOM      6  C   UNL     1       5.278  43.353  51.129  1.00  0.00     0.150 A 
ATOM      7  N   UNL     1       5.217  42.151  50.448  1.00  0.00    -0.231 NA
ATOM      8  C   UNL     1       6.208  42.210  49.582  1.00  0.00     0.201 A 
ATOM      9  N   UNL     1       6.896  43.388  49.674  1.00  0.00    -0.318 N 
ATOM     10  C   UNL     1       8.034  43.782  48.887  1.00  0.00     0.153 C 
ENDROOT
BRANCH   1  11
ATOM     11  N   UNL     1       3.431  43.143  52.690  1.00  0.00    -0.338 N 
ATOM     12  H   UNL     1       3.756  42.470  53.378  1.00  0.00     0.168 HD
BRANCH  11  13
ATOM     13  C   UNL     1       2.049  43.165  52.466  1.00  0.00     0.040 A 
ATOM     14  C   UNL     1      -0.769  43.139  52.137  1.00  0.00     0.119 A 
ATOM     15  C   UNL     1      -0.195  42.659  53.310  1.00  0.00     0.048 A 
ATOM     16  C   UNL     1       0.064  43.628  51.132  1.00  0.00     0.048 A 
ATOM     17  C   UNL     1       1.198  42.673  53.468  1.00  0.00     0.030 A 
ATOM     18  C   UNL     1       1.456  43.640  51.295  1.00  0.00     0.030 A 
BRANCH  14  19
ATOM     19  O   UNL     1      -2.105  43.184  51.851  1.00  0.00    -0.497 OA
ATOM     20  C   UNL     1      -2.578  42.289  50.854  1.00  0.00     0.278 C 
ENDBRANCH  14  19
ENDBRANCH  11  13
ENDBRANCH   1  11
BRANCH   3  21
ATOM     21  N   UNL     1       6.116  47.044  52.643  1.00  0.00    -0.352 N 
ATOM     22  H   UNL     1       5.514  47.679  52.121  1.00  0.00     0.163 HD
BRANCH  21  23
ATOM     23  C   UNL     1       7.510  47.465  52.685  1.00  0.00     0.144 C 
BRANCH  23  24
ATOM     24  C   UNL     1       8.230  46.909  53.919  1.00  0.00     0.177 C 
BRANCH  24  25
ATOM     25  O   UNL     1       8.279  47.886  54.961  1.00  0.00    -0.395 OA
ATOM     26  H   UNL     1       9.189  47.909  55.303  1.00  0.00     0.210 HD
ENDBRANCH  24  25
ENDBRANCH  23  24
ENDBRANCH  21  23
ENDBRANCH   3  21
TORSDOF 7
ENDMDL
