MODEL 1
REMARK VINA RESULT:    -8.100      0.000      0.000
REMARK INTER + INTRA:         -12.608
REMARK INTER:                 -11.415
REMARK INTRA:                  -1.193
REMARK UNBOUND:                -1.193
REMARK SMILES COCCCNc1nc(Nc2ccccc2Cl)c2cnn(C)c2n1
REMARK SMILES IDX 5 1 4 2 3 3 2 4 1 5 6 6 7 8 8 9 24 10 9 11 23 12 18 13 21 14
REMARK SMILES IDX 19 15 20 16 22 17 10 18 11 20 12 21 16 22 13 23 15 24 14 25
REMARK SMILES IDX 17 26
REMARK H PARENT 6 7 10 19
ROOT
ATOM      1  C   UNL     1       1.548  43.422  52.621  1.00  0.00     0.118 C 
ENDROOT
BRANCH   1   2
ATOM      2  C   UNL     1       0.561  43.508  53.782  1.00  0.00     0.050 C 
BRANCH   2   3
ATOM      3  C   UNL     1       0.809  44.727  54.668  1.00  0.00     0.161 C 
BRANCH   3   4
ATOM      4  O   UNL     1       2.001  44.555  55.439  1.00  0.00    -0.385 OA
ATOM      5  C   UNL     1       2.784  45.738  55.526  1.00  0.00     0.194 C 
ENDBRANCH   3   4
ENDBRANCH   2   3
ENDBRANCH   1   2
BRANCH   1   6
ATOM      6  N   UNL     1       2.849  42.985  53.096  1.00  0.00    -0.354 N 
ATOM      7  H   UNL     1       3.088  43.284  54.037  1.00  0.00     0.163 HD
BRANCH   6   8
ATOM      8  C   UNL     1       3.916  43.390  52.298  1.00  0.00     0.226 A 
ATOM      9  N   UNL     1       4.523  44.566  52.546  1.00  0.00    -0.195 NA
ATOM     10  N   UNL     1       4.246  42.530  51.327  1.00  0.00    -0.193 NA
ATOM     11  C   UNL     1       5.564  44.989  51.784  1.00  0.00     0.147 A 
ATOM     12  C   UNL     1       5.277  42.959  50.585  1.00  0.00     0.165 A 
ATOM     13  C   UNL     1       5.971  44.142  50.746  1.00  0.00     0.082 A 
ATOM     14  N   UNL     1       5.853  42.324  49.519  1.00  0.00    -0.250 N 
ATOM     15  C   UNL     1       6.947  44.114  49.728  1.00  0.00     0.149 A 
ATOM     16  N   UNL     1       6.888  43.008  48.978  1.00  0.00    -0.179 NA
ATOM     17  C   UNL     1       5.471  41.054  48.956  1.00  0.00     0.176 C 
BRANCH  11  18
ATOM     18  N   UNL     1       6.220  46.202  52.031  1.00  0.00    -0.338 N 
ATOM     19  H   UNL     1       5.711  47.024  51.722  1.00  0.00     0.168 HD
BRANCH  18  20
ATOM     20  C   UNL     1       7.469  46.522  52.602  1.00  0.00     0.058 A 
ATOM     21  C   UNL     1       8.671  46.487  51.886  1.00  0.00     0.027 A 
ATOM     22  C   UNL     1       7.535  46.915  53.956  1.00  0.00     0.064 A 
ATOM     23  C   UNL     1       9.888  46.828  52.491  1.00  0.00     0.002 A 
ATOM     24  C   UNL     1       8.746  47.258  54.565  1.00  0.00     0.023 A 
ATOM     25  C   UNL     1       9.926  47.214  53.828  1.00  0.00     0.002 A 
ATOM     26  Cl  UNL     1       6.095  46.985  54.921  1.00  0.00    -0.082 Cl
ENDBRANCH  18  20
ENDBRANCH  11  18
ENDBRANCH   6   8
ENDBRANCH   1   6
TORSDOF 7
ENDMDL
MODEL 2
REMARK VINA RESULT:    -8.058      2.336      5.436
REMARK INTER + INTRA:         -12.549
REMARK INTER:                 -11.397
REMARK INTRA:                  -1.151
REMARK UNBOUND:                -1.193
REMARK SMILES COCCCNc1nc(Nc2ccccc2Cl)c2cnn(C)c2n1
REMARK SMILES IDX 5 1 4 2 3 3 2 4 1 5 6 6 7 8 8 9 24 10 9 11 23 12 18 13 21 14
REMARK SMILES IDX 19 15 20 16 22 17 10 18 11 20 12 21 16 22 13 23 15 24 14 25
REMARK SMILES IDX 17 26
REMARK H PARENT 6 7 10 19
ROOT
ATOM      1  C   UNL     1       3.864  45.660  55.543  1.00  0.00     0.118 C 
ENDROOT
BRANCH   1   2
ATOM      2  C   UNL     1       2.340  45.729  55.594  1.00  0.00     0.050 C 
BRANCH   2   3
ATOM      3  C   UNL     1       1.693  45.324  54.272  1.00  0.00     0.161 C 
BRANCH   3   4
ATOM      4  O   UNL     1       1.946  46.307  53.265  1.00  0.00    -0.385 OA
ATOM      5  C   UNL     1       2.011  45.760  51.955  1.00  0.00     0.194 C 
ENDBRANCH   3   4
ENDBRANCH   2   3
ENDBRANCH   1   2
BRANCH   1   6
ATOM      6  N   UNL     1       4.406  46.879  54.969  1.00  0.00    -0.354 N 
ATOM      7  H   UNL     1       3.746  47.433  54.430  1.00  0.00     0.163 HD
BRANCH   6   8
ATOM      8  C   UNL     1       5.497  46.681  54.127  1.00  0.00     0.226 A 
ATOM      9  N   UNL     1       5.327  46.028  52.962  1.00  0.00    -0.195 NA
ATOM     10  N   UNL     1       6.651  47.185  54.578  1.00  0.00    -0.193 NA
ATOM     11  C   UNL     1       6.372  45.816  52.120  1.00  0.00     0.147 A 
ATOM     12  C   UNL     1       7.673  46.971  53.737  1.00  0.00     0.165 A 
ATOM     13  C   UNL     1       7.616  46.317  52.523  1.00  0.00     0.082 A 
ATOM     14  N   UNL     1       8.977  47.351  53.902  1.00  0.00    -0.250 N 
ATOM     15  C   UNL     1       8.940  46.365  52.038  1.00  0.00     0.149 A 
ATOM     16  N   UNL     1       9.777  46.998  52.869  1.00  0.00    -0.179 NA
ATOM     17  C   UNL     1       9.539  48.059  55.024  1.00  0.00     0.176 C 
BRANCH  11  18
ATOM     18  N   UNL     1       6.217  45.152  50.897  1.00  0.00    -0.338 N 
ATOM     19  H   UNL     1       6.376  45.733  50.081  1.00  0.00     0.168 HD
BRANCH  18  20
ATOM     20  C   UNL     1       5.854  43.831  50.558  1.00  0.00     0.058 A 
ATOM     21  C   UNL     1       4.709  43.199  51.055  1.00  0.00     0.027 A 
ATOM     22  C   UNL     1       6.661  43.096  49.662  1.00  0.00     0.064 A 
ATOM     23  C   UNL     1       4.379  41.890  50.679  1.00  0.00     0.002 A 
ATOM     24  C   UNL     1       6.336  41.790  49.282  1.00  0.00     0.023 A 
ATOM     25  C   UNL     1       5.190  41.187  49.793  1.00  0.00     0.002 A 
ATOM     26  Cl  UNL     1       8.100  43.799  48.998  1.00  0.00    -0.082 Cl
ENDBRANCH  18  20
ENDBRANCH  11  18
ENDBRANCH   6   8
ENDBRANCH   1   6
TORSDOF 7
ENDMDL
MODEL 3
REMARK VINA RESULT:    -7.930      1.129      1.595
REMARK INTER + INTRA:         -12.368
REMARK INTER:                 -11.215
REMARK INTRA:                  -1.153
REMARK UNBOUND:                -1.193
REMARK SMILES COCCCNc1nc(Nc2ccccc2Cl)c2cnn(C)c2n1
REMARK SMILES IDX 5 1 4 2 3 3 2 4 1 5 6 6 7 8 8 9 24 10 9 11 23 12 18 13 21 14
REMARK SMILES IDX 19 15 20 16 22 17 10 18 11 20 12 21 16 22 13 23 15 24 14 25
REMARK SMILES IDX 17 26
REMARK H PARENT 6 7 10 19
ROOT
ATOM      1  C   UNL     1       2.230  44.238  53.826  1.00  0.00     0.118 C 
ENDROOT
BRANCH   1   2
ATOM      2  C   UNL     1       0.708  44.122  53.816  1.00  0.00     0.050 C 
BRANCH   2   3
ATOM      3  C   UNL     1       0.068  44.955  52.706  1.00  0.00     0.161 C 
BRANCH   3   4
ATOM      4  O   UNL     1       0.539  44.532  51.424  1.00  0.00    -0.385 OA
ATOM      5  C   UNL     1      -0.141  43.385  50.931  1.00  0.00     0.194 C 
ENDBRANCH   3   4
ENDBRANCH   2   3
ENDBRANCH   1   2
BRANCH   1   6
ATOM      6  N   UNL     1       2.825  43.132  53.097  1.00  0.00    -0.354 N 
ATOM      7  H   UNL     1       3.162  42.366  53.674  1.00  0.00     0.163 HD
BRANCH   6   8
ATOM      8  C   UNL     1       3.904  43.489  52.292  1.00  0.00     0.226 A 
ATOM      9  N   UNL     1       4.537  44.657  52.510  1.00  0.00    -0.195 NA
ATOM     10  N   UNL     1       4.217  42.596  51.347  1.00  0.00    -0.193 NA
ATOM     11  C   UNL     1       5.590  45.036  51.740  1.00  0.00     0.147 A 
ATOM     12  C   UNL     1       5.259  42.980  50.596  1.00  0.00     0.165 A 
ATOM     13  C   UNL     1       5.980  44.150  50.728  1.00  0.00     0.082 A 
ATOM     14  N   UNL     1       5.824  42.303  49.550  1.00  0.00    -0.250 N 
ATOM     15  C   UNL     1       6.958  44.073  49.714  1.00  0.00     0.149 A 
ATOM     16  N   UNL     1       6.875  42.948  48.994  1.00  0.00    -0.179 NA
ATOM     17  C   UNL     1       5.414  41.027  49.021  1.00  0.00     0.176 C 
BRANCH  11  18
ATOM     18  N   UNL     1       6.272  46.239  51.956  1.00  0.00    -0.338 N 
ATOM     19  H   UNL     1       5.785  47.063  51.621  1.00  0.00     0.168 HD
BRANCH  18  20
ATOM     20  C   UNL     1       7.526  46.546  52.524  1.00  0.00     0.058 A 
ATOM     21  C   UNL     1       8.720  46.549  51.793  1.00  0.00     0.027 A 
ATOM     22  C   UNL     1       7.606  46.886  53.892  1.00  0.00     0.064 A 
ATOM     23  C   UNL     1       9.941  46.875  52.397  1.00  0.00     0.002 A 
ATOM     24  C   UNL     1       8.822  47.214  54.500  1.00  0.00     0.023 A 
ATOM     25  C   UNL     1       9.993  47.208  53.747  1.00  0.00     0.002 A 
ATOM     26  Cl  UNL     1       6.177  46.906  54.876  1.00  0.00    -0.082 Cl
ENDBRANCH  18  20
ENDBRANCH  11  18
ENDBRANCH   6   8
ENDBRANCH   1   6
TORSDOF 7
ENDMDL
MODEL 4
REMARK VINA RESULT:    -7.894      1.781      2.139
REMARK INTER + INTRA:         -12.318
REMARK INTER:                 -11.124
REMARK INTRA:                  -1.194
REMARK UNBOUND:                -1.193
REMARK SMILES COCCCNc1nc(Nc2ccccc2Cl)c2cnn(C)c2n1
REMARK SMILES IDX 5 1 4 2 3 3 2 4 1 5 6 6 7 8 8 9 24 10 9 11 23 12 18 13 21 14
REMARK SMILES IDX 19 15 20 16 22 17 10 18 11 20 12 21 16 22 13 23 15 24 14 25
REMARK SMILES IDX 17 26
REMARK H PARENT 6 7 10 19
ROOT
ATOM      1  C   UNL     1       2.139  44.407  53.185  1.00  0.00     0.118 C 
ENDROOT
BRANCH   1   2
ATOM      2  C   UNL     1       2.120  45.745  53.919  1.00  0.00     0.050 C 
BRANCH   2   3
ATOM      3  C   UNL     1       2.793  45.669  55.288  1.00  0.00     0.161 C 
BRANCH   3   4
ATOM      4  O   UNL     1       4.177  46.015  55.189  1.00  0.00    -0.385 OA
ATOM      5  C   UNL     1       4.394  47.260  54.539  1.00  0.00     0.194 C 
ENDBRANCH   3   4
ENDBRANCH   2   3
ENDBRANCH   1   2
BRANCH   1   6
ATOM      6  N   UNL     1       3.390  43.713  53.434  1.00  0.00    -0.354 N 
ATOM      7  H   UNL     1       3.967  44.111  54.170  1.00  0.00     0.163 HD
BRANCH   6   8
ATOM      8  C   UNL     1       4.224  43.618  52.322  1.00  0.00     0.226 A 
ATOM      9  N   UNL     1       5.175  44.550  52.124  1.00  0.00    -0.195 NA
ATOM     10  N   UNL     1       3.987  42.563  51.534  1.00  0.00    -0.193 NA
ATOM     11  C   UNL     1       6.001  44.486  51.048  1.00  0.00     0.147 A 
ATOM     12  C   UNL     1       4.811  42.511  50.478  1.00  0.00     0.165 A 
ATOM     13  C   UNL     1       5.817  43.407  50.175  1.00  0.00     0.082 A 
ATOM     14  N   UNL     1       4.830  41.570  49.485  1.00  0.00    -0.250 N 
ATOM     15  C   UNL     1       6.381  42.907  48.982  1.00  0.00     0.149 A 
ATOM     16  N   UNL     1       5.791  41.785  48.556  1.00  0.00    -0.179 NA
ATOM     17  C   UNL     1       3.960  40.429  49.354  1.00  0.00     0.176 C 
BRANCH  11  18
ATOM     18  N   UNL     1       7.007  45.436  50.827  1.00  0.00    -0.338 N 
ATOM     19  H   UNL     1       7.099  45.731  49.861  1.00  0.00     0.168 HD
BRANCH  18  20
ATOM     20  C   UNL     1       7.949  46.055  51.675  1.00  0.00     0.058 A 
ATOM     21  C   UNL     1       7.596  46.959  52.683  1.00  0.00     0.027 A 
ATOM     22  C   UNL     1       9.320  45.752  51.530  1.00  0.00     0.064 A 
ATOM     23  C   UNL     1       8.565  47.539  53.512  1.00  0.00     0.002 A 
ATOM     24  C   UNL     1      10.292  46.326  52.356  1.00  0.00     0.023 A 
ATOM     25  C   UNL     1       9.911  47.222  53.350  1.00  0.00     0.002 A 
ATOM     26  Cl  UNL     1       9.850  44.644  50.305  1.00  0.00    -0.082 Cl
ENDBRANCH  18  20
ENDBRANCH  11  18
ENDBRANCH   6   8
ENDBRANCH   1   6
TORSDOF 7
ENDMDL
MODEL 5
REMARK VINA RESULT:    -7.877      1.294      1.622
REMARK INTER + INTRA:         -12.294
REMARK INTER:                 -11.557
REMARK INTRA:                  -0.736
REMARK UNBOUND:                -1.193
REMARK SMILES COCCCNc1nc(Nc2ccccc2Cl)c2cnn(C)c2n1
REMARK SMILES IDX 5 1 4 2 3 3 2 4 1 5 6 6 7 8 8 9 24 10 9 11 23 12 18 13 21 14
REMARK SMILES IDX 19 15 20 16 22 17 10 18 11 20 12 21 16 22 13 23 15 24 14 25
REMARK SMILES IDX 17 26
REMARK H PARENT 6 7 10 19
ROOT
ATOM      1  C   UNL     1       2.227  44.953  54.824  1.00  0.00     0.118 C 
ENDROOT
BRANCH   1   2
ATOM      2  C   UNL     1       0.855  44.991  55.491  1.00  0.00     0.050 C 
BRANCH   2   3
ATOM      3  C   UNL     1       0.907  45.582  56.899  1.00  0.00     0.161 C 
BRANCH   3   4
ATOM      4  O   UNL     1      -0.359  45.449  57.549  1.00  0.00    -0.385 OA
ATOM      5  C   UNL     1      -1.297  44.693  56.794  1.00  0.00     0.194 C 
ENDBRANCH   3   4
ENDBRANCH   2   3
ENDBRANCH   1   2
BRANCH   1   6
ATOM      6  N   UNL     1       2.292  43.864  53.866  1.00  0.00    -0.354 N 
ATOM      7  H   UNL     1       2.393  42.937  54.271  1.00  0.00     0.163 HD
BRANCH   6   8
ATOM      8  C   UNL     1       3.325  43.976  52.939  1.00  0.00     0.226 A 
ATOM      9  N   UNL     1       4.096  45.079  52.934  1.00  0.00    -0.195 NA
ATOM     10  N   UNL     1       3.454  42.930  52.114  1.00  0.00    -0.193 NA
ATOM     11  C   UNL     1       5.110  45.220  52.041  1.00  0.00     0.147 A 
ATOM     12  C   UNL     1       4.458  43.081  51.240  1.00  0.00     0.165 A 
ATOM     13  C   UNL     1       5.309  44.164  51.144  1.00  0.00     0.082 A 
ATOM     14  N   UNL     1       4.850  42.203  50.266  1.00  0.00    -0.250 N 
ATOM     15  C   UNL     1       6.178  43.831  50.083  1.00  0.00     0.149 A 
ATOM     16  N   UNL     1       5.910  42.636  49.544  1.00  0.00    -0.179 NA
ATOM     17  C   UNL     1       4.260  40.924  49.962  1.00  0.00     0.176 C 
BRANCH  11  18
ATOM     18  N   UNL     1       5.934  46.352  52.025  1.00  0.00    -0.338 N 
ATOM     19  H   UNL     1       5.500  47.181  51.633  1.00  0.00     0.168 HD
BRANCH  18  20
ATOM     20  C   UNL     1       7.269  46.576  52.422  1.00  0.00     0.058 A 
ATOM     21  C   UNL     1       8.347  46.562  51.529  1.00  0.00     0.027 A 
ATOM     22  C   UNL     1       7.556  46.847  53.777  1.00  0.00     0.064 A 
ATOM     23  C   UNL     1       9.655  46.805  51.965  1.00  0.00     0.002 A 
ATOM     24  C   UNL     1       8.861  47.091  54.218  1.00  0.00     0.023 A 
ATOM     25  C   UNL     1       9.913  47.070  53.307  1.00  0.00     0.002 A 
ATOM     26  Cl  UNL     1       6.283  46.883  54.954  1.00  0.00    -0.082 Cl
ENDBRANCH  18  20
ENDBRANCH  11  18
ENDBRANCH   6   8
ENDBRANCH   1   6
TORSDOF 7
ENDMDL
MODEL 6
REMARK VINA RESULT:    -7.721      2.280      4.478
REMARK INTER + INTRA:         -12.073
REMARK INTER:                 -11.042
REMARK INTRA:                  -1.030
REMARK UNBOUND:                -1.193
REMARK SMILES COCCCNc1nc(Nc2ccccc2Cl)c2cnn(C)c2n1
REMARK SMILES IDX 5 1 4 2 3 3 2 4 1 5 6 6 7 8 8 9 24 10 9 11 23 12 18 13 21 14
REMARK SMILES IDX 19 15 20 16 22 17 10 18 11 20 12 21 16 22 13 23 15 24 14 25
REMARK SMILES IDX 17 26
REMARK H PARENT 6 7 10 19
ROOT
ATOM      1  C   UNL     1       3.913  41.263  50.179  1.00  0.00     0.118 C 
ENDROOT
BRANCH   1   2
ATOM      2  C   UNL     1       4.751  41.121  48.911  1.00  0.00     0.050 C 
BRANCH   2   3
ATOM      3  C   UNL     1       6.224  41.448  49.147  1.00  0.00     0.161 C 
BRANCH   3   4
ATOM      4  O   UNL     1       6.542  42.744  48.631  1.00  0.00    -0.385 OA
ATOM      5  C   UNL     1       7.720  43.297  49.200  1.00  0.00     0.194 C 
ENDBRANCH   3   4
ENDBRANCH   2   3
ENDBRANCH   1   2
BRANCH   1   6
ATOM      6  N   UNL     1       4.699  41.871  51.238  1.00  0.00    -0.354 N 
ATOM      7  H   UNL     1       4.662  41.392  52.134  1.00  0.00     0.163 HD
BRANCH   6   8
ATOM      8  C   UNL     1       4.365  43.194  51.514  1.00  0.00     0.226 A 
ATOM      9  N   UNL     1       5.317  44.145  51.462  1.00  0.00    -0.195 NA
ATOM     10  N   UNL     1       3.076  43.396  51.810  1.00  0.00    -0.193 NA
ATOM     11  C   UNL     1       5.023  45.444  51.729  1.00  0.00     0.147 A 
ATOM     12  C   UNL     1       2.799  44.682  52.067  1.00  0.00     0.165 A 
ATOM     13  C   UNL     1       3.690  45.736  52.045  1.00  0.00     0.082 A 
ATOM     14  N   UNL     1       1.586  45.219  52.405  1.00  0.00    -0.250 N 
ATOM     15  C   UNL     1       2.908  46.861  52.379  1.00  0.00     0.149 A 
ATOM     16  N   UNL     1       1.623  46.558  52.595  1.00  0.00    -0.179 NA
ATOM     17  C   UNL     1       0.340  44.513  52.565  1.00  0.00     0.176 C 
BRANCH  11  18
ATOM     18  N   UNL     1       5.993  46.452  51.669  1.00  0.00    -0.338 N 
ATOM     19  H   UNL     1       5.725  47.259  51.116  1.00  0.00     0.168 HD
BRANCH  18  20
ATOM     20  C   UNL     1       7.294  46.568  52.200  1.00  0.00     0.058 A 
ATOM     21  C   UNL     1       8.453  46.464  51.423  1.00  0.00     0.027 A 
ATOM     22  C   UNL     1       7.463  46.818  53.580  1.00  0.00     0.064 A 
ATOM     23  C   UNL     1       9.726  46.602  51.991  1.00  0.00     0.002 A 
ATOM     24  C   UNL     1       8.731  46.957  54.153  1.00  0.00     0.023 A 
ATOM     25  C   UNL     1       9.865  46.849  53.354  1.00  0.00     0.002 A 
ATOM     26  Cl  UNL     1       6.082  46.959  54.621  1.00  0.00    -0.082 Cl
ENDBRANCH  18  20
ENDBRANCH  11  18
ENDBRANCH   6   8
ENDBRANCH   1   6
TORSDOF 7
ENDMDL
MODEL 7
REMARK VINA RESULT:    -7.717      2.558      5.000
REMARK INTER + INTRA:         -12.067
REMARK INTER:                 -11.139
REMARK INTRA:                  -0.929
REMARK UNBOUND:                -1.193
REMARK SMILES COCCCNc1nc(Nc2ccccc2Cl)c2cnn(C)c2n1
REMARK SMILES IDX 5 1 4 2 3 3 2 4 1 5 6 6 7 8 8 9 24 10 9 11 23 12 18 13 21 14
REMARK SMILES IDX 19 15 20 16 22 17 10 18 11 20 12 21 16 22 13 23 15 24 14 25
REMARK SMILES IDX 17 26
REMARK H PARENT 6 7 10 19
ROOT
ATOM      1  C   UNL     1       4.274  41.598  51.086  1.00  0.00     0.118 C 
ENDROOT
BRANCH   1   2
ATOM      2  C   UNL     1       5.523  41.728  50.218  1.00  0.00     0.050 C 
BRANCH   2   3
ATOM      3  C   UNL     1       5.301  41.210  48.798  1.00  0.00     0.161 C 
BRANCH   3   4
ATOM      4  O   UNL     1       4.017  40.592  48.682  1.00  0.00    -0.385 OA
ATOM      5  C   UNL     1       3.587  40.450  47.335  1.00  0.00     0.194 C 
ENDBRANCH   3   4
ENDBRANCH   2   3
ENDBRANCH   1   2
BRANCH   1   6
ATOM      6  N   UNL     1       3.433  42.773  50.939  1.00  0.00    -0.354 N 
ATOM      7  H   UNL     1       3.403  43.168  50.003  1.00  0.00     0.163 HD
BRANCH   6   8
ATOM      8  C   UNL     1       3.773  43.832  51.776  1.00  0.00     0.226 A 
ATOM      9  N   UNL     1       4.767  44.668  51.420  1.00  0.00    -0.195 NA
ATOM     10  N   UNL     1       3.046  43.916  52.896  1.00  0.00    -0.193 NA
ATOM     11  C   UNL     1       5.125  45.708  52.218  1.00  0.00     0.147 A 
ATOM     12  C   UNL     1       3.407  44.947  53.672  1.00  0.00     0.165 A 
ATOM     13  C   UNL     1       4.406  45.864  53.409  1.00  0.00     0.082 A 
ATOM     14  N   UNL     1       2.871  45.307  54.878  1.00  0.00    -0.250 N 
ATOM     15  C   UNL     1       4.381  46.734  54.519  1.00  0.00     0.149 A 
ATOM     16  N   UNL     1       3.445  46.407  55.418  1.00  0.00    -0.179 NA
ATOM     17  C   UNL     1       1.800  44.648  55.582  1.00  0.00     0.176 C 
BRANCH  11  18
ATOM     18  N   UNL     1       6.145  46.598  51.862  1.00  0.00    -0.338 N 
ATOM     19  H   UNL     1       5.860  47.324  51.213  1.00  0.00     0.168 HD
BRANCH  18  20
ATOM     20  C   UNL     1       7.512  46.681  52.201  1.00  0.00     0.058 A 
ATOM     21  C   UNL     1       7.987  47.400  53.303  1.00  0.00     0.027 A 
ATOM     22  C   UNL     1       8.466  46.001  51.413  1.00  0.00     0.064 A 
ATOM     23  C   UNL     1       9.353  47.442  53.611  1.00  0.00     0.002 A 
ATOM     24  C   UNL     1       9.831  46.039  51.716  1.00  0.00     0.023 A 
ATOM     25  C   UNL     1      10.274  46.762  52.819  1.00  0.00     0.002 A 
ATOM     26  Cl  UNL     1       7.969  45.087  50.025  1.00  0.00    -0.082 Cl
ENDBRANCH  18  20
ENDBRANCH  11  18
ENDBRANCH   6   8
ENDBRANCH   1   6
TORSDOF 7
ENDMDL
MODEL 8
REMARK VINA RESULT:    -7.660      2.431      4.666
REMARK INTER + INTRA:         -11.987
REMARK INTER:                 -11.248
REMARK INTRA:                  -0.739
REMARK UNBOUND:                -1.193
REMARK SMILES COCCCNc1nc(Nc2ccccc2Cl)c2cnn(C)c2n1
REMARK SMILES IDX 5 1 4 2 3 3 2 4 1 5 6 6 7 8 8 9 24 10 9 11 23 12 18 13 21 14
REMARK SMILES IDX 19 15 20 16 22 17 10 18 11 20 12 21 16 22 13 23 15 24 14 25
REMARK SMILES IDX 17 26
REMARK H PARENT 6 7 10 19
ROOT
ATOM      1  C   UNL     1       5.642  41.739  50.098  1.00  0.00     0.118 C 
ENDROOT
BRANCH   1   2
ATOM      2  C   UNL     1       4.981  41.157  48.851  1.00  0.00     0.050 C 
BRANCH   2   3
ATOM      3  C   UNL     1       3.598  40.578  49.141  1.00  0.00     0.161 C 
BRANCH   3   4
ATOM      4  O   UNL     1       3.170  39.736  48.067  1.00  0.00    -0.385 OA
ATOM      5  C   UNL     1       3.447  40.283  46.785  1.00  0.00     0.194 C 
ENDBRANCH   3   4
ENDBRANCH   2   3
ENDBRANCH   1   2
BRANCH   1   6
ATOM      6  N   UNL     1       4.654  41.945  51.143  1.00  0.00    -0.354 N 
ATOM      7  H   UNL     1       3.743  41.532  50.964  1.00  0.00     0.163 HD
BRANCH   6   8
ATOM      8  C   UNL     1       4.402  43.282  51.439  1.00  0.00     0.226 A 
ATOM      9  N   UNL     1       5.401  44.180  51.357  1.00  0.00    -0.195 NA
ATOM     10  N   UNL     1       3.138  43.550  51.785  1.00  0.00    -0.193 NA
ATOM     11  C   UNL     1       5.187  45.491  51.642  1.00  0.00     0.147 A 
ATOM     12  C   UNL     1       2.940  44.846  52.062  1.00  0.00     0.165 A 
ATOM     13  C   UNL     1       3.886  45.851  52.012  1.00  0.00     0.082 A 
ATOM     14  N   UNL     1       1.772  45.444  52.449  1.00  0.00    -0.250 N 
ATOM     15  C   UNL     1       3.178  47.014  52.382  1.00  0.00     0.149 A 
ATOM     16  N   UNL     1       1.888  46.778  52.646  1.00  0.00    -0.179 NA
ATOM     17  C   UNL     1       0.497  44.805  52.652  1.00  0.00     0.176 C 
BRANCH  11  18
ATOM     18  N   UNL     1       6.207  46.446  51.550  1.00  0.00    -0.338 N 
ATOM     19  H   UNL     1       6.012  47.208  50.910  1.00  0.00     0.168 HD
BRANCH  18  20
ATOM     20  C   UNL     1       7.479  46.557  52.151  1.00  0.00     0.058 A 
ATOM     21  C   UNL     1       8.676  46.369  51.451  1.00  0.00     0.027 A 
ATOM     22  C   UNL     1       7.576  46.889  53.519  1.00  0.00     0.064 A 
ATOM     23  C   UNL     1       9.918  46.504  52.085  1.00  0.00     0.002 A 
ATOM     24  C   UNL     1       8.813  47.026  54.157  1.00  0.00     0.023 A 
ATOM     25  C   UNL     1       9.988  46.833  53.436  1.00  0.00     0.002 A 
ATOM     26  Cl  UNL     1       6.144  47.138  54.466  1.00  0.00    -0.082 Cl
ENDBRANCH  18  20
ENDBRANCH  11  18
ENDBRANCH   6   8
ENDBRANCH   1   6
TORSDOF 7
ENDMDL
MODEL 9
REMARK VINA RESULT:    -7.650      1.824      2.399
REMARK INTER + INTRA:         -11.973
REMARK INTER:                 -10.886
REMARK INTRA:                  -1.088
REMARK UNBOUND:                -1.193
REMARK SMILES COCCCNc1nc(Nc2ccccc2Cl)c2cnn(C)c2n1
REMARK SMILES IDX 5 1 4 2 3 3 2 4 1 5 6 6 7 8 8 9 24 10 9 11 23 12 18 13 21 14
REMARK SMILES IDX 19 15 20 16 22 17 10 18 11 20 12 21 16 22 13 23 15 24 14 25
REMARK SMILES IDX 17 26
REMARK H PARENT 6 7 10 19
ROOT
ATOM      1  C   UNL     1       2.684  45.511  53.982  1.00  0.00     0.118 C 
ENDROOT
BRANCH   1   2
ATOM      2  C   UNL     1       1.685  46.066  52.971  1.00  0.00     0.050 C 
BRANCH   2   3
ATOM      3  C   UNL     1       0.564  45.078  52.656  1.00  0.00     0.161 C 
BRANCH   3   4
ATOM      4  O   UNL     1       0.759  44.488  51.368  1.00  0.00    -0.385 OA
ATOM      5  C   UNL     1       0.235  43.171  51.273  1.00  0.00     0.194 C 
ENDBRANCH   3   4
ENDBRANCH   2   3
ENDBRANCH   1   2
BRANCH   1   6
ATOM      6  N   UNL     1       3.057  44.152  53.629  1.00  0.00    -0.354 N 
ATOM      7  H   UNL     1       3.434  43.596  54.390  1.00  0.00     0.163 HD
BRANCH   6   8
ATOM      8  C   UNL     1       3.996  44.062  52.605  1.00  0.00     0.226 A 
ATOM      9  N   UNL     1       4.939  45.016  52.483  1.00  0.00    -0.195 NA
ATOM     10  N   UNL     1       3.864  42.990  51.815  1.00  0.00    -0.193 NA
ATOM     11  C   UNL     1       5.867  44.958  51.493  1.00  0.00     0.147 A 
ATOM     12  C   UNL     1       4.787  42.944  50.845  1.00  0.00     0.165 A 
ATOM     13  C   UNL     1       5.795  43.862  50.625  1.00  0.00     0.082 A 
ATOM     14  N   UNL     1       4.926  41.989  49.875  1.00  0.00    -0.250 N 
ATOM     15  C   UNL     1       6.485  43.359  49.502  1.00  0.00     0.149 A 
ATOM     16  N   UNL     1       5.966  42.215  49.040  1.00  0.00    -0.179 NA
ATOM     17  C   UNL     1       4.100  40.824  49.681  1.00  0.00     0.176 C 
BRANCH  11  18
ATOM     18  N   UNL     1       6.866  45.931  51.354  1.00  0.00    -0.338 N 
ATOM     19  H   UNL     1       6.881  46.389  50.450  1.00  0.00     0.168 HD
BRANCH  18  20
ATOM     20  C   UNL     1       7.886  46.392  52.212  1.00  0.00     0.058 A 
ATOM     21  C   UNL     1       7.638  47.161  53.355  1.00  0.00     0.027 A 
ATOM     22  C   UNL     1       9.230  46.062  51.936  1.00  0.00     0.064 A 
ATOM     23  C   UNL     1       8.682  47.585  54.187  1.00  0.00     0.002 A 
ATOM     24  C   UNL     1      10.276  46.481  52.764  1.00  0.00     0.023 A 
ATOM     25  C   UNL     1       9.999  47.245  53.893  1.00  0.00     0.002 A 
ATOM     26  Cl  UNL     1       9.632  45.113  50.540  1.00  0.00    -0.082 Cl
ENDBRANCH  18  20
ENDBRANCH  11  18
ENDBRANCH   6   8
ENDBRANCH   1   6
TORSDOF 7
ENDMDL
MODEL 10
REMARK VINA RESULT:    -7.611      2.965      5.113
REMARK INTER + INTRA:         -11.918
REMARK INTER:                 -11.172
REMARK INTRA:                  -0.746
REMARK UNBOUND:                -1.193
REMARK SMILES COCCCNc1nc(Nc2ccccc2Cl)c2cnn(C)c2n1
REMARK SMILES IDX 5 1 4 2 3 3 2 4 1 5 6 6 7 8 8 9 24 10 9 11 23 12 18 13 21 14
REMARK SMILES IDX 19 15 20 16 22 17 10 18 11 20 12 21 16 22 13 23 15 24 14 25
REMARK SMILES IDX 17 26
REMARK H PARENT 6 7 10 19
ROOT
ATOM      1  C   UNL     1       4.670  41.240  50.111  1.00  0.00     0.118 C 
ENDROOT
BRANCH   1   2
ATOM      2  C   UNL     1       3.489  40.677  49.326  1.00  0.00     0.050 C 
BRANCH   2   3
ATOM      3  C   UNL     1       3.844  40.382  47.870  1.00  0.00     0.161 C 
BRANCH   3   4
ATOM      4  O   UNL     1       2.714  39.848  47.175  1.00  0.00    -0.385 OA
ATOM      5  C   UNL     1       2.905  38.504  46.751  1.00  0.00     0.194 C 
ENDBRANCH   3   4
ENDBRANCH   2   3
ENDBRANCH   1   2
BRANCH   1   6
ATOM      6  N   UNL     1       4.235  41.698  51.419  1.00  0.00    -0.354 N 
ATOM      7  H   UNL     1       3.343  41.326  51.733  1.00  0.00     0.163 HD
BRANCH   6   8
ATOM      8  C   UNL     1       4.117  43.081  51.532  1.00  0.00     0.226 A 
ATOM      9  N   UNL     1       5.145  43.868  51.163  1.00  0.00    -0.195 NA
ATOM     10  N   UNL     1       2.943  43.506  52.013  1.00  0.00    -0.193 NA
ATOM     11  C   UNL     1       5.063  45.220  51.264  1.00  0.00     0.147 A 
ATOM     12  C   UNL     1       2.874  44.841  52.106  1.00  0.00     0.165 A 
ATOM     13  C   UNL     1       3.861  45.742  51.758  1.00  0.00     0.082 A 
ATOM     14  N   UNL     1       1.822  45.589  52.560  1.00  0.00    -0.250 N 
ATOM     15  C   UNL     1       3.296  47.004  52.038  1.00  0.00     0.149 A 
ATOM     16  N   UNL     1       2.051  46.922  52.522  1.00  0.00    -0.179 NA
ATOM     17  C   UNL     1       0.557  45.100  53.047  1.00  0.00     0.176 C 
BRANCH  11  18
ATOM     18  N   UNL     1       6.113  46.059  50.873  1.00  0.00    -0.338 N 
ATOM     19  H   UNL     1       5.963  46.536  49.990  1.00  0.00     0.168 HD
BRANCH  18  20
ATOM     20  C   UNL     1       7.367  46.362  51.444  1.00  0.00     0.058 A 
ATOM     21  C   UNL     1       7.536  47.303  52.467  1.00  0.00     0.027 A 
ATOM     22  C   UNL     1       8.520  45.686  50.991  1.00  0.00     0.064 A 
ATOM     23  C   UNL     1       8.799  47.561  53.015  1.00  0.00     0.002 A 
ATOM     24  C   UNL     1       9.783  45.938  51.536  1.00  0.00     0.023 A 
ATOM     25  C   UNL     1       9.921  46.879  52.552  1.00  0.00     0.002 A 
ATOM     26  Cl  UNL     1       8.405  44.505  49.726  1.00  0.00    -0.082 Cl
ENDBRANCH  18  20
ENDBRANCH  11  18
ENDBRANCH   6   8
ENDBRANCH   1   6
TORSDOF 7
ENDMDL
MODEL 11
REMARK VINA RESULT:    -7.570      3.247      5.613
REMARK INTER + INTRA:         -11.861
REMARK INTER:                 -11.165
REMARK INTRA:                  -0.696
REMARK UNBOUND:                -1.193
REMARK SMILES COCCCNc1nc(Nc2ccccc2Cl)c2cnn(C)c2n1
REMARK SMILES IDX 5 1 4 2 3 3 2 4 1 5 6 6 7 8 8 9 24 10 9 11 23 12 18 13 21 14
REMARK SMILES IDX 19 15 20 16 22 17 10 18 11 20 12 21 16 22 13 23 15 24 14 25
REMARK SMILES IDX 17 26
REMARK H PARENT 6 7 10 19
ROOT
ATOM      1  C   UNL     1       5.196  41.176  47.722  1.00  0.00     0.118 C 
ENDROOT
BRANCH   1   2
ATOM      2  C   UNL     1       5.770  41.918  46.518  1.00  0.00     0.050 C 
BRANCH   2   3
ATOM      3  C   UNL     1       4.926  41.725  45.259  1.00  0.00     0.161 C 
BRANCH   3   4
ATOM      4  O   UNL     1       5.150  40.430  44.696  1.00  0.00    -0.385 OA
ATOM      5  C   UNL     1       3.955  39.801  44.252  1.00  0.00     0.194 C 
ENDBRANCH   3   4
ENDBRANCH   2   3
ENDBRANCH   1   2
BRANCH   1   6
ATOM      6  N   UNL     1       6.093  41.290  48.859  1.00  0.00    -0.354 N 
ATOM      7  H   UNL     1       6.111  40.484  49.478  1.00  0.00     0.163 HD
BRANCH   6   8
ATOM      8  C   UNL     1       5.839  42.383  49.683  1.00  0.00     0.226 A 
ATOM      9  N   UNL     1       6.675  43.438  49.664  1.00  0.00    -0.195 NA
ATOM     10  N   UNL     1       4.741  42.270  50.440  1.00  0.00    -0.193 NA
ATOM     11  C   UNL     1       6.456  44.518  50.458  1.00  0.00     0.147 A 
ATOM     12  C   UNL     1       4.536  43.343  51.217  1.00  0.00     0.165 A 
ATOM     13  C   UNL     1       5.323  44.476  51.279  1.00  0.00     0.082 A 
ATOM     14  N   UNL     1       3.514  43.542  52.104  1.00  0.00    -0.250 N 
ATOM     15  C   UNL     1       4.680  45.294  52.232  1.00  0.00     0.149 A 
ATOM     16  N   UNL     1       3.573  44.737  52.737  1.00  0.00    -0.179 NA
ATOM     17  C   UNL     1       2.436  42.634  52.403  1.00  0.00     0.176 C 
BRANCH  11  18
ATOM     18  N   UNL     1       7.303  45.633  50.445  1.00  0.00    -0.338 N 
ATOM     19  H   UNL     1       7.386  46.086  49.542  1.00  0.00     0.168 HD
BRANCH  18  20
ATOM     20  C   UNL     1       8.098  46.249  51.434  1.00  0.00     0.058 A 
ATOM     21  C   UNL     1       7.616  47.234  52.303  1.00  0.00     0.027 A 
ATOM     22  C   UNL     1       9.447  45.858  51.587  1.00  0.00     0.064 A 
ATOM     23  C   UNL     1       8.438  47.808  53.281  1.00  0.00     0.002 A 
ATOM     24  C   UNL     1      10.272  46.426  52.562  1.00  0.00     0.023 A 
ATOM     25  C   UNL     1       9.764  47.405  53.412  1.00  0.00     0.002 A 
ATOM     26  Cl  UNL     1      10.131  44.645  50.553  1.00  0.00    -0.082 Cl
ENDBRANCH  18  20
ENDBRANCH  11  18
ENDBRANCH   6   8
ENDBRANCH   1   6
TORSDOF 7
ENDMDL
MODEL 12
REMARK VINA RESULT:    -7.417      2.118      5.127
REMARK INTER + INTRA:         -11.644
REMARK INTER:                 -10.850
REMARK INTRA:                  -0.794
REMARK UNBOUND:                -1.193
REMARK SMILES COCCCNc1nc(Nc2ccccc2Cl)c2cnn(C)c2n1
REMARK SMILES IDX 5 1 4 2 3 3 2 4 1 5 6 6 7 8 8 9 24 10 9 11 23 12 18 13 21 14
REMARK SMILES IDX 19 15 20 16 22 17 10 18 11 20 12 21 16 22 13 23 15 24 14 25
REMARK SMILES IDX 17 26
REMARK H PARENT 6 7 10 19
ROOT
ATOM      1  C   UNL     1       3.555  46.019  55.423  1.00  0.00     0.118 C 
ENDROOT
BRANCH   1   2
ATOM      2  C   UNL     1       2.245  45.887  54.652  1.00  0.00     0.050 C 
BRANCH   2   3
ATOM      3  C   UNL     1       1.552  44.550  54.905  1.00  0.00     0.161 C 
BRANCH   3   4
ATOM      4  O   UNL     1       0.905  44.085  53.718  1.00  0.00    -0.385 OA
ATOM      5  C   UNL     1       0.480  45.139  52.865  1.00  0.00     0.194 C 
ENDBRANCH   3   4
ENDBRANCH   2   3
ENDBRANCH   1   2
BRANCH   1   6
ATOM      6  N   UNL     1       4.279  47.202  54.990  1.00  0.00    -0.354 N 
ATOM      7  H   UNL     1       3.715  47.907  54.524  1.00  0.00     0.163 HD
BRANCH   6   8
ATOM      8  C   UNL     1       5.336  46.941  54.122  1.00  0.00     0.226 A 
ATOM      9  N   UNL     1       5.097  46.318  52.953  1.00  0.00    -0.195 NA
ATOM     10  N   UNL     1       6.532  47.357  54.554  1.00  0.00    -0.193 NA
ATOM     11  C   UNL     1       6.107  46.046  52.086  1.00  0.00     0.147 A 
ATOM     12  C   UNL     1       7.519  47.086  53.689  1.00  0.00     0.165 A 
ATOM     13  C   UNL     1       7.391  46.455  52.468  1.00  0.00     0.082 A 
ATOM     14  N   UNL     1       8.849  47.373  53.830  1.00  0.00    -0.250 N 
ATOM     15  C   UNL     1       8.705  46.418  51.955  1.00  0.00     0.149 A 
ATOM     16  N   UNL     1       9.601  46.980  52.775  1.00  0.00    -0.179 NA
ATOM     17  C   UNL     1       9.482  48.025  54.948  1.00  0.00     0.176 C 
BRANCH  11  18
ATOM     18  N   UNL     1       5.881  45.412  50.858  1.00  0.00    -0.338 N 
ATOM     19  H   UNL     1       5.529  46.023  50.129  1.00  0.00     0.168 HD
BRANCH  18  20
ATOM     20  C   UNL     1       6.016  44.076  50.426  1.00  0.00     0.058 A 
ATOM     21  C   UNL     1       7.098  43.622  49.663  1.00  0.00     0.027 A 
ATOM     22  C   UNL     1       5.033  43.127  50.781  1.00  0.00     0.064 A 
ATOM     23  C   UNL     1       7.198  42.281  49.269  1.00  0.00     0.002 A 
ATOM     24  C   UNL     1       5.128  41.787  50.391  1.00  0.00     0.023 A 
ATOM     25  C   UNL     1       6.216  41.364  49.633  1.00  0.00     0.002 A 
ATOM     26  Cl  UNL     1       3.655  43.601  51.723  1.00  0.00    -0.082 Cl
ENDBRANCH  18  20
ENDBRANCH  11  18
ENDBRANCH   6   8
ENDBRANCH   1   6
TORSDOF 7
ENDMDL
MODEL 13
REMARK VINA RESULT:    -7.327      2.659      5.428
REMARK INTER + INTRA:         -11.518
REMARK INTER:                 -11.035
REMARK INTRA:                  -0.483
REMARK UNBOUND:                -1.193
REMARK SMILES COCCCNc1nc(Nc2ccccc2Cl)c2cnn(C)c2n1
REMARK SMILES IDX 5 1 4 2 3 3 2 4 1 5 6 6 7 8 8 9 24 10 9 11 23 12 18 13 21 14
REMARK SMILES IDX 19 15 20 16 22 17 10 18 11 20 12 21 16 22 13 23 15 24 14 25
REMARK SMILES IDX 17 26
REMARK H PARENT 6 7 10 19
ROOT
ATOM      1  C   UNL     1       5.528  45.248  55.271  1.00  0.00     0.118 C 
ENDROOT
BRANCH   1   2
ATOM      2  C   UNL     1       5.761  46.622  54.650  1.00  0.00     0.050 C 
BRANCH   2   3
ATOM      3  C   UNL     1       7.150  46.752  54.026  1.00  0.00     0.161 C 
BRANCH   3   4
ATOM      4  O   UNL     1       8.017  47.502  54.880  1.00  0.00    -0.385 OA
ATOM      5  C   UNL     1       9.294  47.744  54.303  1.00  0.00     0.194 C 
ENDBRANCH   3   4
ENDBRANCH   2   3
ENDBRANCH   1   2
BRANCH   1   6
ATOM      6  N   UNL     1       4.106  45.002  55.434  1.00  0.00    -0.354 N 
ATOM      7  H   UNL     1       3.861  44.365  56.186  1.00  0.00     0.163 HD
BRANCH   6   8
ATOM      8  C   UNL     1       3.479  44.492  54.300  1.00  0.00     0.226 A 
ATOM      9  N   UNL     1       4.205  44.246  53.193  1.00  0.00    -0.195 NA
ATOM     10  N   UNL     1       2.164  44.286  54.432  1.00  0.00    -0.193 NA
ATOM     11  C   UNL     1       3.622  43.751  52.070  1.00  0.00     0.147 A 
ATOM     12  C   UNL     1       1.602  43.795  53.318  1.00  0.00     0.165 A 
ATOM     13  C   UNL     1       2.245  43.507  52.131  1.00  0.00     0.082 A 
ATOM     14  N   UNL     1       0.285  43.481  53.122  1.00  0.00    -0.250 N 
ATOM     15  C   UNL     1       1.223  43.019  51.290  1.00  0.00     0.149 A 
ATOM     16  N   UNL     1       0.025  42.994  51.886  1.00  0.00    -0.179 NA
ATOM     17  C   UNL     1      -0.790  43.617  54.072  1.00  0.00     0.176 C 
BRANCH  11  18
ATOM     18  N   UNL     1       4.359  43.475  50.912  1.00  0.00    -0.338 N 
ATOM     19  H   UNL     1       3.881  42.880  50.243  1.00  0.00     0.168 HD
BRANCH  18  20
ATOM     20  C   UNL     1       5.656  43.833  50.487  1.00  0.00     0.058 A 
ATOM     21  C   UNL     1       6.230  45.083  50.745  1.00  0.00     0.027 A 
ATOM     22  C   UNL     1       6.440  42.896  49.779  1.00  0.00     0.064 A 
ATOM     23  C   UNL     1       7.528  45.389  50.317  1.00  0.00     0.002 A 
ATOM     24  C   UNL     1       7.737  43.196  49.351  1.00  0.00     0.023 A 
ATOM     25  C   UNL     1       8.281  44.448  49.622  1.00  0.00     0.002 A 
ATOM     26  Cl  UNL     1       5.809  41.322  49.413  1.00  0.00    -0.082 Cl
ENDBRANCH  18  20
ENDBRANCH  11  18
ENDBRANCH   6   8
ENDBRANCH   1   6
TORSDOF 7
ENDMDL
MODEL 14
REMARK VINA RESULT:    -7.275      2.425      3.444
REMARK INTER + INTRA:         -11.445
REMARK INTER:                 -10.855
REMARK INTRA:                  -0.589
REMARK UNBOUND:                -1.193
REMARK SMILES COCCCNc1nc(Nc2ccccc2Cl)c2cnn(C)c2n1
REMARK SMILES IDX 5 1 4 2 3 3 2 4 1 5 6 6 7 8 8 9 24 10 9 11 23 12 18 13 21 14
REMARK SMILES IDX 19 15 20 16 22 17 10 18 11 20 12 21 16 22 13 23 15 24 14 25
REMARK SMILES IDX 17 26
REMARK H PARENT 6 7 10 19
ROOT
ATOM      1  C   UNL     1       1.249  45.708  56.089  1.00  0.00     0.118 C 
ENDROOT
BRANCH   1   2
ATOM      2  C   UNL     1       0.656  45.748  57.495  1.00  0.00     0.050 C 
BRANCH   2   3
ATOM      3  C   UNL     1       1.358  46.763  58.395  1.00  0.00     0.161 C 
BRANCH   3   4
ATOM      4  O   UNL     1       0.452  47.795  58.792  1.00  0.00    -0.385 OA
ATOM      5  C   UNL     1      -0.889  47.543  58.395  1.00  0.00     0.194 C 
ENDBRANCH   3   4
ENDBRANCH   2   3
ENDBRANCH   1   2
BRANCH   1   6
ATOM      6  N   UNL     1       2.664  46.036  56.129  1.00  0.00    -0.354 N 
ATOM      7  H   UNL     1       2.876  47.005  56.348  1.00  0.00     0.163 HD
BRANCH   6   8
ATOM      8  C   UNL     1       3.348  45.766  54.946  1.00  0.00     0.226 A 
ATOM      9  N   UNL     1       4.360  46.568  54.567  1.00  0.00    -0.195 NA
ATOM     10  N   UNL     1       2.914  44.689  54.281  1.00  0.00    -0.193 NA
ATOM     11  C   UNL     1       5.045  46.333  53.417  1.00  0.00     0.147 A 
ATOM     12  C   UNL     1       3.599  44.468  53.151  1.00  0.00     0.165 A 
ATOM     13  C   UNL     1       4.650  45.220  52.665  1.00  0.00     0.082 A 
ATOM     14  N   UNL     1       3.405  43.460  52.246  1.00  0.00    -0.250 N 
ATOM     15  C   UNL     1       5.017  44.574  51.466  1.00  0.00     0.149 A 
ATOM     16  N   UNL     1       4.268  43.496  51.204  1.00  0.00    -0.179 NA
ATOM     17  C   UNL     1       2.412  42.418  52.308  1.00  0.00     0.176 C 
BRANCH  11  18
ATOM     18  N   UNL     1       6.111  47.145  53.009  1.00  0.00    -0.338 N 
ATOM     19  H   UNL     1       5.842  47.921  52.413  1.00  0.00     0.168 HD
BRANCH  18  20
ATOM     20  C   UNL     1       7.502  47.093  53.234  1.00  0.00     0.058 A 
ATOM     21  C   UNL     1       8.099  47.474  54.441  1.00  0.00     0.027 A 
ATOM     22  C   UNL     1       8.355  46.620  52.212  1.00  0.00     0.064 A 
ATOM     23  C   UNL     1       9.485  47.391  54.625  1.00  0.00     0.002 A 
ATOM     24  C   UNL     1       9.739  46.533  52.391  1.00  0.00     0.023 A 
ATOM     25  C   UNL     1      10.305  46.920  53.602  1.00  0.00     0.002 A 
ATOM     26  Cl  UNL     1       7.702  46.127  50.683  1.00  0.00    -0.082 Cl
ENDBRANCH  18  20
ENDBRANCH  11  18
ENDBRANCH   6   8
ENDBRANCH   1   6
TORSDOF 7
ENDMDL
MODEL 15
REMARK VINA RESULT:    -7.226      2.008      5.520
REMARK INTER + INTRA:         -11.376
REMARK INTER:                 -10.056
REMARK INTRA:                  -1.320
REMARK UNBOUND:                -1.193
REMARK SMILES COCCCNc1nc(Nc2ccccc2Cl)c2cnn(C)c2n1
REMARK SMILES IDX 5 1 4 2 3 3 2 4 1 5 6 6 7 8 8 9 24 10 9 11 23 12 18 13 21 14
REMARK SMILES IDX 19 15 20 16 22 17 10 18 11 20 12 21 16 22 13 23 15 24 14 25
REMARK SMILES IDX 17 26
REMARK H PARENT 6 7 10 19
ROOT
ATOM      1  C   UNL     1       6.493  42.339  49.962  1.00  0.00     0.118 C 
ENDROOT
BRANCH   1   2
ATOM      2  C   UNL     1       5.494  41.379  49.322  1.00  0.00     0.050 C 
BRANCH   2   3
ATOM      3  C   UNL     1       4.231  41.206  50.163  1.00  0.00     0.161 C 
BRANCH   3   4
ATOM      4  O   UNL     1       4.298  42.011  51.343  1.00  0.00    -0.385 OA
ATOM      5  C   UNL     1       3.059  42.628  51.668  1.00  0.00     0.194 C 
ENDBRANCH   3   4
ENDBRANCH   2   3
ENDBRANCH   1   2
BRANCH   1   6
ATOM      6  N   UNL     1       6.318  43.679  49.428  1.00  0.00    -0.354 N 
ATOM      7  H   UNL     1       6.942  43.924  48.664  1.00  0.00     0.163 HD
BRANCH   6   8
ATOM      8  C   UNL     1       6.469  44.695  50.368  1.00  0.00     0.226 A 
ATOM      9  N   UNL     1       5.378  45.227  50.951  1.00  0.00    -0.195 NA
ATOM     10  N   UNL     1       7.735  45.052  50.609  1.00  0.00    -0.193 NA
ATOM     11  C   UNL     1       5.492  46.222  51.870  1.00  0.00     0.147 A 
ATOM     12  C   UNL     1       7.833  46.032  51.519  1.00  0.00     0.165 A 
ATOM     13  C   UNL     1       6.789  46.649  52.178  1.00  0.00     0.082 A 
ATOM     14  N   UNL     1       8.977  46.623  51.982  1.00  0.00    -0.250 N 
ATOM     15  C   UNL     1       7.417  47.593  53.018  1.00  0.00     0.149 A 
ATOM     16  N   UNL     1       8.750  47.581  52.911  1.00  0.00    -0.179 NA
ATOM     17  C   UNL     1      10.330  46.325  51.586  1.00  0.00     0.176 C 
BRANCH  11  18
ATOM     18  N   UNL     1       4.373  46.781  52.500  1.00  0.00    -0.338 N 
ATOM     19  H   UNL     1       4.404  47.791  52.588  1.00  0.00     0.168 HD
BRANCH  18  20
ATOM     20  C   UNL     1       3.210  46.224  53.070  1.00  0.00     0.058 A 
ATOM     21  C   UNL     1       1.982  46.160  52.401  1.00  0.00     0.027 A 
ATOM     22  C   UNL     1       3.264  45.681  54.372  1.00  0.00     0.064 A 
ATOM     23  C   UNL     1       0.856  45.583  53.001  1.00  0.00     0.002 A 
ATOM     24  C   UNL     1       2.143  45.102  54.975  1.00  0.00     0.023 A 
ATOM     25  C   UNL     1       0.935  45.053  54.286  1.00  0.00     0.002 A 
ATOM     26  Cl  UNL     1       4.744  45.717  55.277  1.00  0.00    -0.082 Cl
ENDBRANCH  18  20
ENDBRANCH  11  18
ENDBRANCH   6   8
ENDBRANCH   1   6
TORSDOF 7
ENDMDL
MODEL 16
REMARK VINA RESULT:    -7.155      2.867      6.487
REMARK INTER + INTRA:         -11.276
REMARK INTER:                 -10.779
REMARK INTRA:                  -0.497
REMARK UNBOUND:                -1.193
REMARK SMILES COCCCNc1nc(Nc2ccccc2Cl)c2cnn(C)c2n1
REMARK SMILES IDX 5 1 4 2 3 3 2 4 1 5 6 6 7 8 8 9 24 10 9 11 23 12 18 13 21 14
REMARK SMILES IDX 19 15 20 16 22 17 10 18 11 20 12 21 16 22 13 23 15 24 14 25
REMARK SMILES IDX 17 26
REMARK H PARENT 6 7 10 19
ROOT
ATOM      1  C   UNL     1       7.360  47.115  53.924  1.00  0.00     0.118 C 
ENDROOT
BRANCH   1   2
ATOM      2  C   UNL     1       8.663  47.608  54.549  1.00  0.00     0.050 C 
BRANCH   2   3
ATOM      3  C   UNL     1       9.893  47.145  53.771  1.00  0.00     0.161 C 
BRANCH   3   4
ATOM      4  O   UNL     1       9.636  47.161  52.365  1.00  0.00    -0.385 OA
ATOM      5  C   UNL     1      10.284  46.106  51.667  1.00  0.00     0.194 C 
ENDBRANCH   3   4
ENDBRANCH   2   3
ENDBRANCH   1   2
BRANCH   1   6
ATOM      6  N   UNL     1       6.396  46.787  54.960  1.00  0.00    -0.354 N 
ATOM      7  H   UNL     1       6.771  46.274  55.752  1.00  0.00     0.163 HD
BRANCH   6   8
ATOM      8  C   UNL     1       5.309  46.039  54.516  1.00  0.00     0.226 A 
ATOM      9  N   UNL     1       5.402  45.355  53.360  1.00  0.00    -0.195 NA
ATOM     10  N   UNL     1       4.240  46.073  55.319  1.00  0.00    -0.193 NA
ATOM     11  C   UNL     1       4.358  44.618  52.898  1.00  0.00     0.147 A 
ATOM     12  C   UNL     1       3.219  45.341  54.854  1.00  0.00     0.165 A 
ATOM     13  C   UNL     1       3.201  44.603  53.687  1.00  0.00     0.082 A 
ATOM     14  N   UNL     1       1.989  45.170  55.429  1.00  0.00    -0.250 N 
ATOM     15  C   UNL     1       1.914  44.024  53.660  1.00  0.00     0.149 A 
ATOM     16  N   UNL     1       1.169  44.359  54.720  1.00  0.00    -0.179 NA
ATOM     17  C   UNL     1       1.520  45.750  56.661  1.00  0.00     0.176 C 
BRANCH  11  18
ATOM     18  N   UNL     1       4.435  43.888  51.706  1.00  0.00    -0.338 N 
ATOM     19  H   UNL     1       3.573  43.420  51.445  1.00  0.00     0.168 HD
BRANCH  18  20
ATOM     20  C   UNL     1       5.483  43.640  50.795  1.00  0.00     0.058 A 
ATOM     21  C   UNL     1       6.481  44.576  50.501  1.00  0.00     0.027 A 
ATOM     22  C   UNL     1       5.559  42.389  50.145  1.00  0.00     0.064 A 
ATOM     23  C   UNL     1       7.512  44.281  49.600  1.00  0.00     0.002 A 
ATOM     24  C   UNL     1       6.587  42.088  49.246  1.00  0.00     0.023 A 
ATOM     25  C   UNL     1       7.566  43.039  48.973  1.00  0.00     0.002 A 
ATOM     26  Cl  UNL     1       4.363  41.169  50.447  1.00  0.00    -0.082 Cl
ENDBRANCH  18  20
ENDBRANCH  11  18
ENDBRANCH   6   8
ENDBRANCH   1   6
TORSDOF 7
ENDMDL
MODEL 17
REMARK VINA RESULT:    -7.135      2.080      5.905
REMARK INTER + INTRA:         -11.248
REMARK INTER:                 -10.177
REMARK INTRA:                  -1.071
REMARK UNBOUND:                -1.193
REMARK SMILES COCCCNc1nc(Nc2ccccc2Cl)c2cnn(C)c2n1
REMARK SMILES IDX 5 1 4 2 3 3 2 4 1 5 6 6 7 8 8 9 24 10 9 11 23 12 18 13 21 14
REMARK SMILES IDX 19 15 20 16 22 17 10 18 11 20 12 21 16 22 13 23 15 24 14 25
REMARK SMILES IDX 17 26
REMARK H PARENT 6 7 10 19
ROOT
ATOM      1  C   UNL     1       8.882  45.807  51.416  1.00  0.00     0.118 C 
ENDROOT
BRANCH   1   2
ATOM      2  C   UNL     1       9.899  46.808  51.957  1.00  0.00     0.050 C 
BRANCH   2   3
ATOM      3  C   UNL     1       9.662  47.141  53.430  1.00  0.00     0.161 C 
BRANCH   3   4
ATOM      4  O   UNL     1       8.410  47.809  53.600  1.00  0.00    -0.385 OA
ATOM      5  C   UNL     1       7.546  47.148  54.515  1.00  0.00     0.194 C 
ENDBRANCH   3   4
ENDBRANCH   2   3
ENDBRANCH   1   2
BRANCH   1   6
ATOM      6  N   UNL     1       7.662  46.490  51.021  1.00  0.00    -0.354 N 
ATOM      7  H   UNL     1       7.483  47.367  51.501  1.00  0.00     0.163 HD
BRANCH   6   8
ATOM      8  C   UNL     1       6.503  45.736  51.186  1.00  0.00     0.226 A 
ATOM      9  N   UNL     1       5.418  46.300  51.746  1.00  0.00    -0.195 NA
ATOM     10  N   UNL     1       6.590  44.474  50.749  1.00  0.00    -0.193 NA
ATOM     11  C   UNL     1       4.273  45.590  51.924  1.00  0.00     0.147 A 
ATOM     12  C   UNL     1       5.454  43.785  50.928  1.00  0.00     0.165 A 
ATOM     13  C   UNL     1       4.285  44.259  51.489  1.00  0.00     0.082 A 
ATOM     14  N   UNL     1       5.213  42.479  50.597  1.00  0.00    -0.250 N 
ATOM     15  C   UNL     1       3.404  43.158  51.442  1.00  0.00     0.149 A 
ATOM     16  N   UNL     1       3.959  42.069  50.895  1.00  0.00    -0.179 NA
ATOM     17  C   UNL     1       6.136  41.555  49.990  1.00  0.00     0.176 C 
BRANCH  11  18
ATOM     18  N   UNL     1       3.127  46.160  52.492  1.00  0.00    -0.338 N 
ATOM     19  H   UNL     1       2.966  47.126  52.230  1.00  0.00     0.168 HD
BRANCH  18  20
ATOM     20  C   UNL     1       2.151  45.671  53.386  1.00  0.00     0.058 A 
ATOM     21  C   UNL     1       0.866  45.289  52.986  1.00  0.00     0.027 A 
ATOM     22  C   UNL     1       2.468  45.537  54.756  1.00  0.00     0.064 A 
ATOM     23  C   UNL     1      -0.066  44.796  53.908  1.00  0.00     0.002 A 
ATOM     24  C   UNL     1       1.542  45.043  55.680  1.00  0.00     0.023 A 
ATOM     25  C   UNL     1       0.271  44.671  55.253  1.00  0.00     0.002 A 
ATOM     26  Cl  UNL     1       4.037  45.989  55.342  1.00  0.00    -0.082 Cl
ENDBRANCH  18  20
ENDBRANCH  11  18
ENDBRANCH   6   8
ENDBRANCH   1   6
TORSDOF 7
ENDMDL
MODEL 18
REMARK VINA RESULT:    -7.095      2.593      6.315
REMARK INTER + INTRA:         -11.191
REMARK INTER:                 -10.573
REMARK INTRA:                  -0.618
REMARK UNBOUND:                -1.193
REMARK SMILES COCCCNc1nc(Nc2ccccc2Cl)c2cnn(C)c2n1
REMARK SMILES IDX 5 1 4 2 3 3 2 4 1 5 6 6 7 8 8 9 24 10 9 11 23 12 18 13 21 14
REMARK SMILES IDX 19 15 20 16 22 17 10 18 11 20 12 21 16 22 13 23 15 24 14 25
REMARK SMILES IDX 17 26
REMARK H PARENT 6 7 10 19
ROOT
ATOM      1  C   UNL     1       7.432  47.165  53.862  1.00  0.00     0.118 C 
ENDROOT
BRANCH   1   2
ATOM      2  C   UNL     1       8.799  47.742  53.505  1.00  0.00     0.050 C 
BRANCH   2   3
ATOM      3  C   UNL     1       9.917  47.172  54.375  1.00  0.00     0.161 C 
BRANCH   3   4
ATOM      4  O   UNL     1       9.971  47.850  55.633  1.00  0.00    -0.385 OA
ATOM      5  C   UNL     1      11.138  47.540  56.384  1.00  0.00     0.194 C 
ENDBRANCH   3   4
ENDBRANCH   2   3
ENDBRANCH   1   2
BRANCH   1   6
ATOM      6  N   UNL     1       6.535  47.250  52.723  1.00  0.00    -0.354 N 
ATOM      7  H   UNL     1       5.673  47.761  52.889  1.00  0.00     0.163 HD
BRANCH   6   8
ATOM      8  C   UNL     1       6.140  46.017  52.210  1.00  0.00     0.226 A 
ATOM      9  N   UNL     1       5.079  45.384  52.744  1.00  0.00    -0.195 NA
ATOM     10  N   UNL     1       6.886  45.569  51.193  1.00  0.00    -0.193 NA
ATOM     11  C   UNL     1       4.672  44.179  52.268  1.00  0.00     0.147 A 
ATOM     12  C   UNL     1       6.471  44.381  50.731  1.00  0.00     0.165 A 
ATOM     13  C   UNL     1       5.402  43.644  51.200  1.00  0.00     0.082 A 
ATOM     14  N   UNL     1       7.015  43.652  49.709  1.00  0.00    -0.250 N 
ATOM     15  C   UNL     1       5.388  42.493  50.385  1.00  0.00     0.149 A 
ATOM     16  N   UNL     1       6.364  42.490  49.469  1.00  0.00    -0.179 NA
ATOM     17  C   UNL     1       8.161  44.002  48.908  1.00  0.00     0.176 C 
BRANCH  11  18
ATOM     18  N   UNL     1       3.563  43.508  52.799  1.00  0.00    -0.338 N 
ATOM     19  H   UNL     1       3.620  42.497  52.744  1.00  0.00     0.168 HD
BRANCH  18  20
ATOM     20  C   UNL     1       2.354  43.952  53.375  1.00  0.00     0.058 A 
ATOM     21  C   UNL     1       2.283  44.568  54.629  1.00  0.00     0.027 A 
ATOM     22  C   UNL     1       1.144  43.792  52.664  1.00  0.00     0.064 A 
ATOM     23  C   UNL     1       1.061  45.007  55.156  1.00  0.00     0.002 A 
ATOM     24  C   UNL     1      -0.078  44.230  53.184  1.00  0.00     0.023 A 
ATOM     25  C   UNL     1      -0.118  44.840  54.435  1.00  0.00     0.002 A 
ATOM     26  Cl  UNL     1       1.137  43.036  51.103  1.00  0.00    -0.082 Cl
ENDBRANCH  18  20
ENDBRANCH  11  18
ENDBRANCH   6   8
ENDBRANCH   1   6
TORSDOF 7
ENDMDL
MODEL 19
REMARK VINA RESULT:    -7.016      2.297      6.323
REMARK INTER + INTRA:         -11.080
REMARK INTER:                  -9.918
REMARK INTRA:                  -1.162
REMARK UNBOUND:                -1.193
REMARK SMILES COCCCNc1nc(Nc2ccccc2Cl)c2cnn(C)c2n1
REMARK SMILES IDX 5 1 4 2 3 3 2 4 1 5 6 6 7 8 8 9 24 10 9 11 23 12 18 13 21 14
REMARK SMILES IDX 19 15 20 16 22 17 10 18 11 20 12 21 16 22 13 23 15 24 14 25
REMARK SMILES IDX 17 26
REMARK H PARENT 6 7 10 19
ROOT
ATOM      1  C   UNL     1       6.646  46.747  53.947  1.00  0.00     0.118 C 
ENDROOT
BRANCH   1   2
ATOM      2  C   UNL     1       8.109  47.171  53.849  1.00  0.00     0.050 C 
BRANCH   2   3
ATOM      3  C   UNL     1       8.391  48.008  52.603  1.00  0.00     0.161 C 
BRANCH   3   4
ATOM      4  O   UNL     1       8.980  47.203  51.578  1.00  0.00    -0.385 OA
ATOM      5  C   UNL     1      10.019  46.361  52.058  1.00  0.00     0.194 C 
ENDBRANCH   3   4
ENDBRANCH   2   3
ENDBRANCH   1   2
BRANCH   1   6
ATOM      6  N   UNL     1       6.031  46.746  52.632  1.00  0.00    -0.354 N 
ATOM      7  H   UNL     1       5.224  47.355  52.531  1.00  0.00     0.163 HD
BRANCH   6   8
ATOM      8  C   UNL     1       5.604  45.492  52.200  1.00  0.00     0.226 A 
ATOM      9  N   UNL     1       4.579  44.887  52.828  1.00  0.00    -0.195 NA
ATOM     10  N   UNL     1       6.283  44.999  51.157  1.00  0.00    -0.193 NA
ATOM     11  C   UNL     1       4.142  43.663  52.432  1.00  0.00     0.147 A 
ATOM     12  C   UNL     1       5.840  43.793  50.776  1.00  0.00     0.165 A 
ATOM     13  C   UNL     1       4.802  43.080  51.344  1.00  0.00     0.082 A 
ATOM     14  N   UNL     1       6.316  43.018  49.754  1.00  0.00    -0.250 N 
ATOM     15  C   UNL     1       4.736  41.894  50.583  1.00  0.00     0.149 A 
ATOM     16  N   UNL     1       5.651  41.848  49.607  1.00  0.00    -0.179 NA
ATOM     17  C   UNL     1       7.408  43.328  48.867  1.00  0.00     0.176 C 
BRANCH  11  18
ATOM     18  N   UNL     1       3.069  43.020  53.061  1.00  0.00    -0.338 N 
ATOM     19  H   UNL     1       3.338  42.250  53.665  1.00  0.00     0.168 HD
BRANCH  18  20
ATOM     20  C   UNL     1       1.671  43.203  53.008  1.00  0.00     0.058 A 
ATOM     21  C   UNL     1       0.863  42.656  52.005  1.00  0.00     0.027 A 
ATOM     22  C   UNL     1       1.029  43.959  54.013  1.00  0.00     0.064 A 
ATOM     23  C   UNL     1      -0.524  42.851  52.000  1.00  0.00     0.002 A 
ATOM     24  C   UNL     1      -0.355  44.156  54.014  1.00  0.00     0.023 A 
ATOM     25  C   UNL     1      -1.133  43.599  53.003  1.00  0.00     0.002 A 
ATOM     26  Cl  UNL     1       1.952  44.677  55.295  1.00  0.00    -0.082 Cl
ENDBRANCH  18  20
ENDBRANCH  11  18
ENDBRANCH   6   8
ENDBRANCH   1   6
TORSDOF 7
ENDMDL
MODEL 20
REMARK VINA RESULT:    -7.013      2.854      6.010
REMARK INTER + INTRA:         -11.076
REMARK INTER:                  -9.918
REMARK INTRA:                  -1.158
REMARK UNBOUND:                -1.193
REMARK SMILES COCCCNc1nc(Nc2ccccc2Cl)c2cnn(C)c2n1
REMARK SMILES IDX 5 1 4 2 3 3 2 4 1 5 6 6 7 8 8 9 24 10 9 11 23 12 18 13 21 14
REMARK SMILES IDX 19 15 20 16 22 17 10 18 11 20 12 21 16 22 13 23 15 24 14 25
REMARK SMILES IDX 17 26
REMARK H PARENT 6 7 10 19
ROOT
ATOM      1  C   UNL     1       1.703  42.840  52.321  1.00  0.00     0.118 C 
ENDROOT
BRANCH   1   2
ATOM      2  C   UNL     1       0.765  42.872  53.524  1.00  0.00     0.050 C 
BRANCH   2   3
ATOM      3  C   UNL     1       0.784  44.221  54.241  1.00  0.00     0.161 C 
BRANCH   3   4
ATOM      4  O   UNL     1       1.924  44.987  53.844  1.00  0.00    -0.385 OA
ATOM      5  C   UNL     1       2.822  45.246  54.914  1.00  0.00     0.194 C 
ENDBRANCH   3   4
ENDBRANCH   2   3
ENDBRANCH   1   2
BRANCH   1   6
ATOM      6  N   UNL     1       2.993  42.292  52.701  1.00  0.00    -0.354 N 
ATOM      7  H   UNL     1       3.334  42.583  53.613  1.00  0.00     0.163 HD
BRANCH   6   8
ATOM      8  C   UNL     1       4.025  42.584  51.812  1.00  0.00     0.226 A 
ATOM      9  N   UNL     1       4.264  41.756  50.778  1.00  0.00    -0.195 NA
ATOM     10  N   UNL     1       4.699  43.706  52.086  1.00  0.00    -0.193 NA
ATOM     11  C   UNL     1       5.264  42.012  49.895  1.00  0.00     0.147 A 
ATOM     12  C   UNL     1       5.682  43.948  51.207  1.00  0.00     0.165 A 
ATOM     13  C   UNL     1       6.016  43.173  50.114  1.00  0.00     0.082 A 
ATOM     14  N   UNL     1       6.554  45.002  51.205  1.00  0.00    -0.250 N 
ATOM     15  C   UNL     1       7.099  43.855  49.522  1.00  0.00     0.149 A 
ATOM     16  N   UNL     1       7.432  44.974  50.176  1.00  0.00    -0.179 NA
ATOM     17  C   UNL     1       6.611  46.082  52.157  1.00  0.00     0.176 C 
BRANCH  11  18
ATOM     18  N   UNL     1       5.523  41.173  48.804  1.00  0.00    -0.338 N 
ATOM     19  H   UNL     1       6.207  40.447  48.987  1.00  0.00     0.168 HD
BRANCH  18  20
ATOM     20  C   UNL     1       5.046  41.145  47.477  1.00  0.00     0.058 A 
ATOM     21  C   UNL     1       5.620  41.888  46.439  1.00  0.00     0.027 A 
ATOM     22  C   UNL     1       3.946  40.323  47.150  1.00  0.00     0.064 A 
ATOM     23  C   UNL     1       5.122  41.818  45.132  1.00  0.00     0.002 A 
ATOM     24  C   UNL     1       3.445  40.248  45.847  1.00  0.00     0.023 A 
ATOM     25  C   UNL     1       4.037  40.998  44.835  1.00  0.00     0.002 A 
ATOM     26  Cl  UNL     1       3.170  39.369  48.374  1.00  0.00    -0.082 Cl
ENDBRANCH  18  20
ENDBRANCH  11  18
ENDBRANCH   6   8
ENDBRANCH   1   6
TORSDOF 7
ENDMDL
