MODEL 1
REMARK VINA RESULT:    -8.454      0.000      0.000
REMARK INTER + INTRA:         -13.112
REMARK INTER:                 -11.914
REMARK INTRA:                  -1.198
REMARK UNBOUND:                -1.198
REMARK SMILES COCCCNc1nc(Nc2ccccc2C)c2cnn(C)c2n1
REMARK SMILES IDX 5 1 4 2 3 3 2 4 1 5 6 6 7 8 8 9 24 10 9 11 23 12 18 13 21 14
REMARK SMILES IDX 19 15 20 16 22 17 10 18 11 20 12 21 16 22 13 23 15 24 14 25
REMARK SMILES IDX 17 26
REMARK H PARENT 6 7 10 19
ROOT
ATOM      1  C   UNL     1       4.033  45.635  55.355  1.00  0.00     0.118 C 
ENDROOT
BRANCH   1   2
ATOM      2  C   UNL     1       2.515  45.791  55.293  1.00  0.00     0.050 C 
BRANCH   2   3
ATOM      3  C   UNL     1       1.982  45.671  53.866  1.00  0.00     0.161 C 
BRANCH   3   4
ATOM      4  O   UNL     1       2.346  46.815  53.091  1.00  0.00    -0.385 OA
ATOM      5  C   UNL     1       2.649  46.495  51.739  1.00  0.00     0.194 C 
ENDBRANCH   3   4
ENDBRANCH   2   3
ENDBRANCH   1   2
BRANCH   1   6
ATOM      6  N   UNL     1       4.675  46.884  54.985  1.00  0.00    -0.354 N 
ATOM      7  H   UNL     1       4.955  47.472  55.766  1.00  0.00     0.163 HD
BRANCH   6   8
ATOM      8  C   UNL     1       5.841  46.728  54.239  1.00  0.00     0.226 A 
ATOM      9  N   UNL     1       5.656  46.157  53.036  1.00  0.00    -0.195 NA
ATOM     10  N   UNL     1       7.014  47.137  54.739  1.00  0.00    -0.193 NA
ATOM     11  C   UNL     1       6.703  45.931  52.200  1.00  0.00     0.147 A 
ATOM     12  C   UNL     1       8.037  46.912  53.903  1.00  0.00     0.165 A 
ATOM     13  C   UNL     1       7.966  46.334  52.651  1.00  0.00     0.082 A 
ATOM     14  N   UNL     1       9.358  47.205  54.111  1.00  0.00    -0.250 N 
ATOM     15  C   UNL     1       9.301  46.333  52.192  1.00  0.00     0.149 A 
ATOM     16  N   UNL     1      10.156  46.867  53.071  1.00  0.00    -0.179 NA
ATOM     17  C   UNL     1       9.937  47.813  55.282  1.00  0.00     0.176 C 
BRANCH  11  18
ATOM     18  N   UNL     1       6.528  45.361  50.930  1.00  0.00    -0.339 N 
ATOM     19  H   UNL     1       6.751  45.988  50.171  1.00  0.00     0.168 HD
BRANCH  18  20
ATOM     20  C   UNL     1       6.225  44.048  50.515  1.00  0.00     0.043 A 
ATOM     21  C   UNL     1       5.069  43.377  50.939  1.00  0.00     0.026 A 
ATOM     22  C   UNL     1       7.070  43.388  49.588  1.00  0.00    -0.028 A 
ATOM     23  C   UNL     1       4.765  42.087  50.496  1.00  0.00     0.002 A 
ATOM     24  C   UNL     1       6.755  42.088  49.153  1.00  0.00     0.005 A 
ATOM     25  C   UNL     1       5.610  41.441  49.604  1.00  0.00     0.000 A 
ATOM     26  C   UNL     1       8.314  44.041  49.047  1.00  0.00     0.046 C 
ENDBRANCH  18  20
ENDBRANCH  11  18
ENDBRANCH   6   8
ENDBRANCH   1   6
TORSDOF 7
ENDMDL
MODEL 2
REMARK VINA RESULT:    -8.164      2.042      5.431
REMARK INTER + INTRA:         -12.703
REMARK INTER:                 -11.527
REMARK INTRA:                  -1.176
REMARK UNBOUND:                -1.198
REMARK SMILES COCCCNc1nc(Nc2ccccc2C)c2cnn(C)c2n1
REMARK SMILES IDX 5 1 4 2 3 3 2 4 1 5 6 6 7 8 8 9 24 10 9 11 23 12 18 13 21 14
REMARK SMILES IDX 19 15 20 16 22 17 10 18 11 20 12 21 16 22 13 23 15 24 14 25
REMARK SMILES IDX 17 26
REMARK H PARENT 6 7 10 19
ROOT
ATOM      1  C   UNL     1       1.561  43.410  52.647  1.00  0.00     0.118 C 
ENDROOT
BRANCH   1   2
ATOM      2  C   UNL     1       0.628  43.580  53.844  1.00  0.00     0.050 C 
BRANCH   2   3
ATOM      3  C   UNL     1       0.888  44.883  54.597  1.00  0.00     0.161 C 
BRANCH   3   4
ATOM      4  O   UNL     1       1.959  44.723  55.531  1.00  0.00    -0.385 OA
ATOM      5  C   UNL     1       2.931  45.757  55.440  1.00  0.00     0.194 C 
ENDBRANCH   3   4
ENDBRANCH   2   3
ENDBRANCH   1   2
BRANCH   1   6
ATOM      6  N   UNL     1       2.876  42.991  53.101  1.00  0.00    -0.354 N 
ATOM      7  H   UNL     1       2.976  41.993  53.265  1.00  0.00     0.163 HD
BRANCH   6   8
ATOM      8  C   UNL     1       3.909  43.297  52.218  1.00  0.00     0.226 A 
ATOM      9  N   UNL     1       4.503  44.481  52.450  1.00  0.00    -0.195 NA
ATOM     10  N   UNL     1       4.234  42.438  51.244  1.00  0.00    -0.193 NA
ATOM     11  C   UNL     1       5.521  44.921  51.664  1.00  0.00     0.147 A 
ATOM     12  C   UNL     1       5.241  42.881  50.479  1.00  0.00     0.165 A 
ATOM     13  C   UNL     1       5.920  44.074  50.622  1.00  0.00     0.082 A 
ATOM     14  N   UNL     1       5.805  42.250  49.404  1.00  0.00    -0.250 N 
ATOM     15  C   UNL     1       6.877  44.057  49.585  1.00  0.00     0.149 A 
ATOM     16  N   UNL     1       6.820  42.948  48.840  1.00  0.00    -0.179 NA
ATOM     17  C   UNL     1       5.431  40.972  48.854  1.00  0.00     0.176 C 
BRANCH  11  18
ATOM     18  N   UNL     1       6.171  46.140  51.906  1.00  0.00    -0.339 N 
ATOM     19  H   UNL     1       5.579  46.947  51.774  1.00  0.00     0.168 HD
BRANCH  18  20
ATOM     20  C   UNL     1       7.448  46.447  52.419  1.00  0.00     0.043 A 
ATOM     21  C   UNL     1       8.594  46.471  51.610  1.00  0.00     0.026 A 
ATOM     22  C   UNL     1       7.593  46.810  53.781  1.00  0.00    -0.028 A 
ATOM     23  C   UNL     1       9.849  46.806  52.125  1.00  0.00     0.002 A 
ATOM     24  C   UNL     1       8.862  47.142  54.289  1.00  0.00     0.005 A 
ATOM     25  C   UNL     1       9.983  47.140  53.466  1.00  0.00     0.000 A 
ATOM     26  C   UNL     1       6.415  46.850  54.719  1.00  0.00     0.046 C 
ENDBRANCH  18  20
ENDBRANCH  11  18
ENDBRANCH   6   8
ENDBRANCH   1   6
TORSDOF 7
ENDMDL
MODEL 3
REMARK VINA RESULT:    -8.163      1.808      5.170
REMARK INTER + INTRA:         -12.701
REMARK INTER:                 -11.504
REMARK INTRA:                  -1.197
REMARK UNBOUND:                -1.198
REMARK SMILES COCCCNc1nc(Nc2ccccc2C)c2cnn(C)c2n1
REMARK SMILES IDX 5 1 4 2 3 3 2 4 1 5 6 6 7 8 8 9 24 10 9 11 23 12 18 13 21 14
REMARK SMILES IDX 19 15 20 16 22 17 10 18 11 20 12 21 16 22 13 23 15 24 14 25
REMARK SMILES IDX 17 26
REMARK H PARENT 6 7 10 19
ROOT
ATOM      1  C   UNL     1       2.348  43.540  52.618  1.00  0.00     0.118 C 
ENDROOT
BRANCH   1   2
ATOM      2  C   UNL     1       1.310  44.286  53.454  1.00  0.00     0.050 C 
BRANCH   2   3
ATOM      3  C   UNL     1       1.651  45.766  53.610  1.00  0.00     0.161 C 
BRANCH   3   4
ATOM      4  O   UNL     1       1.953  46.353  52.342  1.00  0.00    -0.385 OA
ATOM      5  C   UNL     1       2.990  47.323  52.414  1.00  0.00     0.194 C 
ENDBRANCH   3   4
ENDBRANCH   2   3
ENDBRANCH   1   2
BRANCH   1   6
ATOM      6  N   UNL     1       3.680  43.800  53.138  1.00  0.00    -0.354 N 
ATOM      7  H   UNL     1       4.035  43.098  53.782  1.00  0.00     0.163 HD
BRANCH   6   8
ATOM      8  C   UNL     1       4.666  43.896  52.159  1.00  0.00     0.226 A 
ATOM      9  N   UNL     1       5.459  44.975  52.277  1.00  0.00    -0.195 NA
ATOM     10  N   UNL     1       4.761  42.956  51.210  1.00  0.00    -0.193 NA
ATOM     11  C   UNL     1       6.462  45.208  51.388  1.00  0.00     0.147 A 
ATOM     12  C   UNL     1       5.754  43.195  50.343  1.00  0.00     0.165 A 
ATOM     13  C   UNL     1       6.626  44.266  50.365  1.00  0.00     0.082 A 
ATOM     14  N   UNL     1       6.112  42.436  49.262  1.00  0.00    -0.250 N 
ATOM     15  C   UNL     1       7.472  44.049  49.256  1.00  0.00     0.149 A 
ATOM     16  N   UNL     1       7.171  42.935  48.581  1.00  0.00    -0.179 NA
ATOM     17  C   UNL     1       5.491  41.216  48.815  1.00  0.00     0.176 C 
BRANCH  11  18
ATOM     18  N   UNL     1       7.318  46.313  51.509  1.00  0.00    -0.339 N 
ATOM     19  H   UNL     1       7.252  46.962  50.739  1.00  0.00     0.168 HD
BRANCH  18  20
ATOM     20  C   UNL     1       8.153  46.753  52.556  1.00  0.00     0.043 A 
ATOM     21  C   UNL     1       7.652  47.414  53.687  1.00  0.00     0.026 A 
ATOM     22  C   UNL     1       9.541  46.471  52.517  1.00  0.00    -0.028 A 
ATOM     23  C   UNL     1       8.487  47.818  54.732  1.00  0.00     0.002 A 
ATOM     24  C   UNL     1      10.373  46.886  53.572  1.00  0.00     0.005 A 
ATOM     25  C   UNL     1       9.849  47.556  54.673  1.00  0.00     0.000 A 
ATOM     26  C   UNL     1      10.167  45.734  51.362  1.00  0.00     0.046 C 
ENDBRANCH  18  20
ENDBRANCH  11  18
ENDBRANCH   6   8
ENDBRANCH   1   6
TORSDOF 7
ENDMDL
MODEL 4
REMARK VINA RESULT:    -7.978      2.126      5.389
REMARK INTER + INTRA:         -12.440
REMARK INTER:                 -11.261
REMARK INTRA:                  -1.179
REMARK UNBOUND:                -1.198
REMARK SMILES COCCCNc1nc(Nc2ccccc2C)c2cnn(C)c2n1
REMARK SMILES IDX 5 1 4 2 3 3 2 4 1 5 6 6 7 8 8 9 24 10 9 11 23 12 18 13 21 14
REMARK SMILES IDX 19 15 20 16 22 17 10 18 11 20 12 21 16 22 13 23 15 24 14 25
REMARK SMILES IDX 17 26
REMARK H PARENT 6 7 10 19
ROOT
ATOM      1  C   UNL     1       2.361  44.332  53.751  1.00  0.00     0.118 C 
ENDROOT
BRANCH   1   2
ATOM      2  C   UNL     1       0.837  44.332  53.832  1.00  0.00     0.050 C 
BRANCH   2   3
ATOM      3  C   UNL     1       0.198  45.091  52.671  1.00  0.00     0.161 C 
BRANCH   3   4
ATOM      4  O   UNL     1       0.633  44.558  51.418  1.00  0.00    -0.385 OA
ATOM      5  C   UNL     1      -0.145  43.448  50.988  1.00  0.00     0.194 C 
ENDBRANCH   3   4
ENDBRANCH   2   3
ENDBRANCH   1   2
BRANCH   1   6
ATOM      6  N   UNL     1       2.816  43.191  52.975  1.00  0.00    -0.354 N 
ATOM      7  H   UNL     1       2.119  42.790  52.352  1.00  0.00     0.163 HD
BRANCH   6   8
ATOM      8  C   UNL     1       3.901  43.461  52.144  1.00  0.00     0.226 A 
ATOM      9  N   UNL     1       4.510  44.633  52.393  1.00  0.00    -0.195 NA
ATOM     10  N   UNL     1       4.254  42.581  51.199  1.00  0.00    -0.193 NA
ATOM     11  C   UNL     1       5.579  45.038  51.657  1.00  0.00     0.147 A 
ATOM     12  C   UNL     1       5.311  42.990  50.483  1.00  0.00     0.165 A 
ATOM     13  C   UNL     1       6.011  44.168  50.648  1.00  0.00     0.082 A 
ATOM     14  N   UNL     1       5.915  42.331  49.447  1.00  0.00    -0.250 N 
ATOM     15  C   UNL     1       7.021  44.115  49.662  1.00  0.00     0.149 A 
ATOM     16  N   UNL     1       6.975  42.998  48.929  1.00  0.00    -0.179 NA
ATOM     17  C   UNL     1       5.539  41.056  48.892  1.00  0.00     0.176 C 
BRANCH  11  18
ATOM     18  N   UNL     1       6.245  46.244  51.919  1.00  0.00    -0.339 N 
ATOM     19  H   UNL     1       5.688  47.063  51.727  1.00  0.00     0.168 HD
BRANCH  18  20
ATOM     20  C   UNL     1       7.491  46.528  52.516  1.00  0.00     0.043 A 
ATOM     21  C   UNL     1       8.683  46.568  51.778  1.00  0.00     0.026 A 
ATOM     22  C   UNL     1       7.555  46.850  53.894  1.00  0.00    -0.028 A 
ATOM     23  C   UNL     1       9.906  46.880  52.377  1.00  0.00     0.002 A 
ATOM     24  C   UNL     1       8.793  47.159  54.487  1.00  0.00     0.005 A 
ATOM     25  C   UNL     1       9.962  47.174  53.733  1.00  0.00     0.000 A 
ATOM     26  C   UNL     1       6.324  46.870  54.762  1.00  0.00     0.046 C 
ENDBRANCH  18  20
ENDBRANCH  11  18
ENDBRANCH   6   8
ENDBRANCH   1   6
TORSDOF 7
ENDMDL
MODEL 5
REMARK VINA RESULT:    -7.953      2.124      5.177
REMARK INTER + INTRA:         -12.405
REMARK INTER:                 -11.258
REMARK INTRA:                  -1.147
REMARK UNBOUND:                -1.198
REMARK SMILES COCCCNc1nc(Nc2ccccc2C)c2cnn(C)c2n1
REMARK SMILES IDX 5 1 4 2 3 3 2 4 1 5 6 6 7 8 8 9 24 10 9 11 23 12 18 13 21 14
REMARK SMILES IDX 19 15 20 16 22 17 10 18 11 20 12 21 16 22 13 23 15 24 14 25
REMARK SMILES IDX 17 26
REMARK H PARENT 6 7 10 19
ROOT
ATOM      1  C   UNL     1       1.887  45.414  54.170  1.00  0.00     0.118 C 
ENDROOT
BRANCH   1   2
ATOM      2  C   UNL     1       0.700  44.972  55.022  1.00  0.00     0.050 C 
BRANCH   2   3
ATOM      3  C   UNL     1      -0.200  43.981  54.286  1.00  0.00     0.161 C 
BRANCH   3   4
ATOM      4  O   UNL     1       0.555  42.862  53.817  1.00  0.00    -0.385 OA
ATOM      5  C   UNL     1       0.198  42.466  52.499  1.00  0.00     0.194 C 
ENDBRANCH   3   4
ENDBRANCH   2   3
ENDBRANCH   1   2
BRANCH   1   6
ATOM      6  N   UNL     1       3.027  44.549  54.421  1.00  0.00    -0.354 N 
ATOM      7  H   UNL     1       2.792  43.596  54.688  1.00  0.00     0.163 HD
BRANCH   6   8
ATOM      8  C   UNL     1       3.881  44.397  53.331  1.00  0.00     0.226 A 
ATOM      9  N   UNL     1       4.773  45.393  53.185  1.00  0.00    -0.195 NA
ATOM     10  N   UNL     1       3.769  43.325  52.537  1.00  0.00    -0.193 NA
ATOM     11  C   UNL     1       5.666  45.389  52.161  1.00  0.00     0.147 A 
ATOM     12  C   UNL     1       4.657  43.332  51.534  1.00  0.00     0.165 A 
ATOM     13  C   UNL     1       5.614  44.296  51.286  1.00  0.00     0.082 A 
ATOM     14  N   UNL     1       4.805  42.391  50.551  1.00  0.00    -0.250 N 
ATOM     15  C   UNL     1       6.285  43.834  50.134  1.00  0.00     0.149 A 
ATOM     16  N   UNL     1       5.804  42.671  49.681  1.00  0.00    -0.179 NA
ATOM     17  C   UNL     1       4.027  41.191  50.375  1.00  0.00     0.176 C 
BRANCH  11  18
ATOM     18  N   UNL     1       6.623  46.404  52.007  1.00  0.00    -0.339 N 
ATOM     19  H   UNL     1       6.376  47.088  51.308  1.00  0.00     0.168 HD
BRANCH  18  20
ATOM     20  C   UNL     1       7.793  46.719  52.728  1.00  0.00     0.043 A 
ATOM     21  C   UNL     1       7.753  47.324  53.992  1.00  0.00     0.026 A 
ATOM     22  C   UNL     1       9.060  46.363  52.204  1.00  0.00    -0.028 A 
ATOM     23  C   UNL     1       8.920  47.603  54.709  1.00  0.00     0.002 A 
ATOM     24  C   UNL     1      10.228  46.653  52.933  1.00  0.00     0.005 A 
ATOM     25  C   UNL     1      10.159  47.269  54.178  1.00  0.00     0.000 A 
ATOM     26  C   UNL     1       9.203  45.677  50.871  1.00  0.00     0.046 C 
ENDBRANCH  18  20
ENDBRANCH  11  18
ENDBRANCH   6   8
ENDBRANCH   1   6
TORSDOF 7
ENDMDL
MODEL 6
REMARK VINA RESULT:    -7.833      2.120      5.199
REMARK INTER + INTRA:         -12.237
REMARK INTER:                 -10.956
REMARK INTRA:                  -1.280
REMARK UNBOUND:                -1.198
REMARK SMILES COCCCNc1nc(Nc2ccccc2C)c2cnn(C)c2n1
REMARK SMILES IDX 5 1 4 2 3 3 2 4 1 5 6 6 7 8 8 9 24 10 9 11 23 12 18 13 21 14
REMARK SMILES IDX 19 15 20 16 22 17 10 18 11 20 12 21 16 22 13 23 15 24 14 25
REMARK SMILES IDX 17 26
REMARK H PARENT 6 7 10 19
ROOT
ATOM      1  C   UNL     1       2.952  46.500  53.212  1.00  0.00     0.118 C 
ENDROOT
BRANCH   1   2
ATOM      2  C   UNL     1       2.676  45.797  54.539  1.00  0.00     0.050 C 
BRANCH   2   3
ATOM      3  C   UNL     1       3.835  45.947  55.522  1.00  0.00     0.161 C 
BRANCH   3   4
ATOM      4  O   UNL     1       5.081  46.034  54.826  1.00  0.00    -0.385 OA
ATOM      5  C   UNL     1       5.765  44.789  54.757  1.00  0.00     0.194 C 
ENDBRANCH   3   4
ENDBRANCH   2   3
ENDBRANCH   1   2
BRANCH   1   6
ATOM      6  N   UNL     1       2.597  45.626  52.107  1.00  0.00    -0.354 N 
ATOM      7  H   UNL     1       2.138  46.087  51.325  1.00  0.00     0.163 HD
BRANCH   6   8
ATOM      8  C   UNL     1       3.679  44.968  51.528  1.00  0.00     0.226 A 
ATOM      9  N   UNL     1       4.781  45.725  51.396  1.00  0.00    -0.195 NA
ATOM     10  N   UNL     1       3.563  43.686  51.158  1.00  0.00    -0.193 NA
ATOM     11  C   UNL     1       5.915  45.223  50.839  1.00  0.00     0.147 A 
ATOM     12  C   UNL     1       4.687  43.202  50.614  1.00  0.00     0.165 A 
ATOM     13  C   UNL     1       5.873  43.885  50.428  1.00  0.00     0.082 A 
ATOM     14  N   UNL     1       4.898  41.939  50.131  1.00  0.00    -0.250 N 
ATOM     15  C   UNL     1       6.732  42.936  49.832  1.00  0.00     0.149 A 
ATOM     16  N   UNL     1       6.150  41.746  49.652  1.00  0.00    -0.179 NA
ATOM     17  C   UNL     1       3.950  40.855  50.095  1.00  0.00     0.176 C 
BRANCH  11  18
ATOM     18  N   UNL     1       7.084  45.989  50.718  1.00  0.00    -0.339 N 
ATOM     19  H   UNL     1       7.233  46.355  49.789  1.00  0.00     0.168 HD
BRANCH  18  20
ATOM     20  C   UNL     1       8.018  46.449  51.669  1.00  0.00     0.043 A 
ATOM     21  C   UNL     1       7.661  47.324  52.706  1.00  0.00     0.026 A 
ATOM     22  C   UNL     1       9.352  45.974  51.635  1.00  0.00    -0.028 A 
ATOM     23  C   UNL     1       8.590  47.748  53.660  1.00  0.00     0.002 A 
ATOM     24  C   UNL     1      10.279  46.411  52.598  1.00  0.00     0.005 A 
ATOM     25  C   UNL     1       9.900  47.292  53.605  1.00  0.00     0.000 A 
ATOM     26  C   UNL     1       9.821  45.003  50.582  1.00  0.00     0.046 C 
ENDBRANCH  18  20
ENDBRANCH  11  18
ENDBRANCH   6   8
ENDBRANCH   1   6
TORSDOF 7
ENDMDL
MODEL 7
REMARK VINA RESULT:    -7.783      1.971      5.284
REMARK INTER + INTRA:         -12.167
REMARK INTER:                 -11.109
REMARK INTRA:                  -1.058
REMARK UNBOUND:                -1.198
REMARK SMILES COCCCNc1nc(Nc2ccccc2C)c2cnn(C)c2n1
REMARK SMILES IDX 5 1 4 2 3 3 2 4 1 5 6 6 7 8 8 9 24 10 9 11 23 12 18 13 21 14
REMARK SMILES IDX 19 15 20 16 22 17 10 18 11 20 12 21 16 22 13 23 15 24 14 25
REMARK SMILES IDX 17 26
REMARK H PARENT 6 7 10 19
ROOT
ATOM      1  C   UNL     1       2.083  43.768  52.417  1.00  0.00     0.118 C 
ENDROOT
BRANCH   1   2
ATOM      2  C   UNL     1       1.217  43.061  53.457  1.00  0.00     0.050 C 
BRANCH   2   3
ATOM      3  C   UNL     1       0.276  44.026  54.176  1.00  0.00     0.161 C 
BRANCH   3   4
ATOM      4  O   UNL     1       0.984  45.186  54.621  1.00  0.00    -0.385 OA
ATOM      5  C   UNL     1       1.263  45.163  56.015  1.00  0.00     0.194 C 
ENDBRANCH   3   4
ENDBRANCH   2   3
ENDBRANCH   1   2
BRANCH   1   6
ATOM      6  N   UNL     1       3.357  44.142  53.006  1.00  0.00    -0.354 N 
ATOM      7  H   UNL     1       3.668  43.548  53.770  1.00  0.00     0.163 HD
BRANCH   6   8
ATOM      8  C   UNL     1       4.425  44.133  52.111  1.00  0.00     0.226 A 
ATOM      9  N   UNL     1       5.254  45.184  52.229  1.00  0.00    -0.195 NA
ATOM     10  N   UNL     1       4.555  43.129  51.234  1.00  0.00    -0.193 NA
ATOM     11  C   UNL     1       6.336  45.318  51.417  1.00  0.00     0.147 A 
ATOM     12  C   UNL     1       5.626  43.271  50.442  1.00  0.00     0.165 A 
ATOM     13  C   UNL     1       6.541  44.304  50.472  1.00  0.00     0.082 A 
ATOM     14  N   UNL     1       6.038  42.429  49.445  1.00  0.00    -0.250 N 
ATOM     15  C   UNL     1       7.465  43.981  49.455  1.00  0.00     0.149 A 
ATOM     16  N   UNL     1       7.171  42.838  48.827  1.00  0.00    -0.179 NA
ATOM     17  C   UNL     1       5.400  41.208  49.023  1.00  0.00     0.176 C 
BRANCH  11  18
ATOM     18  N   UNL     1       7.229  46.393  51.542  1.00  0.00    -0.339 N 
ATOM     19  H   UNL     1       7.169  47.058  50.785  1.00  0.00     0.168 HD
BRANCH  18  20
ATOM     20  C   UNL     1       8.098  46.786  52.580  1.00  0.00     0.043 A 
ATOM     21  C   UNL     1       7.636  47.418  53.744  1.00  0.00     0.026 A 
ATOM     22  C   UNL     1       9.480  46.484  52.495  1.00  0.00    -0.028 A 
ATOM     23  C   UNL     1       8.505  47.775  54.779  1.00  0.00     0.002 A 
ATOM     24  C   UNL     1      10.345  46.852  53.542  1.00  0.00     0.005 A 
ATOM     25  C   UNL     1       9.861  47.494  54.677  1.00  0.00     0.000 A 
ATOM     26  C   UNL     1      10.064  45.774  51.303  1.00  0.00     0.046 C 
ENDBRANCH  18  20
ENDBRANCH  11  18
ENDBRANCH   6   8
ENDBRANCH   1   6
TORSDOF 7
ENDMDL
MODEL 8
REMARK VINA RESULT:    -7.781      2.571      6.364
REMARK INTER + INTRA:         -12.164
REMARK INTER:                 -11.186
REMARK INTRA:                  -0.978
REMARK UNBOUND:                -1.198
REMARK SMILES COCCCNc1nc(Nc2ccccc2C)c2cnn(C)c2n1
REMARK SMILES IDX 5 1 4 2 3 3 2 4 1 5 6 6 7 8 8 9 24 10 9 11 23 12 18 13 21 14
REMARK SMILES IDX 19 15 20 16 22 17 10 18 11 20 12 21 16 22 13 23 15 24 14 25
REMARK SMILES IDX 17 26
REMARK H PARENT 6 7 10 19
ROOT
ATOM      1  C   UNL     1       3.913  41.318  50.248  1.00  0.00     0.118 C 
ENDROOT
BRANCH   1   2
ATOM      2  C   UNL     1       4.712  41.129  48.961  1.00  0.00     0.050 C 
BRANCH   2   3
ATOM      3  C   UNL     1       6.194  41.445  49.151  1.00  0.00     0.161 C 
BRANCH   3   4
ATOM      4  O   UNL     1       6.525  42.702  48.555  1.00  0.00    -0.385 OA
ATOM      5  C   UNL     1       7.651  43.324  49.162  1.00  0.00     0.194 C 
ENDBRANCH   3   4
ENDBRANCH   2   3
ENDBRANCH   1   2
BRANCH   1   6
ATOM      6  N   UNL     1       4.731  41.987  51.245  1.00  0.00    -0.354 N 
ATOM      7  H   UNL     1       5.716  42.072  51.006  1.00  0.00     0.163 HD
BRANCH   6   8
ATOM      8  C   UNL     1       4.335  43.292  51.527  1.00  0.00     0.226 A 
ATOM      9  N   UNL     1       5.326  44.198  51.457  1.00  0.00    -0.195 NA
ATOM     10  N   UNL     1       3.058  43.553  51.833  1.00  0.00    -0.193 NA
ATOM     11  C   UNL     1       5.093  45.512  51.716  1.00  0.00     0.147 A 
ATOM     12  C   UNL     1       2.841  44.851  52.082  1.00  0.00     0.165 A 
ATOM     13  C   UNL     1       3.778  45.865  52.042  1.00  0.00     0.082 A 
ATOM     14  N   UNL     1       1.656  45.443  52.426  1.00  0.00    -0.250 N 
ATOM     15  C   UNL     1       3.048  47.027  52.372  1.00  0.00     0.149 A 
ATOM     16  N   UNL     1       1.754  46.782  52.603  1.00  0.00    -0.179 NA
ATOM     17  C   UNL     1       0.382  44.795  52.604  1.00  0.00     0.176 C 
BRANCH  11  18
ATOM     18  N   UNL     1       6.108  46.477  51.622  1.00  0.00    -0.339 N 
ATOM     19  H   UNL     1       5.822  47.318  51.143  1.00  0.00     0.168 HD
BRANCH  18  20
ATOM     20  C   UNL     1       7.401  46.548  52.178  1.00  0.00     0.043 A 
ATOM     21  C   UNL     1       8.559  46.486  51.389  1.00  0.00     0.026 A 
ATOM     22  C   UNL     1       7.561  46.753  53.571  1.00  0.00    -0.028 A 
ATOM     23  C   UNL     1       9.835  46.587  51.949  1.00  0.00     0.002 A 
ATOM     24  C   UNL     1       8.850  46.850  54.124  1.00  0.00     0.005 A 
ATOM     25  C   UNL     1       9.981  46.768  53.318  1.00  0.00     0.000 A 
ATOM     26  C   UNL     1       6.377  46.870  54.495  1.00  0.00     0.046 C 
ENDBRANCH  18  20
ENDBRANCH  11  18
ENDBRANCH   6   8
ENDBRANCH   1   6
TORSDOF 7
ENDMDL
MODEL 9
REMARK VINA RESULT:    -7.737      3.111      6.744
REMARK INTER + INTRA:         -12.102
REMARK INTER:                 -11.291
REMARK INTRA:                  -0.811
REMARK UNBOUND:                -1.198
REMARK SMILES COCCCNc1nc(Nc2ccccc2C)c2cnn(C)c2n1
REMARK SMILES IDX 5 1 4 2 3 3 2 4 1 5 6 6 7 8 8 9 24 10 9 11 23 12 18 13 21 14
REMARK SMILES IDX 19 15 20 16 22 17 10 18 11 20 12 21 16 22 13 23 15 24 14 25
REMARK SMILES IDX 17 26
REMARK H PARENT 6 7 10 19
ROOT
ATOM      1  C   UNL     1       5.384  41.180  47.963  1.00  0.00     0.118 C 
ENDROOT
BRANCH   1   2
ATOM      2  C   UNL     1       5.730  41.942  46.686  1.00  0.00     0.050 C 
BRANCH   2   3
ATOM      3  C   UNL     1       4.971  41.407  45.472  1.00  0.00     0.161 C 
BRANCH   3   4
ATOM      4  O   UNL     1       3.747  40.788  45.873  1.00  0.00    -0.385 OA
ATOM      5  C   UNL     1       2.632  41.214  45.100  1.00  0.00     0.194 C 
ENDBRANCH   3   4
ENDBRANCH   2   3
ENDBRANCH   1   2
BRANCH   1   6
ATOM      6  N   UNL     1       6.331  41.518  49.012  1.00  0.00    -0.354 N 
ATOM      7  H   UNL     1       7.244  41.824  48.685  1.00  0.00     0.163 HD
BRANCH   6   8
ATOM      8  C   UNL     1       5.908  42.543  49.855  1.00  0.00     0.226 A 
ATOM      9  N   UNL     1       6.713  43.620  49.862  1.00  0.00    -0.195 NA
ATOM     10  N   UNL     1       4.784  42.403  50.568  1.00  0.00    -0.193 NA
ATOM     11  C   UNL     1       6.436  44.697  50.644  1.00  0.00     0.147 A 
ATOM     12  C   UNL     1       4.520  43.472  51.331  1.00  0.00     0.165 A 
ATOM     13  C   UNL     1       5.272  44.626  51.420  1.00  0.00     0.082 A 
ATOM     14  N   UNL     1       3.458  43.645  52.176  1.00  0.00    -0.250 N 
ATOM     15  C   UNL     1       4.568  45.430  52.342  1.00  0.00     0.149 A 
ATOM     16  N   UNL     1       3.459  44.845  52.805  1.00  0.00    -0.179 NA
ATOM     17  C   UNL     1       2.395  42.709  52.437  1.00  0.00     0.176 C 
BRANCH  11  18
ATOM     18  N   UNL     1       7.248  45.841  50.646  1.00  0.00    -0.339 N 
ATOM     19  H   UNL     1       7.107  46.438  49.845  1.00  0.00     0.168 HD
BRANCH  18  20
ATOM     20  C   UNL     1       8.127  46.376  51.609  1.00  0.00     0.043 A 
ATOM     21  C   UNL     1       7.697  47.271  52.600  1.00  0.00     0.026 A 
ATOM     22  C   UNL     1       9.481  45.960  51.637  1.00  0.00    -0.028 A 
ATOM     23  C   UNL     1       8.572  47.770  53.568  1.00  0.00     0.002 A 
ATOM     24  C   UNL     1      10.354  46.473  52.614  1.00  0.00     0.005 A 
ATOM     25  C   UNL     1       9.902  47.373  53.574  1.00  0.00     0.000 A 
ATOM     26  C   UNL     1      10.028  44.975  50.638  1.00  0.00     0.046 C 
ENDBRANCH  18  20
ENDBRANCH  11  18
ENDBRANCH   6   8
ENDBRANCH   1   6
TORSDOF 7
ENDMDL
MODEL 10
REMARK VINA RESULT:    -7.706      0.987      1.732
REMARK INTER + INTRA:         -12.057
REMARK INTER:                 -11.089
REMARK INTRA:                  -0.968
REMARK UNBOUND:                -1.198
REMARK SMILES COCCCNc1nc(Nc2ccccc2C)c2cnn(C)c2n1
REMARK SMILES IDX 5 1 4 2 3 3 2 4 1 5 6 6 7 8 8 9 24 10 9 11 23 12 18 13 21 14
REMARK SMILES IDX 19 15 20 16 22 17 10 18 11 20 12 21 16 22 13 23 15 24 14 25
REMARK SMILES IDX 17 26
REMARK H PARENT 6 7 10 19
ROOT
ATOM      1  C   UNL     1       3.561  45.573  55.520  1.00  0.00     0.118 C 
ENDROOT
BRANCH   1   2
ATOM      2  C   UNL     1       2.108  45.674  55.061  1.00  0.00     0.050 C 
BRANCH   2   3
ATOM      3  C   UNL     1       1.553  44.326  54.604  1.00  0.00     0.161 C 
BRANCH   3   4
ATOM      4  O   UNL     1       0.931  44.443  53.323  1.00  0.00    -0.385 OA
ATOM      5  C   UNL     1       1.196  45.689  52.691  1.00  0.00     0.194 C 
ENDBRANCH   3   4
ENDBRANCH   2   3
ENDBRANCH   1   2
BRANCH   1   6
ATOM      6  N   UNL     1       4.248  46.828  55.267  1.00  0.00    -0.354 N 
ATOM      7  H   UNL     1       4.648  47.271  56.090  1.00  0.00     0.163 HD
BRANCH   6   8
ATOM      8  C   UNL     1       5.316  46.727  54.379  1.00  0.00     0.226 A 
ATOM      9  N   UNL     1       5.010  46.137  53.211  1.00  0.00    -0.195 NA
ATOM     10  N   UNL     1       6.520  47.199  54.724  1.00  0.00    -0.193 NA
ATOM     11  C   UNL     1       5.952  45.958  52.248  1.00  0.00     0.147 A 
ATOM     12  C   UNL     1       7.439  47.021  53.766  1.00  0.00     0.165 A 
ATOM     13  C   UNL     1       7.239  46.429  52.534  1.00  0.00     0.082 A 
ATOM     14  N   UNL     1       8.758  47.383  53.803  1.00  0.00    -0.250 N 
ATOM     15  C   UNL     1       8.503  46.494  51.908  1.00  0.00     0.149 A 
ATOM     16  N   UNL     1       9.434  47.078  52.670  1.00  0.00    -0.179 NA
ATOM     17  C   UNL     1       9.449  48.029  54.889  1.00  0.00     0.176 C 
BRANCH  11  18
ATOM     18  N   UNL     1       5.647  45.369  51.011  1.00  0.00    -0.339 N 
ATOM     19  H   UNL     1       5.257  46.015  50.341  1.00  0.00     0.168 HD
BRANCH  18  20
ATOM     20  C   UNL     1       5.898  44.085  50.486  1.00  0.00     0.043 A 
ATOM     21  C   UNL     1       7.024  43.805  49.699  1.00  0.00     0.026 A 
ATOM     22  C   UNL     1       5.031  43.011  50.806  1.00  0.00    -0.028 A 
ATOM     23  C   UNL     1       7.276  42.520  49.210  1.00  0.00     0.002 A 
ATOM     24  C   UNL     1       5.293  41.723  50.305  1.00  0.00     0.005 A 
ATOM     25  C   UNL     1       6.409  41.479  49.512  1.00  0.00     0.000 A 
ATOM     26  C   UNL     1       3.816  43.205  51.676  1.00  0.00     0.046 C 
ENDBRANCH  18  20
ENDBRANCH  11  18
ENDBRANCH   6   8
ENDBRANCH   1   6
TORSDOF 7
ENDMDL
MODEL 11
REMARK VINA RESULT:    -7.686      2.767      6.268
REMARK INTER + INTRA:         -12.029
REMARK INTER:                 -11.195
REMARK INTRA:                  -0.834
REMARK UNBOUND:                -1.198
REMARK SMILES COCCCNc1nc(Nc2ccccc2C)c2cnn(C)c2n1
REMARK SMILES IDX 5 1 4 2 3 3 2 4 1 5 6 6 7 8 8 9 24 10 9 11 23 12 18 13 21 14
REMARK SMILES IDX 19 15 20 16 22 17 10 18 11 20 12 21 16 22 13 23 15 24 14 25
REMARK SMILES IDX 17 26
REMARK H PARENT 6 7 10 19
ROOT
ATOM      1  C   UNL     1       5.787  41.749  49.906  1.00  0.00     0.118 C 
ENDROOT
BRANCH   1   2
ATOM      2  C   UNL     1       5.229  41.183  48.602  1.00  0.00     0.050 C 
BRANCH   2   3
ATOM      3  C   UNL     1       3.836  40.581  48.785  1.00  0.00     0.161 C 
BRANCH   3   4
ATOM      4  O   UNL     1       3.194  40.398  47.521  1.00  0.00    -0.385 OA
ATOM      5  C   UNL     1       3.098  39.031  47.142  1.00  0.00     0.194 C 
ENDBRANCH   3   4
ENDBRANCH   2   3
ENDBRANCH   1   2
BRANCH   1   6
ATOM      6  N   UNL     1       4.703  41.992  50.843  1.00  0.00    -0.354 N 
ATOM      7  H   UNL     1       4.784  41.501  51.730  1.00  0.00     0.163 HD
BRANCH   6   8
ATOM      8  C   UNL     1       4.550  43.328  51.206  1.00  0.00     0.226 A 
ATOM      9  N   UNL     1       5.663  44.070  51.069  1.00  0.00    -0.195 NA
ATOM     10  N   UNL     1       3.365  43.771  51.644  1.00  0.00    -0.193 NA
ATOM     11  C   UNL     1       5.671  45.390  51.393  1.00  0.00     0.147 A 
ATOM     12  C   UNL     1       3.385  45.074  51.957  1.00  0.00     0.165 A 
ATOM     13  C   UNL     1       4.465  45.928  51.858  1.00  0.00     0.082 A 
ATOM     14  N   UNL     1       2.347  45.827  52.435  1.00  0.00    -0.250 N 
ATOM     15  C   UNL     1       3.965  47.173  52.297  1.00  0.00     0.149 A 
ATOM     16  N   UNL     1       2.675  47.124  52.645  1.00  0.00    -0.179 NA
ATOM     17  C   UNL     1       1.007  45.379  52.716  1.00  0.00     0.176 C 
BRANCH  11  18
ATOM     18  N   UNL     1       6.814  46.187  51.231  1.00  0.00    -0.339 N 
ATOM     19  H   UNL     1       6.852  46.665  50.343  1.00  0.00     0.168 HD
BRANCH  18  20
ATOM     20  C   UNL     1       7.851  46.546  52.117  1.00  0.00     0.043 A 
ATOM     21  C   UNL     1       7.613  47.276  53.290  1.00  0.00     0.026 A 
ATOM     22  C   UNL     1       9.175  46.109  51.867  1.00  0.00    -0.028 A 
ATOM     23  C   UNL     1       8.646  47.599  54.175  1.00  0.00     0.002 A 
ATOM     24  C   UNL     1      10.207  46.443  52.763  1.00  0.00     0.005 A 
ATOM     25  C   UNL     1       9.944  47.184  53.910  1.00  0.00     0.000 A 
ATOM     26  C   UNL     1       9.523  45.288  50.653  1.00  0.00     0.046 C 
ENDBRANCH  18  20
ENDBRANCH  11  18
ENDBRANCH   6   8
ENDBRANCH   1   6
TORSDOF 7
ENDMDL
MODEL 12
REMARK VINA RESULT:    -7.626      2.529      5.823
REMARK INTER + INTRA:         -11.945
REMARK INTER:                 -11.036
REMARK INTRA:                  -0.909
REMARK UNBOUND:                -1.198
REMARK SMILES COCCCNc1nc(Nc2ccccc2C)c2cnn(C)c2n1
REMARK SMILES IDX 5 1 4 2 3 3 2 4 1 5 6 6 7 8 8 9 24 10 9 11 23 12 18 13 21 14
REMARK SMILES IDX 19 15 20 16 22 17 10 18 11 20 12 21 16 22 13 23 15 24 14 25
REMARK SMILES IDX 17 26
REMARK H PARENT 6 7 10 19
ROOT
ATOM      1  C   UNL     1       4.247  41.567  51.047  1.00  0.00     0.118 C 
ENDROOT
BRANCH   1   2
ATOM      2  C   UNL     1       5.384  41.787  50.052  1.00  0.00     0.050 C 
BRANCH   2   3
ATOM      3  C   UNL     1       5.114  41.111  48.709  1.00  0.00     0.161 C 
BRANCH   3   4
ATOM      4  O   UNL     1       3.740  40.732  48.600  1.00  0.00    -0.385 OA
ATOM      5  C   UNL     1       3.507  39.785  47.566  1.00  0.00     0.194 C 
ENDBRANCH   3   4
ENDBRANCH   2   3
ENDBRANCH   1   2
BRANCH   1   6
ATOM      6  N   UNL     1       3.296  42.662  50.961  1.00  0.00    -0.354 N 
ATOM      7  H   UNL     1       2.331  42.410  51.160  1.00  0.00     0.163 HD
BRANCH   6   8
ATOM      8  C   UNL     1       3.559  43.717  51.832  1.00  0.00     0.226 A 
ATOM      9  N   UNL     1       4.532  44.546  51.417  1.00  0.00    -0.195 NA
ATOM     10  N   UNL     1       2.862  43.836  52.969  1.00  0.00    -0.193 NA
ATOM     11  C   UNL     1       4.908  45.617  52.166  1.00  0.00     0.147 A 
ATOM     12  C   UNL     1       3.239  44.896  53.696  1.00  0.00     0.165 A 
ATOM     13  C   UNL     1       4.222  45.810  53.372  1.00  0.00     0.082 A 
ATOM     14  N   UNL     1       2.734  45.295  54.904  1.00  0.00    -0.250 N 
ATOM     15  C   UNL     1       4.221  46.721  54.451  1.00  0.00     0.149 A 
ATOM     16  N   UNL     1       3.314  46.420  55.387  1.00  0.00    -0.179 NA
ATOM     17  C   UNL     1       1.690  44.654  55.662  1.00  0.00     0.176 C 
BRANCH  11  18
ATOM     18  N   UNL     1       5.902  46.509  51.739  1.00  0.00    -0.339 N 
ATOM     19  H   UNL     1       5.552  47.254  51.154  1.00  0.00     0.168 HD
BRANCH  18  20
ATOM     20  C   UNL     1       7.266  46.638  52.072  1.00  0.00     0.043 A 
ATOM     21  C   UNL     1       7.698  47.362  53.192  1.00  0.00     0.026 A 
ATOM     22  C   UNL     1       8.247  45.967  51.300  1.00  0.00    -0.028 A 
ATOM     23  C   UNL     1       9.051  47.456  53.528  1.00  0.00     0.002 A 
ATOM     24  C   UNL     1       9.606  46.071  51.646  1.00  0.00     0.005 A 
ATOM     25  C   UNL     1      10.006  46.812  52.754  1.00  0.00     0.000 A 
ATOM     26  C   UNL     1       7.878  45.134  50.101  1.00  0.00     0.046 C 
ENDBRANCH  18  20
ENDBRANCH  11  18
ENDBRANCH   6   8
ENDBRANCH   1   6
TORSDOF 7
ENDMDL
MODEL 13
REMARK VINA RESULT:    -7.606      2.827      5.732
REMARK INTER + INTRA:         -11.916
REMARK INTER:                 -11.493
REMARK INTRA:                  -0.423
REMARK UNBOUND:                -1.198
REMARK SMILES COCCCNc1nc(Nc2ccccc2C)c2cnn(C)c2n1
REMARK SMILES IDX 5 1 4 2 3 3 2 4 1 5 6 6 7 8 8 9 24 10 9 11 23 12 18 13 21 14
REMARK SMILES IDX 19 15 20 16 22 17 10 18 11 20 12 21 16 22 13 23 15 24 14 25
REMARK SMILES IDX 17 26
REMARK H PARENT 6 7 10 19
ROOT
ATOM      1  C   UNL     1       5.643  45.562  55.267  1.00  0.00     0.118 C 
ENDROOT
BRANCH   1   2
ATOM      2  C   UNL     1       6.076  46.810  54.501  1.00  0.00     0.050 C 
BRANCH   2   3
ATOM      3  C   UNL     1       7.546  46.752  54.090  1.00  0.00     0.161 C 
BRANCH   3   4
ATOM      4  O   UNL     1       8.335  47.619  54.908  1.00  0.00    -0.385 OA
ATOM      5  C   UNL     1       9.722  47.565  54.596  1.00  0.00     0.194 C 
ENDBRANCH   3   4
ENDBRANCH   2   3
ENDBRANCH   1   2
BRANCH   1   6
ATOM      6  N   UNL     1       4.211  45.602  55.508  1.00  0.00    -0.354 N 
ATOM      7  H   UNL     1       3.801  46.533  55.511  1.00  0.00     0.163 HD
BRANCH   6   8
ATOM      8  C   UNL     1       3.454  44.899  54.574  1.00  0.00     0.226 A 
ATOM      9  N   UNL     1       4.148  44.483  53.500  1.00  0.00    -0.195 NA
ATOM     10  N   UNL     1       2.149  44.690  54.790  1.00  0.00    -0.193 NA
ATOM     11  C   UNL     1       3.543  43.792  52.498  1.00  0.00     0.147 A 
ATOM     12  C   UNL     1       1.565  44.005  53.798  1.00  0.00     0.165 A 
ATOM     13  C   UNL     1       2.175  43.531  52.653  1.00  0.00     0.082 A 
ATOM     14  N   UNL     1       0.251  43.633  53.708  1.00  0.00    -0.250 N 
ATOM     15  C   UNL     1       1.138  42.884  51.948  1.00  0.00     0.149 A 
ATOM     16  N   UNL     1      -0.037  42.935  52.584  1.00  0.00    -0.179 NA
ATOM     17  C   UNL     1      -0.794  43.906  54.661  1.00  0.00     0.176 C 
BRANCH  11  18
ATOM     18  N   UNL     1       4.255  43.326  51.383  1.00  0.00    -0.339 N 
ATOM     19  H   UNL     1       3.760  42.624  50.852  1.00  0.00     0.168 HD
BRANCH  18  20
ATOM     20  C   UNL     1       5.467  43.739  50.794  1.00  0.00     0.043 A 
ATOM     21  C   UNL     1       5.998  45.021  50.994  1.00  0.00     0.026 A 
ATOM     22  C   UNL     1       6.223  42.823  50.021  1.00  0.00    -0.028 A 
ATOM     23  C   UNL     1       7.216  45.407  50.428  1.00  0.00     0.002 A 
ATOM     24  C   UNL     1       7.446  43.224  49.453  1.00  0.00     0.005 A 
ATOM     25  C   UNL     1       7.940  44.509  49.656  1.00  0.00     0.000 A 
ATOM     26  C   UNL     1       5.754  41.412  49.781  1.00  0.00     0.046 C 
ENDBRANCH  18  20
ENDBRANCH  11  18
ENDBRANCH   6   8
ENDBRANCH   1   6
TORSDOF 7
ENDMDL
MODEL 14
REMARK VINA RESULT:    -7.570      2.388      5.454
REMARK INTER + INTRA:         -11.866
REMARK INTER:                 -11.413
REMARK INTRA:                  -0.453
REMARK UNBOUND:                -1.198
REMARK SMILES COCCCNc1nc(Nc2ccccc2C)c2cnn(C)c2n1
REMARK SMILES IDX 5 1 4 2 3 3 2 4 1 5 6 6 7 8 8 9 24 10 9 11 23 12 18 13 21 14
REMARK SMILES IDX 19 15 20 16 22 17 10 18 11 20 12 21 16 22 13 23 15 24 14 25
REMARK SMILES IDX 17 26
REMARK H PARENT 6 7 10 19
ROOT
ATOM      1  C   UNL     1       7.270  46.488  54.588  1.00  0.00     0.118 C 
ENDROOT
BRANCH   1   2
ATOM      2  C   UNL     1       8.079  47.593  53.914  1.00  0.00     0.050 C 
BRANCH   2   3
ATOM      3  C   UNL     1       9.559  47.534  54.288  1.00  0.00     0.161 C 
BRANCH   3   4
ATOM      4  O   UNL     1       9.761  47.990  55.627  1.00  0.00    -0.385 OA
ATOM      5  C   UNL     1      11.001  47.562  56.177  1.00  0.00     0.194 C 
ENDBRANCH   3   4
ENDBRANCH   2   3
ENDBRANCH   1   2
BRANCH   1   6
ATOM      6  N   UNL     1       5.943  46.979  54.919  1.00  0.00    -0.354 N 
ATOM      7  H   UNL     1       5.714  47.892  54.533  1.00  0.00     0.163 HD
BRANCH   6   8
ATOM      8  C   UNL     1       4.905  46.156  54.489  1.00  0.00     0.226 A 
ATOM      9  N   UNL     1       5.146  45.522  53.328  1.00  0.00    -0.195 NA
ATOM     10  N   UNL     1       3.789  46.049  55.220  1.00  0.00    -0.193 NA
ATOM     11  C   UNL     1       4.222  44.692  52.777  1.00  0.00     0.147 A 
ATOM     12  C   UNL     1       2.887  45.225  54.669  1.00  0.00     0.165 A 
ATOM     13  C   UNL     1       3.026  44.526  53.486  1.00  0.00     0.082 A 
ATOM     14  N   UNL     1       1.649  44.905  55.157  1.00  0.00    -0.250 N 
ATOM     15  C   UNL     1       1.815  43.812  53.360  1.00  0.00     0.149 A 
ATOM     16  N   UNL     1       0.972  44.030  54.375  1.00  0.00    -0.179 NA
ATOM     17  C   UNL     1       1.042  45.392  56.368  1.00  0.00     0.176 C 
BRANCH  11  18
ATOM     18  N   UNL     1       4.465  44.001  51.581  1.00  0.00    -0.339 N 
ATOM     19  H   UNL     1       3.639  43.581  51.182  1.00  0.00     0.168 HD
BRANCH  18  20
ATOM     20  C   UNL     1       5.612  43.890  50.768  1.00  0.00     0.043 A 
ATOM     21  C   UNL     1       6.514  44.950  50.598  1.00  0.00     0.026 A 
ATOM     22  C   UNL     1       5.917  42.655  50.144  1.00  0.00    -0.028 A 
ATOM     23  C   UNL     1       7.663  44.816  49.814  1.00  0.00     0.002 A 
ATOM     24  C   UNL     1       7.074  42.534  49.353  1.00  0.00     0.005 A 
ATOM     25  C   UNL     1       7.942  43.608  49.189  1.00  0.00     0.000 A 
ATOM     26  C   UNL     1       5.028  41.448  50.297  1.00  0.00     0.046 C 
ENDBRANCH  18  20
ENDBRANCH  11  18
ENDBRANCH   6   8
ENDBRANCH   1   6
TORSDOF 7
ENDMDL
MODEL 15
REMARK VINA RESULT:    -7.564      2.760      6.479
REMARK INTER + INTRA:         -11.858
REMARK INTER:                 -11.088
REMARK INTRA:                  -0.770
REMARK UNBOUND:                -1.198
REMARK SMILES COCCCNc1nc(Nc2ccccc2C)c2cnn(C)c2n1
REMARK SMILES IDX 5 1 4 2 3 3 2 4 1 5 6 6 7 8 8 9 24 10 9 11 23 12 18 13 21 14
REMARK SMILES IDX 19 15 20 16 22 17 10 18 11 20 12 21 16 22 13 23 15 24 14 25
REMARK SMILES IDX 17 26
REMARK H PARENT 6 7 10 19
ROOT
ATOM      1  C   UNL     1       5.713  41.921  49.734  1.00  0.00     0.118 C 
ENDROOT
BRANCH   1   2
ATOM      2  C   UNL     1       5.198  41.181  48.502  1.00  0.00     0.050 C 
BRANCH   2   3
ATOM      3  C   UNL     1       3.859  40.493  48.760  1.00  0.00     0.161 C 
BRANCH   3   4
ATOM      4  O   UNL     1       3.117  40.357  47.546  1.00  0.00    -0.385 OA
ATOM      5  C   UNL     1       3.887  40.662  46.390  1.00  0.00     0.194 C 
ENDBRANCH   3   4
ENDBRANCH   2   3
ENDBRANCH   1   2
BRANCH   1   6
ATOM      6  N   UNL     1       4.817  41.696  50.856  1.00  0.00    -0.354 N 
ATOM      7  H   UNL     1       5.185  41.089  51.585  1.00  0.00     0.163 HD
BRANCH   6   8
ATOM      8  C   UNL     1       4.446  42.856  51.532  1.00  0.00     0.226 A 
ATOM      9  N   UNL     1       5.317  43.872  51.406  1.00  0.00    -0.195 NA
ATOM     10  N   UNL     1       3.303  42.888  52.229  1.00  0.00    -0.193 NA
ATOM     11  C   UNL     1       5.095  45.065  52.018  1.00  0.00     0.147 A 
ATOM     12  C   UNL     1       3.094  44.070  52.824  1.00  0.00     0.165 A 
ATOM     13  C   UNL     1       3.916  45.178  52.766  1.00  0.00     0.082 A 
ATOM     14  N   UNL     1       2.031  44.427  53.608  1.00  0.00    -0.250 N 
ATOM     15  C   UNL     1       3.249  46.147  53.545  1.00  0.00     0.149 A 
ATOM     16  N   UNL     1       2.097  45.703  54.058  1.00  0.00    -0.179 NA
ATOM     17  C   UNL     1       0.907  43.603  53.973  1.00  0.00     0.176 C 
BRANCH  11  18
ATOM     18  N   UNL     1       5.978  46.147  51.877  1.00  0.00    -0.339 N 
ATOM     19  H   UNL     1       5.535  46.988  51.539  1.00  0.00     0.168 HD
BRANCH  18  20
ATOM     20  C   UNL     1       7.330  46.318  52.237  1.00  0.00     0.043 A 
ATOM     21  C   UNL     1       8.374  46.191  51.309  1.00  0.00     0.026 A 
ATOM     22  C   UNL     1       7.665  46.694  53.561  1.00  0.00    -0.028 A 
ATOM     23  C   UNL     1       9.708  46.393  51.672  1.00  0.00     0.002 A 
ATOM     24  C   UNL     1       9.012  46.890  53.917  1.00  0.00     0.005 A 
ATOM     25  C   UNL     1      10.028  46.741  52.978  1.00  0.00     0.000 A 
ATOM     26  C   UNL     1       6.612  46.890  54.620  1.00  0.00     0.046 C 
ENDBRANCH  18  20
ENDBRANCH  11  18
ENDBRANCH   6   8
ENDBRANCH   1   6
TORSDOF 7
ENDMDL
MODEL 16
REMARK VINA RESULT:    -7.448      2.377      5.334
REMARK INTER + INTRA:         -11.693
REMARK INTER:                 -10.841
REMARK INTRA:                  -0.853
REMARK UNBOUND:                -1.198
REMARK SMILES COCCCNc1nc(Nc2ccccc2C)c2cnn(C)c2n1
REMARK SMILES IDX 5 1 4 2 3 3 2 4 1 5 6 6 7 8 8 9 24 10 9 11 23 12 18 13 21 14
REMARK SMILES IDX 19 15 20 16 22 17 10 18 11 20 12 21 16 22 13 23 15 24 14 25
REMARK SMILES IDX 17 26
REMARK H PARENT 6 7 10 19
ROOT
ATOM      1  C   UNL     1       1.616  44.787  55.981  1.00  0.00     0.118 C 
ENDROOT
BRANCH   1   2
ATOM      2  C   UNL     1       0.278  45.514  55.879  1.00  0.00     0.050 C 
BRANCH   2   3
ATOM      3  C   UNL     1      -0.111  46.193  57.191  1.00  0.00     0.161 C 
BRANCH   3   4
ATOM      4  O   UNL     1       0.978  46.168  58.116  1.00  0.00    -0.385 OA
ATOM      5  C   UNL     1       0.926  47.230  59.060  1.00  0.00     0.194 C 
ENDBRANCH   3   4
ENDBRANCH   2   3
ENDBRANCH   1   2
BRANCH   1   6
ATOM      6  N   UNL     1       2.704  45.714  55.722  1.00  0.00    -0.354 N 
ATOM      7  H   UNL     1       3.424  45.745  56.440  1.00  0.00     0.163 HD
BRANCH   6   8
ATOM      8  C   UNL     1       3.407  45.456  54.546  1.00  0.00     0.226 A 
ATOM      9  N   UNL     1       4.382  46.342  54.280  1.00  0.00    -0.195 NA
ATOM     10  N   UNL     1       3.085  44.397  53.793  1.00  0.00    -0.193 NA
ATOM     11  C   UNL     1       5.147  46.227  53.162  1.00  0.00     0.147 A 
ATOM     12  C   UNL     1       3.848  44.293  52.697  1.00  0.00     0.165 A 
ATOM     13  C   UNL     1       4.873  45.140  52.323  1.00  0.00     0.082 A 
ATOM     14  N   UNL     1       3.776  43.333  51.724  1.00  0.00    -0.250 N 
ATOM     15  C   UNL     1       5.352  44.593  51.113  1.00  0.00     0.149 A 
ATOM     16  N   UNL     1       4.695  43.489  50.742  1.00  0.00    -0.179 NA
ATOM     17  C   UNL     1       2.854  42.228  51.663  1.00  0.00     0.176 C 
BRANCH  11  18
ATOM     18  N   UNL     1       6.188  47.125  52.880  1.00  0.00    -0.339 N 
ATOM     19  H   UNL     1       5.880  47.969  52.421  1.00  0.00     0.168 HD
BRANCH  18  20
ATOM     20  C   UNL     1       7.554  47.129  53.226  1.00  0.00     0.043 A 
ATOM     21  C   UNL     1       8.000  47.472  54.511  1.00  0.00     0.026 A 
ATOM     22  C   UNL     1       8.523  46.714  52.280  1.00  0.00    -0.028 A 
ATOM     23  C   UNL     1       9.355  47.443  54.850  1.00  0.00     0.002 A 
ATOM     24  C   UNL     1       9.885  46.692  52.631  1.00  0.00     0.005 A 
ATOM     25  C   UNL     1      10.299  47.055  53.909  1.00  0.00     0.000 A 
ATOM     26  C   UNL     1       8.140  46.290  50.886  1.00  0.00     0.046 C 
ENDBRANCH  18  20
ENDBRANCH  11  18
ENDBRANCH   6   8
ENDBRANCH   1   6
TORSDOF 7
ENDMDL
MODEL 17
REMARK VINA RESULT:    -7.446      2.210      5.133
REMARK INTER + INTRA:         -11.691
REMARK INTER:                 -10.928
REMARK INTRA:                  -0.764
REMARK UNBOUND:                -1.198
REMARK SMILES COCCCNc1nc(Nc2ccccc2C)c2cnn(C)c2n1
REMARK SMILES IDX 5 1 4 2 3 3 2 4 1 5 6 6 7 8 8 9 24 10 9 11 23 12 18 13 21 14
REMARK SMILES IDX 19 15 20 16 22 17 10 18 11 20 12 21 16 22 13 23 15 24 14 25
REMARK SMILES IDX 17 26
REMARK H PARENT 6 7 10 19
ROOT
ATOM      1  C   UNL     1       7.335  46.552  54.106  1.00  0.00     0.118 C 
ENDROOT
BRANCH   1   2
ATOM      2  C   UNL     1       8.508  47.431  54.535  1.00  0.00     0.050 C 
BRANCH   2   3
ATOM      3  C   UNL     1       9.762  47.163  53.705  1.00  0.00     0.161 C 
BRANCH   3   4
ATOM      4  O   UNL     1       9.428  46.984  52.327  1.00  0.00    -0.385 OA
ATOM      5  C   UNL     1      10.218  45.986  51.692  1.00  0.00     0.194 C 
ENDBRANCH   3   4
ENDBRANCH   2   3
ENDBRANCH   1   2
BRANCH   1   6
ATOM      6  N   UNL     1       6.186  46.812  54.956  1.00  0.00    -0.354 N 
ATOM      7  H   UNL     1       5.927  47.792  55.042  1.00  0.00     0.163 HD
BRANCH   6   8
ATOM      8  C   UNL     1       5.014  46.185  54.540  1.00  0.00     0.226 A 
ATOM      9  N   UNL     1       5.063  45.693  53.290  1.00  0.00    -0.195 NA
ATOM     10  N   UNL     1       3.964  46.113  55.368  1.00  0.00    -0.193 NA
ATOM     11  C   UNL     1       3.991  45.062  52.742  1.00  0.00     0.147 A 
ATOM     12  C   UNL     1       2.915  45.486  54.817  1.00  0.00     0.165 A 
ATOM     13  C   UNL     1       2.853  44.944  53.549  1.00  0.00     0.082 A 
ATOM     14  N   UNL     1       1.695  45.250  55.391  1.00  0.00    -0.250 N 
ATOM     15  C   UNL     1       1.552  44.402  53.465  1.00  0.00     0.149 A 
ATOM     16  N   UNL     1       0.840  44.578  54.583  1.00  0.00    -0.179 NA
ATOM     17  C   UNL     1       1.269  45.636  56.712  1.00  0.00     0.176 C 
BRANCH  11  18
ATOM     18  N   UNL     1       4.032  44.517  51.450  1.00  0.00    -0.339 N 
ATOM     19  H   UNL     1       3.441  45.000  50.789  1.00  0.00     0.168 HD
BRANCH  18  20
ATOM     20  C   UNL     1       4.833  43.511  50.871  1.00  0.00     0.043 A 
ATOM     21  C   UNL     1       4.401  42.182  50.760  1.00  0.00     0.026 A 
ATOM     22  C   UNL     1       6.095  43.845  50.320  1.00  0.00    -0.028 A 
ATOM     23  C   UNL     1       5.192  41.201  50.156  1.00  0.00     0.002 A 
ATOM     24  C   UNL     1       6.885  42.848  49.718  1.00  0.00     0.005 A 
ATOM     25  C   UNL     1       6.436  41.534  49.637  1.00  0.00     0.000 A 
ATOM     26  C   UNL     1       6.629  45.252  50.358  1.00  0.00     0.046 C 
ENDBRANCH  18  20
ENDBRANCH  11  18
ENDBRANCH   6   8
ENDBRANCH   1   6
TORSDOF 7
ENDMDL
MODEL 18
REMARK VINA RESULT:    -7.264      1.904      5.053
REMARK INTER + INTRA:         -11.435
REMARK INTER:                 -10.102
REMARK INTRA:                  -1.333
REMARK UNBOUND:                -1.198
REMARK SMILES COCCCNc1nc(Nc2ccccc2C)c2cnn(C)c2n1
REMARK SMILES IDX 5 1 4 2 3 3 2 4 1 5 6 6 7 8 8 9 24 10 9 11 23 12 18 13 21 14
REMARK SMILES IDX 19 15 20 16 22 17 10 18 11 20 12 21 16 22 13 23 15 24 14 25
REMARK SMILES IDX 17 26
REMARK H PARENT 6 7 10 19
ROOT
ATOM      1  C   UNL     1       6.388  42.341  50.044  1.00  0.00     0.118 C 
ENDROOT
BRANCH   1   2
ATOM      2  C   UNL     1       5.342  41.387  49.470  1.00  0.00     0.050 C 
BRANCH   2   3
ATOM      3  C   UNL     1       4.149  41.208  50.407  1.00  0.00     0.161 C 
BRANCH   3   4
ATOM      4  O   UNL     1       4.267  42.064  51.546  1.00  0.00    -0.385 OA
ATOM      5  C   UNL     1       3.038  42.688  51.899  1.00  0.00     0.194 C 
ENDBRANCH   3   4
ENDBRANCH   2   3
ENDBRANCH   1   2
BRANCH   1   6
ATOM      6  N   UNL     1       6.178  43.679  49.519  1.00  0.00    -0.354 N 
ATOM      7  H   UNL     1       5.228  43.878  49.218  1.00  0.00     0.163 HD
BRANCH   6   8
ATOM      8  C   UNL     1       6.473  44.699  50.420  1.00  0.00     0.226 A 
ATOM      9  N   UNL     1       5.394  45.253  51.000  1.00  0.00    -0.195 NA
ATOM     10  N   UNL     1       7.746  45.048  50.643  1.00  0.00    -0.193 NA
ATOM     11  C   UNL     1       5.522  46.268  51.895  1.00  0.00     0.147 A 
ATOM     12  C   UNL     1       7.859  46.047  51.530  1.00  0.00     0.165 A 
ATOM     13  C   UNL     1       6.826  46.689  52.184  1.00  0.00     0.082 A 
ATOM     14  N   UNL     1       9.012  46.637  51.971  1.00  0.00    -0.250 N 
ATOM     15  C   UNL     1       7.471  47.643  53.000  1.00  0.00     0.149 A 
ATOM     16  N   UNL     1       8.802  47.616  52.882  1.00  0.00    -0.179 NA
ATOM     17  C   UNL     1      10.359  46.317  51.570  1.00  0.00     0.176 C 
BRANCH  11  18
ATOM     18  N   UNL     1       4.411  46.840  52.532  1.00  0.00    -0.339 N 
ATOM     19  H   UNL     1       4.396  47.849  52.490  1.00  0.00     0.168 HD
BRANCH  18  20
ATOM     20  C   UNL     1       3.253  46.275  53.105  1.00  0.00     0.043 A 
ATOM     21  C   UNL     1       2.033  46.210  52.417  1.00  0.00     0.026 A 
ATOM     22  C   UNL     1       3.318  45.690  54.394  1.00  0.00    -0.028 A 
ATOM     23  C   UNL     1       0.901  45.620  52.985  1.00  0.00     0.002 A 
ATOM     24  C   UNL     1       2.171  45.103  54.958  1.00  0.00     0.005 A 
ATOM     25  C   UNL     1       0.969  45.067  54.257  1.00  0.00     0.000 A 
ATOM     26  C   UNL     1       4.593  45.678  55.196  1.00  0.00     0.046 C 
ENDBRANCH  18  20
ENDBRANCH  11  18
ENDBRANCH   6   8
ENDBRANCH   1   6
TORSDOF 7
ENDMDL
MODEL 19
REMARK VINA RESULT:    -7.198      2.541      5.844
REMARK INTER + INTRA:         -11.341
REMARK INTER:                 -10.286
REMARK INTRA:                  -1.055
REMARK UNBOUND:                -1.198
REMARK SMILES COCCCNc1nc(Nc2ccccc2C)c2cnn(C)c2n1
REMARK SMILES IDX 5 1 4 2 3 3 2 4 1 5 6 6 7 8 8 9 24 10 9 11 23 12 18 13 21 14
REMARK SMILES IDX 19 15 20 16 22 17 10 18 11 20 12 21 16 22 13 23 15 24 14 25
REMARK SMILES IDX 17 26
REMARK H PARENT 6 7 10 19
ROOT
ATOM      1  C   UNL     1       7.885  47.926  52.356  1.00  0.00     0.118 C 
ENDROOT
BRANCH   1   2
ATOM      2  C   UNL     1       8.765  47.716  53.586  1.00  0.00     0.050 C 
BRANCH   2   3
ATOM      3  C   UNL     1       9.993  46.862  53.277  1.00  0.00     0.161 C 
BRANCH   3   4
ATOM      4  O   UNL     1      10.180  46.737  51.865  1.00  0.00    -0.385 OA
ATOM      5  C   UNL     1      10.523  45.415  51.467  1.00  0.00     0.194 C 
ENDBRANCH   3   4
ENDBRANCH   2   3
ENDBRANCH   1   2
BRANCH   1   6
ATOM      6  N   UNL     1       6.531  47.479  52.636  1.00  0.00    -0.354 N 
ATOM      7  H   UNL     1       5.796  48.072  52.258  1.00  0.00     0.163 HD
BRANCH   6   8
ATOM      8  C   UNL     1       6.234  46.211  52.141  1.00  0.00     0.226 A 
ATOM      9  N   UNL     1       5.247  45.578  52.799  1.00  0.00    -0.195 NA
ATOM     10  N   UNL     1       6.913  45.725  51.094  1.00  0.00    -0.193 NA
ATOM     11  C   UNL     1       4.853  44.328  52.437  1.00  0.00     0.147 A 
ATOM     12  C   UNL     1       6.512  44.495  50.746  1.00  0.00     0.165 A 
ATOM     13  C   UNL     1       5.515  43.752  51.346  1.00  0.00     0.082 A 
ATOM     14  N   UNL     1       7.001  43.721  49.728  1.00  0.00    -0.250 N 
ATOM     15  C   UNL     1       5.484  42.550  50.607  1.00  0.00     0.149 A 
ATOM     16  N   UNL     1       6.381  42.522  49.616  1.00  0.00    -0.179 NA
ATOM     17  C   UNL     1       8.063  44.058  48.815  1.00  0.00     0.176 C 
BRANCH  11  18
ATOM     18  N   UNL     1       3.807  43.662  53.093  1.00  0.00    -0.339 N 
ATOM     19  H   UNL     1       4.102  43.157  53.916  1.00  0.00     0.168 HD
BRANCH  18  20
ATOM     20  C   UNL     1       2.411  43.666  52.897  1.00  0.00     0.043 A 
ATOM     21  C   UNL     1       1.808  43.049  51.791  1.00  0.00     0.026 A 
ATOM     22  C   UNL     1       1.564  44.253  53.870  1.00  0.00    -0.028 A 
ATOM     23  C   UNL     1       0.421  43.035  51.625  1.00  0.00     0.002 A 
ATOM     24  C   UNL     1       0.169  44.236  53.689  1.00  0.00     0.005 A 
ATOM     25  C   UNL     1      -0.400  43.631  52.573  1.00  0.00     0.000 A 
ATOM     26  C   UNL     1       2.115  44.907  55.110  1.00  0.00     0.046 C 
ENDBRANCH  18  20
ENDBRANCH  11  18
ENDBRANCH   6   8
ENDBRANCH   1   6
TORSDOF 7
ENDMDL
MODEL 20
REMARK VINA RESULT:    -7.071      2.239      6.338
REMARK INTER + INTRA:         -11.163
REMARK INTER:                 -10.078
REMARK INTRA:                  -1.085
REMARK UNBOUND:                -1.198
REMARK SMILES COCCCNc1nc(Nc2ccccc2C)c2cnn(C)c2n1
REMARK SMILES IDX 5 1 4 2 3 3 2 4 1 5 6 6 7 8 8 9 24 10 9 11 23 12 18 13 21 14
REMARK SMILES IDX 19 15 20 16 22 17 10 18 11 20 12 21 16 22 13 23 15 24 14 25
REMARK SMILES IDX 17 26
REMARK H PARENT 6 7 10 19
ROOT
ATOM      1  C   UNL     1       9.001  45.790  51.195  1.00  0.00     0.118 C 
ENDROOT
BRANCH   1   2
ATOM      2  C   UNL     1       9.984  46.652  51.983  1.00  0.00     0.050 C 
BRANCH   2   3
ATOM      3  C   UNL     1       9.601  46.760  53.458  1.00  0.00     0.161 C 
BRANCH   3   4
ATOM      4  O   UNL     1       8.502  47.658  53.630  1.00  0.00    -0.385 OA
ATOM      5  C   UNL     1       7.536  47.178  54.556  1.00  0.00     0.194 C 
ENDBRANCH   3   4
ENDBRANCH   2   3
ENDBRANCH   1   2
BRANCH   1   6
ATOM      6  N   UNL     1       7.741  46.496  51.037  1.00  0.00    -0.354 N 
ATOM      7  H   UNL     1       7.623  46.971  50.146  1.00  0.00     0.163 HD
BRANCH   6   8
ATOM      8  C   UNL     1       6.614  45.684  51.142  1.00  0.00     0.226 A 
ATOM      9  N   UNL     1       5.557  46.277  51.723  1.00  0.00    -0.195 NA
ATOM     10  N   UNL     1       6.649  44.427  50.680  1.00  0.00    -0.193 NA
ATOM     11  C   UNL     1       4.388  45.607  51.904  1.00  0.00     0.147 A 
ATOM     12  C   UNL     1       5.490  43.779  50.861  1.00  0.00     0.165 A 
ATOM     13  C   UNL     1       4.345  44.285  51.444  1.00  0.00     0.082 A 
ATOM     14  N   UNL     1       5.198  42.489  50.509  1.00  0.00    -0.250 N 
ATOM     15  C   UNL     1       3.424  43.217  51.385  1.00  0.00     0.149 A 
ATOM     16  N   UNL     1       3.931  42.121  50.813  1.00  0.00    -0.179 NA
ATOM     17  C   UNL     1       6.079  41.543  49.874  1.00  0.00     0.176 C 
BRANCH  11  18
ATOM     18  N   UNL     1       3.265  46.217  52.483  1.00  0.00    -0.339 N 
ATOM     19  H   UNL     1       3.068  47.135  52.113  1.00  0.00     0.168 HD
BRANCH  18  20
ATOM     20  C   UNL     1       2.291  45.743  53.386  1.00  0.00     0.043 A 
ATOM     21  C   UNL     1       0.998  45.389  52.975  1.00  0.00     0.026 A 
ATOM     22  C   UNL     1       2.628  45.550  54.749  1.00  0.00    -0.028 A 
ATOM     23  C   UNL     1       0.052  44.892  53.876  1.00  0.00     0.002 A 
ATOM     24  C   UNL     1       1.666  45.053  55.647  1.00  0.00     0.005 A 
ATOM     25  C   UNL     1       0.386  44.726  55.213  1.00  0.00     0.000 A 
ATOM     26  C   UNL     1       4.002  45.865  55.278  1.00  0.00     0.046 C 
ENDBRANCH  18  20
ENDBRANCH  11  18
ENDBRANCH   6   8
ENDBRANCH   1   6
TORSDOF 7
ENDMDL
