MODEL 1
REMARK VINA RESULT:    -8.146      0.000      0.000
REMARK INTER + INTRA:         -11.760
REMARK INTER:                 -11.003
REMARK INTRA:                  -0.757
REMARK UNBOUND:                -0.757
REMARK SMILES COCCNc1nc(Nc2ccccc2)c2nccnc2n1
REMARK SMILES IDX 4 1 3 2 2 3 1 4 5 5 6 7 7 8 22 9 8 10 21 11 16 12 20 13
REMARK SMILES IDX 17 14 19 15 18 16 9 17 10 19 11 20 15 21 12 22 14 23 13 24
REMARK H PARENT 5 6 9 18
ROOT
ATOM      1  C   UNL     1       3.564  45.574  55.331  1.00  0.00     0.144 C 
ENDROOT
BRANCH   1   2
ATOM      2  C   UNL     1       2.113  45.674  54.846  1.00  0.00     0.181 C 
BRANCH   2   3
ATOM      3  O   UNL     1       2.009  45.074  53.548  1.00  0.00    -0.383 OA
ATOM      4  C   UNL     1       1.701  46.041  52.552  1.00  0.00     0.194 C 
ENDBRANCH   2   3
ENDBRANCH   1   2
BRANCH   1   5
ATOM      5  N   UNL     1       4.246  46.840  55.090  1.00  0.00    -0.352 N 
ATOM      6  H   UNL     1       3.654  47.527  54.628  1.00  0.00     0.163 HD
BRANCH   5   7
ATOM      7  C   UNL     1       5.412  46.737  54.350  1.00  0.00     0.226 A 
ATOM      8  N   UNL     1       5.271  46.295  53.104  1.00  0.00    -0.193 NA
ATOM      9  N   UNL     1       6.580  47.079  54.885  1.00  0.00    -0.191 NA
ATOM     10  C   UNL     1       6.381  46.217  52.342  1.00  0.00     0.164 A 
ATOM     11  C   UNL     1       7.671  46.967  54.139  1.00  0.00     0.185 A 
ATOM     12  C   UNL     1       7.661  46.524  52.809  1.00  0.00     0.150 A 
ATOM     13  N   UNL     1       8.828  47.299  54.726  1.00  0.00    -0.233 NA
ATOM     14  N   UNL     1       8.823  46.404  52.086  1.00  0.00    -0.247 NA
ATOM     15  C   UNL     1       9.965  47.183  54.006  1.00  0.00     0.133 A 
ATOM     16  C   UNL     1       9.965  46.741  52.706  1.00  0.00     0.132 A 
BRANCH  10  17
ATOM     17  N   UNL     1       6.138  45.735  51.036  1.00  0.00    -0.338 N 
ATOM     18  H   UNL     1       6.662  46.343  50.410  1.00  0.00     0.168 HD
BRANCH  17  19
ATOM     19  C   UNL     1       6.197  44.405  50.559  1.00  0.00     0.040 A 
ATOM     20  C   UNL     1       5.152  43.536  50.904  1.00  0.00     0.026 A 
ATOM     21  C   UNL     1       7.205  43.929  49.713  1.00  0.00     0.026 A 
ATOM     22  C   UNL     1       5.126  42.219  50.435  1.00  0.00     0.002 A 
ATOM     23  C   UNL     1       7.181  42.612  49.242  1.00  0.00     0.002 A 
ATOM     24  C   UNL     1       6.143  41.758  49.604  1.00  0.00     0.000 A 
ENDBRANCH  17  19
ENDBRANCH  10  17
ENDBRANCH   5   7
ENDBRANCH   1   5
TORSDOF 6
ENDMDL
MODEL 2
REMARK VINA RESULT:    -8.143      0.093      1.030
REMARK INTER + INTRA:         -11.756
REMARK INTER:                 -10.989
REMARK INTRA:                  -0.767
REMARK UNBOUND:                -0.757
REMARK SMILES COCCNc1nc(Nc2ccccc2)c2nccnc2n1
REMARK SMILES IDX 4 1 3 2 2 3 1 4 5 5 6 7 7 8 22 9 8 10 21 11 16 12 20 13
REMARK SMILES IDX 17 14 19 15 18 16 9 17 10 19 11 20 15 21 12 22 14 23 13 24
REMARK H PARENT 5 6 9 18
ROOT
ATOM      1  C   UNL     1       3.525  45.691  55.334  1.00  0.00     0.144 C 
ENDROOT
BRANCH   1   2
ATOM      2  C   UNL     1       2.086  45.677  54.805  1.00  0.00     0.181 C 
BRANCH   2   3
ATOM      3  O   UNL     1       2.071  45.082  53.501  1.00  0.00    -0.383 OA
ATOM      4  C   UNL     1       1.655  46.013  52.510  1.00  0.00     0.194 C 
ENDBRANCH   2   3
ENDBRANCH   1   2
BRANCH   1   5
ATOM      5  N   UNL     1       4.166  46.948  54.966  1.00  0.00    -0.352 N 
ATOM      6  H   UNL     1       3.559  47.559  54.424  1.00  0.00     0.163 HD
BRANCH   5   7
ATOM      7  C   UNL     1       5.347  46.808  54.258  1.00  0.00     0.226 A 
ATOM      8  N   UNL     1       5.229  46.345  53.016  1.00  0.00    -0.193 NA
ATOM      9  N   UNL     1       6.509  47.137  54.814  1.00  0.00    -0.191 NA
ATOM     10  C   UNL     1       6.355  46.230  52.284  1.00  0.00     0.164 A 
ATOM     11  C   UNL     1       7.615  46.989  54.098  1.00  0.00     0.185 A 
ATOM     12  C   UNL     1       7.630  46.521  52.777  1.00  0.00     0.150 A 
ATOM     13  N   UNL     1       8.764  47.308  54.708  1.00  0.00    -0.233 NA
ATOM     14  N   UNL     1       8.806  46.364  52.086  1.00  0.00    -0.247 NA
ATOM     15  C   UNL     1       9.916  47.157  54.019  1.00  0.00     0.133 A 
ATOM     16  C   UNL     1       9.939  46.690  52.727  1.00  0.00     0.132 A 
BRANCH  10  17
ATOM     17  N   UNL     1       6.135  45.729  50.981  1.00  0.00    -0.338 N 
ATOM     18  H   UNL     1       6.753  46.257  50.369  1.00  0.00     0.168 HD
BRANCH  17  19
ATOM     19  C   UNL     1       6.079  44.384  50.550  1.00  0.00     0.040 A 
ATOM     20  C   UNL     1       7.118  43.910  49.735  1.00  0.00     0.026 A 
ATOM     21  C   UNL     1       5.081  43.486  50.942  1.00  0.00     0.026 A 
ATOM     22  C   UNL     1       7.146  42.581  49.305  1.00  0.00     0.002 A 
ATOM     23  C   UNL     1       5.107  42.154  50.513  1.00  0.00     0.002 A 
ATOM     24  C   UNL     1       6.139  41.703  49.694  1.00  0.00     0.000 A 
ENDBRANCH  17  19
ENDBRANCH  10  17
ENDBRANCH   5   7
ENDBRANCH   1   5
TORSDOF 6
ENDMDL
MODEL 3
REMARK VINA RESULT:    -7.991      1.970      4.976
REMARK INTER + INTRA:         -11.550
REMARK INTER:                 -10.960
REMARK INTRA:                  -0.590
REMARK UNBOUND:                -0.757
REMARK SMILES COCCNc1nc(Nc2ccccc2)c2nccnc2n1
REMARK SMILES IDX 4 1 3 2 2 3 1 4 5 5 6 7 7 8 22 9 8 10 21 11 16 12 20 13
REMARK SMILES IDX 17 14 19 15 18 16 9 17 10 19 11 20 15 21 12 22 14 23 13 24
REMARK H PARENT 5 6 9 18
ROOT
ATOM      1  C   UNL     1       2.208  45.384  54.034  1.00  0.00     0.144 C 
ENDROOT
BRANCH   1   2
ATOM      2  C   UNL     1       0.935  45.278  54.880  1.00  0.00     0.181 C 
BRANCH   2   3
ATOM      3  O   UNL     1       1.290  44.903  56.218  1.00  0.00    -0.383 OA
ATOM      4  C   UNL     1       0.570  45.666  57.178  1.00  0.00     0.194 C 
ENDBRANCH   2   3
ENDBRANCH   1   2
BRANCH   1   5
ATOM      5  N   UNL     1       2.784  44.056  53.853  1.00  0.00    -0.352 N 
ATOM      6  H   UNL     1       3.203  43.686  54.703  1.00  0.00     0.163 HD
BRANCH   5   7
ATOM      7  C   UNL     1       3.738  43.970  52.853  1.00  0.00     0.226 A 
ATOM      8  N   UNL     1       4.506  45.043  52.690  1.00  0.00    -0.193 NA
ATOM      9  N   UNL     1       3.855  42.862  52.129  1.00  0.00    -0.191 NA
ATOM     10  C   UNL     1       5.470  44.982  51.750  1.00  0.00     0.164 A 
ATOM     11  C   UNL     1       4.784  42.822  51.183  1.00  0.00     0.185 A 
ATOM     12  C   UNL     1       5.665  43.880  50.914  1.00  0.00     0.150 A 
ATOM     13  N   UNL     1       4.850  41.696  50.462  1.00  0.00    -0.233 NA
ATOM     14  N   UNL     1       6.595  43.798  49.907  1.00  0.00    -0.247 NA
ATOM     15  C   UNL     1       5.772  41.622  49.478  1.00  0.00     0.133 A 
ATOM     16  C   UNL     1       6.632  42.656  49.201  1.00  0.00     0.132 A 
BRANCH  10  17
ATOM     17  N   UNL     1       6.234  46.166  51.644  1.00  0.00    -0.338 N 
ATOM     18  H   UNL     1       5.576  46.936  51.749  1.00  0.00     0.168 HD
BRANCH  17  19
ATOM     19  C   UNL     1       7.450  46.494  52.286  1.00  0.00     0.040 A 
ATOM     20  C   UNL     1       8.639  46.354  51.554  1.00  0.00     0.026 A 
ATOM     21  C   UNL     1       7.526  47.009  53.584  1.00  0.00     0.026 A 
ATOM     22  C   UNL     1       9.872  46.698  52.114  1.00  0.00     0.002 A 
ATOM     23  C   UNL     1       8.760  47.353  54.146  1.00  0.00     0.002 A 
ATOM     24  C   UNL     1       9.932  47.196  53.412  1.00  0.00     0.000 A 
ENDBRANCH  17  19
ENDBRANCH  10  17
ENDBRANCH   5   7
ENDBRANCH   1   5
TORSDOF 6
ENDMDL
MODEL 4
REMARK VINA RESULT:    -7.974      1.967      5.103
REMARK INTER + INTRA:         -11.528
REMARK INTER:                 -11.120
REMARK INTRA:                  -0.408
REMARK UNBOUND:                -0.757
REMARK SMILES COCCNc1nc(Nc2ccccc2)c2nccnc2n1
REMARK SMILES IDX 4 1 3 2 2 3 1 4 5 5 6 7 7 8 22 9 8 10 21 11 16 12 20 13
REMARK SMILES IDX 17 14 19 15 18 16 9 17 10 19 11 20 15 21 12 22 14 23 13 24
REMARK H PARENT 5 6 9 18
ROOT
ATOM      1  C   UNL     1       3.308  45.600  54.083  1.00  0.00     0.144 C 
ENDROOT
BRANCH   1   2
ATOM      2  C   UNL     1       2.267  46.252  53.166  1.00  0.00     0.181 C 
BRANCH   2   3
ATOM      3  O   UNL     1       2.756  47.529  52.735  1.00  0.00    -0.383 OA
ATOM      4  C   UNL     1       3.987  47.855  53.368  1.00  0.00     0.194 C 
ENDBRANCH   2   3
ENDBRANCH   1   2
BRANCH   1   5
ATOM      5  N   UNL     1       3.424  44.183  53.756  1.00  0.00    -0.352 N 
ATOM      6  H   UNL     1       3.802  43.629  54.520  1.00  0.00     0.163 HD
BRANCH   5   7
ATOM      7  C   UNL     1       4.187  43.910  52.633  1.00  0.00     0.226 A 
ATOM      8  N   UNL     1       5.099  44.823  52.315  1.00  0.00    -0.193 NA
ATOM      9  N   UNL     1       3.997  42.787  51.948  1.00  0.00    -0.191 NA
ATOM     10  C   UNL     1       5.886  44.573  51.248  1.00  0.00     0.164 A 
ATOM     11  C   UNL     1       4.752  42.564  50.880  1.00  0.00     0.185 A 
ATOM     12  C   UNL     1       5.755  43.440  50.442  1.00  0.00     0.150 A 
ATOM     13  N   UNL     1       4.509  41.434  50.206  1.00  0.00    -0.233 NA
ATOM     14  N   UNL     1       6.495  43.174  49.316  1.00  0.00    -0.247 NA
ATOM     15  C   UNL     1       5.245  41.177  49.103  1.00  0.00     0.133 A 
ATOM     16  C   UNL     1       6.223  42.034  48.661  1.00  0.00     0.132 A 
BRANCH  10  17
ATOM     17  N   UNL     1       6.823  45.597  50.982  1.00  0.00    -0.338 N 
ATOM     18  H   UNL     1       6.294  46.360  50.564  1.00  0.00     0.168 HD
BRANCH  17  19
ATOM     19  C   UNL     1       7.820  46.126  51.834  1.00  0.00     0.040 A 
ATOM     20  C   UNL     1       9.162  45.925  51.480  1.00  0.00     0.026 A 
ATOM     21  C   UNL     1       7.541  46.890  52.972  1.00  0.00     0.026 A 
ATOM     22  C   UNL     1      10.198  46.454  52.254  1.00  0.00     0.002 A 
ATOM     23  C   UNL     1       8.576  47.421  53.749  1.00  0.00     0.002 A 
ATOM     24  C   UNL     1       9.903  47.201  53.391  1.00  0.00     0.000 A 
ENDBRANCH  17  19
ENDBRANCH  10  17
ENDBRANCH   5   7
ENDBRANCH   1   5
TORSDOF 6
ENDMDL
MODEL 5
REMARK VINA RESULT:    -7.931      1.940      4.921
REMARK INTER + INTRA:         -11.470
REMARK INTER:                 -10.734
REMARK INTRA:                  -0.736
REMARK UNBOUND:                -0.757
REMARK SMILES COCCNc1nc(Nc2ccccc2)c2nccnc2n1
REMARK SMILES IDX 4 1 3 2 2 3 1 4 5 5 6 7 7 8 22 9 8 10 21 11 16 12 20 13
REMARK SMILES IDX 17 14 19 15 18 16 9 17 10 19 11 20 15 21 12 22 14 23 13 24
REMARK H PARENT 5 6 9 18
ROOT
ATOM      1  C   UNL     1       2.276  45.200  54.070  1.00  0.00     0.144 C 
ENDROOT
BRANCH   1   2
ATOM      2  C   UNL     1       0.779  45.170  53.744  1.00  0.00     0.181 C 
BRANCH   2   3
ATOM      3  O   UNL     1       0.583  45.607  52.393  1.00  0.00    -0.383 OA
ATOM      4  C   UNL     1       0.241  44.522  51.540  1.00  0.00     0.194 C 
ENDBRANCH   2   3
ENDBRANCH   1   2
BRANCH   1   5
ATOM      5  N   UNL     1       2.850  43.878  53.840  1.00  0.00    -0.352 N 
ATOM      6  H   UNL     1       3.288  43.487  54.670  1.00  0.00     0.163 HD
BRANCH   5   7
ATOM      7  C   UNL     1       3.782  43.823  52.818  1.00  0.00     0.226 A 
ATOM      8  N   UNL     1       4.538  44.906  52.662  1.00  0.00    -0.193 NA
ATOM      9  N   UNL     1       3.893  42.732  52.067  1.00  0.00    -0.191 NA
ATOM     10  C   UNL     1       5.482  44.874  51.700  1.00  0.00     0.164 A 
ATOM     11  C   UNL     1       4.802  42.722  51.101  1.00  0.00     0.185 A 
ATOM     12  C   UNL     1       5.668  43.792  50.836  1.00  0.00     0.150 A 
ATOM     13  N   UNL     1       4.861  41.612  50.353  1.00  0.00    -0.233 NA
ATOM     14  N   UNL     1       6.577  43.740  49.808  1.00  0.00    -0.247 NA
ATOM     15  C   UNL     1       5.762  41.567  49.348  1.00  0.00     0.133 A 
ATOM     16  C   UNL     1       6.607  42.615  49.076  1.00  0.00     0.132 A 
BRANCH  10  17
ATOM     17  N   UNL     1       6.235  46.066  51.604  1.00  0.00    -0.338 N 
ATOM     18  H   UNL     1       5.566  46.828  51.698  1.00  0.00     0.168 HD
BRANCH  17  19
ATOM     19  C   UNL     1       7.436  46.409  52.265  1.00  0.00     0.040 A 
ATOM     20  C   UNL     1       8.633  46.328  51.538  1.00  0.00     0.026 A 
ATOM     21  C   UNL     1       7.490  46.883  53.580  1.00  0.00     0.026 A 
ATOM     22  C   UNL     1       9.853  46.689  52.117  1.00  0.00     0.002 A 
ATOM     23  C   UNL     1       8.709  47.246  54.162  1.00  0.00     0.002 A 
ATOM     24  C   UNL     1       9.890  47.147  53.431  1.00  0.00     0.000 A 
ENDBRANCH  17  19
ENDBRANCH  10  17
ENDBRANCH   5   7
ENDBRANCH   1   5
TORSDOF 6
ENDMDL
MODEL 6
REMARK VINA RESULT:    -7.834      1.150      1.542
REMARK INTER + INTRA:         -11.338
REMARK INTER:                 -10.564
REMARK INTRA:                  -0.775
REMARK UNBOUND:                -0.757
REMARK SMILES COCCNc1nc(Nc2ccccc2)c2nccnc2n1
REMARK SMILES IDX 4 1 3 2 2 3 1 4 5 5 6 7 7 8 22 9 8 10 21 11 16 12 20 13
REMARK SMILES IDX 17 14 19 15 18 16 9 17 10 19 11 20 15 21 12 22 14 23 13 24
REMARK H PARENT 5 6 9 18
ROOT
ATOM      1  C   UNL     1       2.687  45.700  55.457  1.00  0.00     0.144 C 
ENDROOT
BRANCH   1   2
ATOM      2  C   UNL     1       1.692  44.542  55.320  1.00  0.00     0.181 C 
BRANCH   2   3
ATOM      3  O   UNL     1       1.205  44.499  53.972  1.00  0.00    -0.383 OA
ATOM      4  C   UNL     1       1.624  43.315  53.306  1.00  0.00     0.194 C 
ENDBRANCH   2   3
ENDBRANCH   1   2
BRANCH   1   5
ATOM      5  N   UNL     1       4.018  45.167  55.726  1.00  0.00    -0.352 N 
ATOM      6  H   UNL     1       4.369  45.422  56.647  1.00  0.00     0.163 HD
BRANCH   5   7
ATOM      7  C   UNL     1       4.984  45.531  54.803  1.00  0.00     0.226 A 
ATOM      8  N   UNL     1       4.743  45.181  53.543  1.00  0.00    -0.193 NA
ATOM      9  N   UNL     1       6.066  46.199  55.189  1.00  0.00    -0.191 NA
ATOM     10  C   UNL     1       5.645  45.551  52.610  1.00  0.00     0.164 A 
ATOM     11  C   UNL     1       6.964  46.529  54.271  1.00  0.00     0.185 A 
ATOM     12  C   UNL     1       6.829  46.230  52.908  1.00  0.00     0.150 A 
ATOM     13  N   UNL     1       8.050  47.178  54.709  1.00  0.00    -0.233 NA
ATOM     14  N   UNL     1       7.799  46.575  51.999  1.00  0.00    -0.247 NA
ATOM     15  C   UNL     1       8.997  47.519  53.807  1.00  0.00     0.133 A 
ATOM     16  C   UNL     1       8.876  47.221  52.472  1.00  0.00     0.132 A 
BRANCH  10  17
ATOM     17  N   UNL     1       5.310  45.134  51.302  1.00  0.00    -0.338 N 
ATOM     18  H   UNL     1       5.611  45.884  50.683  1.00  0.00     0.168 HD
BRANCH  17  19
ATOM     19  C   UNL     1       5.550  43.886  50.684  1.00  0.00     0.040 A 
ATOM     20  C   UNL     1       6.682  43.764  49.865  1.00  0.00     0.026 A 
ATOM     21  C   UNL     1       4.758  42.752  50.895  1.00  0.00     0.026 A 
ATOM     22  C   UNL     1       7.001  42.548  49.254  1.00  0.00     0.002 A 
ATOM     23  C   UNL     1       5.076  41.533  50.285  1.00  0.00     0.002 A 
ATOM     24  C   UNL     1       6.195  41.432  49.464  1.00  0.00     0.000 A 
ENDBRANCH  17  19
ENDBRANCH  10  17
ENDBRANCH   5   7
ENDBRANCH   1   5
TORSDOF 6
ENDMDL
MODEL 7
REMARK VINA RESULT:    -7.704      2.664      6.212
REMARK INTER + INTRA:         -11.162
REMARK INTER:                 -10.535
REMARK INTRA:                  -0.628
REMARK UNBOUND:                -0.757
REMARK SMILES COCCNc1nc(Nc2ccccc2)c2nccnc2n1
REMARK SMILES IDX 4 1 3 2 2 3 1 4 5 5 6 7 7 8 22 9 8 10 21 11 16 12 20 13
REMARK SMILES IDX 17 14 19 15 18 16 9 17 10 19 11 20 15 21 12 22 14 23 13 24
REMARK H PARENT 5 6 9 18
ROOT
ATOM      1  C   UNL     1       6.182  41.681  49.360  1.00  0.00     0.144 C 
ENDROOT
BRANCH   1   2
ATOM      2  C   UNL     1       5.392  41.251  48.119  1.00  0.00     0.181 C 
BRANCH   2   3
ATOM      3  O   UNL     1       5.892  41.958  46.976  1.00  0.00    -0.383 OA
ATOM      4  C   UNL     1       5.244  41.539  45.781  1.00  0.00     0.194 C 
ENDBRANCH   2   3
ENDBRANCH   1   2
BRANCH   1   5
ATOM      5  N   UNL     1       5.284  41.751  50.507  1.00  0.00    -0.352 N 
ATOM      6  H   UNL     1       4.411  41.249  50.359  1.00  0.00     0.163 HD
BRANCH   5   7
ATOM      7  C   UNL     1       4.956  43.036  50.906  1.00  0.00     0.226 A 
ATOM      8  N   UNL     1       5.925  43.941  50.802  1.00  0.00    -0.193 NA
ATOM      9  N   UNL     1       3.734  43.311  51.351  1.00  0.00    -0.191 NA
ATOM     10  C   UNL     1       5.631  45.211  51.148  1.00  0.00     0.164 A 
ATOM     11  C   UNL     1       3.464  44.556  51.721  1.00  0.00     0.185 A 
ATOM     12  C   UNL     1       4.390  45.606  51.653  1.00  0.00     0.150 A 
ATOM     13  N   UNL     1       2.229  44.782  52.185  1.00  0.00    -0.233 NA
ATOM     14  N   UNL     1       4.067  46.874  52.070  1.00  0.00    -0.247 NA
ATOM     15  C   UNL     1       1.917  46.033  52.588  1.00  0.00     0.133 A 
ATOM     16  C   UNL     1       2.822  47.065  52.534  1.00  0.00     0.132 A 
BRANCH  10  17
ATOM     17  N   UNL     1       6.719  46.102  51.009  1.00  0.00    -0.338 N 
ATOM     18  H   UNL     1       6.331  46.962  50.628  1.00  0.00     0.168 HD
BRANCH  17  19
ATOM     19  C   UNL     1       7.731  46.414  51.946  1.00  0.00     0.040 A 
ATOM     20  C   UNL     1       9.057  46.107  51.610  1.00  0.00     0.026 A 
ATOM     21  C   UNL     1       7.488  47.070  53.158  1.00  0.00     0.026 A 
ATOM     22  C   UNL     1      10.111  46.425  52.472  1.00  0.00     0.002 A 
ATOM     23  C   UNL     1       8.541  47.389  54.022  1.00  0.00     0.002 A 
ATOM     24  C   UNL     1       9.851  47.065  53.680  1.00  0.00     0.000 A 
ENDBRANCH  17  19
ENDBRANCH  10  17
ENDBRANCH   5   7
ENDBRANCH   1   5
TORSDOF 6
ENDMDL
MODEL 8
REMARK VINA RESULT:    -7.572      2.166      4.956
REMARK INTER + INTRA:         -10.985
REMARK INTER:                 -10.453
REMARK INTRA:                  -0.533
REMARK UNBOUND:                -0.757
REMARK SMILES COCCNc1nc(Nc2ccccc2)c2nccnc2n1
REMARK SMILES IDX 4 1 3 2 2 3 1 4 5 5 6 7 7 8 22 9 8 10 21 11 16 12 20 13
REMARK SMILES IDX 17 14 19 15 18 16 9 17 10 19 11 20 15 21 12 22 14 23 13 24
REMARK H PARENT 5 6 9 18
ROOT
ATOM      1  C   UNL     1       1.483  45.555  56.297  1.00  0.00     0.144 C 
ENDROOT
BRANCH   1   2
ATOM      2  C   UNL     1       0.869  46.139  57.574  1.00  0.00     0.181 C 
BRANCH   2   3
ATOM      3  O   UNL     1      -0.551  45.939  57.546  1.00  0.00    -0.383 OA
ATOM      4  C   UNL     1      -1.252  47.155  57.770  1.00  0.00     0.194 C 
ENDBRANCH   2   3
ENDBRANCH   1   2
BRANCH   1   5
ATOM      5  N   UNL     1       2.840  46.064  56.133  1.00  0.00    -0.352 N 
ATOM      6  H   UNL     1       2.893  47.078  56.197  1.00  0.00     0.163 HD
BRANCH   5   7
ATOM      7  C   UNL     1       3.457  45.694  54.951  1.00  0.00     0.226 A 
ATOM      8  N   UNL     1       4.394  46.524  54.500  1.00  0.00    -0.193 NA
ATOM      9  N   UNL     1       3.116  44.565  54.339  1.00  0.00    -0.191 NA
ATOM     10  C   UNL     1       5.043  46.177  53.370  1.00  0.00     0.164 A 
ATOM     11  C   UNL     1       3.736  44.248  53.209  1.00  0.00     0.185 A 
ATOM     12  C   UNL     1       4.747  45.029  52.632  1.00  0.00     0.150 A 
ATOM     13  N   UNL     1       3.342  43.115  52.614  1.00  0.00    -0.233 NA
ATOM     14  N   UNL     1       5.342  44.668  51.448  1.00  0.00    -0.247 NA
ATOM     15  C   UNL     1       3.937  42.764  51.453  1.00  0.00     0.133 A 
ATOM     16  C   UNL     1       4.921  43.529  50.875  1.00  0.00     0.132 A 
BRANCH  10  17
ATOM     17  N   UNL     1       6.016  47.117  52.965  1.00  0.00    -0.338 N 
ATOM     18  H   UNL     1       5.685  48.023  53.290  1.00  0.00     0.168 HD
BRANCH  17  19
ATOM     19  C   UNL     1       7.421  47.051  53.105  1.00  0.00     0.040 A 
ATOM     20  C   UNL     1       8.192  46.883  51.945  1.00  0.00     0.026 A 
ATOM     21  C   UNL     1       8.086  47.207  54.326  1.00  0.00     0.026 A 
ATOM     22  C   UNL     1       9.587  46.849  52.006  1.00  0.00     0.002 A 
ATOM     23  C   UNL     1       9.484  47.173  54.389  1.00  0.00     0.002 A 
ATOM     24  C   UNL     1      10.233  46.993  53.230  1.00  0.00     0.000 A 
ENDBRANCH  17  19
ENDBRANCH  10  17
ENDBRANCH   5   7
ENDBRANCH   1   5
TORSDOF 6
ENDMDL
MODEL 9
REMARK VINA RESULT:    -7.421      2.172      5.070
REMARK INTER + INTRA:         -10.780
REMARK INTER:                 -10.141
REMARK INTRA:                  -0.639
REMARK UNBOUND:                -0.757
REMARK SMILES COCCNc1nc(Nc2ccccc2)c2nccnc2n1
REMARK SMILES IDX 4 1 3 2 2 3 1 4 5 5 6 7 7 8 22 9 8 10 21 11 16 12 20 13
REMARK SMILES IDX 17 14 19 15 18 16 9 17 10 19 11 20 15 21 12 22 14 23 13 24
REMARK H PARENT 5 6 9 18
ROOT
ATOM      1  C   UNL     1       8.304  46.765  53.511  1.00  0.00     0.144 C 
ENDROOT
BRANCH   1   2
ATOM      2  C   UNL     1       9.623  47.405  53.960  1.00  0.00     0.181 C 
BRANCH   2   3
ATOM      3  O   UNL     1       9.547  47.705  55.359  1.00  0.00    -0.383 OA
ATOM      4  C   UNL     1      10.811  47.552  55.993  1.00  0.00     0.194 C 
ENDBRANCH   2   3
ENDBRANCH   1   2
BRANCH   1   5
ATOM      5  N   UNL     1       7.311  46.907  54.570  1.00  0.00    -0.352 N 
ATOM      6  H   UNL     1       7.606  46.487  55.449  1.00  0.00     0.163 HD
BRANCH   5   7
ATOM      7  C   UNL     1       6.064  46.390  54.265  1.00  0.00     0.226 A 
ATOM      8  N   UNL     1       5.906  45.951  53.020  1.00  0.00    -0.193 NA
ATOM      9  N   UNL     1       5.111  46.342  55.191  1.00  0.00    -0.191 NA
ATOM     10  C   UNL     1       4.715  45.407  52.697  1.00  0.00     0.164 A 
ATOM     11  C   UNL     1       3.931  45.836  54.855  1.00  0.00     0.185 A 
ATOM     12  C   UNL     1       3.636  45.330  53.581  1.00  0.00     0.150 A 
ATOM     13  N   UNL     1       2.994  45.831  55.811  1.00  0.00    -0.233 NA
ATOM     14  N   UNL     1       2.390  44.838  53.278  1.00  0.00    -0.247 NA
ATOM     15  C   UNL     1       1.773  45.339  55.506  1.00  0.00     0.133 A 
ATOM     16  C   UNL     1       1.473  44.851  54.258  1.00  0.00     0.132 A 
BRANCH  10  17
ATOM     17  N   UNL     1       4.636  44.971  51.355  1.00  0.00    -0.338 N 
ATOM     18  H   UNL     1       4.940  45.758  50.786  1.00  0.00     0.168 HD
BRANCH  17  19
ATOM     19  C   UNL     1       5.111  43.767  50.787  1.00  0.00     0.040 A 
ATOM     20  C   UNL     1       6.334  43.800  50.101  1.00  0.00     0.026 A 
ATOM     21  C   UNL     1       4.462  42.536  50.927  1.00  0.00     0.026 A 
ATOM     22  C   UNL     1       6.881  42.639  49.550  1.00  0.00     0.002 A 
ATOM     23  C   UNL     1       5.008  41.371  50.376  1.00  0.00     0.002 A 
ATOM     24  C   UNL     1       6.216  41.424  49.687  1.00  0.00     0.000 A 
ENDBRANCH  17  19
ENDBRANCH  10  17
ENDBRANCH   5   7
ENDBRANCH   1   5
TORSDOF 6
ENDMDL
MODEL 10
REMARK VINA RESULT:    -7.407      2.628      5.992
REMARK INTER + INTRA:         -10.761
REMARK INTER:                 -10.191
REMARK INTRA:                  -0.570
REMARK UNBOUND:                -0.757
REMARK SMILES COCCNc1nc(Nc2ccccc2)c2nccnc2n1
REMARK SMILES IDX 4 1 3 2 2 3 1 4 5 5 6 7 7 8 22 9 8 10 21 11 16 12 20 13
REMARK SMILES IDX 17 14 19 15 18 16 9 17 10 19 11 20 15 21 12 22 14 23 13 24
REMARK H PARENT 5 6 9 18
ROOT
ATOM      1  C   UNL     1       4.192  41.183  49.925  1.00  0.00     0.144 C 
ENDROOT
BRANCH   1   2
ATOM      2  C   UNL     1       4.397  40.808  48.453  1.00  0.00     0.181 C 
BRANCH   2   3
ATOM      3  O   UNL     1       3.151  40.354  47.907  1.00  0.00    -0.383 OA
ATOM      4  C   UNL     1       3.257  40.104  46.511  1.00  0.00     0.194 C 
ENDBRANCH   2   3
ENDBRANCH   1   2
BRANCH   1   5
ATOM      5  N   UNL     1       5.300  42.020  50.372  1.00  0.00    -0.352 N 
ATOM      6  H   UNL     1       6.010  41.500  50.882  1.00  0.00     0.163 HD
BRANCH   5   7
ATOM      7  C   UNL     1       4.929  43.094  51.164  1.00  0.00     0.226 A 
ATOM      8  N   UNL     1       5.695  44.178  51.067  1.00  0.00    -0.193 NA
ATOM      9  N   UNL     1       3.861  43.013  51.951  1.00  0.00    -0.191 NA
ATOM     10  C   UNL     1       5.343  45.256  51.797  1.00  0.00     0.164 A 
ATOM     11  C   UNL     1       3.542  44.067  52.690  1.00  0.00     0.185 A 
ATOM     12  C   UNL     1       4.257  45.273  52.676  1.00  0.00     0.150 A 
ATOM     13  N   UNL     1       2.474  43.932  53.487  1.00  0.00    -0.233 NA
ATOM     14  N   UNL     1       3.899  46.327  53.479  1.00  0.00    -0.247 NA
ATOM     15  C   UNL     1       2.124  44.976  54.268  1.00  0.00     0.133 A 
ATOM     16  C   UNL     1       2.826  46.157  54.268  1.00  0.00     0.132 A 
BRANCH  10  17
ATOM     17  N   UNL     1       6.213  46.358  51.635  1.00  0.00    -0.338 N 
ATOM     18  H   UNL     1       5.635  47.189  51.738  1.00  0.00     0.168 HD
BRANCH  17  19
ATOM     19  C   UNL     1       7.475  46.582  52.231  1.00  0.00     0.040 A 
ATOM     20  C   UNL     1       7.506  46.992  53.572  1.00  0.00     0.026 A 
ATOM     21  C   UNL     1       8.691  46.357  51.578  1.00  0.00     0.026 A 
ATOM     22  C   UNL     1       8.719  47.194  54.235  1.00  0.00     0.002 A 
ATOM     23  C   UNL     1       9.907  46.558  52.240  1.00  0.00     0.002 A 
ATOM     24  C   UNL     1       9.921  46.978  53.567  1.00  0.00     0.000 A 
ENDBRANCH  17  19
ENDBRANCH  10  17
ENDBRANCH   5   7
ENDBRANCH   1   5
TORSDOF 6
ENDMDL
MODEL 11
REMARK VINA RESULT:    -7.392      2.337      5.747
REMARK INTER + INTRA:         -10.742
REMARK INTER:                 -10.023
REMARK INTRA:                  -0.719
REMARK UNBOUND:                -0.757
REMARK SMILES COCCNc1nc(Nc2ccccc2)c2nccnc2n1
REMARK SMILES IDX 4 1 3 2 2 3 1 4 5 5 6 7 7 8 22 9 8 10 21 11 16 12 20 13
REMARK SMILES IDX 17 14 19 15 18 16 9 17 10 19 11 20 15 21 12 22 14 23 13 24
REMARK H PARENT 5 6 9 18
ROOT
ATOM      1  C   UNL     1       5.598  41.685  50.342  1.00  0.00     0.144 C 
ENDROOT
BRANCH   1   2
ATOM      2  C   UNL     1       5.751  41.506  48.827  1.00  0.00     0.181 C 
BRANCH   2   3
ATOM      3  O   UNL     1       6.412  42.656  48.283  1.00  0.00    -0.383 OA
ATOM      4  C   UNL     1       7.473  43.092  49.123  1.00  0.00     0.194 C 
ENDBRANCH   2   3
ENDBRANCH   1   2
BRANCH   1   5
ATOM      5  N   UNL     1       4.266  42.201  50.637  1.00  0.00    -0.352 N 
ATOM      6  H   UNL     1       3.747  42.461  49.802  1.00  0.00     0.163 HD
BRANCH   5   7
ATOM      7  C   UNL     1       4.245  43.291  51.491  1.00  0.00     0.226 A 
ATOM      8  N   UNL     1       5.100  44.269  51.204  1.00  0.00    -0.193 NA
ATOM      9  N   UNL     1       3.400  43.327  52.516  1.00  0.00    -0.191 NA
ATOM     10  C   UNL     1       5.081  45.363  51.993  1.00  0.00     0.164 A 
ATOM     11  C   UNL     1       3.413  44.392  53.307  1.00  0.00     0.185 A 
ATOM     12  C   UNL     1       4.255  45.495  53.111  1.00  0.00     0.150 A 
ATOM     13  N   UNL     1       2.563  44.373  54.341  1.00  0.00    -0.233 NA
ATOM     14  N   UNL     1       4.245  46.565  53.973  1.00  0.00    -0.247 NA
ATOM     15  C   UNL     1       2.555  45.432  55.180  1.00  0.00     0.133 A 
ATOM     16  C   UNL     1       3.385  46.512  55.002  1.00  0.00     0.132 A 
BRANCH  10  17
ATOM     17  N   UNL     1       6.023  46.348  51.617  1.00  0.00    -0.338 N 
ATOM     18  H   UNL     1       5.521  47.234  51.624  1.00  0.00     0.168 HD
BRANCH  17  19
ATOM     19  C   UNL     1       7.336  46.545  52.101  1.00  0.00     0.040 A 
ATOM     20  C   UNL     1       8.397  45.984  51.375  1.00  0.00     0.026 A 
ATOM     21  C   UNL     1       7.639  47.321  53.225  1.00  0.00     0.026 A 
ATOM     22  C   UNL     1       9.723  46.173  51.775  1.00  0.00     0.002 A 
ATOM     23  C   UNL     1       8.965  47.512  53.627  1.00  0.00     0.002 A 
ATOM     24  C   UNL     1      10.006  46.937  52.903  1.00  0.00     0.000 A 
ENDBRANCH  17  19
ENDBRANCH  10  17
ENDBRANCH   5   7
ENDBRANCH   1   5
TORSDOF 6
ENDMDL
MODEL 12
REMARK VINA RESULT:    -7.356      2.161      4.963
REMARK INTER + INTRA:         -10.693
REMARK INTER:                 -10.056
REMARK INTRA:                  -0.638
REMARK UNBOUND:                -0.757
REMARK SMILES COCCNc1nc(Nc2ccccc2)c2nccnc2n1
REMARK SMILES IDX 4 1 3 2 2 3 1 4 5 5 6 7 7 8 22 9 8 10 21 11 16 12 20 13
REMARK SMILES IDX 17 14 19 15 18 16 9 17 10 19 11 20 15 21 12 22 14 23 13 24
REMARK H PARENT 5 6 9 18
ROOT
ATOM      1  C   UNL     1       8.275  46.861  53.466  1.00  0.00     0.144 C 
ENDROOT
BRANCH   1   2
ATOM      2  C   UNL     1       9.611  47.444  53.940  1.00  0.00     0.181 C 
BRANCH   2   3
ATOM      3  O   UNL     1       9.543  47.688  55.351  1.00  0.00    -0.383 OA
ATOM      4  C   UNL     1      10.819  47.558  55.963  1.00  0.00     0.194 C 
ENDBRANCH   2   3
ENDBRANCH   1   2
BRANCH   1   5
ATOM      5  N   UNL     1       7.253  47.103  54.478  1.00  0.00    -0.352 N 
ATOM      6  H   UNL     1       7.534  46.796  55.406  1.00  0.00     0.163 HD
BRANCH   5   7
ATOM      7  C   UNL     1       6.024  46.526  54.208  1.00  0.00     0.226 A 
ATOM      8  N   UNL     1       5.869  46.037  52.981  1.00  0.00    -0.193 NA
ATOM      9  N   UNL     1       5.085  46.473  55.147  1.00  0.00    -0.191 NA
ATOM     10  C   UNL     1       4.698  45.435  52.693  1.00  0.00     0.164 A 
ATOM     11  C   UNL     1       3.923  45.909  54.845  1.00  0.00     0.185 A 
ATOM     12  C   UNL     1       3.633  45.347  53.594  1.00  0.00     0.150 A 
ATOM     13  N   UNL     1       2.998  45.900  55.813  1.00  0.00    -0.233 NA
ATOM     14  N   UNL     1       2.405  44.794  53.324  1.00  0.00    -0.247 NA
ATOM     15  C   UNL     1       1.795  45.349  55.542  1.00  0.00     0.133 A 
ATOM     16  C   UNL     1       1.500  44.805  54.315  1.00  0.00     0.132 A 
BRANCH  10  17
ATOM     17  N   UNL     1       4.621  44.949  51.368  1.00  0.00    -0.338 N 
ATOM     18  H   UNL     1       4.749  45.759  50.764  1.00  0.00     0.168 HD
BRANCH  17  19
ATOM     19  C   UNL     1       5.266  43.828  50.799  1.00  0.00     0.040 A 
ATOM     20  C   UNL     1       4.638  42.579  50.912  1.00  0.00     0.026 A 
ATOM     21  C   UNL     1       6.461  43.907  50.076  1.00  0.00     0.026 A 
ATOM     22  C   UNL     1       5.201  41.435  50.339  1.00  0.00     0.002 A 
ATOM     23  C   UNL     1       7.027  42.763  49.501  1.00  0.00     0.002 A 
ATOM     24  C   UNL     1       6.397  41.528  49.634  1.00  0.00     0.000 A 
ENDBRANCH  17  19
ENDBRANCH  10  17
ENDBRANCH   5   7
ENDBRANCH   1   5
TORSDOF 6
ENDMDL
MODEL 13
REMARK VINA RESULT:    -7.350      2.155      4.825
REMARK INTER + INTRA:         -10.685
REMARK INTER:                  -9.937
REMARK INTRA:                  -0.748
REMARK UNBOUND:                -0.757
REMARK SMILES COCCNc1nc(Nc2ccccc2)c2nccnc2n1
REMARK SMILES IDX 4 1 3 2 2 3 1 4 5 5 6 7 7 8 22 9 8 10 21 11 16 12 20 13
REMARK SMILES IDX 17 14 19 15 18 16 9 17 10 19 11 20 15 21 12 22 14 23 13 24
REMARK H PARENT 5 6 9 18
ROOT
ATOM      1  C   UNL     1       8.407  47.517  53.392  1.00  0.00     0.144 C 
ENDROOT
BRANCH   1   2
ATOM      2  C   UNL     1       9.865  47.154  53.695  1.00  0.00     0.181 C 
BRANCH   2   3
ATOM      3  O   UNL     1      10.345  46.255  52.687  1.00  0.00    -0.383 OA
ATOM      4  C   UNL     1       9.481  46.233  51.557  1.00  0.00     0.194 C 
ENDBRANCH   2   3
ENDBRANCH   1   2
BRANCH   1   5
ATOM      5  N   UNL     1       7.571  47.162  54.533  1.00  0.00    -0.352 N 
ATOM      6  H   UNL     1       8.035  46.534  55.185  1.00  0.00     0.163 HD
BRANCH   5   7
ATOM      7  C   UNL     1       6.356  46.586  54.202  1.00  0.00     0.226 A 
ATOM      8  N   UNL     1       6.237  46.162  52.947  1.00  0.00    -0.193 NA
ATOM      9  N   UNL     1       5.395  46.471  55.113  1.00  0.00    -0.191 NA
ATOM     10  C   UNL     1       5.081  45.562  52.598  1.00  0.00     0.164 A 
ATOM     11  C   UNL     1       4.248  45.910  54.753  1.00  0.00     0.185 A 
ATOM     12  C   UNL     1       3.997  45.413  53.466  1.00  0.00     0.150 A 
ATOM     13  N   UNL     1       3.301  45.839  55.695  1.00  0.00    -0.233 NA
ATOM     14  N   UNL     1       2.783  44.862  53.137  1.00  0.00    -0.247 NA
ATOM     15  C   UNL     1       2.111  45.289  55.365  1.00  0.00     0.133 A 
ATOM     16  C   UNL     1       1.853  44.809  54.104  1.00  0.00     0.132 A 
BRANCH  10  17
ATOM     17  N   UNL     1       5.043  45.147  51.248  1.00  0.00    -0.338 N 
ATOM     18  H   UNL     1       5.477  45.896  50.712  1.00  0.00     0.168 HD
BRANCH  17  19
ATOM     19  C   UNL     1       5.407  43.898  50.696  1.00  0.00     0.040 A 
ATOM     20  C   UNL     1       6.587  43.831  49.941  1.00  0.00     0.026 A 
ATOM     21  C   UNL     1       4.692  42.716  50.916  1.00  0.00     0.026 A 
ATOM     22  C   UNL     1       7.028  42.620  49.400  1.00  0.00     0.002 A 
ATOM     23  C   UNL     1       5.131  41.503  50.375  1.00  0.00     0.002 A 
ATOM     24  C   UNL     1       6.297  41.455  49.617  1.00  0.00     0.000 A 
ENDBRANCH  17  19
ENDBRANCH  10  17
ENDBRANCH   5   7
ENDBRANCH   1   5
TORSDOF 6
ENDMDL
MODEL 14
REMARK VINA RESULT:    -7.177      2.428      5.938
REMARK INTER + INTRA:         -10.451
REMARK INTER:                  -9.736
REMARK INTRA:                  -0.715
REMARK UNBOUND:                -0.757
REMARK SMILES COCCNc1nc(Nc2ccccc2)c2nccnc2n1
REMARK SMILES IDX 4 1 3 2 2 3 1 4 5 5 6 7 7 8 22 9 8 10 21 11 16 12 20 13
REMARK SMILES IDX 17 14 19 15 18 16 9 17 10 19 11 20 15 21 12 22 14 23 13 24
REMARK H PARENT 5 6 9 18
ROOT
ATOM      1  C   UNL     1       6.474  42.397  50.062  1.00  0.00     0.144 C 
ENDROOT
BRANCH   1   2
ATOM      2  C   UNL     1       6.478  42.599  48.543  1.00  0.00     0.181 C 
BRANCH   2   3
ATOM      3  O   UNL     1       7.581  43.443  48.184  1.00  0.00    -0.383 OA
ATOM      4  C   UNL     1       8.332  43.829  49.327  1.00  0.00     0.194 C 
ENDBRANCH   2   3
ENDBRANCH   1   2
BRANCH   1   5
ATOM      5  N   UNL     1       5.098  42.343  50.541  1.00  0.00    -0.352 N 
ATOM      6  H   UNL     1       4.415  42.342  49.787  1.00  0.00     0.163 HD
BRANCH   5   7
ATOM      7  C   UNL     1       4.748  43.361  51.411  1.00  0.00     0.226 A 
ATOM      8  N   UNL     1       5.480  44.469  51.333  1.00  0.00    -0.193 NA
ATOM      9  N   UNL     1       3.729  43.208  52.251  1.00  0.00    -0.191 NA
ATOM     10  C   UNL     1       5.144  45.496  52.140  1.00  0.00     0.164 A 
ATOM     11  C   UNL     1       3.427  44.211  53.066  1.00  0.00     0.185 A 
ATOM     12  C   UNL     1       4.111  45.434  53.079  1.00  0.00     0.150 A 
ATOM     13  N   UNL     1       2.411  44.003  53.912  1.00  0.00    -0.233 NA
ATOM     14  N   UNL     1       3.774  46.434  53.958  1.00  0.00    -0.247 NA
ATOM     15  C   UNL     1       2.081  44.994  54.769  1.00  0.00     0.133 A 
ATOM     16  C   UNL     1       2.753  46.191  54.795  1.00  0.00     0.132 A 
BRANCH  10  17
ATOM     17  N   UNL     1       5.977  46.628  51.992  1.00  0.00    -0.338 N 
ATOM     18  H   UNL     1       5.426  47.424  52.305  1.00  0.00     0.168 HD
BRANCH  17  19
ATOM     19  C   UNL     1       7.321  46.796  52.395  1.00  0.00     0.040 A 
ATOM     20  C   UNL     1       7.574  47.056  53.750  1.00  0.00     0.026 A 
ATOM     21  C   UNL     1       8.412  46.653  51.532  1.00  0.00     0.026 A 
ATOM     22  C   UNL     1       8.881  47.194  54.225  1.00  0.00     0.002 A 
ATOM     23  C   UNL     1       9.722  46.790  52.005  1.00  0.00     0.002 A 
ATOM     24  C   UNL     1       9.956  47.061  53.350  1.00  0.00     0.000 A 
ENDBRANCH  17  19
ENDBRANCH  10  17
ENDBRANCH   5   7
ENDBRANCH   1   5
TORSDOF 6
ENDMDL
MODEL 15
REMARK VINA RESULT:    -6.934      1.659      4.799
REMARK INTER + INTRA:         -10.123
REMARK INTER:                  -9.404
REMARK INTRA:                  -0.719
REMARK UNBOUND:                -0.757
REMARK SMILES COCCNc1nc(Nc2ccccc2)c2nccnc2n1
REMARK SMILES IDX 4 1 3 2 2 3 1 4 5 5 6 7 7 8 22 9 8 10 21 11 16 12 20 13
REMARK SMILES IDX 17 14 19 15 18 16 9 17 10 19 11 20 15 21 12 22 14 23 13 24
REMARK H PARENT 5 6 9 18
ROOT
ATOM      1  C   UNL     1       7.727  43.565  49.575  1.00  0.00     0.144 C 
ENDROOT
BRANCH   1   2
ATOM      2  C   UNL     1       6.483  42.712  49.306  1.00  0.00     0.181 C 
BRANCH   2   3
ATOM      3  O   UNL     1       5.773  42.517  50.536  1.00  0.00    -0.383 OA
ATOM      4  C   UNL     1       4.699  41.598  50.376  1.00  0.00     0.194 C 
ENDBRANCH   2   3
ENDBRANCH   1   2
BRANCH   1   5
ATOM      5  N   UNL     1       7.372  44.978  49.504  1.00  0.00    -0.352 N 
ATOM      6  H   UNL     1       7.891  45.482  48.788  1.00  0.00     0.163 HD
BRANCH   5   7
ATOM      7  C   UNL     1       7.528  45.674  50.690  1.00  0.00     0.226 A 
ATOM      8  N   UNL     1       6.424  46.220  51.193  1.00  0.00    -0.193 NA
ATOM      9  N   UNL     1       8.722  45.760  51.268  1.00  0.00    -0.191 NA
ATOM     10  C   UNL     1       6.532  46.875  52.367  1.00  0.00     0.164 A 
ATOM     11  C   UNL     1       8.825  46.435  52.406  1.00  0.00     0.185 A 
ATOM     12  C   UNL     1       7.740  47.049  53.046  1.00  0.00     0.150 A 
ATOM     13  N   UNL     1      10.051  46.517  52.938  1.00  0.00    -0.233 NA
ATOM     14  N   UNL     1       7.904  47.756  54.212  1.00  0.00    -0.247 NA
ATOM     15  C   UNL     1      10.202  47.209  54.088  1.00  0.00     0.133 A 
ATOM     16  C   UNL     1       9.146  47.822  54.717  1.00  0.00     0.132 A 
BRANCH  10  17
ATOM     17  N   UNL     1       5.312  47.424  52.822  1.00  0.00    -0.338 N 
ATOM     18  H   UNL     1       5.092  48.187  52.185  1.00  0.00     0.168 HD
BRANCH  17  19
ATOM     19  C   UNL     1       4.122  46.754  53.186  1.00  0.00     0.040 A 
ATOM     20  C   UNL     1       4.080  46.117  54.435  1.00  0.00     0.026 A 
ATOM     21  C   UNL     1       2.966  46.745  52.397  1.00  0.00     0.026 A 
ATOM     22  C   UNL     1       2.922  45.469  54.874  1.00  0.00     0.002 A 
ATOM     23  C   UNL     1       1.806  46.098  52.835  1.00  0.00     0.002 A 
ATOM     24  C   UNL     1       1.785  45.459  54.072  1.00  0.00     0.000 A 
ENDBRANCH  17  19
ENDBRANCH  10  17
ENDBRANCH   5   7
ENDBRANCH   1   5
TORSDOF 6
ENDMDL
MODEL 16
REMARK VINA RESULT:    -6.928      2.945      4.283
REMARK INTER + INTRA:         -10.115
REMARK INTER:                  -9.372
REMARK INTRA:                  -0.742
REMARK UNBOUND:                -0.757
REMARK SMILES COCCNc1nc(Nc2ccccc2)c2nccnc2n1
REMARK SMILES IDX 4 1 3 2 2 3 1 4 5 5 6 7 7 8 22 9 8 10 21 11 16 12 20 13
REMARK SMILES IDX 17 14 19 15 18 16 9 17 10 19 11 20 15 21 12 22 14 23 13 24
REMARK H PARENT 5 6 9 18
ROOT
ATOM      1  C   UNL     1       1.411  42.768  52.212  1.00  0.00     0.144 C 
ENDROOT
BRANCH   1   2
ATOM      2  C   UNL     1       0.855  43.869  53.122  1.00  0.00     0.181 C 
BRANCH   2   3
ATOM      3  O   UNL     1       0.676  45.067  52.355  1.00  0.00    -0.383 OA
ATOM      4  C   UNL     1       1.641  46.054  52.699  1.00  0.00     0.194 C 
ENDBRANCH   2   3
ENDBRANCH   1   2
BRANCH   1   5
ATOM      5  N   UNL     1       2.691  42.305  52.735  1.00  0.00    -0.352 N 
ATOM      6  H   UNL     1       2.854  42.593  53.697  1.00  0.00     0.163 HD
BRANCH   5   7
ATOM      7  C   UNL     1       3.794  42.697  51.995  1.00  0.00     0.226 A 
ATOM      8  N   UNL     1       4.172  41.864  51.030  1.00  0.00    -0.193 NA
ATOM      9  N   UNL     1       4.404  43.848  52.257  1.00  0.00    -0.191 NA
ATOM     10  C   UNL     1       5.220  42.230  50.266  1.00  0.00     0.164 A 
ATOM     11  C   UNL     1       5.456  44.185  51.521  1.00  0.00     0.185 A 
ATOM     12  C   UNL     1       5.951  43.403  50.469  1.00  0.00     0.150 A 
ATOM     13  N   UNL     1       6.054  45.341  51.836  1.00  0.00    -0.233 NA
ATOM     14  N   UNL     1       7.058  43.786  49.752  1.00  0.00    -0.247 NA
ATOM     15  C   UNL     1       7.139  45.713  51.122  1.00  0.00     0.133 A 
ATOM     16  C   UNL     1       7.636  44.948  50.096  1.00  0.00     0.132 A 
BRANCH  10  17
ATOM     17  N   UNL     1       5.553  41.285  49.270  1.00  0.00    -0.338 N 
ATOM     18  H   UNL     1       5.471  40.371  49.711  1.00  0.00     0.168 HD
BRANCH  17  19
ATOM     19  C   UNL     1       5.092  41.207  47.935  1.00  0.00     0.040 A 
ATOM     20  C   UNL     1       3.927  40.468  47.683  1.00  0.00     0.026 A 
ATOM     21  C   UNL     1       5.696  41.878  46.867  1.00  0.00     0.026 A 
ATOM     22  C   UNL     1       3.394  40.382  46.394  1.00  0.00     0.002 A 
ATOM     23  C   UNL     1       5.164  41.794  45.576  1.00  0.00     0.002 A 
ATOM     24  C   UNL     1       4.014  41.045  45.340  1.00  0.00     0.000 A 
ENDBRANCH  17  19
ENDBRANCH  10  17
ENDBRANCH   5   7
ENDBRANCH   1   5
TORSDOF 6
ENDMDL
MODEL 17
REMARK VINA RESULT:    -6.922      1.585      4.799
REMARK INTER + INTRA:         -10.107
REMARK INTER:                  -9.483
REMARK INTRA:                  -0.624
REMARK UNBOUND:                -0.757
REMARK SMILES COCCNc1nc(Nc2ccccc2)c2nccnc2n1
REMARK SMILES IDX 4 1 3 2 2 3 1 4 5 5 6 7 7 8 22 9 8 10 21 11 16 12 20 13
REMARK SMILES IDX 17 14 19 15 18 16 9 17 10 19 11 20 15 21 12 22 14 23 13 24
REMARK H PARENT 5 6 9 18
ROOT
ATOM      1  C   UNL     1       7.409  43.421  49.617  1.00  0.00     0.144 C 
ENDROOT
BRANCH   1   2
ATOM      2  C   UNL     1       6.363  42.306  49.504  1.00  0.00     0.181 C 
BRANCH   2   3
ATOM      3  O   UNL     1       5.331  42.532  50.473  1.00  0.00    -0.383 OA
ATOM      4  C   UNL     1       4.467  41.408  50.583  1.00  0.00     0.194 C 
ENDBRANCH   2   3
ENDBRANCH   1   2
BRANCH   1   5
ATOM      5  N   UNL     1       6.737  44.714  49.671  1.00  0.00    -0.352 N 
ATOM      6  H   UNL     1       6.925  45.294  48.856  1.00  0.00     0.163 HD
BRANCH   5   7
ATOM      7  C   UNL     1       7.032  45.473  50.791  1.00  0.00     0.226 A 
ATOM      8  N   UNL     1       5.991  46.024  51.409  1.00  0.00    -0.193 NA
ATOM      9  N   UNL     1       8.289  45.610  51.199  1.00  0.00    -0.191 NA
ATOM     10  C   UNL     1       6.237  46.739  52.526  1.00  0.00     0.164 A 
ATOM     11  C   UNL     1       8.525  46.343  52.279  1.00  0.00     0.185 A 
ATOM     12  C   UNL     1       7.520  46.970  53.028  1.00  0.00     0.150 A 
ATOM     13  N   UNL     1       9.808  46.475  52.638  1.00  0.00    -0.233 NA
ATOM     14  N   UNL     1       7.819  47.739  54.126  1.00  0.00    -0.247 NA
ATOM     15  C   UNL     1      10.094  47.227  53.723  1.00  0.00     0.133 A 
ATOM     16  C   UNL     1       9.115  47.852  54.457  1.00  0.00     0.132 A 
BRANCH  10  17
ATOM     17  N   UNL     1       5.075  47.289  53.113  1.00  0.00    -0.338 N 
ATOM     18  H   UNL     1       4.842  48.110  52.559  1.00  0.00     0.168 HD
BRANCH  17  19
ATOM     19  C   UNL     1       3.887  46.631  53.506  1.00  0.00     0.040 A 
ATOM     20  C   UNL     1       2.794  46.667  52.628  1.00  0.00     0.026 A 
ATOM     21  C   UNL     1       3.764  45.895  54.689  1.00  0.00     0.026 A 
ATOM     22  C   UNL     1       1.602  46.005  52.935  1.00  0.00     0.002 A 
ATOM     23  C   UNL     1       2.573  45.231  54.998  1.00  0.00     0.002 A 
ATOM     24  C   UNL     1       1.492  45.287  54.123  1.00  0.00     0.000 A 
ENDBRANCH  17  19
ENDBRANCH  10  17
ENDBRANCH   5   7
ENDBRANCH   1   5
TORSDOF 6
ENDMDL
MODEL 18
REMARK VINA RESULT:    -6.870      2.759      5.550
REMARK INTER + INTRA:         -10.036
REMARK INTER:                  -9.701
REMARK INTRA:                  -0.335
REMARK UNBOUND:                -0.757
REMARK SMILES COCCNc1nc(Nc2ccccc2)c2nccnc2n1
REMARK SMILES IDX 4 1 3 2 2 3 1 4 5 5 6 7 7 8 22 9 8 10 21 11 16 12 20 13
REMARK SMILES IDX 17 14 19 15 18 16 9 17 10 19 11 20 15 21 12 22 14 23 13 24
REMARK H PARENT 5 6 9 18
ROOT
ATOM      1  C   UNL     1       5.435  45.106  55.214  1.00  0.00     0.144 C 
ENDROOT
BRANCH   1   2
ATOM      2  C   UNL     1       5.770  46.567  54.892  1.00  0.00     0.181 C 
BRANCH   2   3
ATOM      3  O   UNL     1       7.192  46.742  54.927  1.00  0.00    -0.383 OA
ATOM      4  C   UNL     1       7.701  47.116  53.653  1.00  0.00     0.194 C 
ENDBRANCH   2   3
ENDBRANCH   1   2
BRANCH   1   5
ATOM      5  N   UNL     1       3.993  44.962  55.378  1.00  0.00    -0.352 N 
ATOM      6  H   UNL     1       3.741  44.328  56.132  1.00  0.00     0.163 HD
BRANCH   5   7
ATOM      7  C   UNL     1       3.322  44.539  54.243  1.00  0.00     0.226 A 
ATOM      8  N   UNL     1       4.078  44.010  53.285  1.00  0.00    -0.193 NA
ATOM      9  N   UNL     1       2.001  44.660  54.159  1.00  0.00    -0.191 NA
ATOM     10  C   UNL     1       3.454  43.553  52.181  1.00  0.00     0.164 A 
ATOM     11  C   UNL     1       1.399  44.238  53.055  1.00  0.00     0.185 A 
ATOM     12  C   UNL     1       2.076  43.654  51.975  1.00  0.00     0.150 A 
ATOM     13  N   UNL     1       0.071  44.403  53.003  1.00  0.00    -0.233 NA
ATOM     14  N   UNL     1       1.408  43.254  50.843  1.00  0.00    -0.247 NA
ATOM     15  C   UNL     1      -0.579  44.002  51.888  1.00  0.00     0.133 A 
ATOM     16  C   UNL     1       0.078  43.438  50.822  1.00  0.00     0.132 A 
BRANCH  10  17
ATOM     17  N   UNL     1       4.333  43.012  51.216  1.00  0.00    -0.338 N 
ATOM     18  H   UNL     1       3.748  42.710  50.440  1.00  0.00     0.168 HD
BRANCH  17  19
ATOM     19  C   UNL     1       5.538  43.556  50.715  1.00  0.00     0.040 A 
ATOM     20  C   UNL     1       6.320  42.755  49.870  1.00  0.00     0.026 A 
ATOM     21  C   UNL     1       5.959  44.866  50.964  1.00  0.00     0.026 A 
ATOM     22  C   UNL     1       7.503  43.243  49.307  1.00  0.00     0.002 A 
ATOM     23  C   UNL     1       7.142  45.357  50.401  1.00  0.00     0.002 A 
ATOM     24  C   UNL     1       7.914  44.546  49.575  1.00  0.00     0.000 A 
ENDBRANCH  17  19
ENDBRANCH  10  17
ENDBRANCH   5   7
ENDBRANCH   1   5
TORSDOF 6
ENDMDL
MODEL 19
REMARK VINA RESULT:    -6.808      2.760      6.164
REMARK INTER + INTRA:          -9.952
REMARK INTER:                  -9.346
REMARK INTRA:                  -0.606
REMARK UNBOUND:                -0.757
REMARK SMILES COCCNc1nc(Nc2ccccc2)c2nccnc2n1
REMARK SMILES IDX 4 1 3 2 2 3 1 4 5 5 6 7 7 8 22 9 8 10 21 11 16 12 20 13
REMARK SMILES IDX 17 14 19 15 18 16 9 17 10 19 11 20 15 21 12 22 14 23 13 24
REMARK H PARENT 5 6 9 18
ROOT
ATOM      1  C   UNL     1       7.494  46.840  53.126  1.00  0.00     0.144 C 
ENDROOT
BRANCH   1   2
ATOM      2  C   UNL     1       8.622  47.843  52.858  1.00  0.00     0.181 C 
BRANCH   2   3
ATOM      3  O   UNL     1       9.884  47.191  53.050  1.00  0.00    -0.383 OA
ATOM      4  C   UNL     1      10.216  46.364  51.941  1.00  0.00     0.194 C 
ENDBRANCH   2   3
ENDBRANCH   1   2
BRANCH   1   5
ATOM      5  N   UNL     1       6.600  46.796  51.974  1.00  0.00    -0.352 N 
ATOM      6  H   UNL     1       5.860  47.493  52.019  1.00  0.00     0.163 HD
BRANCH   5   7
ATOM      7  C   UNL     1       5.996  45.569  51.759  1.00  0.00     0.226 A 
ATOM      8  N   UNL     1       5.037  45.234  52.618  1.00  0.00    -0.193 NA
ATOM      9  N   UNL     1       6.371  44.804  50.738  1.00  0.00    -0.191 NA
ATOM     10  C   UNL     1       4.402  44.062  52.417  1.00  0.00     0.164 A 
ATOM     11  C   UNL     1       5.764  43.638  50.568  1.00  0.00     0.185 A 
ATOM     12  C   UNL     1       4.732  43.170  51.394  1.00  0.00     0.150 A 
ATOM     13  N   UNL     1       6.191  42.890  49.542  1.00  0.00    -0.233 NA
ATOM     14  N   UNL     1       4.151  41.943  51.189  1.00  0.00    -0.247 NA
ATOM     15  C   UNL     1       5.609  41.687  49.343  1.00  0.00     0.133 A 
ATOM     16  C   UNL     1       4.605  41.217  50.154  1.00  0.00     0.132 A 
BRANCH  10  17
ATOM     17  N   UNL     1       3.403  43.788  53.378  1.00  0.00    -0.338 N 
ATOM     18  H   UNL     1       3.665  44.309  54.212  1.00  0.00     0.168 HD
BRANCH  17  19
ATOM     19  C   UNL     1       1.998  43.817  53.225  1.00  0.00     0.040 A 
ATOM     20  C   UNL     1       1.408  45.013  52.790  1.00  0.00     0.026 A 
ATOM     21  C   UNL     1       1.174  42.704  53.422  1.00  0.00     0.026 A 
ATOM     22  C   UNL     1       0.029  45.101  52.580  1.00  0.00     0.002 A 
ATOM     23  C   UNL     1      -0.207  42.789  53.211  1.00  0.00     0.002 A 
ATOM     24  C   UNL     1      -0.779  43.987  52.792  1.00  0.00     0.000 A 
ENDBRANCH  17  19
ENDBRANCH  10  17
ENDBRANCH   5   7
ENDBRANCH   1   5
TORSDOF 6
ENDMDL
MODEL 20
REMARK VINA RESULT:    -6.803      3.099      5.684
REMARK INTER + INTRA:          -9.946
REMARK INTER:                  -9.425
REMARK INTRA:                  -0.521
REMARK UNBOUND:                -0.757
REMARK SMILES COCCNc1nc(Nc2ccccc2)c2nccnc2n1
REMARK SMILES IDX 4 1 3 2 2 3 1 4 5 5 6 7 7 8 22 9 8 10 21 11 16 12 20 13
REMARK SMILES IDX 17 14 19 15 18 16 9 17 10 19 11 20 15 21 12 22 14 23 13 24
REMARK H PARENT 5 6 9 18
ROOT
ATOM      1  C   UNL     1       0.873  46.023  57.070  1.00  0.00     0.144 C 
ENDROOT
BRANCH   1   2
ATOM      2  C   UNL     1       1.029  46.787  58.390  1.00  0.00     0.181 C 
BRANCH   2   3
ATOM      3  O   UNL     1      -0.270  47.052  58.935  1.00  0.00    -0.383 OA
ATOM      4  C   UNL     1      -0.253  48.189  59.789  1.00  0.00     0.194 C 
ENDBRANCH   2   3
ENDBRANCH   1   2
BRANCH   1   5
ATOM      5  N   UNL     1       2.192  45.718  56.528  1.00  0.00    -0.352 N 
ATOM      6  H   UNL     1       2.854  46.482  56.641  1.00  0.00     0.163 HD
BRANCH   5   7
ATOM      7  C   UNL     1       2.198  45.363  55.189  1.00  0.00     0.226 A 
ATOM      8  N   UNL     1       2.967  46.104  54.396  1.00  0.00    -0.193 NA
ATOM      9  N   UNL     1       1.475  44.333  54.763  1.00  0.00    -0.191 NA
ATOM     10  C   UNL     1       3.027  45.765  53.092  1.00  0.00     0.164 A 
ATOM     11  C   UNL     1       1.513  44.027  53.473  1.00  0.00     0.185 A 
ATOM     12  C   UNL     1       2.289  44.719  52.532  1.00  0.00     0.150 A 
ATOM     13  N   UNL     1       0.750  42.998  53.084  1.00  0.00    -0.233 NA
ATOM     14  N   UNL     1       2.275  44.377  51.202  1.00  0.00    -0.247 NA
ATOM     15  C   UNL     1       0.747  42.664  51.775  1.00  0.00     0.133 A 
ATOM     16  C   UNL     1       1.496  43.343  50.846  1.00  0.00     0.132 A 
BRANCH  10  17
ATOM     17  N   UNL     1       3.864  46.607  52.325  1.00  0.00    -0.338 N 
ATOM     18  H   UNL     1       3.758  47.540  52.717  1.00  0.00     0.168 HD
BRANCH  17  19
ATOM     19  C   UNL     1       5.210  46.404  51.944  1.00  0.00     0.040 A 
ATOM     20  C   UNL     1       6.210  47.020  52.711  1.00  0.00     0.026 A 
ATOM     21  C   UNL     1       5.599  45.576  50.887  1.00  0.00     0.026 A 
ATOM     22  C   UNL     1       7.563  46.830  52.414  1.00  0.00     0.002 A 
ATOM     23  C   UNL     1       6.953  45.384  50.588  1.00  0.00     0.002 A 
ATOM     24  C   UNL     1       7.934  46.013  51.351  1.00  0.00     0.000 A 
ENDBRANCH  17  19
ENDBRANCH  10  17
ENDBRANCH   5   7
ENDBRANCH   1   5
TORSDOF 6
ENDMDL
