MODEL 1
REMARK VINA RESULT:    -8.502      0.000      0.000
REMARK INTER + INTRA:         -12.982
REMARK INTER:                 -11.733
REMARK INTRA:                  -1.249
REMARK UNBOUND:                -1.249
REMARK SMILES Cc1c(Cl)cccc1Nc1nc(NCCCO)nc2c1cnn2C
REMARK SMILES IDX 13 1 12 3 10 4 11 5 20 6 19 7 21 8 18 9 23 10 22 11 24 12
REMARK SMILES IDX 9 13 8 15 2 16 3 17 5 18 7 19 6 20 1 21 4 22 14 23 15 24
REMARK SMILES IDX 16 25 17 26
REMARK H PARENT 13 2 9 14 17 27
ROOT
ATOM      1  N   UNL     1       2.792  44.541  54.205  1.00  0.00    -0.354 N 
ATOM      2  H   UNL     1       3.260  45.147  54.871  1.00  0.00     0.163 HD
ENDROOT
BRANCH   1   3
ATOM      3  C   UNL     1       3.691  44.395  53.154  1.00  0.00     0.226 A 
ATOM      4  C   UNL     1       5.500  45.385  52.042  1.00  0.00     0.147 A 
ATOM      5  N   UNL     1       4.568  45.409  53.027  1.00  0.00    -0.195 NA
ATOM      6  C   UNL     1       5.531  44.271  51.201  1.00  0.00     0.082 A 
ATOM      7  C   UNL     1       4.581  43.296  51.424  1.00  0.00     0.165 A 
ATOM      8  C   UNL     1       6.295  43.779  50.122  1.00  0.00     0.149 A 
ATOM      9  N   UNL     1       3.632  43.309  52.372  1.00  0.00    -0.193 NA
ATOM     10  N   UNL     1       4.814  42.322  50.492  1.00  0.00    -0.250 N 
ATOM     11  N   UNL     1       5.855  42.598  49.671  1.00  0.00    -0.179 NA
ATOM     12  C   UNL     1       4.089  41.088  50.325  1.00  0.00     0.176 C 
BRANCH   4  13
ATOM     13  N   UNL     1       6.393  46.466  51.982  1.00  0.00    -0.339 N 
ATOM     14  H   UNL     1       6.207  46.952  51.106  1.00  0.00     0.168 HD
BRANCH  13  15
ATOM     15  C   UNL     1       7.779  46.467  52.272  1.00  0.00     0.044 A 
ATOM     16  C   UNL     1       8.228  46.867  53.551  1.00  0.00    -0.009 A 
ATOM     17  C   UNL     1       9.614  46.924  53.797  1.00  0.00     0.046 A 
ATOM     18  C   UNL     1      10.537  46.601  52.799  1.00  0.00     0.021 A 
ATOM     19  C   UNL     1       8.724  46.175  51.274  1.00  0.00     0.026 A 
ATOM     20  C   UNL     1      10.092  46.229  51.537  1.00  0.00     0.004 A 
ATOM     21  C   UNL     1       7.254  47.219  54.650  1.00  0.00     0.048 C 
ATOM     22  Cl  UNL     1      10.247  47.402  55.335  1.00  0.00    -0.084 Cl
ENDBRANCH  13  15
ENDBRANCH   4  13
ENDBRANCH   1   3
BRANCH   1  23
ATOM     23  C   UNL     1       1.461  44.967  53.807  1.00  0.00     0.118 C 
BRANCH  23  24
ATOM     24  C   UNL     1       0.417  44.005  54.369  1.00  0.00     0.049 C 
BRANCH  24  25
ATOM     25  C   UNL     1       0.236  42.773  53.491  1.00  0.00     0.158 C 
BRANCH  25  26
ATOM     26  O   UNL     1       1.344  41.898  53.670  1.00  0.00    -0.396 OA
ATOM     27  H   UNL     1       1.982  42.089  52.961  1.00  0.00     0.210 HD
ENDBRANCH  25  26
ENDBRANCH  24  25
ENDBRANCH  23  24
ENDBRANCH   1  23
TORSDOF 7
ENDMDL
MODEL 2
REMARK VINA RESULT:    -8.390      1.330      1.564
REMARK INTER + INTRA:         -12.827
REMARK INTER:                 -11.664
REMARK INTRA:                  -1.163
REMARK UNBOUND:                -1.249
REMARK SMILES Cc1c(Cl)cccc1Nc1nc(NCCCO)nc2c1cnn2C
REMARK SMILES IDX 13 1 12 3 10 4 11 5 20 6 19 7 21 8 18 9 23 10 22 11 24 12
REMARK SMILES IDX 9 13 8 15 2 16 3 17 5 18 7 19 6 20 1 21 4 22 14 23 15 24
REMARK SMILES IDX 16 25 17 26
REMARK H PARENT 13 2 9 14 17 27
ROOT
ATOM      1  N   UNL     1       2.777  43.445  53.452  1.00  0.00    -0.354 N 
ATOM      2  H   UNL     1       3.250  43.065  54.267  1.00  0.00     0.163 HD
ENDROOT
BRANCH   1   3
ATOM      3  C   UNL     1       3.773  43.594  52.493  1.00  0.00     0.226 A 
ATOM      4  C   UNL     1       5.501  44.985  51.740  1.00  0.00     0.147 A 
ATOM      5  N   UNL     1       4.497  44.723  52.613  1.00  0.00    -0.195 NA
ATOM      6  C   UNL     1       5.768  44.037  50.750  1.00  0.00     0.082 A 
ATOM      7  C   UNL     1       4.958  42.920  50.722  1.00  0.00     0.165 A 
ATOM      8  C   UNL     1       6.683  43.834  49.696  1.00  0.00     0.149 A 
ATOM      9  N   UNL     1       3.942  42.652  51.555  1.00  0.00    -0.193 NA
ATOM     10  N   UNL     1       5.410  42.152  49.685  1.00  0.00    -0.250 N 
ATOM     11  N   UNL     1       6.463  42.693  49.030  1.00  0.00    -0.179 NA
ATOM     12  C   UNL     1       4.892  40.876  49.260  1.00  0.00     0.176 C 
BRANCH   4  13
ATOM     13  N   UNL     1       6.226  46.170  51.937  1.00  0.00    -0.339 N 
ATOM     14  H   UNL     1       5.962  46.804  51.185  1.00  0.00     0.168 HD
BRANCH  13  15
ATOM     15  C   UNL     1       7.600  46.308  52.250  1.00  0.00     0.044 A 
ATOM     16  C   UNL     1       7.987  46.732  53.541  1.00  0.00    -0.009 A 
ATOM     17  C   UNL     1       9.357  46.927  53.810  1.00  0.00     0.046 A 
ATOM     18  C   UNL     1      10.323  46.715  52.823  1.00  0.00     0.021 A 
ATOM     19  C   UNL     1       8.586  46.128  51.263  1.00  0.00     0.026 A 
ATOM     20  C   UNL     1       9.937  46.317  51.549  1.00  0.00     0.004 A 
ATOM     21  C   UNL     1       6.967  46.968  54.628  1.00  0.00     0.048 C 
ATOM     22  Cl  UNL     1       9.915  47.445  55.364  1.00  0.00    -0.084 Cl
ENDBRANCH  13  15
ENDBRANCH   4  13
ENDBRANCH   1   3
BRANCH   1  23
ATOM     23  C   UNL     1       1.988  44.641  53.695  1.00  0.00     0.118 C 
BRANCH  23  24
ATOM     24  C   UNL     1       1.934  44.934  55.192  1.00  0.00     0.049 C 
BRANCH  24  25
ATOM     25  C   UNL     1       3.135  45.743  55.665  1.00  0.00     0.158 C 
BRANCH  25  26
ATOM     26  O   UNL     1       4.284  44.904  55.708  1.00  0.00    -0.396 OA
ATOM     27  H   UNL     1       4.066  44.144  56.275  1.00  0.00     0.210 HD
ENDBRANCH  25  26
ENDBRANCH  24  25
ENDBRANCH  23  24
ENDBRANCH   1  23
TORSDOF 7
ENDMDL
MODEL 3
REMARK VINA RESULT:    -8.324      3.025      5.371
REMARK INTER + INTRA:         -12.736
REMARK INTER:                 -11.361
REMARK INTRA:                  -1.375
REMARK UNBOUND:                -1.249
REMARK SMILES Cc1c(Cl)cccc1Nc1nc(NCCCO)nc2c1cnn2C
REMARK SMILES IDX 13 1 12 3 10 4 11 5 20 6 19 7 21 8 18 9 23 10 22 11 24 12
REMARK SMILES IDX 9 13 8 15 2 16 3 17 5 18 7 19 6 20 1 21 4 22 14 23 15 24
REMARK SMILES IDX 16 25 17 26
REMARK H PARENT 13 2 9 14 17 27
ROOT
ATOM      1  N   UNL     1       4.589  46.851  55.281  1.00  0.00    -0.354 N 
ATOM      2  H   UNL     1       4.034  47.628  54.938  1.00  0.00     0.163 HD
ENDROOT
BRANCH   1   3
ATOM      3  C   UNL     1       5.691  46.791  54.434  1.00  0.00     0.226 A 
ATOM      4  C   UNL     1       6.397  46.275  52.261  1.00  0.00     0.147 A 
ATOM      5  N   UNL     1       5.409  46.374  53.185  1.00  0.00    -0.195 NA
ATOM      6  C   UNL     1       7.687  46.646  52.643  1.00  0.00     0.082 A 
ATOM      7  C   UNL     1       7.856  47.054  53.951  1.00  0.00     0.165 A 
ATOM      8  C   UNL     1       8.971  46.761  52.070  1.00  0.00     0.149 A 
ATOM      9  N   UNL     1       6.903  47.134  54.891  1.00  0.00    -0.193 NA
ATOM     10  N   UNL     1       9.182  47.363  54.081  1.00  0.00    -0.250 N 
ATOM     11  N   UNL     1       9.894  47.183  52.944  1.00  0.00    -0.179 NA
ATOM     12  C   UNL     1       9.848  47.849  55.263  1.00  0.00     0.176 C 
BRANCH   4  13
ATOM     13  N   UNL     1       6.028  45.852  50.974  1.00  0.00    -0.339 N 
ATOM     14  H   UNL     1       5.099  46.231  50.796  1.00  0.00     0.168 HD
BRANCH  13  15
ATOM     15  C   UNL     1       6.158  44.559  50.412  1.00  0.00     0.044 A 
ATOM     16  C   UNL     1       5.142  43.599  50.617  1.00  0.00    -0.009 A 
ATOM     17  C   UNL     1       5.324  42.298  50.105  1.00  0.00     0.046 A 
ATOM     18  C   UNL     1       6.486  41.952  49.412  1.00  0.00     0.021 A 
ATOM     19  C   UNL     1       7.333  44.182  49.738  1.00  0.00     0.026 A 
ATOM     20  C   UNL     1       7.492  42.893  49.231  1.00  0.00     0.004 A 
ATOM     21  C   UNL     1       3.874  43.944  51.359  1.00  0.00     0.048 C 
ATOM     22  Cl  UNL     1       4.129  41.064  50.311  1.00  0.00    -0.084 Cl
ENDBRANCH  13  15
ENDBRANCH   4  13
ENDBRANCH   1   3
BRANCH   1  23
ATOM     23  C   UNL     1       3.874  45.595  55.433  1.00  0.00     0.118 C 
BRANCH  23  24
ATOM     24  C   UNL     1       2.372  45.832  55.290  1.00  0.00     0.049 C 
BRANCH  24  25
ATOM     25  C   UNL     1       1.902  45.702  53.847  1.00  0.00     0.158 C 
BRANCH  25  26
ATOM     26  O   UNL     1       2.369  46.817  53.095  1.00  0.00    -0.396 OA
ATOM     27  H   UNL     1       1.614  47.419  52.972  1.00  0.00     0.210 HD
ENDBRANCH  25  26
ENDBRANCH  24  25
ENDBRANCH  23  24
ENDBRANCH   1  23
TORSDOF 7
ENDMDL
MODEL 4
REMARK VINA RESULT:    -8.161      2.048      4.369
REMARK INTER + INTRA:         -12.511
REMARK INTER:                 -11.438
REMARK INTRA:                  -1.073
REMARK UNBOUND:                -1.249
REMARK SMILES Cc1c(Cl)cccc1Nc1nc(NCCCO)nc2c1cnn2C
REMARK SMILES IDX 13 1 12 3 10 4 11 5 20 6 19 7 21 8 18 9 23 10 22 11 24 12
REMARK SMILES IDX 9 13 8 15 2 16 3 17 5 18 7 19 6 20 1 21 4 22 14 23 15 24
REMARK SMILES IDX 16 25 17 26
REMARK H PARENT 13 2 9 14 17 27
ROOT
ATOM      1  N   UNL     1       4.300  41.511  51.201  1.00  0.00    -0.354 N 
ATOM      2  H   UNL     1       4.217  40.816  51.937  1.00  0.00     0.163 HD
ENDROOT
BRANCH   1   3
ATOM      3  C   UNL     1       3.891  42.706  51.783  1.00  0.00     0.226 A 
ATOM      4  C   UNL     1       4.407  44.977  52.034  1.00  0.00     0.147 A 
ATOM      5  N   UNL     1       4.697  43.754  51.527  1.00  0.00    -0.195 NA
ATOM      6  C   UNL     1       3.242  45.108  52.793  1.00  0.00     0.082 A 
ATOM      7  C   UNL     1       2.496  43.965  52.992  1.00  0.00     0.165 A 
ATOM      8  C   UNL     1       2.520  46.120  53.460  1.00  0.00     0.149 A 
ATOM      9  N   UNL     1       2.777  42.739  52.526  1.00  0.00    -0.193 NA
ATOM     10  N   UNL     1       1.421  44.342  53.749  1.00  0.00    -0.250 N 
ATOM     11  N   UNL     1       1.415  45.659  54.061  1.00  0.00    -0.179 NA
ATOM     12  C   UNL     1       0.346  43.501  54.211  1.00  0.00     0.176 C 
BRANCH   4  13
ATOM     13  N   UNL     1       5.280  46.027  51.710  1.00  0.00    -0.339 N 
ATOM     14  H   UNL     1       5.376  46.027  50.697  1.00  0.00     0.168 HD
BRANCH  13  15
ATOM     15  C   UNL     1       6.508  46.360  52.331  1.00  0.00     0.044 A 
ATOM     16  C   UNL     1       7.726  46.088  51.668  1.00  0.00    -0.009 A 
ATOM     17  C   UNL     1       8.938  46.366  52.332  1.00  0.00     0.046 A 
ATOM     18  C   UNL     1       8.947  46.894  53.625  1.00  0.00     0.021 A 
ATOM     19  C   UNL     1       6.540  46.864  53.643  1.00  0.00     0.026 A 
ATOM     20  C   UNL     1       7.748  47.141  54.282  1.00  0.00     0.004 A 
ATOM     21  C   UNL     1       7.749  45.520  50.270  1.00  0.00     0.048 C 
ATOM     22  Cl  UNL     1      10.472  46.064  51.591  1.00  0.00    -0.084 Cl
ENDBRANCH  13  15
ENDBRANCH   4  13
ENDBRANCH   1   3
BRANCH   1  23
ATOM     23  C   UNL     1       3.624  41.181  49.958  1.00  0.00     0.118 C 
BRANCH  23  24
ATOM     24  C   UNL     1       4.652  40.840  48.881  1.00  0.00     0.049 C 
BRANCH  24  25
ATOM     25  C   UNL     1       5.927  41.663  49.020  1.00  0.00     0.158 C 
BRANCH  25  26
ATOM     26  O   UNL     1       6.898  40.913  49.744  1.00  0.00    -0.396 OA
ATOM     27  H   UNL     1       6.620  40.904  50.676  1.00  0.00     0.210 HD
ENDBRANCH  25  26
ENDBRANCH  24  25
ENDBRANCH  23  24
ENDBRANCH   1  23
TORSDOF 7
ENDMDL
MODEL 5
REMARK VINA RESULT:    -7.889      1.866      4.088
REMARK INTER + INTRA:         -12.135
REMARK INTER:                 -11.290
REMARK INTRA:                  -0.845
REMARK UNBOUND:                -1.249
REMARK SMILES Cc1c(Cl)cccc1Nc1nc(NCCCO)nc2c1cnn2C
REMARK SMILES IDX 13 1 12 3 10 4 11 5 20 6 19 7 21 8 18 9 23 10 22 11 24 12
REMARK SMILES IDX 9 13 8 15 2 16 3 17 5 18 7 19 6 20 1 21 4 22 14 23 15 24
REMARK SMILES IDX 16 25 17 26
REMARK H PARENT 13 2 9 14 17 27
ROOT
ATOM      1  N   UNL     1       4.467  41.568  51.214  1.00  0.00    -0.354 N 
ATOM      2  H   UNL     1       4.234  40.822  51.862  1.00  0.00     0.163 HD
ENDROOT
BRANCH   1   3
ATOM      3  C   UNL     1       3.998  42.731  51.817  1.00  0.00     0.226 A 
ATOM      4  C   UNL     1       4.449  44.999  52.188  1.00  0.00     0.147 A 
ATOM      5  N   UNL     1       4.796  43.803  51.651  1.00  0.00    -0.195 NA
ATOM      6  C   UNL     1       3.238  45.078  52.879  1.00  0.00     0.082 A 
ATOM      7  C   UNL     1       2.506  43.913  52.987  1.00  0.00     0.165 A 
ATOM      8  C   UNL     1       2.456  46.048  53.540  1.00  0.00     0.149 A 
ATOM      9  N   UNL     1       2.840  42.713  52.490  1.00  0.00    -0.193 NA
ATOM     10  N   UNL     1       1.380  44.239  53.691  1.00  0.00    -0.250 N 
ATOM     11  N   UNL     1       1.327  45.543  54.053  1.00  0.00    -0.179 NA
ATOM     12  C   UNL     1       0.297  43.360  54.052  1.00  0.00     0.176 C 
BRANCH   4  13
ATOM     13  N   UNL     1       5.318  46.078  51.960  1.00  0.00    -0.339 N 
ATOM     14  H   UNL     1       4.960  46.577  51.148  1.00  0.00     0.168 HD
BRANCH  13  15
ATOM     15  C   UNL     1       6.734  46.069  51.960  1.00  0.00     0.044 A 
ATOM     16  C   UNL     1       7.439  46.501  53.106  1.00  0.00    -0.009 A 
ATOM     17  C   UNL     1       8.847  46.547  53.060  1.00  0.00     0.046 A 
ATOM     18  C   UNL     1       9.543  46.182  51.905  1.00  0.00     0.021 A 
ATOM     19  C   UNL     1       7.453  45.734  50.799  1.00  0.00     0.026 A 
ATOM     20  C   UNL     1       8.846  45.778  50.774  1.00  0.00     0.004 A 
ATOM     21  C   UNL     1       6.715  46.899  54.369  1.00  0.00     0.048 C 
ATOM     22  Cl  UNL     1       9.786  47.063  54.419  1.00  0.00    -0.084 Cl
ENDBRANCH  13  15
ENDBRANCH   4  13
ENDBRANCH   1   3
BRANCH   1  23
ATOM     23  C   UNL     1       4.011  41.369  49.848  1.00  0.00     0.118 C 
BRANCH  23  24
ATOM     24  C   UNL     1       5.210  41.160  48.926  1.00  0.00     0.049 C 
BRANCH  24  25
ATOM     25  C   UNL     1       6.473  41.824  49.461  1.00  0.00     0.158 C 
BRANCH  25  26
ATOM     26  O   UNL     1       7.293  40.843  50.088  1.00  0.00    -0.396 OA
ATOM     27  H   UNL     1       8.183  40.922  49.704  1.00  0.00     0.210 HD
ENDBRANCH  25  26
ENDBRANCH  24  25
ENDBRANCH  23  24
ENDBRANCH   1  23
TORSDOF 7
ENDMDL
MODEL 6
REMARK VINA RESULT:    -7.798      2.847      4.153
REMARK INTER + INTRA:         -12.009
REMARK INTER:                 -11.100
REMARK INTRA:                  -0.909
REMARK UNBOUND:                -1.249
REMARK SMILES Cc1c(Cl)cccc1Nc1nc(NCCCO)nc2c1cnn2C
REMARK SMILES IDX 13 1 12 3 10 4 11 5 20 6 19 7 21 8 18 9 23 10 22 11 24 12
REMARK SMILES IDX 9 13 8 15 2 16 3 17 5 18 7 19 6 20 1 21 4 22 14 23 15 24
REMARK SMILES IDX 16 25 17 26
REMARK H PARENT 13 2 9 14 17 27
ROOT
ATOM      1  N   UNL     1       2.089  46.069  56.735  1.00  0.00    -0.354 N 
ATOM      2  H   UNL     1       2.193  47.077  56.684  1.00  0.00     0.163 HD
ENDROOT
BRANCH   1   3
ATOM      3  C   UNL     1       2.206  45.626  55.421  1.00  0.00     0.226 A 
ATOM      4  C   UNL     1       3.695  44.781  53.822  1.00  0.00     0.147 A 
ATOM      5  N   UNL     1       3.448  45.237  55.075  1.00  0.00    -0.195 NA
ATOM      6  C   UNL     1       2.621  44.704  52.933  1.00  0.00     0.082 A 
ATOM      7  C   UNL     1       1.395  45.134  53.399  1.00  0.00     0.165 A 
ATOM      8  C   UNL     1       2.366  44.279  51.612  1.00  0.00     0.149 A 
ATOM      9  N   UNL     1       1.131  45.615  54.623  1.00  0.00    -0.193 NA
ATOM     10  N   UNL     1       0.516  44.960  52.365  1.00  0.00    -0.250 N 
ATOM     11  N   UNL     1       1.087  44.446  51.251  1.00  0.00    -0.179 NA
ATOM     12  C   UNL     1      -0.894  45.254  52.366  1.00  0.00     0.176 C 
BRANCH   4  13
ATOM     13  N   UNL     1       5.008  44.375  53.536  1.00  0.00    -0.339 N 
ATOM     14  H   UNL     1       5.448  44.158  54.428  1.00  0.00     0.168 HD
BRANCH  13  15
ATOM     15  C   UNL     1       5.934  44.983  52.654  1.00  0.00     0.044 A 
ATOM     16  C   UNL     1       6.740  46.051  53.109  1.00  0.00    -0.009 A 
ATOM     17  C   UNL     1       7.607  46.684  52.196  1.00  0.00     0.046 A 
ATOM     18  C   UNL     1       7.671  46.277  50.861  1.00  0.00     0.021 A 
ATOM     19  C   UNL     1       5.993  44.608  51.300  1.00  0.00     0.026 A 
ATOM     20  C   UNL     1       6.862  45.240  50.413  1.00  0.00     0.004 A 
ATOM     21  C   UNL     1       6.695  46.511  54.546  1.00  0.00     0.048 C 
ATOM     22  Cl  UNL     1       8.628  47.998  52.672  1.00  0.00    -0.084 Cl
ENDBRANCH  13  15
ENDBRANCH   4  13
ENDBRANCH   1   3
BRANCH   1  23
ATOM     23  C   UNL     1       0.900  45.601  57.427  1.00  0.00     0.118 C 
BRANCH  23  24
ATOM     24  C   UNL     1       0.126  46.790  57.992  1.00  0.00     0.049 C 
BRANCH  24  25
ATOM     25  C   UNL     1       0.822  47.411  59.196  1.00  0.00     0.158 C 
BRANCH  25  26
ATOM     26  O   UNL     1       2.029  46.705  59.462  1.00  0.00    -0.396 OA
ATOM     27  H   UNL     1       2.500  47.189  60.161  1.00  0.00     0.210 HD
ENDBRANCH  25  26
ENDBRANCH  24  25
ENDBRANCH  23  24
ENDBRANCH   1  23
TORSDOF 7
ENDMDL
MODEL 7
REMARK VINA RESULT:    -7.713      3.295      6.429
REMARK INTER + INTRA:         -11.892
REMARK INTER:                 -10.507
REMARK INTRA:                  -1.385
REMARK UNBOUND:                -1.249
REMARK SMILES Cc1c(Cl)cccc1Nc1nc(NCCCO)nc2c1cnn2C
REMARK SMILES IDX 13 1 12 3 10 4 11 5 20 6 19 7 21 8 18 9 23 10 22 11 24 12
REMARK SMILES IDX 9 13 8 15 2 16 3 17 5 18 7 19 6 20 1 21 4 22 14 23 15 24
REMARK SMILES IDX 16 25 17 26
REMARK H PARENT 13 2 9 14 17 27
ROOT
ATOM      1  N   UNL     1       8.703  47.648  51.865  1.00  0.00    -0.354 N 
ATOM      2  H   UNL     1       8.320  48.369  52.470  1.00  0.00     0.163 HD
ENDROOT
BRANCH   1   3
ATOM      3  C   UNL     1       7.649  46.770  51.636  1.00  0.00     0.226 A 
ATOM      4  C   UNL     1       5.373  46.382  52.032  1.00  0.00     0.147 A 
ATOM      5  N   UNL     1       6.480  47.151  52.185  1.00  0.00    -0.195 NA
ATOM      6  C   UNL     1       5.488  45.219  51.269  1.00  0.00     0.082 A 
ATOM      7  C   UNL     1       6.737  44.929  50.759  1.00  0.00     0.165 A 
ATOM      8  C   UNL     1       4.666  44.171  50.803  1.00  0.00     0.149 A 
ATOM      9  N   UNL     1       7.852  45.657  50.920  1.00  0.00    -0.193 NA
ATOM     10  N   UNL     1       6.598  43.763  50.058  1.00  0.00    -0.250 N 
ATOM     11  N   UNL     1       5.338  43.269  50.076  1.00  0.00    -0.179 NA
ATOM     12  C   UNL     1       7.623  43.059  49.331  1.00  0.00     0.176 C 
BRANCH   4  13
ATOM     13  N   UNL     1       4.185  46.849  52.615  1.00  0.00    -0.339 N 
ATOM     14  H   UNL     1       4.319  47.842  52.801  1.00  0.00     0.168 HD
BRANCH  13  15
ATOM     15  C   UNL     1       3.425  46.245  53.645  1.00  0.00     0.044 A 
ATOM     16  C   UNL     1       2.144  45.721  53.357  1.00  0.00    -0.009 A 
ATOM     17  C   UNL     1       1.377  45.184  54.411  1.00  0.00     0.046 A 
ATOM     18  C   UNL     1       1.862  45.171  55.721  1.00  0.00     0.021 A 
ATOM     19  C   UNL     1       3.881  46.248  54.975  1.00  0.00     0.026 A 
ATOM     20  C   UNL     1       3.113  45.706  56.003  1.00  0.00     0.004 A 
ATOM     21  C   UNL     1       1.595  45.718  51.951  1.00  0.00     0.048 C 
ATOM     22  Cl  UNL     1      -0.199  44.522  54.145  1.00  0.00    -0.084 Cl
ENDBRANCH  13  15
ENDBRANCH   4  13
ENDBRANCH   1   3
BRANCH   1  23
ATOM     23  C   UNL     1       9.922  47.019  52.344  1.00  0.00     0.118 C 
BRANCH  23  24
ATOM     24  C   UNL     1       9.785  46.680  53.827  1.00  0.00     0.049 C 
BRANCH  24  25
ATOM     25  C   UNL     1       9.284  47.864  54.645  1.00  0.00     0.158 C 
BRANCH  25  26
ATOM     26  O   UNL     1       7.905  47.680  54.948  1.00  0.00    -0.396 OA
ATOM     27  H   UNL     1       7.727  48.148  55.781  1.00  0.00     0.210 HD
ENDBRANCH  25  26
ENDBRANCH  24  25
ENDBRANCH  23  24
ENDBRANCH   1  23
TORSDOF 7
ENDMDL
MODEL 8
REMARK VINA RESULT:    -7.624      3.344      5.095
REMARK INTER + INTRA:         -11.769
REMARK INTER:                 -10.724
REMARK INTRA:                  -1.045
REMARK UNBOUND:                -1.249
REMARK SMILES Cc1c(Cl)cccc1Nc1nc(NCCCO)nc2c1cnn2C
REMARK SMILES IDX 13 1 12 3 10 4 11 5 20 6 19 7 21 8 18 9 23 10 22 11 24 12
REMARK SMILES IDX 9 13 8 15 2 16 3 17 5 18 7 19 6 20 1 21 4 22 14 23 15 24
REMARK SMILES IDX 16 25 17 26
REMARK H PARENT 13 2 9 14 17 27
ROOT
ATOM      1  N   UNL     1       1.966  45.953  56.597  1.00  0.00    -0.354 N 
ATOM      2  H   UNL     1       2.123  46.951  56.493  1.00  0.00     0.163 HD
ENDROOT
BRANCH   1   3
ATOM      3  C   UNL     1       1.904  45.460  55.298  1.00  0.00     0.226 A 
ATOM      4  C   UNL     1       3.127  44.406  53.600  1.00  0.00     0.147 A 
ATOM      5  N   UNL     1       3.057  44.925  54.851  1.00  0.00    -0.195 NA
ATOM      6  C   UNL     1       1.968  44.420  52.822  1.00  0.00     0.082 A 
ATOM      7  C   UNL     1       0.848  44.996  53.385  1.00  0.00     0.165 A 
ATOM      8  C   UNL     1       1.539  43.984  51.551  1.00  0.00     0.149 A 
ATOM      9  N   UNL     1       0.760  45.542  54.607  1.00  0.00    -0.193 NA
ATOM     10  N   UNL     1      -0.143  44.888  52.448  1.00  0.00    -0.250 N 
ATOM     11  N   UNL     1       0.256  44.279  51.307  1.00  0.00    -0.179 NA
ATOM     12  C   UNL     1      -1.507  45.336  52.571  1.00  0.00     0.176 C 
BRANCH   4  13
ATOM     13  N   UNL     1       4.354  43.849  53.208  1.00  0.00    -0.339 N 
ATOM     14  H   UNL     1       4.856  43.612  54.062  1.00  0.00     0.168 HD
BRANCH  13  15
ATOM     15  C   UNL     1       5.248  44.322  52.216  1.00  0.00     0.044 A 
ATOM     16  C   UNL     1       5.498  43.540  51.066  1.00  0.00    -0.009 A 
ATOM     17  C   UNL     1       6.441  44.000  50.125  1.00  0.00     0.046 A 
ATOM     18  C   UNL     1       7.127  45.201  50.318  1.00  0.00     0.021 A 
ATOM     19  C   UNL     1       5.970  45.513  52.406  1.00  0.00     0.026 A 
ATOM     20  C   UNL     1       6.893  45.957  51.461  1.00  0.00     0.004 A 
ATOM     21  C   UNL     1       4.771  42.239  50.828  1.00  0.00     0.048 C 
ATOM     22  Cl  UNL     1       6.806  43.104  48.690  1.00  0.00    -0.084 Cl
ENDBRANCH  13  15
ENDBRANCH   4  13
ENDBRANCH   1   3
BRANCH   1  23
ATOM     23  C   UNL     1       0.840  45.586  57.438  1.00  0.00     0.118 C 
BRANCH  23  24
ATOM     24  C   UNL     1       0.163  46.842  57.980  1.00  0.00     0.049 C 
BRANCH  24  25
ATOM     25  C   UNL     1       0.889  47.412  59.192  1.00  0.00     0.158 C 
BRANCH  25  26
ATOM     26  O   UNL     1       2.085  46.673  59.418  1.00  0.00    -0.396 OA
ATOM     27  H   UNL     1       2.771  47.308  59.685  1.00  0.00     0.210 HD
ENDBRANCH  25  26
ENDBRANCH  24  25
ENDBRANCH  23  24
ENDBRANCH   1  23
TORSDOF 7
ENDMDL
MODEL 9
REMARK VINA RESULT:    -7.596      2.443      3.128
REMARK INTER + INTRA:         -11.732
REMARK INTER:                 -10.837
REMARK INTRA:                  -0.894
REMARK UNBOUND:                -1.249
REMARK SMILES Cc1c(Cl)cccc1Nc1nc(NCCCO)nc2c1cnn2C
REMARK SMILES IDX 13 1 12 3 10 4 11 5 20 6 19 7 21 8 18 9 23 10 22 11 24 12
REMARK SMILES IDX 9 13 8 15 2 16 3 17 5 18 7 19 6 20 1 21 4 22 14 23 15 24
REMARK SMILES IDX 16 25 17 26
REMARK H PARENT 13 2 9 14 17 27
ROOT
ATOM      1  N   UNL     1       2.812  46.066  56.128  1.00  0.00    -0.354 N 
ATOM      2  H   UNL     1       2.610  47.060  56.075  1.00  0.00     0.163 HD
ENDROOT
BRANCH   1   3
ATOM      3  C   UNL     1       3.284  45.726  54.865  1.00  0.00     0.226 A 
ATOM      4  C   UNL     1       4.804  46.306  53.179  1.00  0.00     0.147 A 
ATOM      5  N   UNL     1       4.256  46.533  54.399  1.00  0.00    -0.195 NA
ATOM      6  C   UNL     1       4.348  45.202  52.455  1.00  0.00     0.082 A 
ATOM      7  C   UNL     1       3.346  44.450  53.032  1.00  0.00     0.165 A 
ATOM      8  C   UNL     1       4.617  44.552  51.232  1.00  0.00     0.149 A 
ATOM      9  N   UNL     1       2.768  44.669  54.222  1.00  0.00    -0.193 NA
ATOM     10  N   UNL     1       3.075  43.441  52.149  1.00  0.00    -0.250 N 
ATOM     11  N   UNL     1       3.834  43.485  51.029  1.00  0.00    -0.179 NA
ATOM     12  C   UNL     1       2.107  42.385  52.306  1.00  0.00     0.176 C 
BRANCH   4  13
ATOM     13  N   UNL     1       5.826  47.175  52.766  1.00  0.00    -0.339 N 
ATOM     14  H   UNL     1       5.691  47.332  51.768  1.00  0.00     0.168 HD
BRANCH  13  15
ATOM     15  C   UNL     1       7.204  47.110  53.082  1.00  0.00     0.044 A 
ATOM     16  C   UNL     1       8.109  46.533  52.163  1.00  0.00    -0.009 A 
ATOM     17  C   UNL     1       9.466  46.418  52.527  1.00  0.00     0.046 A 
ATOM     18  C   UNL     1       9.918  46.857  53.773  1.00  0.00     0.021 A 
ATOM     19  C   UNL     1       7.674  47.518  54.343  1.00  0.00     0.026 A 
ATOM     20  C   UNL     1       9.021  47.405  54.682  1.00  0.00     0.004 A 
ATOM     21  C   UNL     1       7.651  46.052  50.807  1.00  0.00     0.048 C 
ATOM     22  Cl  UNL     1      10.639  45.726  51.460  1.00  0.00    -0.084 Cl
ENDBRANCH  13  15
ENDBRANCH   4  13
ENDBRANCH   1   3
BRANCH   1  23
ATOM     23  C   UNL     1       1.721  45.236  56.610  1.00  0.00     0.118 C 
BRANCH  23  24
ATOM     24  C   UNL     1       0.527  46.110  56.985  1.00  0.00     0.049 C 
BRANCH  24  25
ATOM     25  C   UNL     1       0.751  46.862  58.291  1.00  0.00     0.158 C 
BRANCH  25  26
ATOM     26  O   UNL     1       2.018  46.505  58.832  1.00  0.00    -0.396 OA
ATOM     27  H   UNL     1       2.060  45.534  58.854  1.00  0.00     0.210 HD
ENDBRANCH  25  26
ENDBRANCH  24  25
ENDBRANCH  23  24
ENDBRANCH   1  23
TORSDOF 7
ENDMDL
MODEL 10
REMARK VINA RESULT:    -7.559      3.232      6.709
REMARK INTER + INTRA:         -11.680
REMARK INTER:                 -10.901
REMARK INTRA:                  -0.779
REMARK UNBOUND:                -1.249
REMARK SMILES Cc1c(Cl)cccc1Nc1nc(NCCCO)nc2c1cnn2C
REMARK SMILES IDX 13 1 12 3 10 4 11 5 20 6 19 7 21 8 18 9 23 10 22 11 24 12
REMARK SMILES IDX 9 13 8 15 2 16 3 17 5 18 7 19 6 20 1 21 4 22 14 23 15 24
REMARK SMILES IDX 16 25 17 26
REMARK H PARENT 13 2 9 14 17 27
ROOT
ATOM      1  N   UNL     1       7.708  45.034  49.540  1.00  0.00    -0.354 N 
ATOM      2  H   UNL     1       8.505  45.577  49.223  1.00  0.00     0.163 HD
ENDROOT
BRANCH   1   3
ATOM      3  C   UNL     1       7.351  45.594  50.762  1.00  0.00     0.226 A 
ATOM      4  C   UNL     1       5.545  46.243  52.105  1.00  0.00     0.147 A 
ATOM      5  N   UNL     1       6.023  45.714  50.952  1.00  0.00    -0.195 NA
ATOM      6  C   UNL     1       6.469  46.623  53.081  1.00  0.00     0.082 A 
ATOM      7  C   UNL     1       7.803  46.457  52.773  1.00  0.00     0.165 A 
ATOM      8  C   UNL     1       6.472  47.148  54.390  1.00  0.00     0.149 A 
ATOM      9  N   UNL     1       8.303  45.963  51.630  1.00  0.00    -0.193 NA
ATOM     10  N   UNL     1       8.500  46.889  53.867  1.00  0.00    -0.250 N 
ATOM     11  N   UNL     1       7.708  47.329  54.873  1.00  0.00    -0.179 NA
ATOM     12  C   UNL     1       9.931  46.906  54.035  1.00  0.00     0.176 C 
BRANCH   4  13
ATOM     13  N   UNL     1       4.150  46.319  52.242  1.00  0.00    -0.339 N 
ATOM     14  H   UNL     1       3.907  47.308  52.224  1.00  0.00     0.168 HD
BRANCH  13  15
ATOM     15  C   UNL     1       3.326  45.617  53.155  1.00  0.00     0.044 A 
ATOM     16  C   UNL     1       2.586  44.497  52.714  1.00  0.00    -0.009 A 
ATOM     17  C   UNL     1       1.722  43.854  53.623  1.00  0.00     0.046 A 
ATOM     18  C   UNL     1       1.585  44.311  54.936  1.00  0.00     0.021 A 
ATOM     19  C   UNL     1       3.152  46.079  54.472  1.00  0.00     0.026 A 
ATOM     20  C   UNL     1       2.299  45.426  55.359  1.00  0.00     0.004 A 
ATOM     21  C   UNL     1       2.714  43.977  51.303  1.00  0.00     0.048 C 
ATOM     22  Cl  UNL     1       0.781  42.476  53.165  1.00  0.00    -0.084 Cl
ENDBRANCH  13  15
ENDBRANCH   4  13
ENDBRANCH   1   3
BRANCH   1  23
ATOM     23  C   UNL     1       7.910  43.595  49.570  1.00  0.00     0.118 C 
BRANCH  23  24
ATOM     24  C   UNL     1       6.671  42.885  49.032  1.00  0.00     0.049 C 
BRANCH  24  25
ATOM     25  C   UNL     1       6.241  41.722  49.918  1.00  0.00     0.158 C 
BRANCH  25  26
ATOM     26  O   UNL     1       7.315  40.793  50.033  1.00  0.00    -0.396 OA
ATOM     27  H   UNL     1       7.716  40.922  50.909  1.00  0.00     0.210 HD
ENDBRANCH  25  26
ENDBRANCH  24  25
ENDBRANCH  23  24
ENDBRANCH   1  23
TORSDOF 7
ENDMDL
MODEL 11
REMARK VINA RESULT:    -7.557      0.969      1.679
REMARK INTER + INTRA:         -11.677
REMARK INTER:                 -10.839
REMARK INTRA:                  -0.838
REMARK UNBOUND:                -1.249
REMARK SMILES Cc1c(Cl)cccc1Nc1nc(NCCCO)nc2c1cnn2C
REMARK SMILES IDX 13 1 12 3 10 4 11 5 20 6 19 7 21 8 18 9 23 10 22 11 24 12
REMARK SMILES IDX 9 13 8 15 2 16 3 17 5 18 7 19 6 20 1 21 4 22 14 23 15 24
REMARK SMILES IDX 16 25 17 26
REMARK H PARENT 13 2 9 14 17 27
ROOT
ATOM      1  N   UNL     1       2.535  44.346  54.352  1.00  0.00    -0.354 N 
ATOM      2  H   UNL     1       3.073  44.767  55.103  1.00  0.00     0.163 HD
ENDROOT
BRANCH   1   3
ATOM      3  C   UNL     1       3.417  44.260  53.280  1.00  0.00     0.226 A 
ATOM      4  C   UNL     1       5.128  45.371  52.127  1.00  0.00     0.147 A 
ATOM      5  N   UNL     1       4.220  45.332  53.134  1.00  0.00    -0.195 NA
ATOM      6  C   UNL     1       5.215  44.261  51.285  1.00  0.00     0.082 A 
ATOM      7  C   UNL     1       4.339  43.223  51.529  1.00  0.00     0.165 A 
ATOM      8  C   UNL     1       5.984  43.821  50.187  1.00  0.00     0.149 A 
ATOM      9  N   UNL     1       3.414  43.172  52.499  1.00  0.00    -0.193 NA
ATOM     10  N   UNL     1       4.616  42.267  50.591  1.00  0.00    -0.250 N 
ATOM     11  N   UNL     1       5.615  42.612  49.746  1.00  0.00    -0.179 NA
ATOM     12  C   UNL     1       3.972  40.986  50.441  1.00  0.00     0.176 C 
BRANCH   4  13
ATOM     13  N   UNL     1       5.944  46.510  52.046  1.00  0.00    -0.339 N 
ATOM     14  H   UNL     1       5.932  46.811  51.074  1.00  0.00     0.168 HD
BRANCH  13  15
ATOM     15  C   UNL     1       7.225  46.704  52.616  1.00  0.00     0.044 A 
ATOM     16  C   UNL     1       8.381  46.358  51.880  1.00  0.00    -0.009 A 
ATOM     17  C   UNL     1       9.643  46.497  52.492  1.00  0.00     0.046 A 
ATOM     18  C   UNL     1       9.761  46.962  53.804  1.00  0.00     0.021 A 
ATOM     19  C   UNL     1       7.365  47.142  53.945  1.00  0.00     0.026 A 
ATOM     20  C   UNL     1       8.621  47.282  54.531  1.00  0.00     0.004 A 
ATOM     21  C   UNL     1       8.285  45.856  50.460  1.00  0.00     0.048 C 
ATOM     22  Cl  UNL     1      11.107  46.096  51.661  1.00  0.00    -0.084 Cl
ENDBRANCH  13  15
ENDBRANCH   4  13
ENDBRANCH   1   3
BRANCH   1  23
ATOM     23  C   UNL     1       1.275  45.001  54.047  1.00  0.00     0.118 C 
BRANCH  23  24
ATOM     24  C   UNL     1       0.111  44.074  54.389  1.00  0.00     0.049 C 
BRANCH  24  25
ATOM     25  C   UNL     1      -0.092  42.992  53.336  1.00  0.00     0.158 C 
BRANCH  25  26
ATOM     26  O   UNL     1       0.834  41.934  53.560  1.00  0.00    -0.396 OA
ATOM     27  H   UNL     1       1.647  42.332  53.917  1.00  0.00     0.210 HD
ENDBRANCH  25  26
ENDBRANCH  24  25
ENDBRANCH  23  24
ENDBRANCH   1  23
TORSDOF 7
ENDMDL
MODEL 12
REMARK VINA RESULT:    -7.553      3.074      6.234
REMARK INTER + INTRA:         -11.672
REMARK INTER:                 -10.924
REMARK INTRA:                  -0.748
REMARK UNBOUND:                -1.249
REMARK SMILES Cc1c(Cl)cccc1Nc1nc(NCCCO)nc2c1cnn2C
REMARK SMILES IDX 13 1 12 3 10 4 11 5 20 6 19 7 21 8 18 9 23 10 22 11 24 12
REMARK SMILES IDX 9 13 8 15 2 16 3 17 5 18 7 19 6 20 1 21 4 22 14 23 15 24
REMARK SMILES IDX 16 25 17 26
REMARK H PARENT 13 2 9 14 17 27
ROOT
ATOM      1  N   UNL     1       5.876  46.747  54.931  1.00  0.00    -0.354 N 
ATOM      2  H   UNL     1       6.342  46.107  55.567  1.00  0.00     0.163 HD
ENDROOT
BRANCH   1   3
ATOM      3  C   UNL     1       4.666  46.133  54.624  1.00  0.00     0.226 A 
ATOM      4  C   UNL     1       3.478  44.993  52.957  1.00  0.00     0.147 A 
ATOM      5  N   UNL     1       4.603  45.621  53.379  1.00  0.00    -0.195 NA
ATOM      6  C   UNL     1       2.419  44.875  53.860  1.00  0.00     0.082 A 
ATOM      7  C   UNL     1       2.597  45.442  55.105  1.00  0.00     0.165 A 
ATOM      8  C   UNL     1       1.131  44.302  53.914  1.00  0.00     0.149 A 
ATOM      9  N   UNL     1       3.688  46.092  55.537  1.00  0.00    -0.193 NA
ATOM     10  N   UNL     1       1.444  45.196  55.799  1.00  0.00    -0.250 N 
ATOM     11  N   UNL     1       0.521  44.507  55.088  1.00  0.00    -0.179 NA
ATOM     12  C   UNL     1       1.148  45.582  57.156  1.00  0.00     0.176 C 
BRANCH   4  13
ATOM     13  N   UNL     1       3.490  44.467  51.656  1.00  0.00    -0.339 N 
ATOM     14  H   UNL     1       2.526  44.234  51.424  1.00  0.00     0.168 HD
BRANCH  13  15
ATOM     15  C   UNL     1       4.382  43.510  51.112  1.00  0.00     0.044 A 
ATOM     16  C   UNL     1       5.578  43.938  50.492  1.00  0.00    -0.009 A 
ATOM     17  C   UNL     1       6.417  42.974  49.899  1.00  0.00     0.046 A 
ATOM     18  C   UNL     1       6.080  41.618  49.912  1.00  0.00     0.021 A 
ATOM     19  C   UNL     1       4.047  42.145  51.088  1.00  0.00     0.026 A 
ATOM     20  C   UNL     1       4.894  41.204  50.504  1.00  0.00     0.004 A 
ATOM     21  C   UNL     1       5.970  45.395  50.465  1.00  0.00     0.048 C 
ATOM     22  Cl  UNL     1       7.899  43.413  49.121  1.00  0.00    -0.084 Cl
ENDBRANCH  13  15
ENDBRANCH   4  13
ENDBRANCH   1   3
BRANCH   1  23
ATOM     23  C   UNL     1       6.658  47.155  53.777  1.00  0.00     0.118 C 
BRANCH  23  24
ATOM     24  C   UNL     1       8.030  46.487  53.815  1.00  0.00     0.049 C 
BRANCH  24  25
ATOM     25  C   UNL     1       9.143  47.473  54.149  1.00  0.00     0.158 C 
BRANCH  25  26
ATOM     26  O   UNL     1       8.727  48.310  55.223  1.00  0.00    -0.396 OA
ATOM     27  H   UNL     1       8.491  49.173  54.843  1.00  0.00     0.210 HD
ENDBRANCH  25  26
ENDBRANCH  24  25
ENDBRANCH  23  24
ENDBRANCH   1  23
TORSDOF 7
ENDMDL
MODEL 13
REMARK VINA RESULT:    -7.516      2.924      6.625
REMARK INTER + INTRA:         -11.621
REMARK INTER:                 -10.461
REMARK INTRA:                  -1.160
REMARK UNBOUND:                -1.249
REMARK SMILES Cc1c(Cl)cccc1Nc1nc(NCCCO)nc2c1cnn2C
REMARK SMILES IDX 13 1 12 3 10 4 11 5 20 6 19 7 21 8 18 9 23 10 22 11 24 12
REMARK SMILES IDX 9 13 8 15 2 16 3 17 5 18 7 19 6 20 1 21 4 22 14 23 15 24
REMARK SMILES IDX 16 25 17 26
REMARK H PARENT 13 2 9 14 17 27
ROOT
ATOM      1  N   UNL     1       6.455  43.220  49.601  1.00  0.00    -0.354 N 
ATOM      2  H   UNL     1       7.391  43.479  49.305  1.00  0.00     0.163 HD
ENDROOT
BRANCH   1   3
ATOM      3  C   UNL     1       6.171  44.055  50.676  1.00  0.00     0.226 A 
ATOM      4  C   UNL     1       4.827  44.324  52.576  1.00  0.00     0.147 A 
ATOM      5  N   UNL     1       5.197  43.603  51.488  1.00  0.00    -0.195 NA
ATOM      6  C   UNL     1       5.508  45.516  52.830  1.00  0.00     0.082 A 
ATOM      7  C   UNL     1       6.485  45.880  51.926  1.00  0.00     0.165 A 
ATOM      8  C   UNL     1       5.527  46.540  53.801  1.00  0.00     0.149 A 
ATOM      9  N   UNL     1       6.849  45.200  50.829  1.00  0.00    -0.193 NA
ATOM     10  N   UNL     1       7.001  47.061  52.384  1.00  0.00    -0.250 N 
ATOM     11  N   UNL     1       6.425  47.496  53.529  1.00  0.00    -0.179 NA
ATOM     12  C   UNL     1       8.059  47.836  51.786  1.00  0.00     0.176 C 
BRANCH   4  13
ATOM     13  N   UNL     1       3.819  43.783  53.389  1.00  0.00    -0.339 N 
ATOM     14  H   UNL     1       4.127  42.851  53.658  1.00  0.00     0.168 HD
BRANCH  13  15
ATOM     15  C   UNL     1       2.420  43.804  53.170  1.00  0.00     0.044 A 
ATOM     16  C   UNL     1       1.562  44.331  54.163  1.00  0.00    -0.009 A 
ATOM     17  C   UNL     1       0.170  44.282  53.953  1.00  0.00     0.046 A 
ATOM     18  C   UNL     1      -0.365  43.718  52.792  1.00  0.00     0.021 A 
ATOM     19  C   UNL     1       1.860  43.216  52.023  1.00  0.00     0.026 A 
ATOM     20  C   UNL     1       0.480  43.183  51.828  1.00  0.00     0.004 A 
ATOM     21  C   UNL     1       2.111  44.949  55.426  1.00  0.00     0.048 C 
ATOM     22  Cl  UNL     1      -0.949  44.905  55.117  1.00  0.00    -0.084 Cl
ENDBRANCH  13  15
ENDBRANCH   4  13
ENDBRANCH   1   3
BRANCH   1  23
ATOM     23  C   UNL     1       6.256  41.805  49.865  1.00  0.00     0.118 C 
BRANCH  23  24
ATOM     24  C   UNL     1       5.312  41.209  48.823  1.00  0.00     0.049 C 
BRANCH  24  25
ATOM     25  C   UNL     1       3.948  40.869  49.409  1.00  0.00     0.158 C 
BRANCH  25  26
ATOM     26  O   UNL     1       4.028  40.876  50.830  1.00  0.00    -0.396 OA
ATOM     27  H   UNL     1       4.454  40.045  51.100  1.00  0.00     0.210 HD
ENDBRANCH  25  26
ENDBRANCH  24  25
ENDBRANCH  23  24
ENDBRANCH   1  23
TORSDOF 7
ENDMDL
MODEL 14
REMARK VINA RESULT:    -7.394      3.058      5.771
REMARK INTER + INTRA:         -11.452
REMARK INTER:                 -10.314
REMARK INTRA:                  -1.138
REMARK UNBOUND:                -1.249
REMARK SMILES Cc1c(Cl)cccc1Nc1nc(NCCCO)nc2c1cnn2C
REMARK SMILES IDX 13 1 12 3 10 4 11 5 20 6 19 7 21 8 18 9 23 10 22 11 24 12
REMARK SMILES IDX 9 13 8 15 2 16 3 17 5 18 7 19 6 20 1 21 4 22 14 23 15 24
REMARK SMILES IDX 16 25 17 26
REMARK H PARENT 13 2 9 14 17 27
ROOT
ATOM      1  N   UNL     1       4.384  45.384  55.701  1.00  0.00    -0.354 N 
ATOM      2  H   UNL     1       4.196  44.943  56.596  1.00  0.00     0.163 HD
ENDROOT
BRANCH   1   3
ATOM      3  C   UNL     1       3.291  45.064  54.903  1.00  0.00     0.226 A 
ATOM      4  C   UNL     1       2.621  44.470  52.738  1.00  0.00     0.147 A 
ATOM      5  N   UNL     1       3.598  44.799  53.619  1.00  0.00    -0.195 NA
ATOM      6  C   UNL     1       1.312  44.389  53.217  1.00  0.00     0.082 A 
ATOM      7  C   UNL     1       1.117  44.686  54.551  1.00  0.00     0.165 A 
ATOM      8  C   UNL     1       0.027  44.059  52.738  1.00  0.00     0.149 A 
ATOM      9  N   UNL     1       2.061  45.040  55.435  1.00  0.00    -0.193 NA
ATOM     10  N   UNL     1      -0.223  44.535  54.779  1.00  0.00    -0.250 N 
ATOM     11  N   UNL     1      -0.920  44.161  53.680  1.00  0.00    -0.179 NA
ATOM     12  C   UNL     1      -0.918  44.723  56.027  1.00  0.00     0.176 C 
BRANCH   4  13
ATOM     13  N   UNL     1       3.016  44.188  51.421  1.00  0.00    -0.339 N 
ATOM     14  H   UNL     1       2.171  43.951  50.906  1.00  0.00     0.168 HD
BRANCH  13  15
ATOM     15  C   UNL     1       4.106  43.393  50.992  1.00  0.00     0.044 A 
ATOM     16  C   UNL     1       5.279  44.014  50.505  1.00  0.00    -0.009 A 
ATOM     17  C   UNL     1       6.325  43.203  50.020  1.00  0.00     0.046 A 
ATOM     18  C   UNL     1       6.213  41.811  50.009  1.00  0.00     0.021 A 
ATOM     19  C   UNL     1       4.002  41.992  50.945  1.00  0.00     0.026 A 
ATOM     20  C   UNL     1       5.050  41.205  50.469  1.00  0.00     0.004 A 
ATOM     21  C   UNL     1       5.430  45.516  50.506  1.00  0.00     0.048 C 
ATOM     22  Cl  UNL     1       7.794  43.883  49.407  1.00  0.00    -0.084 Cl
ENDBRANCH  13  15
ENDBRANCH   4  13
ENDBRANCH   1   3
BRANCH   1  23
ATOM     23  C   UNL     1       5.675  45.068  55.113  1.00  0.00     0.118 C 
BRANCH  23  24
ATOM     24  C   UNL     1       6.482  46.349  54.913  1.00  0.00     0.049 C 
BRANCH  24  25
ATOM     25  C   UNL     1       6.181  47.018  53.578  1.00  0.00     0.158 C 
BRANCH  25  26
ATOM     26  O   UNL     1       5.006  47.812  53.701  1.00  0.00    -0.396 OA
ATOM     27  H   UNL     1       4.862  48.250  52.845  1.00  0.00     0.210 HD
ENDBRANCH  25  26
ENDBRANCH  24  25
ENDBRANCH  23  24
ENDBRANCH   1  23
TORSDOF 7
ENDMDL
MODEL 15
REMARK VINA RESULT:    -7.275      3.226      6.824
REMARK INTER + INTRA:         -11.288
REMARK INTER:                 -10.686
REMARK INTRA:                  -0.602
REMARK UNBOUND:                -1.249
REMARK SMILES Cc1c(Cl)cccc1Nc1nc(NCCCO)nc2c1cnn2C
REMARK SMILES IDX 13 1 12 3 10 4 11 5 20 6 19 7 21 8 18 9 23 10 22 11 24 12
REMARK SMILES IDX 9 13 8 15 2 16 3 17 5 18 7 19 6 20 1 21 4 22 14 23 15 24
REMARK SMILES IDX 16 25 17 26
REMARK H PARENT 13 2 9 14 17 27
ROOT
ATOM      1  N   UNL     1       7.165  44.852  49.595  1.00  0.00    -0.354 N 
ATOM      2  H   UNL     1       7.766  45.596  49.254  1.00  0.00     0.163 HD
ENDROOT
BRANCH   1   3
ATOM      3  C   UNL     1       6.883  45.191  50.914  1.00  0.00     0.226 A 
ATOM      4  C   UNL     1       5.485  44.743  52.740  1.00  0.00     0.147 A 
ATOM      5  N   UNL     1       5.858  44.507  51.457  1.00  0.00    -0.195 NA
ATOM      6  C   UNL     1       6.215  45.683  53.469  1.00  0.00     0.082 A 
ATOM      7  C   UNL     1       7.242  46.324  52.807  1.00  0.00     0.165 A 
ATOM      8  C   UNL     1       6.250  46.218  54.774  1.00  0.00     0.149 A 
ATOM      9  N   UNL     1       7.613  46.130  51.532  1.00  0.00    -0.193 NA
ATOM     10  N   UNL     1       7.801  47.181  53.715  1.00  0.00    -0.250 N 
ATOM     11  N   UNL     1       7.204  47.144  54.929  1.00  0.00    -0.179 NA
ATOM     12  C   UNL     1       8.918  48.066  53.501  1.00  0.00     0.176 C 
BRANCH   4  13
ATOM     13  N   UNL     1       4.421  43.980  53.246  1.00  0.00    -0.339 N 
ATOM     14  H   UNL     1       4.800  43.063  53.475  1.00  0.00     0.168 HD
BRANCH  13  15
ATOM     15  C   UNL     1       3.109  43.865  52.727  1.00  0.00     0.044 A 
ATOM     16  C   UNL     1       2.013  44.358  53.471  1.00  0.00    -0.009 A 
ATOM     17  C   UNL     1       0.710  44.173  52.966  1.00  0.00     0.046 A 
ATOM     18  C   UNL     1       0.494  43.509  51.756  1.00  0.00     0.021 A 
ATOM     19  C   UNL     1       2.866  43.174  51.526  1.00  0.00     0.026 A 
ATOM     20  C   UNL     1       1.572  43.008  51.038  1.00  0.00     0.004 A 
ATOM     21  C   UNL     1       2.216  45.082  54.780  1.00  0.00     0.048 C 
ATOM     22  Cl  UNL     1      -0.684  44.747  53.814  1.00  0.00    -0.084 Cl
ENDBRANCH  13  15
ENDBRANCH   4  13
ENDBRANCH   1   3
BRANCH   1  23
ATOM     23  C   UNL     1       7.680  43.505  49.414  1.00  0.00     0.118 C 
BRANCH  23  24
ATOM     24  C   UNL     1       6.607  42.619  48.786  1.00  0.00     0.049 C 
BRANCH  24  25
ATOM     25  C   UNL     1       6.184  41.483  49.709  1.00  0.00     0.158 C 
BRANCH  25  26
ATOM     26  O   UNL     1       7.335  40.749  50.114  1.00  0.00    -0.396 OA
ATOM     27  H   UNL     1       7.252  40.583  51.068  1.00  0.00     0.210 HD
ENDBRANCH  25  26
ENDBRANCH  24  25
ENDBRANCH  23  24
ENDBRANCH   1  23
TORSDOF 7
ENDMDL
MODEL 16
REMARK VINA RESULT:    -7.236      2.619      6.030
REMARK INTER + INTRA:         -11.234
REMARK INTER:                  -9.900
REMARK INTRA:                  -1.335
REMARK UNBOUND:                -1.249
REMARK SMILES Cc1c(Cl)cccc1Nc1nc(NCCCO)nc2c1cnn2C
REMARK SMILES IDX 13 1 12 3 10 4 11 5 20 6 19 7 21 8 18 9 23 10 22 11 24 12
REMARK SMILES IDX 9 13 8 15 2 16 3 17 5 18 7 19 6 20 1 21 4 22 14 23 15 24
REMARK SMILES IDX 16 25 17 26
REMARK H PARENT 13 2 9 14 17 27
ROOT
ATOM      1  N   UNL     1       6.598  43.355  49.263  1.00  0.00    -0.354 N 
ATOM      2  H   UNL     1       7.392  43.463  48.641  1.00  0.00     0.163 HD
ENDROOT
BRANCH   1   3
ATOM      3  C   UNL     1       6.661  44.445  50.124  1.00  0.00     0.226 A 
ATOM      4  C   UNL     1       5.386  46.021  51.299  1.00  0.00     0.147 A 
ATOM      5  N   UNL     1       5.462  44.957  50.462  1.00  0.00    -0.195 NA
ATOM      6  C   UNL     1       6.580  46.534  51.810  1.00  0.00     0.082 A 
ATOM      7  C   UNL     1       7.748  45.931  51.390  1.00  0.00     0.165 A 
ATOM      8  C   UNL     1       7.005  47.542  52.701  1.00  0.00     0.149 A 
ATOM      9  N   UNL     1       7.850  44.896  50.542  1.00  0.00    -0.193 NA
ATOM     10  N   UNL     1       8.764  46.596  52.019  1.00  0.00    -0.250 N 
ATOM     11  N   UNL     1       8.337  47.598  52.824  1.00  0.00    -0.179 NA
ATOM     12  C   UNL     1      10.175  46.327  51.912  1.00  0.00     0.176 C 
BRANCH   4  13
ATOM     13  N   UNL     1       4.104  46.490  51.622  1.00  0.00    -0.339 N 
ATOM     14  H   UNL     1       4.228  47.379  52.103  1.00  0.00     0.168 HD
BRANCH  13  15
ATOM     15  C   UNL     1       3.028  45.762  52.186  1.00  0.00     0.044 A 
ATOM     16  C   UNL     1       2.913  45.653  53.590  1.00  0.00    -0.009 A 
ATOM     17  C   UNL     1       1.873  44.868  54.127  1.00  0.00     0.046 A 
ATOM     18  C   UNL     1       0.971  44.199  53.296  1.00  0.00     0.021 A 
ATOM     19  C   UNL     1       2.127  45.057  51.367  1.00  0.00     0.026 A 
ATOM     20  C   UNL     1       1.100  44.292  51.916  1.00  0.00     0.004 A 
ATOM     21  C   UNL     1       3.870  46.366  54.514  1.00  0.00     0.048 C 
ATOM     22  Cl  UNL     1       1.661  44.683  55.835  1.00  0.00    -0.084 Cl
ENDBRANCH  13  15
ENDBRANCH   4  13
ENDBRANCH   1   3
BRANCH   1  23
ATOM     23  C   UNL     1       6.499  42.066  49.926  1.00  0.00     0.118 C 
BRANCH  23  24
ATOM     24  C   UNL     1       5.372  41.245  49.304  1.00  0.00     0.049 C 
BRANCH  24  25
ATOM     25  C   UNL     1       4.113  41.249  50.163  1.00  0.00     0.158 C 
BRANCH  25  26
ATOM     26  O   UNL     1       4.245  42.225  51.191  1.00  0.00    -0.396 OA
ATOM     27  H   UNL     1       5.191  42.289  51.409  1.00  0.00     0.210 HD
ENDBRANCH  25  26
ENDBRANCH  24  25
ENDBRANCH  23  24
ENDBRANCH   1  23
TORSDOF 7
ENDMDL
MODEL 17
REMARK VINA RESULT:    -7.228      3.405      6.523
REMARK INTER + INTRA:         -11.224
REMARK INTER:                 -10.323
REMARK INTRA:                  -0.901
REMARK UNBOUND:                -1.249
REMARK SMILES Cc1c(Cl)cccc1Nc1nc(NCCCO)nc2c1cnn2C
REMARK SMILES IDX 13 1 12 3 10 4 11 5 20 6 19 7 21 8 18 9 23 10 22 11 24 12
REMARK SMILES IDX 9 13 8 15 2 16 3 17 5 18 7 19 6 20 1 21 4 22 14 23 15 24
REMARK SMILES IDX 16 25 17 26
REMARK H PARENT 13 2 9 14 17 27
ROOT
ATOM      1  N   UNL     1       8.006  46.612  51.191  1.00  0.00    -0.354 N 
ATOM      2  H   UNL     1       7.857  47.185  50.367  1.00  0.00     0.163 HD
ENDROOT
BRANCH   1   3
ATOM      3  C   UNL     1       6.895  45.778  51.259  1.00  0.00     0.226 A 
ATOM      4  C   UNL     1       4.657  45.638  51.935  1.00  0.00     0.147 A 
ATOM      5  N   UNL     1       5.807  46.346  51.814  1.00  0.00    -0.195 NA
ATOM      6  C   UNL     1       4.639  44.332  51.441  1.00  0.00     0.082 A 
ATOM      7  C   UNL     1       5.815  43.856  50.897  1.00  0.00     0.165 A 
ATOM      8  C   UNL     1       3.727  43.266  51.295  1.00  0.00     0.149 A 
ATOM      9  N   UNL     1       6.973  44.525  50.791  1.00  0.00    -0.193 NA
ATOM     10  N   UNL     1       5.551  42.578  50.487  1.00  0.00    -0.250 N 
ATOM     11  N   UNL     1       4.278  42.185  50.728  1.00  0.00    -0.179 NA
ATOM     12  C   UNL     1       6.463  41.667  49.844  1.00  0.00     0.176 C 
BRANCH   4  13
ATOM     13  N   UNL     1       3.557  46.298  52.505  1.00  0.00    -0.339 N 
ATOM     14  H   UNL     1       3.792  47.289  52.532  1.00  0.00     0.168 HD
BRANCH  13  15
ATOM     15  C   UNL     1       2.819  45.926  53.654  1.00  0.00     0.044 A 
ATOM     16  C   UNL     1       1.465  45.542  53.524  1.00  0.00    -0.009 A 
ATOM     17  C   UNL     1       0.730  45.240  54.689  1.00  0.00     0.046 A 
ATOM     18  C   UNL     1       1.317  45.322  55.953  1.00  0.00     0.021 A 
ATOM     19  C   UNL     1       3.382  46.030  54.938  1.00  0.00     0.026 A 
ATOM     20  C   UNL     1       2.643  45.719  56.078  1.00  0.00     0.004 A 
ATOM     21  C   UNL     1       0.803  45.442  52.171  1.00  0.00     0.048 C 
ATOM     22  Cl  UNL     1      -0.932  44.762  54.618  1.00  0.00    -0.084 Cl
ENDBRANCH  13  15
ENDBRANCH   4  13
ENDBRANCH   1   3
BRANCH   1  23
ATOM     23  C   UNL     1       8.287  47.345  52.414  1.00  0.00     0.118 C 
BRANCH  23  24
ATOM     24  C   UNL     1       9.702  47.031  52.896  1.00  0.00     0.049 C 
BRANCH  24  25
ATOM     25  C   UNL     1       9.872  47.283  54.389  1.00  0.00     0.158 C 
BRANCH  25  26
ATOM     26  O   UNL     1       8.757  48.024  54.874  1.00  0.00    -0.396 OA
ATOM     27  H   UNL     1       8.373  47.520  55.611  1.00  0.00     0.210 HD
ENDBRANCH  25  26
ENDBRANCH  24  25
ENDBRANCH  23  24
ENDBRANCH   1  23
TORSDOF 7
ENDMDL
MODEL 18
REMARK VINA RESULT:    -7.206      3.364      6.743
REMARK INTER + INTRA:         -11.193
REMARK INTER:                 -10.074
REMARK INTRA:                  -1.119
REMARK UNBOUND:                -1.249
REMARK SMILES Cc1c(Cl)cccc1Nc1nc(NCCCO)nc2c1cnn2C
REMARK SMILES IDX 13 1 12 3 10 4 11 5 20 6 19 7 21 8 18 9 23 10 22 11 24 12
REMARK SMILES IDX 9 13 8 15 2 16 3 17 5 18 7 19 6 20 1 21 4 22 14 23 15 24
REMARK SMILES IDX 16 25 17 26
REMARK H PARENT 13 2 9 14 17 27
ROOT
ATOM      1  N   UNL     1       6.575  47.462  52.676  1.00  0.00    -0.354 N 
ATOM      2  H   UNL     1       6.355  47.406  53.666  1.00  0.00     0.163 HD
ENDROOT
BRANCH   1   3
ATOM      3  C   UNL     1       6.287  46.199  52.170  1.00  0.00     0.226 A 
ATOM      4  C   UNL     1       4.880  44.337  52.383  1.00  0.00     0.147 A 
ATOM      5  N   UNL     1       5.263  45.575  52.785  1.00  0.00    -0.195 NA
ATOM      6  C   UNL     1       5.557  43.762  51.306  1.00  0.00     0.082 A 
ATOM      7  C   UNL     1       6.591  44.494  50.758  1.00  0.00     0.165 A 
ATOM      8  C   UNL     1       5.508  42.587  50.528  1.00  0.00     0.149 A 
ATOM      9  N   UNL     1       7.008  45.706  51.155  1.00  0.00    -0.193 NA
ATOM     10  N   UNL     1       7.089  43.737  49.734  1.00  0.00    -0.250 N 
ATOM     11  N   UNL     1       6.449  42.554  49.576  1.00  0.00    -0.179 NA
ATOM     12  C   UNL     1       8.174  44.078  48.849  1.00  0.00     0.176 C 
BRANCH   4  13
ATOM     13  N   UNL     1       3.794  43.755  53.055  1.00  0.00    -0.339 N 
ATOM     14  H   UNL     1       4.064  42.798  53.274  1.00  0.00     0.168 HD
BRANCH  13  15
ATOM     15  C   UNL     1       2.421  43.825  52.715  1.00  0.00     0.044 A 
ATOM     16  C   UNL     1       1.482  44.264  53.675  1.00  0.00    -0.009 A 
ATOM     17  C   UNL     1       0.113  44.261  53.336  1.00  0.00     0.046 A 
ATOM     18  C   UNL     1      -0.318  43.829  52.080  1.00  0.00     0.021 A 
ATOM     19  C   UNL     1       1.964  43.366  51.467  1.00  0.00     0.026 A 
ATOM     20  C   UNL     1       0.607  43.378  51.147  1.00  0.00     0.004 A 
ATOM     21  C   UNL     1       1.917  44.740  55.039  1.00  0.00     0.048 C 
ATOM     22  Cl  UNL     1      -1.101  44.784  54.452  1.00  0.00    -0.084 Cl
ENDBRANCH  13  15
ENDBRANCH   4  13
ENDBRANCH   1   3
BRANCH   1  23
ATOM     23  C   UNL     1       7.908  47.949  52.363  1.00  0.00     0.118 C 
BRANCH  23  24
ATOM     24  C   UNL     1       8.797  47.864  53.601  1.00  0.00     0.049 C 
BRANCH  24  25
ATOM     25  C   UNL     1       9.955  46.891  53.414  1.00  0.00     0.158 C 
BRANCH  25  26
ATOM     26  O   UNL     1       9.738  46.118  52.239  1.00  0.00    -0.396 OA
ATOM     27  H   UNL     1       9.678  46.737  51.492  1.00  0.00     0.210 HD
ENDBRANCH  25  26
ENDBRANCH  24  25
ENDBRANCH  23  24
ENDBRANCH   1  23
TORSDOF 7
ENDMDL
