MODEL 1
REMARK VINA RESULT:    -9.001      0.000      0.000
REMARK INTER + INTRA:         -13.667
REMARK INTER:                 -12.421
REMARK INTRA:                  -1.246
REMARK UNBOUND:                -1.246
REMARK SMILES OCCCNc1nc(Nc2ccc(F)cc2F)nc2ccccc12
REMARK SMILES IDX 4 1 3 2 2 3 1 4 5 6 6 8 7 9 24 10 8 11 23 12 19 13 18 14
REMARK SMILES IDX 22 15 20 16 21 17 9 18 10 20 11 21 16 22 12 23 15 24 13 25
REMARK SMILES IDX 17 26 14 27
REMARK H PARENT 1 5 5 7 9 19
ROOT
ATOM      1  C   UNL     1       2.316  44.536  53.194  1.00  0.00     0.117 C 
ENDROOT
BRANCH   1   2
ATOM      2  C   UNL     1       2.084  44.849  54.675  1.00  0.00     0.049 C 
BRANCH   2   3
ATOM      3  C   UNL     1       3.200  45.660  55.321  1.00  0.00     0.158 C 
BRANCH   3   4
ATOM      4  O   UNL     1       4.341  44.851  55.565  1.00  0.00    -0.396 OA
ATOM      5  H   UNL     1       5.023  45.418  55.967  1.00  0.00     0.210 HD
ENDBRANCH   3   4
ENDBRANCH   2   3
ENDBRANCH   1   2
BRANCH   1   6
ATOM      6  N   UNL     1       3.294  43.457  53.049  1.00  0.00    -0.369 N 
ATOM      7  H   UNL     1       3.717  43.234  53.949  1.00  0.00     0.162 HD
BRANCH   6   8
ATOM      8  C   UNL     1       4.359  43.739  52.155  1.00  0.00     0.139 A 
ATOM      9  N   UNL     1       5.090  44.851  52.339  1.00  0.00    -0.195 NA
ATOM     10  C   UNL     1       4.606  42.858  51.089  1.00  0.00     0.043 A 
ATOM     11  C   UNL     1       6.096  45.102  51.494  1.00  0.00     0.229 A 
ATOM     12  C   UNL     1       3.858  41.688  50.800  1.00  0.00     0.014 A 
ATOM     13  C   UNL     1       5.682  43.207  50.269  1.00  0.00     0.078 A 
ATOM     14  N   UNL     1       6.416  44.304  50.470  1.00  0.00    -0.213 NA
ATOM     15  C   UNL     1       4.191  40.875  49.721  1.00  0.00     0.001 A 
ATOM     16  C   UNL     1       5.998  42.378  49.199  1.00  0.00     0.029 A 
ATOM     17  C   UNL     1       5.269  41.220  48.917  1.00  0.00     0.002 A 
BRANCH  11  18
ATOM     18  N   UNL     1       6.806  46.267  51.759  1.00  0.00    -0.322 N 
ATOM     19  H   UNL     1       6.431  47.027  51.207  1.00  0.00     0.170 HD
BRANCH  18  20
ATOM     20  C   UNL     1       7.893  46.588  52.581  1.00  0.00     0.077 A 
ATOM     21  C   UNL     1       9.233  46.469  52.195  1.00  0.00     0.032 A 
ATOM     22  C   UNL     1       7.634  47.057  53.883  1.00  0.00     0.149 A 
ATOM     23  C   UNL     1      10.266  46.808  53.077  1.00  0.00     0.041 A 
ATOM     24  C   UNL     1       8.650  47.398  54.770  1.00  0.00     0.080 A 
ATOM     25  C   UNL     1       9.964  47.268  54.353  1.00  0.00     0.126 A 
ATOM     26  F   UNL     1       6.360  47.184  54.290  1.00  0.00    -0.205 F 
ATOM     27  F   UNL     1      10.958  47.591  55.191  1.00  0.00    -0.207 F 
ENDBRANCH  18  20
ENDBRANCH  11  18
ENDBRANCH   6   8
ENDBRANCH   1   6
TORSDOF 7
ENDMDL
MODEL 2
REMARK VINA RESULT:    -8.936      2.712      6.761
REMARK INTER + INTRA:         -13.578
REMARK INTER:                 -12.854
REMARK INTRA:                  -0.724
REMARK UNBOUND:                -1.246
REMARK SMILES OCCCNc1nc(Nc2ccc(F)cc2F)nc2ccccc12
REMARK SMILES IDX 4 1 3 2 2 3 1 4 5 6 6 8 7 9 24 10 8 11 23 12 19 13 18 14
REMARK SMILES IDX 22 15 20 16 21 17 9 18 10 20 11 21 16 22 12 23 15 24 13 25
REMARK SMILES IDX 17 26 14 27
REMARK H PARENT 1 5 5 7 9 19
ROOT
ATOM      1  C   UNL     1       6.135  44.224  50.082  1.00  0.00     0.117 C 
ENDROOT
BRANCH   1   2
ATOM      2  C   UNL     1       6.833  43.060  49.373  1.00  0.00     0.049 C 
BRANCH   2   3
ATOM      3  C   UNL     1       6.318  41.685  49.778  1.00  0.00     0.158 C 
BRANCH   3   4
ATOM      4  O   UNL     1       7.392  40.811  50.089  1.00  0.00    -0.396 OA
ATOM      5  H   UNL     1       8.204  41.196  49.714  1.00  0.00     0.210 HD
ENDBRANCH   3   4
ENDBRANCH   2   3
ENDBRANCH   1   2
BRANCH   1   6
ATOM      6  N   UNL     1       7.090  45.296  50.364  1.00  0.00    -0.369 N 
ATOM      7  H   UNL     1       8.037  44.923  50.429  1.00  0.00     0.162 HD
BRANCH   6   8
ATOM      8  C   UNL     1       6.846  46.005  51.569  1.00  0.00     0.139 A 
ATOM      9  N   UNL     1       5.579  46.276  51.922  1.00  0.00    -0.195 NA
ATOM     10  C   UNL     1       7.938  46.424  52.346  1.00  0.00     0.043 A 
ATOM     11  C   UNL     1       5.363  46.940  53.064  1.00  0.00     0.229 A 
ATOM     12  C   UNL     1       9.305  46.216  52.023  1.00  0.00     0.014 A 
ATOM     13  C   UNL     1       7.604  47.102  53.520  1.00  0.00     0.078 A 
ATOM     14  N   UNL     1       6.342  47.351  53.876  1.00  0.00    -0.213 NA
ATOM     15  C   UNL     1      10.315  46.664  52.868  1.00  0.00     0.001 A 
ATOM     16  C   UNL     1       8.631  47.539  54.351  1.00  0.00     0.029 A 
ATOM     17  C   UNL     1       9.977  47.327  54.040  1.00  0.00     0.002 A 
BRANCH  11  18
ATOM     18  N   UNL     1       4.025  47.172  53.361  1.00  0.00    -0.322 N 
ATOM     19  H   UNL     1       3.862  48.168  53.440  1.00  0.00     0.170 HD
BRANCH  18  20
ATOM     20  C   UNL     1       2.911  46.352  53.579  1.00  0.00     0.077 A 
ATOM     21  C   UNL     1       1.895  46.139  52.641  1.00  0.00     0.032 A 
ATOM     22  C   UNL     1       2.793  45.697  54.820  1.00  0.00     0.149 A 
ATOM     23  C   UNL     1       0.810  45.306  52.935  1.00  0.00     0.041 A 
ATOM     24  C   UNL     1       1.721  44.866  55.127  1.00  0.00     0.080 A 
ATOM     25  C   UNL     1       0.735  44.679  54.174  1.00  0.00     0.126 A 
ATOM     26  F   UNL     1       3.749  45.878  55.747  1.00  0.00    -0.205 F 
ATOM     27  F   UNL     1      -0.307  43.882  54.448  1.00  0.00    -0.207 F 
ENDBRANCH  18  20
ENDBRANCH  11  18
ENDBRANCH   6   8
ENDBRANCH   1   6
TORSDOF 7
ENDMDL
MODEL 3
REMARK VINA RESULT:    -8.916      2.994      6.776
REMARK INTER + INTRA:         -13.550
REMARK INTER:                 -12.864
REMARK INTRA:                  -0.686
REMARK UNBOUND:                -1.246
REMARK SMILES OCCCNc1nc(Nc2ccc(F)cc2F)nc2ccccc12
REMARK SMILES IDX 4 1 3 2 2 3 1 4 5 6 6 8 7 9 24 10 8 11 23 12 19 13 18 14
REMARK SMILES IDX 22 15 20 16 21 17 9 18 10 20 11 21 16 22 12 23 15 24 13 25
REMARK SMILES IDX 17 26 14 27
REMARK H PARENT 1 5 5 7 9 19
ROOT
ATOM      1  C   UNL     1       5.898  44.056  50.357  1.00  0.00     0.117 C 
ENDROOT
BRANCH   1   2
ATOM      2  C   UNL     1       6.564  43.039  49.425  1.00  0.00     0.049 C 
BRANCH   2   3
ATOM      3  C   UNL     1       6.186  41.592  49.712  1.00  0.00     0.158 C 
BRANCH   3   4
ATOM      4  O   UNL     1       7.328  40.830  50.072  1.00  0.00    -0.396 OA
ATOM      5  H   UNL     1       8.089  41.436  50.103  1.00  0.00     0.210 HD
ENDBRANCH   3   4
ENDBRANCH   2   3
ENDBRANCH   1   2
BRANCH   1   6
ATOM      6  N   UNL     1       6.707  45.273  50.444  1.00  0.00    -0.369 N 
ATOM      7  H   UNL     1       7.692  45.058  50.294  1.00  0.00     0.162 HD
BRANCH   6   8
ATOM      8  C   UNL     1       6.623  45.953  51.687  1.00  0.00     0.139 A 
ATOM      9  N   UNL     1       5.412  46.203  52.214  1.00  0.00    -0.195 NA
ATOM     10  C   UNL     1       7.806  46.365  52.321  1.00  0.00     0.043 A 
ATOM     11  C   UNL     1       5.347  46.839  53.390  1.00  0.00     0.229 A 
ATOM     12  C   UNL     1       9.118  46.178  51.813  1.00  0.00     0.014 A 
ATOM     13  C   UNL     1       7.628  47.014  53.545  1.00  0.00     0.078 A 
ATOM     14  N   UNL     1       6.423  47.242  54.072  1.00  0.00    -0.213 NA
ATOM     15  C   UNL     1      10.230  46.617  52.525  1.00  0.00     0.001 A 
ATOM     16  C   UNL     1       8.753  47.441  54.240  1.00  0.00     0.029 A 
ATOM     17  C   UNL     1      10.047  47.250  53.747  1.00  0.00     0.002 A 
BRANCH  11  18
ATOM     18  N   UNL     1       4.059  47.051  53.868  1.00  0.00    -0.322 N 
ATOM     19  H   UNL     1       3.917  48.039  54.037  1.00  0.00     0.170 HD
BRANCH  18  20
ATOM     20  C   UNL     1       2.973  46.219  54.167  1.00  0.00     0.077 A 
ATOM     21  C   UNL     1       2.783  45.587  55.401  1.00  0.00     0.032 A 
ATOM     22  C   UNL     1       2.007  45.992  53.168  1.00  0.00     0.149 A 
ATOM     23  C   UNL     1       1.672  44.766  55.622  1.00  0.00     0.041 A 
ATOM     24  C   UNL     1       0.898  45.178  53.373  1.00  0.00     0.080 A 
ATOM     25  C   UNL     1       0.742  44.570  54.607  1.00  0.00     0.126 A 
ATOM     26  F   UNL     1       2.156  46.580  51.969  1.00  0.00    -0.205 F 
ATOM     27  F   UNL     1      -0.319  43.783  54.827  1.00  0.00    -0.207 F 
ENDBRANCH  18  20
ENDBRANCH  11  18
ENDBRANCH   6   8
ENDBRANCH   1   6
TORSDOF 7
ENDMDL
MODEL 4
REMARK VINA RESULT:    -8.874      0.972      1.395
REMARK INTER + INTRA:         -13.492
REMARK INTER:                 -12.312
REMARK INTRA:                  -1.180
REMARK UNBOUND:                -1.246
REMARK SMILES OCCCNc1nc(Nc2ccc(F)cc2F)nc2ccccc12
REMARK SMILES IDX 4 1 3 2 2 3 1 4 5 6 6 8 7 9 24 10 8 11 23 12 19 13 18 14
REMARK SMILES IDX 22 15 20 16 21 17 9 18 10 20 11 21 16 22 12 23 15 24 13 25
REMARK SMILES IDX 17 26 14 27
REMARK H PARENT 1 5 5 7 9 19
ROOT
ATOM      1  C   UNL     1       2.475  44.691  53.117  1.00  0.00     0.117 C 
ENDROOT
BRANCH   1   2
ATOM      2  C   UNL     1       2.264  44.954  54.611  1.00  0.00     0.049 C 
BRANCH   2   3
ATOM      3  C   UNL     1       3.465  45.579  55.308  1.00  0.00     0.158 C 
BRANCH   3   4
ATOM      4  O   UNL     1       4.527  44.645  55.429  1.00  0.00    -0.396 OA
ATOM      5  H   UNL     1       4.145  43.803  55.735  1.00  0.00     0.210 HD
ENDBRANCH   3   4
ENDBRANCH   2   3
ENDBRANCH   1   2
BRANCH   1   6
ATOM      6  N   UNL     1       3.358  43.541  52.922  1.00  0.00    -0.369 N 
ATOM      7  H   UNL     1       3.772  43.254  53.808  1.00  0.00     0.162 HD
BRANCH   6   8
ATOM      8  C   UNL     1       4.433  43.765  52.023  1.00  0.00     0.139 A 
ATOM      9  N   UNL     1       5.205  44.853  52.186  1.00  0.00    -0.195 NA
ATOM     10  C   UNL     1       4.646  42.855  50.974  1.00  0.00     0.043 A 
ATOM     11  C   UNL     1       6.220  45.048  51.335  1.00  0.00     0.229 A 
ATOM     12  C   UNL     1       3.853  41.708  50.709  1.00  0.00     0.014 A 
ATOM     13  C   UNL     1       5.733  43.147  50.148  1.00  0.00     0.078 A 
ATOM     14  N   UNL     1       6.509  44.219  50.328  1.00  0.00    -0.213 NA
ATOM     15  C   UNL     1       4.155  40.862  49.645  1.00  0.00     0.001 A 
ATOM     16  C   UNL     1       6.017  42.286  49.094  1.00  0.00     0.029 A 
ATOM     17  C   UNL     1       5.245  41.151  48.835  1.00  0.00     0.002 A 
BRANCH  11  18
ATOM     18  N   UNL     1       6.973  46.191  51.578  1.00  0.00    -0.322 N 
ATOM     19  H   UNL     1       6.769  46.889  50.875  1.00  0.00     0.170 HD
BRANCH  18  20
ATOM     20  C   UNL     1       7.925  46.553  52.539  1.00  0.00     0.077 A 
ATOM     21  C   UNL     1       7.613  47.123  53.779  1.00  0.00     0.032 A 
ATOM     22  C   UNL     1       9.286  46.339  52.249  1.00  0.00     0.149 A 
ATOM     23  C   UNL     1       8.623  47.462  54.686  1.00  0.00     0.041 A 
ATOM     24  C   UNL     1      10.300  46.670  53.141  1.00  0.00     0.080 A 
ATOM     25  C   UNL     1       9.955  47.232  54.358  1.00  0.00     0.126 A 
ATOM     26  F   UNL     1       9.624  45.794  51.068  1.00  0.00    -0.205 F 
ATOM     27  F   UNL     1      10.915  47.558  55.233  1.00  0.00    -0.207 F 
ENDBRANCH  18  20
ENDBRANCH  11  18
ENDBRANCH   6   8
ENDBRANCH   1   6
TORSDOF 7
ENDMDL
MODEL 5
REMARK VINA RESULT:    -8.687      1.115      1.341
REMARK INTER + INTRA:         -13.234
REMARK INTER:                 -12.310
REMARK INTRA:                  -0.924
REMARK UNBOUND:                -1.246
REMARK SMILES OCCCNc1nc(Nc2ccc(F)cc2F)nc2ccccc12
REMARK SMILES IDX 4 1 3 2 2 3 1 4 5 6 6 8 7 9 24 10 8 11 23 12 19 13 18 14
REMARK SMILES IDX 22 15 20 16 21 17 9 18 10 20 11 21 16 22 12 23 15 24 13 25
REMARK SMILES IDX 17 26 14 27
REMARK H PARENT 1 5 5 7 9 19
ROOT
ATOM      1  C   UNL     1       2.858  44.532  53.493  1.00  0.00     0.117 C 
ENDROOT
BRANCH   1   2
ATOM      2  C   UNL     1       1.343  44.331  53.579  1.00  0.00     0.049 C 
BRANCH   2   3
ATOM      3  C   UNL     1       0.850  43.039  52.941  1.00  0.00     0.158 C 
BRANCH   3   4
ATOM      4  O   UNL     1       1.251  41.910  53.703  1.00  0.00    -0.396 OA
ATOM      5  H   UNL     1       1.679  42.238  54.513  1.00  0.00     0.210 HD
ENDBRANCH   3   4
ENDBRANCH   2   3
ENDBRANCH   1   2
BRANCH   1   6
ATOM      6  N   UNL     1       3.491  43.373  52.863  1.00  0.00    -0.369 N 
ATOM      7  H   UNL     1       3.883  42.752  53.570  1.00  0.00     0.162 HD
BRANCH   6   8
ATOM      8  C   UNL     1       4.545  43.687  51.966  1.00  0.00     0.139 A 
ATOM      9  N   UNL     1       5.268  44.801  52.172  1.00  0.00    -0.195 NA
ATOM     10  C   UNL     1       4.789  42.836  50.875  1.00  0.00     0.043 A 
ATOM     11  C   UNL     1       6.263  45.082  51.323  1.00  0.00     0.229 A 
ATOM     12  C   UNL     1       4.047  41.667  50.564  1.00  0.00     0.014 A 
ATOM     13  C   UNL     1       5.853  43.216  50.055  1.00  0.00     0.078 A 
ATOM     14  N   UNL     1       6.580  44.313  50.276  1.00  0.00    -0.213 NA
ATOM     15  C   UNL     1       4.376  40.885  49.461  1.00  0.00     0.001 A 
ATOM     16  C   UNL     1       6.165  42.417  48.960  1.00  0.00     0.029 A 
ATOM     17  C   UNL     1       5.443  41.260  48.656  1.00  0.00     0.002 A 
BRANCH  11  18
ATOM     18  N   UNL     1       6.966  46.246  51.611  1.00  0.00    -0.322 N 
ATOM     19  H   UNL     1       6.635  46.998  51.021  1.00  0.00     0.170 HD
BRANCH  18  20
ATOM     20  C   UNL     1       8.000  46.574  52.496  1.00  0.00     0.077 A 
ATOM     21  C   UNL     1       9.361  46.424  52.206  1.00  0.00     0.032 A 
ATOM     22  C   UNL     1       7.662  47.086  53.764  1.00  0.00     0.149 A 
ATOM     23  C   UNL     1      10.337  46.773  53.146  1.00  0.00     0.041 A 
ATOM     24  C   UNL     1       8.621  47.436  54.708  1.00  0.00     0.080 A 
ATOM     25  C   UNL     1       9.957  47.274  54.386  1.00  0.00     0.126 A 
ATOM     26  F   UNL     1       6.365  47.243  54.079  1.00  0.00    -0.205 F 
ATOM     27  F   UNL     1      10.898  47.606  55.280  1.00  0.00    -0.207 F 
ENDBRANCH  18  20
ENDBRANCH  11  18
ENDBRANCH   6   8
ENDBRANCH   1   6
TORSDOF 7
ENDMDL
MODEL 6
REMARK VINA RESULT:    -8.436      2.530      5.988
REMARK INTER + INTRA:         -12.887
REMARK INTER:                 -12.165
REMARK INTRA:                  -0.721
REMARK UNBOUND:                -1.246
REMARK SMILES OCCCNc1nc(Nc2ccc(F)cc2F)nc2ccccc12
REMARK SMILES IDX 4 1 3 2 2 3 1 4 5 6 6 8 7 9 24 10 8 11 23 12 19 13 18 14
REMARK SMILES IDX 22 15 20 16 21 17 9 18 10 20 11 21 16 22 12 23 15 24 13 25
REMARK SMILES IDX 17 26 14 27
REMARK H PARENT 1 5 5 7 9 19
ROOT
ATOM      1  C   UNL     1       8.694  47.905  52.802  1.00  0.00     0.117 C 
ENDROOT
BRANCH   1   2
ATOM      2  C   UNL     1       9.865  47.173  53.463  1.00  0.00     0.049 C 
BRANCH   2   3
ATOM      3  C   UNL     1       9.994  47.428  54.959  1.00  0.00     0.158 C 
BRANCH   3   4
ATOM      4  O   UNL     1       9.149  48.494  55.368  1.00  0.00    -0.396 OA
ATOM      5  H   UNL     1       9.436  49.295  54.897  1.00  0.00     0.210 HD
ENDBRANCH   3   4
ENDBRANCH   2   3
ENDBRANCH   1   2
BRANCH   1   6
ATOM      6  N   UNL     1       8.351  47.271  51.529  1.00  0.00    -0.369 N 
ATOM      7  H   UNL     1       8.214  47.976  50.804  1.00  0.00     0.162 HD
BRANCH   6   8
ATOM      8  C   UNL     1       7.172  46.482  51.558  1.00  0.00     0.139 A 
ATOM      9  N   UNL     1       6.147  46.867  52.337  1.00  0.00    -0.195 NA
ATOM     10  C   UNL     1       7.118  45.308  50.788  1.00  0.00     0.043 A 
ATOM     11  C   UNL     1       5.039  46.117  52.350  1.00  0.00     0.229 A 
ATOM     12  C   UNL     1       8.169  44.811  49.974  1.00  0.00     0.014 A 
ATOM     13  C   UNL     1       5.915  44.603  50.867  1.00  0.00     0.078 A 
ATOM     14  N   UNL     1       4.893  45.002  51.628  1.00  0.00    -0.213 NA
ATOM     15  C   UNL     1       8.011  43.638  49.241  1.00  0.00     0.001 A 
ATOM     16  C   UNL     1       5.779  43.436  50.124  1.00  0.00     0.029 A 
ATOM     17  C   UNL     1       6.808  42.948  49.314  1.00  0.00     0.002 A 
BRANCH  11  18
ATOM     18  N   UNL     1       4.024  46.589  53.174  1.00  0.00    -0.322 N 
ATOM     19  H   UNL     1       4.188  47.563  53.393  1.00  0.00     0.170 HD
BRANCH  18  20
ATOM     20  C   UNL     1       2.885  46.017  53.754  1.00  0.00     0.077 A 
ATOM     21  C   UNL     1       1.667  45.843  53.087  1.00  0.00     0.032 A 
ATOM     22  C   UNL     1       2.956  45.589  55.094  1.00  0.00     0.149 A 
ATOM     23  C   UNL     1       0.570  45.264  53.737  1.00  0.00     0.041 A 
ATOM     24  C   UNL     1       1.875  45.013  55.752  1.00  0.00     0.080 A 
ATOM     25  C   UNL     1       0.686  44.856  55.061  1.00  0.00     0.126 A 
ATOM     26  F   UNL     1       4.109  45.741  55.767  1.00  0.00    -0.205 F 
ATOM     27  F   UNL     1      -0.369  44.303  55.675  1.00  0.00    -0.207 F 
ENDBRANCH  18  20
ENDBRANCH  11  18
ENDBRANCH   6   8
ENDBRANCH   1   6
TORSDOF 7
ENDMDL
MODEL 7
REMARK VINA RESULT:    -8.375      3.003      6.080
REMARK INTER + INTRA:         -12.803
REMARK INTER:                 -12.091
REMARK INTRA:                  -0.711
REMARK UNBOUND:                -1.246
REMARK SMILES OCCCNc1nc(Nc2ccc(F)cc2F)nc2ccccc12
REMARK SMILES IDX 4 1 3 2 2 3 1 4 5 6 6 8 7 9 24 10 8 11 23 12 19 13 18 14
REMARK SMILES IDX 22 15 20 16 21 17 9 18 10 20 11 21 16 22 12 23 15 24 13 25
REMARK SMILES IDX 17 26 14 27
REMARK H PARENT 1 5 5 7 9 19
ROOT
ATOM      1  C   UNL     1       8.769  47.933  52.805  1.00  0.00     0.117 C 
ENDROOT
BRANCH   1   2
ATOM      2  C   UNL     1       9.799  47.076  53.546  1.00  0.00     0.049 C 
BRANCH   2   3
ATOM      3  C   UNL     1      10.017  47.482  54.997  1.00  0.00     0.158 C 
BRANCH   3   4
ATOM      4  O   UNL     1       9.116  48.510  55.379  1.00  0.00    -0.396 OA
ATOM      5  H   UNL     1       9.484  49.355  55.066  1.00  0.00     0.210 HD
ENDBRANCH   3   4
ENDBRANCH   2   3
ENDBRANCH   1   2
BRANCH   1   6
ATOM      6  N   UNL     1       8.393  47.299  51.541  1.00  0.00    -0.369 N 
ATOM      7  H   UNL     1       8.233  48.004  50.821  1.00  0.00     0.162 HD
BRANCH   6   8
ATOM      8  C   UNL     1       7.220  46.504  51.602  1.00  0.00     0.139 A 
ATOM      9  N   UNL     1       6.224  46.870  52.426  1.00  0.00    -0.195 NA
ATOM     10  C   UNL     1       7.141  45.343  50.815  1.00  0.00     0.043 A 
ATOM     11  C   UNL     1       5.120  46.116  52.469  1.00  0.00     0.229 A 
ATOM     12  C   UNL     1       8.161  44.864  49.953  1.00  0.00     0.014 A 
ATOM     13  C   UNL     1       5.945  44.631  50.929  1.00  0.00     0.078 A 
ATOM     14  N   UNL     1       4.952  45.011  51.735  1.00  0.00    -0.213 NA
ATOM     15  C   UNL     1       7.980  43.703  49.206  1.00  0.00     0.001 A 
ATOM     16  C   UNL     1       5.785  43.476  50.171  1.00  0.00     0.029 A 
ATOM     17  C   UNL     1       6.784  43.007  49.314  1.00  0.00     0.002 A 
BRANCH  11  18
ATOM     18  N   UNL     1       4.137  46.568  53.340  1.00  0.00    -0.322 N 
ATOM     19  H   UNL     1       4.327  47.527  53.601  1.00  0.00     0.170 HD
BRANCH  18  20
ATOM     20  C   UNL     1       2.999  45.993  53.920  1.00  0.00     0.077 A 
ATOM     21  C   UNL     1       2.940  45.523  55.237  1.00  0.00     0.032 A 
ATOM     22  C   UNL     1       1.836  45.870  53.137  1.00  0.00     0.149 A 
ATOM     23  C   UNL     1       1.764  44.956  55.744  1.00  0.00     0.041 A 
ATOM     24  C   UNL     1       0.661  45.310  53.627  1.00  0.00     0.080 A 
ATOM     25  C   UNL     1       0.639  44.856  54.934  1.00  0.00     0.126 A 
ATOM     26  F   UNL     1       1.854  46.310  51.867  1.00  0.00    -0.205 F 
ATOM     27  F   UNL     1      -0.482  44.314  55.427  1.00  0.00    -0.207 F 
ENDBRANCH  18  20
ENDBRANCH  11  18
ENDBRANCH   6   8
ENDBRANCH   1   6
TORSDOF 7
ENDMDL
MODEL 8
REMARK VINA RESULT:    -8.026      2.328      3.943
REMARK INTER + INTRA:         -12.321
REMARK INTER:                 -11.201
REMARK INTRA:                  -1.120
REMARK UNBOUND:                -1.246
REMARK SMILES OCCCNc1nc(Nc2ccc(F)cc2F)nc2ccccc12
REMARK SMILES IDX 4 1 3 2 2 3 1 4 5 6 6 8 7 9 24 10 8 11 23 12 19 13 18 14
REMARK SMILES IDX 22 15 20 16 21 17 9 18 10 20 11 21 16 22 12 23 15 24 13 25
REMARK SMILES IDX 17 26 14 27
REMARK H PARENT 1 5 5 7 9 19
ROOT
ATOM      1  C   UNL     1       6.059  41.277  49.957  1.00  0.00     0.117 C 
ENDROOT
BRANCH   1   2
ATOM      2  C   UNL     1       5.418  41.281  48.566  1.00  0.00     0.049 C 
BRANCH   2   3
ATOM      3  C   UNL     1       6.141  42.156  47.551  1.00  0.00     0.158 C 
BRANCH   3   4
ATOM      4  O   UNL     1       7.082  43.006  48.190  1.00  0.00    -0.396 OA
ATOM      5  H   UNL     1       6.907  43.916  47.892  1.00  0.00     0.210 HD
ENDBRANCH   3   4
ENDBRANCH   2   3
ENDBRANCH   1   2
BRANCH   1   6
ATOM      6  N   UNL     1       5.080  41.677  50.969  1.00  0.00    -0.369 N 
ATOM      7  H   UNL     1       4.185  41.218  50.802  1.00  0.00     0.162 HD
BRANCH   6   8
ATOM      8  C   UNL     1       4.820  43.071  51.025  1.00  0.00     0.139 A 
ATOM      9  N   UNL     1       5.847  43.931  50.932  1.00  0.00    -0.195 NA
ATOM     10  C   UNL     1       3.497  43.511  51.197  1.00  0.00     0.043 A 
ATOM     11  C   UNL     1       5.587  45.243  50.979  1.00  0.00     0.229 A 
ATOM     12  C   UNL     1       2.364  42.669  51.345  1.00  0.00     0.014 A 
ATOM     13  C   UNL     1       3.333  44.897  51.226  1.00  0.00     0.078 A 
ATOM     14  N   UNL     1       4.357  45.748  51.114  1.00  0.00    -0.213 NA
ATOM     15  C   UNL     1       1.090  43.207  51.503  1.00  0.00     0.001 A 
ATOM     16  C   UNL     1       2.051  45.412  51.382  1.00  0.00     0.029 A 
ATOM     17  C   UNL     1       0.932  44.586  51.518  1.00  0.00     0.002 A 
BRANCH  11  18
ATOM     18  N   UNL     1       6.703  46.064  50.868  1.00  0.00    -0.322 N 
ATOM     19  H   UNL     1       6.730  46.481  49.947  1.00  0.00     0.170 HD
BRANCH  18  20
ATOM     20  C   UNL     1       7.758  46.406  51.723  1.00  0.00     0.077 A 
ATOM     21  C   UNL     1       9.097  46.067  51.493  1.00  0.00     0.032 A 
ATOM     22  C   UNL     1       7.466  47.132  52.893  1.00  0.00     0.149 A 
ATOM     23  C   UNL     1      10.097  46.442  52.398  1.00  0.00     0.041 A 
ATOM     24  C   UNL     1       8.449  47.512  53.801  1.00  0.00     0.080 A 
ATOM     25  C   UNL     1       9.762  47.160  53.541  1.00  0.00     0.126 A 
ATOM     26  F   UNL     1       6.192  47.474  53.148  1.00  0.00    -0.205 F 
ATOM     27  F   UNL     1      10.725  47.516  54.402  1.00  0.00    -0.207 F 
ENDBRANCH  18  20
ENDBRANCH  11  18
ENDBRANCH   6   8
ENDBRANCH   1   6
TORSDOF 7
ENDMDL
MODEL 9
REMARK VINA RESULT:    -8.007      2.193      4.306
REMARK INTER + INTRA:         -12.295
REMARK INTER:                 -11.667
REMARK INTRA:                  -0.628
REMARK UNBOUND:                -1.246
REMARK SMILES OCCCNc1nc(Nc2ccc(F)cc2F)nc2ccccc12
REMARK SMILES IDX 4 1 3 2 2 3 1 4 5 6 6 8 7 9 24 10 8 11 23 12 19 13 18 14
REMARK SMILES IDX 22 15 20 16 21 17 9 18 10 20 11 21 16 22 12 23 15 24 13 25
REMARK SMILES IDX 17 26 14 27
REMARK H PARENT 1 5 5 7 9 19
ROOT
ATOM      1  C   UNL     1       3.655  41.634  50.294  1.00  0.00     0.117 C 
ENDROOT
BRANCH   1   2
ATOM      2  C   UNL     1       4.899  41.130  49.558  1.00  0.00     0.049 C 
BRANCH   2   3
ATOM      3  C   UNL     1       6.207  41.718  50.072  1.00  0.00     0.158 C 
BRANCH   3   4
ATOM      4  O   UNL     1       7.240  40.744  50.067  1.00  0.00    -0.396 OA
ATOM      5  H   UNL     1       7.217  40.296  49.203  1.00  0.00     0.210 HD
ENDBRANCH   3   4
ENDBRANCH   2   3
ENDBRANCH   1   2
BRANCH   1   6
ATOM      6  N   UNL     1       3.968  41.905  51.697  1.00  0.00    -0.369 N 
ATOM      7  H   UNL     1       3.411  41.309  52.309  1.00  0.00     0.162 HD
BRANCH   6   8
ATOM      8  C   UNL     1       3.736  43.243  52.109  1.00  0.00     0.139 A 
ATOM      9  N   UNL     1       4.677  44.172  51.872  1.00  0.00    -0.195 NA
ATOM     10  C   UNL     1       2.538  43.554  52.774  1.00  0.00     0.043 A 
ATOM     11  C   UNL     1       4.443  45.431  52.259  1.00  0.00     0.229 A 
ATOM     12  C   UNL     1       1.515  42.627  53.100  1.00  0.00     0.014 A 
ATOM     13  C   UNL     1       2.390  44.897  53.129  1.00  0.00     0.078 A 
ATOM     14  N   UNL     1       3.320  45.819  52.872  1.00  0.00    -0.213 NA
ATOM     15  C   UNL     1       0.358  43.040  53.754  1.00  0.00     0.001 A 
ATOM     16  C   UNL     1       1.224  45.287  53.780  1.00  0.00     0.029 A 
ATOM     17  C   UNL     1       0.210  44.378  54.094  1.00  0.00     0.002 A 
BRANCH  11  18
ATOM     18  N   UNL     1       5.462  46.331  51.969  1.00  0.00    -0.322 N 
ATOM     19  H   UNL     1       5.182  46.927  51.201  1.00  0.00     0.170 HD
BRANCH  18  20
ATOM     20  C   UNL     1       6.744  46.560  52.485  1.00  0.00     0.077 A 
ATOM     21  C   UNL     1       7.001  46.971  53.798  1.00  0.00     0.032 A 
ATOM     22  C   UNL     1       7.852  46.374  51.636  1.00  0.00     0.149 A 
ATOM     23  C   UNL     1       8.313  47.184  54.238  1.00  0.00     0.041 A 
ATOM     24  C   UNL     1       9.160  46.581  52.060  1.00  0.00     0.080 A 
ATOM     25  C   UNL     1       9.377  46.987  53.365  1.00  0.00     0.126 A 
ATOM     26  F   UNL     1       7.644  45.981  50.368  1.00  0.00    -0.205 F 
ATOM     27  F   UNL     1      10.629  47.191  53.795  1.00  0.00    -0.207 F 
ENDBRANCH  18  20
ENDBRANCH  11  18
ENDBRANCH   6   8
ENDBRANCH   1   6
TORSDOF 7
ENDMDL
MODEL 10
REMARK VINA RESULT:    -7.973      3.073      7.064
REMARK INTER + INTRA:         -12.248
REMARK INTER:                 -11.541
REMARK INTRA:                  -0.707
REMARK UNBOUND:                -1.246
REMARK SMILES OCCCNc1nc(Nc2ccc(F)cc2F)nc2ccccc12
REMARK SMILES IDX 4 1 3 2 2 3 1 4 5 6 6 8 7 9 24 10 8 11 23 12 19 13 18 14
REMARK SMILES IDX 22 15 20 16 21 17 9 18 10 20 11 21 16 22 12 23 15 24 13 25
REMARK SMILES IDX 17 26 14 27
REMARK H PARENT 1 5 5 7 9 19
ROOT
ATOM      1  C   UNL     1       7.421  43.783  49.759  1.00  0.00     0.117 C 
ENDROOT
BRANCH   1   2
ATOM      2  C   UNL     1       6.461  42.830  49.041  1.00  0.00     0.049 C 
BRANCH   2   3
ATOM      3  C   UNL     1       6.159  41.553  49.813  1.00  0.00     0.158 C 
BRANCH   3   4
ATOM      4  O   UNL     1       7.351  40.838  50.100  1.00  0.00    -0.396 OA
ATOM      5  H   UNL     1       7.150  40.202  50.809  1.00  0.00     0.210 HD
ENDBRANCH   3   4
ENDBRANCH   2   3
ENDBRANCH   1   2
BRANCH   1   6
ATOM      6  N   UNL     1       6.745  45.042  50.078  1.00  0.00    -0.369 N 
ATOM      7  H   UNL     1       7.276  45.834  49.718  1.00  0.00     0.162 HD
BRANCH   6   8
ATOM      8  C   UNL     1       6.552  45.275  51.464  1.00  0.00     0.139 A 
ATOM      9  N   UNL     1       5.439  44.811  52.056  1.00  0.00    -0.195 NA
ATOM     10  C   UNL     1       7.519  46.006  52.174  1.00  0.00     0.043 A 
ATOM     11  C   UNL     1       5.272  45.032  53.365  1.00  0.00     0.229 A 
ATOM     12  C   UNL     1       8.698  46.565  51.617  1.00  0.00     0.014 A 
ATOM     13  C   UNL     1       7.253  46.175  53.535  1.00  0.00     0.078 A 
ATOM     14  N   UNL     1       6.154  45.693  54.121  1.00  0.00    -0.213 NA
ATOM     15  C   UNL     1       9.600  47.267  52.411  1.00  0.00     0.001 A 
ATOM     16  C   UNL     1       8.170  46.876  54.309  1.00  0.00     0.029 A 
ATOM     17  C   UNL     1       9.337  47.421  53.765  1.00  0.00     0.002 A 
BRANCH  11  18
ATOM     18  N   UNL     1       4.100  44.512  53.901  1.00  0.00    -0.322 N 
ATOM     19  H   UNL     1       4.268  44.196  54.847  1.00  0.00     0.170 HD
BRANCH  18  20
ATOM     20  C   UNL     1       2.798  44.327  53.419  1.00  0.00     0.077 A 
ATOM     21  C   UNL     1       1.759  45.250  53.587  1.00  0.00     0.032 A 
ATOM     22  C   UNL     1       2.502  43.140  52.723  1.00  0.00     0.149 A 
ATOM     23  C   UNL     1       0.481  44.991  53.077  1.00  0.00     0.041 A 
ATOM     24  C   UNL     1       1.238  42.869  52.211  1.00  0.00     0.080 A 
ATOM     25  C   UNL     1       0.234  43.805  52.396  1.00  0.00     0.126 A 
ATOM     26  F   UNL     1       3.474  42.229  52.542  1.00  0.00    -0.205 F 
ATOM     27  F   UNL     1      -0.991  43.566  51.910  1.00  0.00    -0.207 F 
ENDBRANCH  18  20
ENDBRANCH  11  18
ENDBRANCH   6   8
ENDBRANCH   1   6
TORSDOF 7
ENDMDL
MODEL 11
REMARK VINA RESULT:    -7.960      2.977      6.640
REMARK INTER + INTRA:         -12.231
REMARK INTER:                 -11.519
REMARK INTRA:                  -0.712
REMARK UNBOUND:                -1.246
REMARK SMILES OCCCNc1nc(Nc2ccc(F)cc2F)nc2ccccc12
REMARK SMILES IDX 4 1 3 2 2 3 1 4 5 6 6 8 7 9 24 10 8 11 23 12 19 13 18 14
REMARK SMILES IDX 22 15 20 16 21 17 9 18 10 20 11 21 16 22 12 23 15 24 13 25
REMARK SMILES IDX 17 26 14 27
REMARK H PARENT 1 5 5 7 9 19
ROOT
ATOM      1  C   UNL     1       7.550  46.914  53.885  1.00  0.00     0.117 C 
ENDROOT
BRANCH   1   2
ATOM      2  C   UNL     1       8.994  47.362  53.644  1.00  0.00     0.049 C 
BRANCH   2   3
ATOM      3  C   UNL     1       9.777  47.652  54.917  1.00  0.00     0.158 C 
BRANCH   3   4
ATOM      4  O   UNL     1       9.168  48.696  55.662  1.00  0.00    -0.396 OA
ATOM      5  H   UNL     1       9.104  49.475  55.081  1.00  0.00     0.210 HD
ENDBRANCH   3   4
ENDBRANCH   2   3
ENDBRANCH   1   2
BRANCH   1   6
ATOM      6  N   UNL     1       6.782  46.978  52.641  1.00  0.00    -0.369 N 
ATOM      7  H   UNL     1       6.111  47.745  52.675  1.00  0.00     0.162 HD
BRANCH   6   8
ATOM      8  C   UNL     1       6.045  45.804  52.339  1.00  0.00     0.139 A 
ATOM      9  N   UNL     1       4.969  45.498  53.083  1.00  0.00    -0.195 NA
ATOM     10  C   UNL     1       6.475  44.982  51.284  1.00  0.00     0.043 A 
ATOM     11  C   UNL     1       4.279  44.391  52.782  1.00  0.00     0.229 A 
ATOM     12  C   UNL     1       7.621  45.211  50.479  1.00  0.00     0.014 A 
ATOM     13  C   UNL     1       5.682  43.857  51.049  1.00  0.00     0.078 A 
ATOM     14  N   UNL     1       4.602  43.569  51.779  1.00  0.00    -0.213 NA
ATOM     15  C   UNL     1       7.957  44.337  49.449  1.00  0.00     0.001 A 
ATOM     16  C   UNL     1       6.035  43.000  50.012  1.00  0.00     0.029 A 
ATOM     17  C   UNL     1       7.158  43.227  49.212  1.00  0.00     0.002 A 
BRANCH  11  18
ATOM     18  N   UNL     1       3.177  44.152  53.594  1.00  0.00    -0.322 N 
ATOM     19  H   UNL     1       3.470  44.101  54.560  1.00  0.00     0.170 HD
BRANCH  18  20
ATOM     20  C   UNL     1       1.809  43.958  53.360  1.00  0.00     0.077 A 
ATOM     21  C   UNL     1       1.158  42.726  53.482  1.00  0.00     0.032 A 
ATOM     22  C   UNL     1       1.031  45.066  52.973  1.00  0.00     0.149 A 
ATOM     23  C   UNL     1      -0.214  42.612  53.228  1.00  0.00     0.041 A 
ATOM     24  C   UNL     1      -0.332  44.968  52.717  1.00  0.00     0.080 A 
ATOM     25  C   UNL     1      -0.944  43.733  52.849  1.00  0.00     0.126 A 
ATOM     26  F   UNL     1       1.622  46.266  52.844  1.00  0.00    -0.205 F 
ATOM     27  F   UNL     1      -2.256  43.616  52.608  1.00  0.00    -0.207 F 
ENDBRANCH  18  20
ENDBRANCH  11  18
ENDBRANCH   6   8
ENDBRANCH   1   6
TORSDOF 7
ENDMDL
MODEL 12
REMARK VINA RESULT:    -7.887      2.051      4.122
REMARK INTER + INTRA:         -12.129
REMARK INTER:                 -11.459
REMARK INTRA:                  -0.670
REMARK UNBOUND:                -1.246
REMARK SMILES OCCCNc1nc(Nc2ccc(F)cc2F)nc2ccccc12
REMARK SMILES IDX 4 1 3 2 2 3 1 4 5 6 6 8 7 9 24 10 8 11 23 12 19 13 18 14
REMARK SMILES IDX 22 15 20 16 21 17 9 18 10 20 11 21 16 22 12 23 15 24 13 25
REMARK SMILES IDX 17 26 14 27
REMARK H PARENT 1 5 5 7 9 19
ROOT
ATOM      1  C   UNL     1       3.683  41.616  50.324  1.00  0.00     0.117 C 
ENDROOT
BRANCH   1   2
ATOM      2  C   UNL     1       4.924  41.176  49.542  1.00  0.00     0.049 C 
BRANCH   2   3
ATOM      3  C   UNL     1       6.228  41.768  50.059  1.00  0.00     0.158 C 
BRANCH   3   4
ATOM      4  O   UNL     1       7.263  40.796  50.057  1.00  0.00    -0.396 OA
ATOM      5  H   UNL     1       7.825  40.965  49.280  1.00  0.00     0.210 HD
ENDBRANCH   3   4
ENDBRANCH   2   3
ENDBRANCH   1   2
BRANCH   1   6
ATOM      6  N   UNL     1       4.037  41.916  51.712  1.00  0.00    -0.369 N 
ATOM      7  H   UNL     1       3.549  41.288  52.349  1.00  0.00     0.162 HD
BRANCH   6   8
ATOM      8  C   UNL     1       3.731  43.238  52.129  1.00  0.00     0.139 A 
ATOM      9  N   UNL     1       4.628  44.215  51.912  1.00  0.00    -0.195 NA
ATOM     10  C   UNL     1       2.510  43.483  52.778  1.00  0.00     0.043 A 
ATOM     11  C   UNL     1       4.324  45.458  52.303  1.00  0.00     0.229 A 
ATOM     12  C   UNL     1       1.530  42.503  53.082  1.00  0.00     0.014 A 
ATOM     13  C   UNL     1       2.288  44.814  53.139  1.00  0.00     0.078 A 
ATOM     14  N   UNL     1       3.175  45.784  52.902  1.00  0.00    -0.213 NA
ATOM     15  C   UNL     1       0.344  42.852  53.722  1.00  0.00     0.001 A 
ATOM     16  C   UNL     1       1.095  45.140  53.775  1.00  0.00     0.029 A 
ATOM     17  C   UNL     1       0.124  44.179  54.068  1.00  0.00     0.002 A 
BRANCH  11  18
ATOM     18  N   UNL     1       5.301  46.410  52.034  1.00  0.00    -0.322 N 
ATOM     19  H   UNL     1       4.926  47.118  51.417  1.00  0.00     0.170 HD
BRANCH  18  20
ATOM     20  C   UNL     1       6.640  46.575  52.410  1.00  0.00     0.077 A 
ATOM     21  C   UNL     1       7.727  46.393  51.548  1.00  0.00     0.032 A 
ATOM     22  C   UNL     1       6.923  46.944  53.739  1.00  0.00     0.149 A 
ATOM     23  C   UNL     1       9.039  46.574  52.000  1.00  0.00     0.041 A 
ATOM     24  C   UNL     1       8.221  47.128  54.202  1.00  0.00     0.080 A 
ATOM     25  C   UNL     1       9.272  46.939  53.321  1.00  0.00     0.126 A 
ATOM     26  F   UNL     1       5.905  47.128  54.597  1.00  0.00    -0.205 F 
ATOM     27  F   UNL     1      10.531  47.112  53.745  1.00  0.00    -0.207 F 
ENDBRANCH  18  20
ENDBRANCH  11  18
ENDBRANCH   6   8
ENDBRANCH   1   6
TORSDOF 7
ENDMDL
MODEL 13
REMARK VINA RESULT:    -7.794      2.976      6.473
REMARK INTER + INTRA:         -12.001
REMARK INTER:                 -11.353
REMARK INTRA:                  -0.648
REMARK UNBOUND:                -1.246
REMARK SMILES OCCCNc1nc(Nc2ccc(F)cc2F)nc2ccccc12
REMARK SMILES IDX 4 1 3 2 2 3 1 4 5 6 6 8 7 9 24 10 8 11 23 12 19 13 18 14
REMARK SMILES IDX 22 15 20 16 21 17 9 18 10 20 11 21 16 22 12 23 15 24 13 25
REMARK SMILES IDX 17 26 14 27
REMARK H PARENT 1 5 5 7 9 19
ROOT
ATOM      1  C   UNL     1       7.451  47.051  53.555  1.00  0.00     0.117 C 
ENDROOT
BRANCH   1   2
ATOM      2  C   UNL     1       8.938  47.367  53.368  1.00  0.00     0.049 C 
BRANCH   2   3
ATOM      3  C   UNL     1       9.707  47.535  54.671  1.00  0.00     0.158 C 
BRANCH   3   4
ATOM      4  O   UNL     1       9.142  48.567  55.467  1.00  0.00    -0.396 OA
ATOM      5  H   UNL     1       9.839  49.227  55.631  1.00  0.00     0.210 HD
ENDBRANCH   3   4
ENDBRANCH   2   3
ENDBRANCH   1   2
BRANCH   1   6
ATOM      6  N   UNL     1       6.776  46.991  52.259  1.00  0.00    -0.369 N 
ATOM      7  H   UNL     1       6.097  47.747  52.174  1.00  0.00     0.162 HD
BRANCH   6   8
ATOM      8  C   UNL     1       6.074  45.783  52.011  1.00  0.00     0.139 A 
ATOM      9  N   UNL     1       4.999  45.487  52.761  1.00  0.00    -0.195 NA
ATOM     10  C   UNL     1       6.536  44.920  51.004  1.00  0.00     0.043 A 
ATOM     11  C   UNL     1       4.342  44.348  52.512  1.00  0.00     0.229 A 
ATOM     12  C   UNL     1       7.683  45.138  50.198  1.00  0.00     0.014 A 
ATOM     13  C   UNL     1       5.776  43.763  50.821  1.00  0.00     0.078 A 
ATOM     14  N   UNL     1       4.697  43.484  51.556  1.00  0.00    -0.213 NA
ATOM     15  C   UNL     1       8.053  44.222  49.217  1.00  0.00     0.001 A 
ATOM     16  C   UNL     1       6.162  42.864  49.833  1.00  0.00     0.029 A 
ATOM     17  C   UNL     1       7.286  43.080  49.031  1.00  0.00     0.002 A 
BRANCH  11  18
ATOM     18  N   UNL     1       3.239  44.120  53.326  1.00  0.00    -0.322 N 
ATOM     19  H   UNL     1       3.532  43.658  54.176  1.00  0.00     0.170 HD
BRANCH  18  20
ATOM     20  C   UNL     1       1.866  44.372  53.211  1.00  0.00     0.077 A 
ATOM     21  C   UNL     1       1.203  44.574  51.995  1.00  0.00     0.032 A 
ATOM     22  C   UNL     1       1.094  44.431  54.387  1.00  0.00     0.149 A 
ATOM     23  C   UNL     1      -0.174  44.824  51.963  1.00  0.00     0.041 A 
ATOM     24  C   UNL     1      -0.275  44.678  54.370  1.00  0.00     0.080 A 
ATOM     25  C   UNL     1      -0.897  44.873  53.149  1.00  0.00     0.126 A 
ATOM     26  F   UNL     1       1.696  44.242  55.573  1.00  0.00    -0.205 F 
ATOM     27  F   UNL     1      -2.215  45.111  53.109  1.00  0.00    -0.207 F 
ENDBRANCH  18  20
ENDBRANCH  11  18
ENDBRANCH   6   8
ENDBRANCH   1   6
TORSDOF 7
ENDMDL
MODEL 14
REMARK VINA RESULT:    -7.782      3.199      6.950
REMARK INTER + INTRA:         -11.985
REMARK INTER:                 -11.271
REMARK INTRA:                  -0.714
REMARK UNBOUND:                -1.246
REMARK SMILES OCCCNc1nc(Nc2ccc(F)cc2F)nc2ccccc12
REMARK SMILES IDX 4 1 3 2 2 3 1 4 5 6 6 8 7 9 24 10 8 11 23 12 19 13 18 14
REMARK SMILES IDX 22 15 20 16 21 17 9 18 10 20 11 21 16 22 12 23 15 24 13 25
REMARK SMILES IDX 17 26 14 27
REMARK H PARENT 1 5 5 7 9 19
ROOT
ATOM      1  C   UNL     1       7.426  43.617  49.687  1.00  0.00     0.117 C 
ENDROOT
BRANCH   1   2
ATOM      2  C   UNL     1       6.469  42.774  48.840  1.00  0.00     0.049 C 
BRANCH   2   3
ATOM      3  C   UNL     1       6.107  41.431  49.461  1.00  0.00     0.158 C 
BRANCH   3   4
ATOM      4  O   UNL     1       7.249  40.813  50.037  1.00  0.00    -0.396 OA
ATOM      5  H   UNL     1       6.980  39.932  50.352  1.00  0.00     0.210 HD
ENDBRANCH   3   4
ENDBRANCH   2   3
ENDBRANCH   1   2
BRANCH   1   6
ATOM      6  N   UNL     1       6.820  44.909  50.007  1.00  0.00    -0.369 N 
ATOM      7  H   UNL     1       7.433  45.672  49.723  1.00  0.00     0.162 HD
BRANCH   6   8
ATOM      8  C   UNL     1       6.535  45.106  51.384  1.00  0.00     0.139 A 
ATOM      9  N   UNL     1       5.478  44.479  51.928  1.00  0.00    -0.195 NA
ATOM     10  C   UNL     1       7.352  45.967  52.133  1.00  0.00     0.043 A 
ATOM     11  C   UNL     1       5.224  44.667  53.228  1.00  0.00     0.229 A 
ATOM     12  C   UNL     1       8.459  46.697  51.626  1.00  0.00     0.014 A 
ATOM     13  C   UNL     1       7.006  46.089  53.481  1.00  0.00     0.078 A 
ATOM     14  N   UNL     1       5.966  45.448  54.020  1.00  0.00    -0.213 NA
ATOM     15  C   UNL     1       9.213  47.520  52.457  1.00  0.00     0.001 A 
ATOM     16  C   UNL     1       7.776  46.914  54.292  1.00  0.00     0.029 A 
ATOM     17  C   UNL     1       8.872  47.627  53.799  1.00  0.00     0.002 A 
BRANCH  11  18
ATOM     18  N   UNL     1       4.120  43.978  53.713  1.00  0.00    -0.322 N 
ATOM     19  H   UNL     1       4.320  42.987  53.739  1.00  0.00     0.170 HD
BRANCH  18  20
ATOM     20  C   UNL     1       2.839  44.352  54.139  1.00  0.00     0.077 A 
ATOM     21  C   UNL     1       2.582  45.117  55.283  1.00  0.00     0.032 A 
ATOM     22  C   UNL     1       1.730  43.935  53.377  1.00  0.00     0.149 A 
ATOM     23  C   UNL     1       1.270  45.448  55.644  1.00  0.00     0.041 A 
ATOM     24  C   UNL     1       0.423  44.256  53.724  1.00  0.00     0.080 A 
ATOM     25  C   UNL     1       0.206  45.015  54.861  1.00  0.00     0.126 A 
ATOM     26  F   UNL     1       1.937  43.199  52.272  1.00  0.00    -0.205 F 
ATOM     27  F   UNL     1      -1.046  45.336  55.214  1.00  0.00    -0.207 F 
ENDBRANCH  18  20
ENDBRANCH  11  18
ENDBRANCH   6   8
ENDBRANCH   1   6
TORSDOF 7
ENDMDL
MODEL 15
REMARK VINA RESULT:    -7.761      2.827      6.408
REMARK INTER + INTRA:         -11.956
REMARK INTER:                 -11.008
REMARK INTRA:                  -0.948
REMARK UNBOUND:                -1.246
REMARK SMILES OCCCNc1nc(Nc2ccc(F)cc2F)nc2ccccc12
REMARK SMILES IDX 4 1 3 2 2 3 1 4 5 6 6 8 7 9 24 10 8 11 23 12 19 13 18 14
REMARK SMILES IDX 22 15 20 16 21 17 9 18 10 20 11 21 16 22 12 23 15 24 13 25
REMARK SMILES IDX 17 26 14 27
REMARK H PARENT 1 5 5 7 9 19
ROOT
ATOM      1  C   UNL     1       4.631  46.244  54.885  1.00  0.00     0.117 C 
ENDROOT
BRANCH   1   2
ATOM      2  C   UNL     1       3.514  45.383  54.291  1.00  0.00     0.049 C 
BRANCH   2   3
ATOM      3  C   UNL     1       2.475  46.168  53.501  1.00  0.00     0.158 C 
BRANCH   3   4
ATOM      4  O   UNL     1       2.801  46.198  52.120  1.00  0.00    -0.396 OA
ATOM      5  H   UNL     1       2.573  47.082  51.782  1.00  0.00     0.210 HD
ENDBRANCH   3   4
ENDBRANCH   2   3
ENDBRANCH   1   2
BRANCH   1   6
ATOM      6  N   UNL     1       5.173  47.148  53.869  1.00  0.00    -0.369 N 
ATOM      7  H   UNL     1       4.434  47.463  53.240  1.00  0.00     0.162 HD
BRANCH   6   8
ATOM      8  C   UNL     1       6.188  46.583  53.054  1.00  0.00     0.139 A 
ATOM      9  N   UNL     1       5.836  45.811  52.012  1.00  0.00    -0.195 NA
ATOM     10  C   UNL     1       7.534  46.830  53.372  1.00  0.00     0.043 A 
ATOM     11  C   UNL     1       6.803  45.290  51.248  1.00  0.00     0.229 A 
ATOM     12  C   UNL     1       7.990  47.597  54.475  1.00  0.00     0.014 A 
ATOM     13  C   UNL     1       8.463  46.246  52.508  1.00  0.00     0.078 A 
ATOM     14  N   UNL     1       8.106  45.496  51.463  1.00  0.00    -0.213 NA
ATOM     15  C   UNL     1       9.350  47.789  54.699  1.00  0.00     0.001 A 
ATOM     16  C   UNL     1       9.817  46.455  52.749  1.00  0.00     0.029 A 
ATOM     17  C   UNL     1      10.269  47.218  53.829  1.00  0.00     0.002 A 
BRANCH  11  18
ATOM     18  N   UNL     1       6.354  44.511  50.188  1.00  0.00    -0.322 N 
ATOM     19  H   UNL     1       6.677  44.905  49.314  1.00  0.00     0.170 HD
BRANCH  18  20
ATOM     20  C   UNL     1       5.569  43.356  50.083  1.00  0.00     0.077 A 
ATOM     21  C   UNL     1       4.538  43.023  50.969  1.00  0.00     0.032 A 
ATOM     22  C   UNL     1       5.826  42.463  49.025  1.00  0.00     0.149 A 
ATOM     23  C   UNL     1       3.798  41.847  50.799  1.00  0.00     0.041 A 
ATOM     24  C   UNL     1       5.100  41.291  48.844  1.00  0.00     0.080 A 
ATOM     25  C   UNL     1       4.087  40.994  49.740  1.00  0.00     0.126 A 
ATOM     26  F   UNL     1       6.810  42.749  48.155  1.00  0.00    -0.205 F 
ATOM     27  F   UNL     1       3.374  39.871  49.583  1.00  0.00    -0.207 F 
ENDBRANCH  18  20
ENDBRANCH  11  18
ENDBRANCH   6   8
ENDBRANCH   1   6
TORSDOF 7
ENDMDL
MODEL 16
REMARK VINA RESULT:    -7.752      2.694      6.231
REMARK INTER + INTRA:         -11.943
REMARK INTER:                 -10.868
REMARK INTRA:                  -1.075
REMARK UNBOUND:                -1.246
REMARK SMILES OCCCNc1nc(Nc2ccc(F)cc2F)nc2ccccc12
REMARK SMILES IDX 4 1 3 2 2 3 1 4 5 6 6 8 7 9 24 10 8 11 23 12 19 13 18 14
REMARK SMILES IDX 22 15 20 16 21 17 9 18 10 20 11 21 16 22 12 23 15 24 13 25
REMARK SMILES IDX 17 26 14 27
REMARK H PARENT 1 5 5 7 9 19
ROOT
ATOM      1  C   UNL     1       4.310  47.142  54.823  1.00  0.00     0.117 C 
ENDROOT
BRANCH   1   2
ATOM      2  C   UNL     1       3.620  46.056  55.653  1.00  0.00     0.049 C 
BRANCH   2   3
ATOM      3  C   UNL     1       2.573  45.259  54.888  1.00  0.00     0.158 C 
BRANCH   3   4
ATOM      4  O   UNL     1       3.154  44.126  54.259  1.00  0.00    -0.396 OA
ATOM      5  H   UNL     1       4.121  44.204  54.347  1.00  0.00     0.210 HD
ENDBRANCH   3   4
ENDBRANCH   2   3
ENDBRANCH   1   2
BRANCH   1   6
ATOM      6  N   UNL     1       5.757  46.922  54.797  1.00  0.00    -0.369 N 
ATOM      7  H   UNL     1       6.254  47.790  54.992  1.00  0.00     0.162 HD
BRANCH   6   8
ATOM      8  C   UNL     1       6.260  46.431  53.564  1.00  0.00     0.139 A 
ATOM      9  N   UNL     1       5.419  45.823  52.710  1.00  0.00    -0.195 NA
ATOM     10  C   UNL     1       7.628  46.576  53.279  1.00  0.00     0.043 A 
ATOM     11  C   UNL     1       5.905  45.371  51.548  1.00  0.00     0.229 A 
ATOM     12  C   UNL     1       8.588  47.166  54.142  1.00  0.00     0.014 A 
ATOM     13  C   UNL     1       8.031  46.077  52.039  1.00  0.00     0.078 A 
ATOM     14  N   UNL     1       7.186  45.491  51.187  1.00  0.00    -0.213 NA
ATOM     15  C   UNL     1       9.923  47.269  53.761  1.00  0.00     0.001 A 
ATOM     16  C   UNL     1       9.369  46.194  51.679  1.00  0.00     0.029 A 
ATOM     17  C   UNL     1      10.315  46.783  52.521  1.00  0.00     0.002 A 
BRANCH  11  18
ATOM     18  N   UNL     1       4.968  44.763  50.721  1.00  0.00    -0.322 N 
ATOM     19  H   UNL     1       5.308  44.758  49.768  1.00  0.00     0.170 HD
BRANCH  18  20
ATOM     20  C   UNL     1       3.703  44.197  50.921  1.00  0.00     0.077 A 
ATOM     21  C   UNL     1       3.467  42.823  51.047  1.00  0.00     0.032 A 
ATOM     22  C   UNL     1       2.589  45.054  50.997  1.00  0.00     0.149 A 
ATOM     23  C   UNL     1       2.171  42.333  51.242  1.00  0.00     0.041 A 
ATOM     24  C   UNL     1       1.295  44.582  51.190  1.00  0.00     0.080 A 
ATOM     25  C   UNL     1       1.100  43.217  51.311  1.00  0.00     0.126 A 
ATOM     26  F   UNL     1       2.775  46.380  50.878  1.00  0.00    -0.205 F 
ATOM     27  F   UNL     1      -0.138  42.740  51.499  1.00  0.00    -0.207 F 
ENDBRANCH  18  20
ENDBRANCH  11  18
ENDBRANCH   6   8
ENDBRANCH   1   6
TORSDOF 7
ENDMDL
MODEL 17
REMARK VINA RESULT:    -7.702      3.197      6.504
REMARK INTER + INTRA:         -11.874
REMARK INTER:                 -10.831
REMARK INTRA:                  -1.043
REMARK UNBOUND:                -1.246
REMARK SMILES OCCCNc1nc(Nc2ccc(F)cc2F)nc2ccccc12
REMARK SMILES IDX 4 1 3 2 2 3 1 4 5 6 6 8 7 9 24 10 8 11 23 12 19 13 18 14
REMARK SMILES IDX 22 15 20 16 21 17 9 18 10 20 11 21 16 22 12 23 15 24 13 25
REMARK SMILES IDX 17 26 14 27
REMARK H PARENT 1 5 5 7 9 19
ROOT
ATOM      1  C   UNL     1       4.983  46.825  53.981  1.00  0.00     0.117 C 
ENDROOT
BRANCH   1   2
ATOM      2  C   UNL     1       6.165  46.201  54.727  1.00  0.00     0.049 C 
BRANCH   2   3
ATOM      3  C   UNL     1       5.806  44.960  55.533  1.00  0.00     0.158 C 
BRANCH   3   4
ATOM      4  O   UNL     1       4.400  44.850  55.700  1.00  0.00    -0.396 OA
ATOM      5  H   UNL     1       4.146  45.421  56.446  1.00  0.00     0.210 HD
ENDBRANCH   3   4
ENDBRANCH   2   3
ENDBRANCH   1   2
BRANCH   1   6
ATOM      6  N   UNL     1       5.105  46.586  52.542  1.00  0.00    -0.369 N 
ATOM      7  H   UNL     1       4.435  47.155  52.027  1.00  0.00     0.162 HD
BRANCH   6   8
ATOM      8  C   UNL     1       4.889  45.241  52.144  1.00  0.00     0.139 A 
ATOM      9  N   UNL     1       3.867  44.556  52.684  1.00  0.00    -0.195 NA
ATOM     10  C   UNL     1       5.764  44.656  51.214  1.00  0.00     0.043 A 
ATOM     11  C   UNL     1       3.671  43.291  52.295  1.00  0.00     0.229 A 
ATOM     12  C   UNL     1       6.888  45.295  50.629  1.00  0.00     0.014 A 
ATOM     13  C   UNL     1       5.467  43.336  50.870  1.00  0.00     0.078 A 
ATOM     14  N   UNL     1       4.438  42.667  51.396  1.00  0.00    -0.213 NA
ATOM     15  C   UNL     1       7.690  44.629  49.707  1.00  0.00     0.001 A 
ATOM     16  C   UNL     1       6.280  42.691  49.945  1.00  0.00     0.029 A 
ATOM     17  C   UNL     1       7.382  43.320  49.360  1.00  0.00     0.002 A 
BRANCH  11  18
ATOM     18  N   UNL     1       2.589  42.657  52.895  1.00  0.00    -0.322 N 
ATOM     19  H   UNL     1       2.905  41.822  53.371  1.00  0.00     0.170 HD
BRANCH  18  20
ATOM     20  C   UNL     1       1.214  42.912  52.959  1.00  0.00     0.077 A 
ATOM     21  C   UNL     1       0.295  42.523  51.977  1.00  0.00     0.032 A 
ATOM     22  C   UNL     1       0.712  43.608  54.076  1.00  0.00     0.149 A 
ATOM     23  C   UNL     1      -1.067  42.819  52.112  1.00  0.00     0.041 A 
ATOM     24  C   UNL     1      -0.638  43.909  54.223  1.00  0.00     0.080 A 
ATOM     25  C   UNL     1      -1.518  43.508  53.233  1.00  0.00     0.126 A 
ATOM     26  F   UNL     1       1.564  43.999  55.039  1.00  0.00    -0.205 F 
ATOM     27  F   UNL     1      -2.823  43.786  53.355  1.00  0.00    -0.207 F 
ENDBRANCH  18  20
ENDBRANCH  11  18
ENDBRANCH   6   8
ENDBRANCH   1   6
TORSDOF 7
ENDMDL
MODEL 18
REMARK VINA RESULT:    -7.593      2.878      6.385
REMARK INTER + INTRA:         -11.724
REMARK INTER:                 -11.021
REMARK INTRA:                  -0.703
REMARK UNBOUND:                -1.246
REMARK SMILES OCCCNc1nc(Nc2ccc(F)cc2F)nc2ccccc12
REMARK SMILES IDX 4 1 3 2 2 3 1 4 5 6 6 8 7 9 24 10 8 11 23 12 19 13 18 14
REMARK SMILES IDX 22 15 20 16 21 17 9 18 10 20 11 21 16 22 12 23 15 24 13 25
REMARK SMILES IDX 17 26 14 27
REMARK H PARENT 1 5 5 7 9 19
ROOT
ATOM      1  C   UNL     1       7.917  47.303  53.102  1.00  0.00     0.117 C 
ENDROOT
BRANCH   1   2
ATOM      2  C   UNL     1       9.060  46.285  53.099  1.00  0.00     0.049 C 
BRANCH   2   3
ATOM      3  C   UNL     1      10.170  46.600  52.104  1.00  0.00     0.158 C 
BRANCH   3   4
ATOM      4  O   UNL     1      10.720  45.408  51.562  1.00  0.00    -0.396 OA
ATOM      5  H   UNL     1      10.375  44.661  52.082  1.00  0.00     0.210 HD
ENDBRANCH   3   4
ENDBRANCH   2   3
ENDBRANCH   1   2
BRANCH   1   6
ATOM      6  N   UNL     1       7.022  47.068  51.968  1.00  0.00    -0.369 N 
ATOM      7  H   UNL     1       6.375  47.848  51.856  1.00  0.00     0.162 HD
BRANCH   6   8
ATOM      8  C   UNL     1       6.232  45.894  52.069  1.00  0.00     0.139 A 
ATOM      9  N   UNL     1       5.352  45.783  53.079  1.00  0.00    -0.195 NA
ATOM     10  C   UNL     1       6.408  44.870  51.125  1.00  0.00     0.043 A 
ATOM     11  C   UNL     1       4.608  44.674  53.158  1.00  0.00     0.229 A 
ATOM     12  C   UNL     1       7.343  44.889  50.057  1.00  0.00     0.014 A 
ATOM     13  C   UNL     1       5.579  43.759  51.294  1.00  0.00     0.078 A 
ATOM     14  N   UNL     1       4.692  43.664  52.287  1.00  0.00    -0.213 NA
ATOM     15  C   UNL     1       7.433  43.823  49.166  1.00  0.00     0.001 A 
ATOM     16  C   UNL     1       5.685  42.707  50.390  1.00  0.00     0.029 A 
ATOM     17  C   UNL     1       6.597  42.727  49.332  1.00  0.00     0.002 A 
BRANCH  11  18
ATOM     18  N   UNL     1       3.718  44.643  54.225  1.00  0.00    -0.322 N 
ATOM     19  H   UNL     1       4.229  44.690  55.097  1.00  0.00     0.170 HD
BRANCH  18  20
ATOM     20  C   UNL     1       2.326  44.547  54.340  1.00  0.00     0.077 A 
ATOM     21  C   UNL     1       1.519  43.774  53.497  1.00  0.00     0.032 A 
ATOM     22  C   UNL     1       1.684  45.274  55.361  1.00  0.00     0.149 A 
ATOM     23  C   UNL     1       0.131  43.732  53.673  1.00  0.00     0.041 A 
ATOM     24  C   UNL     1       0.307  45.242  55.548  1.00  0.00     0.080 A 
ATOM     25  C   UNL     1      -0.460  44.466  54.696  1.00  0.00     0.126 A 
ATOM     26  F   UNL     1       2.426  46.029  56.189  1.00  0.00    -0.205 F 
ATOM     27  F   UNL     1      -1.789  44.420  54.858  1.00  0.00    -0.207 F 
ENDBRANCH  18  20
ENDBRANCH  11  18
ENDBRANCH   6   8
ENDBRANCH   1   6
TORSDOF 7
ENDMDL
MODEL 19
REMARK VINA RESULT:    -7.584      2.670      3.479
REMARK INTER + INTRA:         -11.712
REMARK INTER:                 -11.116
REMARK INTRA:                  -0.596
REMARK UNBOUND:                -1.246
REMARK SMILES OCCCNc1nc(Nc2ccc(F)cc2F)nc2ccccc12
REMARK SMILES IDX 4 1 3 2 2 3 1 4 5 6 6 8 7 9 24 10 8 11 23 12 19 13 18 14
REMARK SMILES IDX 22 15 20 16 21 17 9 18 10 20 11 21 16 22 12 23 15 24 13 25
REMARK SMILES IDX 17 26 14 27
REMARK H PARENT 1 5 5 7 9 19
ROOT
ATOM      1  C   UNL     1       1.764  46.066  56.199  1.00  0.00     0.117 C 
ENDROOT
BRANCH   1   2
ATOM      2  C   UNL     1       1.120  45.680  57.533  1.00  0.00     0.049 C 
BRANCH   2   3
ATOM      3  C   UNL     1       1.063  46.814  58.548  1.00  0.00     0.158 C 
BRANCH   3   4
ATOM      4  O   UNL     1       2.161  46.749  59.446  1.00  0.00    -0.396 OA
ATOM      5  H   UNL     1       1.875  47.142  60.289  1.00  0.00     0.210 HD
ENDBRANCH   3   4
ENDBRANCH   2   3
ENDBRANCH   1   2
BRANCH   1   6
ATOM      6  N   UNL     1       2.671  45.010  55.747  1.00  0.00    -0.369 N 
ATOM      7  H   UNL     1       3.549  45.047  56.264  1.00  0.00     0.162 HD
BRANCH   6   8
ATOM      8  C   UNL     1       3.007  45.067  54.369  1.00  0.00     0.139 A 
ATOM      9  N   UNL     1       3.963  45.920  53.964  1.00  0.00    -0.195 NA
ATOM     10  C   UNL     1       2.314  44.246  53.464  1.00  0.00     0.043 A 
ATOM     11  C   UNL     1       4.275  45.958  52.663  1.00  0.00     0.229 A 
ATOM     12  C   UNL     1       1.265  43.352  53.803  1.00  0.00     0.014 A 
ATOM     13  C   UNL     1       2.720  44.358  52.132  1.00  0.00     0.078 A 
ATOM     14  N   UNL     1       3.685  45.193  51.740  1.00  0.00    -0.213 NA
ATOM     15  C   UNL     1       0.647  42.573  52.829  1.00  0.00     0.001 A 
ATOM     16  C   UNL     1       2.090  43.568  51.177  1.00  0.00     0.029 A 
ATOM     17  C   UNL     1       1.064  42.680  51.509  1.00  0.00     0.002 A 
BRANCH  11  18
ATOM     18  N   UNL     1       5.278  46.860  52.330  1.00  0.00    -0.322 N 
ATOM     19  H   UNL     1       4.867  47.749  52.077  1.00  0.00     0.170 HD
BRANCH  18  20
ATOM     20  C   UNL     1       6.675  46.791  52.257  1.00  0.00     0.077 A 
ATOM     21  C   UNL     1       7.542  47.442  53.143  1.00  0.00     0.032 A 
ATOM     22  C   UNL     1       7.257  46.025  51.229  1.00  0.00     0.149 A 
ATOM     23  C   UNL     1       8.930  47.327  53.002  1.00  0.00     0.041 A 
ATOM     24  C   UNL     1       8.633  45.901  51.077  1.00  0.00     0.080 A 
ATOM     25  C   UNL     1       9.460  46.559  51.972  1.00  0.00     0.126 A 
ATOM     26  F   UNL     1       6.457  45.386  50.358  1.00  0.00    -0.205 F 
ATOM     27  F   UNL     1      10.790  46.453  51.845  1.00  0.00    -0.207 F 
ENDBRANCH  18  20
ENDBRANCH  11  18
ENDBRANCH   6   8
ENDBRANCH   1   6
TORSDOF 7
ENDMDL
MODEL 20
REMARK VINA RESULT:    -7.567      3.835      6.544
REMARK INTER + INTRA:         -11.688
REMARK INTER:                 -10.531
REMARK INTRA:                  -1.158
REMARK UNBOUND:                -1.246
REMARK SMILES OCCCNc1nc(Nc2ccc(F)cc2F)nc2ccccc12
REMARK SMILES IDX 4 1 3 2 2 3 1 4 5 6 6 8 7 9 24 10 8 11 23 12 19 13 18 14
REMARK SMILES IDX 22 15 20 16 21 17 9 18 10 20 11 21 16 22 12 23 15 24 13 25
REMARK SMILES IDX 17 26 14 27
REMARK H PARENT 1 5 5 7 9 19
ROOT
ATOM      1  C   UNL     1       3.812  46.860  52.941  1.00  0.00     0.117 C 
ENDROOT
BRANCH   1   2
ATOM      2  C   UNL     1       4.242  47.022  54.402  1.00  0.00     0.049 C 
BRANCH   2   3
ATOM      3  C   UNL     1       3.724  45.929  55.327  1.00  0.00     0.158 C 
BRANCH   3   4
ATOM      4  O   UNL     1       4.200  44.653  54.925  1.00  0.00    -0.396 OA
ATOM      5  H   UNL     1       3.566  44.292  54.281  1.00  0.00     0.210 HD
ENDBRANCH   3   4
ENDBRANCH   2   3
ENDBRANCH   1   2
BRANCH   1   6
ATOM      6  N   UNL     1       4.942  46.417  52.123  1.00  0.00    -0.369 N 
ATOM      7  H   UNL     1       5.036  47.004  51.295  1.00  0.00     0.162 HD
BRANCH   6   8
ATOM      8  C   UNL     1       4.853  45.076  51.665  1.00  0.00     0.139 A 
ATOM      9  N   UNL     1       3.795  44.331  52.027  1.00  0.00    -0.195 NA
ATOM     10  C   UNL     1       5.884  44.560  50.864  1.00  0.00     0.043 A 
ATOM     11  C   UNL     1       3.720  43.071  51.582  1.00  0.00     0.229 A 
ATOM     12  C   UNL     1       7.052  45.265  50.473  1.00  0.00     0.014 A 
ATOM     13  C   UNL     1       5.706  43.239  50.448  1.00  0.00     0.078 A 
ATOM     14  N   UNL     1       4.643  42.510  50.795  1.00  0.00    -0.213 NA
ATOM     15  C   UNL     1       8.014  44.663  49.667  1.00  0.00     0.001 A 
ATOM     16  C   UNL     1       6.679  42.659  49.642  1.00  0.00     0.029 A 
ATOM     17  C   UNL     1       7.826  43.354  49.246  1.00  0.00     0.002 A 
BRANCH  11  18
ATOM     18  N   UNL     1       2.593  42.372  51.996  1.00  0.00    -0.322 N 
ATOM     19  H   UNL     1       2.786  41.379  51.990  1.00  0.00     0.170 HD
BRANCH  18  20
ATOM     20  C   UNL     1       1.298  42.739  52.384  1.00  0.00     0.077 A 
ATOM     21  C   UNL     1       0.848  42.751  53.710  1.00  0.00     0.032 A 
ATOM     22  C   UNL     1       0.380  43.119  51.386  1.00  0.00     0.149 A 
ATOM     23  C   UNL     1      -0.464  43.128  54.018  1.00  0.00     0.041 A 
ATOM     24  C   UNL     1      -0.926  43.495  51.678  1.00  0.00     0.080 A 
ATOM     25  C   UNL     1      -1.336  43.495  53.000  1.00  0.00     0.126 A 
ATOM     26  F   UNL     1       0.775  43.119  50.102  1.00  0.00    -0.205 F 
ATOM     27  F   UNL     1      -2.590  43.856  53.304  1.00  0.00    -0.207 F 
ENDBRANCH  18  20
ENDBRANCH  11  18
ENDBRANCH   6   8
ENDBRANCH   1   6
TORSDOF 7
ENDMDL
