MODEL 1
REMARK VINA RESULT:    -8.404      0.000      0.000
REMARK INTER + INTRA:         -13.219
REMARK INTER:                 -12.088
REMARK INTRA:                  -1.131
REMARK UNBOUND:                -1.131
REMARK SMILES CC(C)Oc1ccc(Nc2nc(NC[C@@H](C)O)nc3c2cnn3C)cc1
REMARK SMILES IDX 12 1 11 2 10 3 20 4 21 5 22 6 23 7 24 8 19 9 18 10 13 11
REMARK SMILES IDX 14 13 15 14 16 15 17 16 9 18 8 20 7 21 25 22 6 23 26 24 5 25
REMARK SMILES IDX 4 26 2 27 1 28 3 29
REMARK H PARENT 13 12 17 17 9 19
ROOT
ATOM      1  C   UNL     1       2.575  42.344  51.024  1.00  0.00     0.226 A 
ATOM      2  N   UNL     1       3.225  42.935  52.044  1.00  0.00    -0.195 NA
ATOM      3  C   UNL     1       2.606  43.887  52.787  1.00  0.00     0.147 A 
ATOM      4  C   UNL     1       1.311  44.258  52.420  1.00  0.00     0.082 A 
ATOM      5  C   UNL     1       0.325  45.192  52.803  1.00  0.00     0.149 A 
ATOM      6  N   UNL     1      -0.791  45.100  52.071  1.00  0.00    -0.179 NA
ATOM      7  N   UNL     1      -0.500  44.118  51.187  1.00  0.00    -0.250 N 
ATOM      8  C   UNL     1      -1.473  43.750  50.191  1.00  0.00     0.176 C 
ATOM      9  C   UNL     1       0.747  43.583  51.355  1.00  0.00     0.165 A 
ATOM     10  N   UNL     1       1.323  42.611  50.633  1.00  0.00    -0.193 NA
ENDROOT
BRANCH   1  11
ATOM     11  N   UNL     1       3.322  41.389  50.344  1.00  0.00    -0.352 N 
ATOM     12  H   UNL     1       3.239  41.641  49.362  1.00  0.00     0.163 HD
BRANCH  11  13
ATOM     13  C   UNL     1       4.701  41.223  50.803  1.00  0.00     0.147 C 
BRANCH  13  14
ATOM     14  C   UNL     1       5.694  41.653  49.706  1.00  0.00     0.130 C 
ATOM     15  C   UNL     1       6.083  43.124  49.773  1.00  0.00     0.040 C 
BRANCH  14  16
ATOM     16  O   UNL     1       6.883  40.862  49.808  1.00  0.00    -0.392 OA
ATOM     17  H   UNL     1       7.519  41.298  49.205  1.00  0.00     0.211 HD
ENDBRANCH  14  16
ENDBRANCH  13  14
ENDBRANCH  11  13
ENDBRANCH   1  11
BRANCH   3  18
ATOM     18  N   UNL     1       3.352  44.466  53.823  1.00  0.00    -0.339 N 
ATOM     19  H   UNL     1       2.700  44.841  54.508  1.00  0.00     0.168 HD
BRANCH  18  20
ATOM     20  C   UNL     1       4.528  45.237  53.752  1.00  0.00     0.040 A 
ATOM     21  C   UNL     1       4.882  46.004  52.638  1.00  0.00     0.030 A 
ATOM     22  C   UNL     1       5.380  45.253  54.861  1.00  0.00     0.030 A 
ATOM     23  C   UNL     1       6.069  46.752  52.621  1.00  0.00     0.048 A 
ATOM     24  C   UNL     1       6.563  45.998  54.845  1.00  0.00     0.048 A 
ATOM     25  C   UNL     1       6.920  46.746  53.722  1.00  0.00     0.119 A 
BRANCH  25  26
ATOM     26  O   UNL     1       8.096  47.426  53.846  1.00  0.00    -0.491 OA
BRANCH  26  27
ATOM     27  C   UNL     1       9.327  46.697  53.860  1.00  0.00     0.167 C 
ATOM     28  C   UNL     1      10.234  47.384  54.879  1.00  0.00     0.052 C 
ATOM     29  C   UNL     1       9.970  46.742  52.476  1.00  0.00     0.052 C 
ENDBRANCH  26  27
ENDBRANCH  25  26
ENDBRANCH  18  20
ENDBRANCH   3  18
TORSDOF 8
ENDMDL
MODEL 2
REMARK VINA RESULT:    -8.337      2.803      3.577
REMARK INTER + INTRA:         -13.123
REMARK INTER:                 -11.825
REMARK INTRA:                  -1.298
REMARK UNBOUND:                -1.131
REMARK SMILES CC(C)Oc1ccc(Nc2nc(NC[C@@H](C)O)nc3c2cnn3C)cc1
REMARK SMILES IDX 12 1 11 2 10 3 20 4 21 5 22 6 23 7 24 8 19 9 18 10 13 11
REMARK SMILES IDX 14 13 15 14 16 15 17 16 9 18 8 20 7 21 25 22 6 23 26 24 5 25
REMARK SMILES IDX 4 26 2 27 1 28 3 29
REMARK H PARENT 13 12 17 17 9 19
ROOT
ATOM      1  C   UNL     1       0.937  44.047  54.144  1.00  0.00     0.226 A 
ATOM      2  N   UNL     1       2.115  44.607  54.474  1.00  0.00    -0.195 NA
ATOM      3  C   UNL     1       2.225  45.349  55.605  1.00  0.00     0.147 A 
ATOM      4  C   UNL     1       1.071  45.548  56.367  1.00  0.00     0.082 A 
ATOM      5  C   UNL     1       0.668  46.257  57.518  1.00  0.00     0.149 A 
ATOM      6  N   UNL     1      -0.624  46.076  57.815  1.00  0.00    -0.179 NA
ATOM      7  N   UNL     1      -1.058  45.268  56.820  1.00  0.00    -0.250 N 
ATOM      8  C   UNL     1      -2.443  44.872  56.782  1.00  0.00     0.176 C 
ATOM      9  C   UNL     1      -0.080  44.925  55.927  1.00  0.00     0.165 A 
ATOM     10  N   UNL     1      -0.203  44.154  54.838  1.00  0.00    -0.193 NA
ENDROOT
BRANCH   1  11
ATOM     11  N   UNL     1       0.960  43.315  52.962  1.00  0.00    -0.352 N 
ATOM     12  H   UNL     1      -0.017  43.128  52.749  1.00  0.00     0.163 HD
BRANCH  11  13
ATOM     13  C   UNL     1       1.706  43.922  51.860  1.00  0.00     0.147 C 
BRANCH  13  14
ATOM     14  C   UNL     1       3.026  43.164  51.617  1.00  0.00     0.130 C 
ATOM     15  C   UNL     1       4.245  44.071  51.517  1.00  0.00     0.040 C 
BRANCH  14  16
ATOM     16  O   UNL     1       3.239  42.231  52.682  1.00  0.00    -0.392 OA
ATOM     17  H   UNL     1       2.868  41.389  52.349  1.00  0.00     0.211 HD
ENDBRANCH  14  16
ENDBRANCH  13  14
ENDBRANCH  11  13
ENDBRANCH   1  11
BRANCH   3  18
ATOM     18  N   UNL     1       3.480  45.911  55.875  1.00  0.00    -0.339 N 
ATOM     19  H   UNL     1       3.346  46.686  56.518  1.00  0.00     0.168 HD
BRANCH  18  20
ATOM     20  C   UNL     1       4.559  46.145  55.001  1.00  0.00     0.040 A 
ATOM     21  C   UNL     1       4.653  47.270  54.174  1.00  0.00     0.030 A 
ATOM     22  C   UNL     1       5.602  45.214  54.968  1.00  0.00     0.030 A 
ATOM     23  C   UNL     1       5.751  47.451  53.321  1.00  0.00     0.048 A 
ATOM     24  C   UNL     1       6.697  45.395  54.116  1.00  0.00     0.048 A 
ATOM     25  C   UNL     1       6.775  46.510  53.281  1.00  0.00     0.119 A 
BRANCH  25  26
ATOM     26  O   UNL     1       7.898  46.560  52.508  1.00  0.00    -0.491 OA
BRANCH  26  27
ATOM     27  C   UNL     1       9.175  46.340  53.115  1.00  0.00     0.167 C 
ATOM     28  C   UNL     1       9.491  47.588  53.938  1.00  0.00     0.052 C 
ATOM     29  C   UNL     1      10.235  46.147  52.034  1.00  0.00     0.052 C 
ENDBRANCH  26  27
ENDBRANCH  25  26
ENDBRANCH  18  20
ENDBRANCH   3  18
TORSDOF 8
ENDMDL
MODEL 3
REMARK VINA RESULT:    -8.308      2.696      3.479
REMARK INTER + INTRA:         -13.082
REMARK INTER:                 -11.802
REMARK INTRA:                  -1.280
REMARK UNBOUND:                -1.131
REMARK SMILES CC(C)Oc1ccc(Nc2nc(NC[C@@H](C)O)nc3c2cnn3C)cc1
REMARK SMILES IDX 12 1 11 2 10 3 20 4 21 5 22 6 23 7 24 8 19 9 18 10 13 11
REMARK SMILES IDX 14 13 15 14 16 15 17 16 9 18 8 20 7 21 25 22 6 23 26 24 5 25
REMARK SMILES IDX 4 26 2 27 1 28 3 29
REMARK H PARENT 13 12 17 17 9 19
ROOT
ATOM      1  C   UNL     1       0.994  43.904  53.944  1.00  0.00     0.226 A 
ATOM      2  N   UNL     1       2.104  44.570  54.308  1.00  0.00    -0.195 NA
ATOM      3  C   UNL     1       2.117  45.302  55.451  1.00  0.00     0.147 A 
ATOM      4  C   UNL     1       0.933  45.376  56.189  1.00  0.00     0.082 A 
ATOM      5  C   UNL     1       0.438  46.024  57.340  1.00  0.00     0.149 A 
ATOM      6  N   UNL     1      -0.836  45.713  57.605  1.00  0.00    -0.179 NA
ATOM      7  N   UNL     1      -1.168  44.883  56.589  1.00  0.00    -0.250 N 
ATOM      8  C   UNL     1      -2.506  44.354  56.514  1.00  0.00     0.176 C 
ATOM      9  C   UNL     1      -0.142  44.651  55.715  1.00  0.00     0.165 A 
ATOM     10  N   UNL     1      -0.166  43.889  54.612  1.00  0.00    -0.193 NA
ENDROOT
BRANCH   1  11
ATOM     11  N   UNL     1       1.114  43.197  52.753  1.00  0.00    -0.352 N 
ATOM     12  H   UNL     1       0.158  43.042  52.440  1.00  0.00     0.163 HD
BRANCH  11  13
ATOM     13  C   UNL     1       1.981  43.805  51.743  1.00  0.00     0.147 C 
BRANCH  13  14
ATOM     14  C   UNL     1       3.290  43.004  51.599  1.00  0.00     0.130 C 
ATOM     15  C   UNL     1       4.541  43.871  51.583  1.00  0.00     0.040 C 
BRANCH  14  16
ATOM     16  O   UNL     1       3.395  42.072  52.681  1.00  0.00    -0.392 OA
ATOM     17  H   UNL     1       3.026  42.548  53.452  1.00  0.00     0.211 HD
ENDBRANCH  14  16
ENDBRANCH  13  14
ENDBRANCH  11  13
ENDBRANCH   1  11
BRANCH   3  18
ATOM     18  N   UNL     1       3.305  45.979  55.758  1.00  0.00    -0.339 N 
ATOM     19  H   UNL     1       3.060  46.869  56.183  1.00  0.00     0.168 HD
BRANCH  18  20
ATOM     20  C   UNL     1       4.495  46.073  55.012  1.00  0.00     0.040 A 
ATOM     21  C   UNL     1       5.536  45.142  55.097  1.00  0.00     0.030 A 
ATOM     22  C   UNL     1       4.641  47.144  54.124  1.00  0.00     0.030 A 
ATOM     23  C   UNL     1       6.702  45.287  54.331  1.00  0.00     0.048 A 
ATOM     24  C   UNL     1       5.804  47.290  53.361  1.00  0.00     0.048 A 
ATOM     25  C   UNL     1       6.845  46.367  53.465  1.00  0.00     0.119 A 
BRANCH  25  26
ATOM     26  O   UNL     1       7.916  46.629  52.660  1.00  0.00    -0.491 OA
BRANCH  26  27
ATOM     27  C   UNL     1       9.237  46.392  53.156  1.00  0.00     0.167 C 
ATOM     28  C   UNL     1       9.565  47.545  54.102  1.00  0.00     0.052 C 
ATOM     29  C   UNL     1      10.229  46.371  51.997  1.00  0.00     0.052 C 
ENDBRANCH  26  27
ENDBRANCH  25  26
ENDBRANCH  18  20
ENDBRANCH   3  18
TORSDOF 8
ENDMDL
MODEL 4
REMARK VINA RESULT:    -8.224      3.376      5.502
REMARK INTER + INTRA:         -12.961
REMARK INTER:                 -12.301
REMARK INTRA:                  -0.660
REMARK UNBOUND:                -1.131
REMARK SMILES CC(C)Oc1ccc(Nc2nc(NC[C@@H](C)O)nc3c2cnn3C)cc1
REMARK SMILES IDX 12 1 11 2 10 3 20 4 21 5 22 6 23 7 24 8 19 9 18 10 13 11
REMARK SMILES IDX 14 13 15 14 16 15 17 16 9 18 8 20 7 21 25 22 6 23 26 24 5 25
REMARK SMILES IDX 4 26 2 27 1 28 3 29
REMARK H PARENT 13 12 17 17 9 19
ROOT
ATOM      1  C   UNL     1       1.349  45.301  55.973  1.00  0.00     0.226 A 
ATOM      2  N   UNL     1       2.379  44.922  55.195  1.00  0.00    -0.195 NA
ATOM      3  C   UNL     1       2.156  44.181  54.080  1.00  0.00     0.147 A 
ATOM      4  C   UNL     1       0.842  43.790  53.811  1.00  0.00     0.082 A 
ATOM      5  C   UNL     1       0.139  43.003  52.876  1.00  0.00     0.149 A 
ATOM      6  N   UNL     1      -1.179  42.977  53.104  1.00  0.00    -0.179 NA
ATOM      7  N   UNL     1      -1.314  43.729  54.220  1.00  0.00    -0.250 N 
ATOM      8  C   UNL     1      -2.620  43.909  54.801  1.00  0.00     0.176 C 
ATOM      9  C   UNL     1      -0.131  44.238  54.682  1.00  0.00     0.165 A 
ATOM     10  N   UNL     1       0.060  45.005  55.766  1.00  0.00    -0.193 NA
ENDROOT
BRANCH   1  11
ATOM     11  N   UNL     1       1.715  46.053  57.084  1.00  0.00    -0.352 N 
ATOM     12  H   UNL     1       2.273  46.818  56.712  1.00  0.00     0.163 HD
BRANCH  11  13
ATOM     13  C   UNL     1       0.613  46.482  57.945  1.00  0.00     0.147 C 
BRANCH  13  14
ATOM     14  C   UNL     1       1.130  47.404  59.067  1.00  0.00     0.130 C 
ATOM     15  C   UNL     1       0.066  47.787  60.086  1.00  0.00     0.040 C 
BRANCH  14  16
ATOM     16  O   UNL     1       2.206  46.756  59.754  1.00  0.00    -0.392 OA
ATOM     17  H   UNL     1       1.969  45.807  59.740  1.00  0.00     0.211 HD
ENDBRANCH  14  16
ENDBRANCH  13  14
ENDBRANCH  11  13
ENDBRANCH   1  11
BRANCH   3  18
ATOM     18  N   UNL     1       3.280  43.813  53.328  1.00  0.00    -0.339 N 
ATOM     19  H   UNL     1       3.544  42.869  53.598  1.00  0.00     0.168 HD
BRANCH  18  20
ATOM     20  C   UNL     1       4.404  44.582  52.971  1.00  0.00     0.040 A 
ATOM     21  C   UNL     1       4.560  45.184  51.718  1.00  0.00     0.030 A 
ATOM     22  C   UNL     1       5.412  44.769  53.922  1.00  0.00     0.030 A 
ATOM     23  C   UNL     1       5.704  45.938  51.415  1.00  0.00     0.048 A 
ATOM     24  C   UNL     1       6.552  45.520  53.620  1.00  0.00     0.048 A 
ATOM     25  C   UNL     1       6.710  46.103  52.362  1.00  0.00     0.119 A 
BRANCH  25  26
ATOM     26  O   UNL     1       7.867  46.810  52.207  1.00  0.00    -0.491 OA
BRANCH  26  27
ATOM     27  C   UNL     1       9.056  46.356  52.861  1.00  0.00     0.167 C 
ATOM     28  C   UNL     1       9.521  47.495  53.767  1.00  0.00     0.052 C 
ATOM     29  C   UNL     1      10.130  46.045  51.823  1.00  0.00     0.052 C 
ENDBRANCH  26  27
ENDBRANCH  25  26
ENDBRANCH  18  20
ENDBRANCH   3  18
TORSDOF 8
ENDMDL
MODEL 5
REMARK VINA RESULT:    -8.147      1.870      2.316
REMARK INTER + INTRA:         -12.850
REMARK INTER:                 -11.883
REMARK INTRA:                  -0.967
REMARK UNBOUND:                -1.131
REMARK SMILES CC(C)Oc1ccc(Nc2nc(NC[C@@H](C)O)nc3c2cnn3C)cc1
REMARK SMILES IDX 12 1 11 2 10 3 20 4 21 5 22 6 23 7 24 8 19 9 18 10 13 11
REMARK SMILES IDX 14 13 15 14 16 15 17 16 9 18 8 20 7 21 25 22 6 23 26 24 5 25
REMARK SMILES IDX 4 26 2 27 1 28 3 29
REMARK H PARENT 13 12 17 17 9 19
ROOT
ATOM      1  C   UNL     1       1.392  43.048  52.824  1.00  0.00     0.226 A 
ATOM      2  N   UNL     1       2.289  43.623  53.647  1.00  0.00    -0.195 NA
ATOM      3  C   UNL     1       1.869  44.372  54.697  1.00  0.00     0.147 A 
ATOM      4  C   UNL     1       0.494  44.563  54.852  1.00  0.00     0.082 A 
ATOM      5  C   UNL     1      -0.392  45.273  55.688  1.00  0.00     0.149 A 
ATOM      6  N   UNL     1      -1.677  45.080  55.369  1.00  0.00    -0.179 NA
ATOM      7  N   UNL     1      -1.608  44.263  54.293  1.00  0.00    -0.250 N 
ATOM      8  C   UNL     1      -2.822  43.852  53.635  1.00  0.00     0.176 C 
ATOM      9  C   UNL     1      -0.329  43.925  53.944  1.00  0.00     0.165 A 
ATOM     10  N   UNL     1       0.061  43.147  52.924  1.00  0.00    -0.193 NA
ENDROOT
BRANCH   1  11
ATOM     11  N   UNL     1       1.954  42.311  51.788  1.00  0.00    -0.352 N 
ATOM     12  H   UNL     1       1.547  42.698  50.939  1.00  0.00     0.163 HD
BRANCH  11  13
ATOM     13  C   UNL     1       3.416  42.252  51.776  1.00  0.00     0.147 C 
BRANCH  13  14
ATOM     14  C   UNL     1       3.925  41.679  50.439  1.00  0.00     0.130 C 
ATOM     15  C   UNL     1       5.443  41.646  50.324  1.00  0.00     0.040 C 
BRANCH  14  16
ATOM     16  O   UNL     1       3.427  40.347  50.275  1.00  0.00    -0.392 OA
ATOM     17  H   UNL     1       3.096  40.320  49.355  1.00  0.00     0.211 HD
ENDBRANCH  14  16
ENDBRANCH  13  14
ENDBRANCH  11  13
ENDBRANCH   1  11
BRANCH   3  18
ATOM     18  N   UNL     1       2.861  44.948  55.502  1.00  0.00    -0.339 N 
ATOM     19  H   UNL     1       2.402  45.486  56.232  1.00  0.00     0.168 HD
BRANCH  18  20
ATOM     20  C   UNL     1       4.088  45.528  55.127  1.00  0.00     0.040 A 
ATOM     21  C   UNL     1       5.325  44.898  55.299  1.00  0.00     0.030 A 
ATOM     22  C   UNL     1       4.071  46.795  54.534  1.00  0.00     0.030 A 
ATOM     23  C   UNL     1       6.517  45.525  54.908  1.00  0.00     0.048 A 
ATOM     24  C   UNL     1       5.260  47.420  54.145  1.00  0.00     0.048 A 
ATOM     25  C   UNL     1       6.491  46.793  54.336  1.00  0.00     0.119 A 
BRANCH  25  26
ATOM     26  O   UNL     1       7.567  47.516  53.907  1.00  0.00    -0.491 OA
BRANCH  26  27
ATOM     27  C   UNL     1       8.785  46.835  53.593  1.00  0.00     0.167 C 
ATOM     28  C   UNL     1       9.843  47.358  54.563  1.00  0.00     0.052 C 
ATOM     29  C   UNL     1       9.197  47.145  52.157  1.00  0.00     0.052 C 
ENDBRANCH  26  27
ENDBRANCH  25  26
ENDBRANCH  18  20
ENDBRANCH   3  18
TORSDOF 8
ENDMDL
MODEL 6
REMARK VINA RESULT:    -8.107      3.562      7.508
REMARK INTER + INTRA:         -12.792
REMARK INTER:                 -11.851
REMARK INTRA:                  -0.940
REMARK UNBOUND:                -1.131
REMARK SMILES CC(C)Oc1ccc(Nc2nc(NC[C@@H](C)O)nc3c2cnn3C)cc1
REMARK SMILES IDX 12 1 11 2 10 3 20 4 21 5 22 6 23 7 24 8 19 9 18 10 13 11
REMARK SMILES IDX 14 13 15 14 16 15 17 16 9 18 8 20 7 21 25 22 6 23 26 24 5 25
REMARK SMILES IDX 4 26 2 27 1 28 3 29
REMARK H PARENT 13 12 17 17 9 19
ROOT
ATOM      1  C   UNL     1       8.082  47.201  52.501  1.00  0.00     0.226 A 
ATOM      2  N   UNL     1       6.878  47.563  52.982  1.00  0.00    -0.195 NA
ATOM      3  C   UNL     1       5.756  46.927  52.561  1.00  0.00     0.147 A 
ATOM      4  C   UNL     1       5.896  45.937  51.586  1.00  0.00     0.082 A 
ATOM      5  C   UNL     1       5.080  45.085  50.813  1.00  0.00     0.149 A 
ATOM      6  N   UNL     1       5.783  44.295  49.993  1.00  0.00    -0.179 NA
ATOM      7  N   UNL     1       7.061  44.673  50.221  1.00  0.00    -0.250 N 
ATOM      8  C   UNL     1       8.128  44.051  49.479  1.00  0.00     0.176 C 
ATOM      9  C   UNL     1       7.181  45.654  51.166  1.00  0.00     0.165 A 
ATOM     10  N   UNL     1       8.308  46.240  51.597  1.00  0.00    -0.193 NA
ENDROOT
BRANCH   1  11
ATOM     11  N   UNL     1       9.148  47.934  53.011  1.00  0.00    -0.352 N 
ATOM     12  H   UNL     1       8.721  48.736  53.469  1.00  0.00     0.163 HD
BRANCH  11  13
ATOM     13  C   UNL     1      10.077  47.187  53.859  1.00  0.00     0.147 C 
BRANCH  13  14
ATOM     14  C   UNL     1       9.800  47.471  55.348  1.00  0.00     0.130 C 
ATOM     15  C   UNL     1      11.059  47.568  56.199  1.00  0.00     0.040 C 
BRANCH  14  16
ATOM     16  O   UNL     1       9.073  48.698  55.468  1.00  0.00    -0.392 OA
ATOM     17  H   UNL     1       8.609  48.794  54.612  1.00  0.00     0.211 HD
ENDBRANCH  14  16
ENDBRANCH  13  14
ENDBRANCH  11  13
ENDBRANCH   1  11
BRANCH   3  18
ATOM     18  N   UNL     1       4.539  47.368  53.097  1.00  0.00    -0.339 N 
ATOM     19  H   UNL     1       4.730  48.165  53.699  1.00  0.00     0.168 HD
BRANCH  18  20
ATOM     20  C   UNL     1       3.447  46.615  53.570  1.00  0.00     0.040 A 
ATOM     21  C   UNL     1       2.282  46.393  52.828  1.00  0.00     0.030 A 
ATOM     22  C   UNL     1       3.536  46.041  54.843  1.00  0.00     0.030 A 
ATOM     23  C   UNL     1       1.224  45.636  53.350  1.00  0.00     0.048 A 
ATOM     24  C   UNL     1       2.480  45.287  55.364  1.00  0.00     0.048 A 
ATOM     25  C   UNL     1       1.314  45.085  54.625  1.00  0.00     0.119 A 
BRANCH  25  26
ATOM     26  O   UNL     1       0.369  44.327  55.254  1.00  0.00    -0.491 OA
BRANCH  26  27
ATOM     27  C   UNL     1      -0.901  44.909  55.563  1.00  0.00     0.167 C 
ATOM     28  C   UNL     1      -0.697  45.771  56.808  1.00  0.00     0.052 C 
ATOM     29  C   UNL     1      -1.917  43.808  55.853  1.00  0.00     0.052 C 
ENDBRANCH  26  27
ENDBRANCH  25  26
ENDBRANCH  18  20
ENDBRANCH   3  18
TORSDOF 8
ENDMDL
MODEL 7
REMARK VINA RESULT:    -7.851      2.627      4.768
REMARK INTER + INTRA:         -12.425
REMARK INTER:                 -11.480
REMARK INTRA:                  -0.945
REMARK UNBOUND:                -1.131
REMARK SMILES CC(C)Oc1ccc(Nc2nc(NC[C@@H](C)O)nc3c2cnn3C)cc1
REMARK SMILES IDX 12 1 11 2 10 3 20 4 21 5 22 6 23 7 24 8 19 9 18 10 13 11
REMARK SMILES IDX 14 13 15 14 16 15 17 16 9 18 8 20 7 21 25 22 6 23 26 24 5 25
REMARK SMILES IDX 4 26 2 27 1 28 3 29
REMARK H PARENT 13 12 17 17 9 19
ROOT
ATOM      1  C   UNL     1       0.366  45.010  54.445  1.00  0.00     0.226 A 
ATOM      2  N   UNL     1       1.669  44.680  54.502  1.00  0.00    -0.195 NA
ATOM      3  C   UNL     1       2.264  44.064  53.449  1.00  0.00     0.147 A 
ATOM      4  C   UNL     1       1.468  43.746  52.347  1.00  0.00     0.082 A 
ATOM      5  C   UNL     1       1.586  43.081  51.109  1.00  0.00     0.149 A 
ATOM      6  N   UNL     1       0.444  43.074  50.411  1.00  0.00    -0.179 NA
ATOM      7  N   UNL     1      -0.423  43.712  51.232  1.00  0.00    -0.250 N 
ATOM      8  C   UNL     1      -1.796  43.872  50.827  1.00  0.00     0.176 C 
ATOM      9  C   UNL     1       0.143  44.133  52.404  1.00  0.00     0.165 A 
ATOM     10  N   UNL     1      -0.457  44.778  53.415  1.00  0.00    -0.193 NA
ENDROOT
BRANCH   1  11
ATOM     11  N   UNL     1      -0.119  45.632  55.590  1.00  0.00    -0.352 N 
ATOM     12  H   UNL     1      -1.103  45.377  55.631  1.00  0.00     0.163 HD
BRANCH  11  13
ATOM     13  C   UNL     1       0.622  45.355  56.820  1.00  0.00     0.147 C 
BRANCH  13  14
ATOM     14  C   UNL     1       0.768  46.636  57.665  1.00  0.00     0.130 C 
ATOM     15  C   UNL     1      -0.551  47.169  58.205  1.00  0.00     0.040 C 
BRANCH  14  16
ATOM     16  O   UNL     1       1.641  46.376  58.769  1.00  0.00    -0.392 OA
ATOM     17  H   UNL     1       1.199  45.660  59.269  1.00  0.00     0.211 HD
ENDBRANCH  14  16
ENDBRANCH  13  14
ENDBRANCH  11  13
ENDBRANCH   1  11
BRANCH   3  18
ATOM     18  N   UNL     1       3.621  43.740  53.588  1.00  0.00    -0.339 N 
ATOM     19  H   UNL     1       3.731  43.209  54.448  1.00  0.00     0.168 HD
BRANCH  18  20
ATOM     20  C   UNL     1       4.758  44.525  53.317  1.00  0.00     0.040 A 
ATOM     21  C   UNL     1       5.219  44.795  52.024  1.00  0.00     0.030 A 
ATOM     22  C   UNL     1       5.456  45.080  54.394  1.00  0.00     0.030 A 
ATOM     23  C   UNL     1       6.360  45.582  51.812  1.00  0.00     0.048 A 
ATOM     24  C   UNL     1       6.594  45.864  54.183  1.00  0.00     0.048 A 
ATOM     25  C   UNL     1       7.058  46.114  52.892  1.00  0.00     0.119 A 
BRANCH  25  26
ATOM     26  O   UNL     1       8.175  46.897  52.833  1.00  0.00    -0.491 OA
BRANCH  26  27
ATOM     27  C   UNL     1       9.442  46.333  53.184  1.00  0.00     0.167 C 
ATOM     28  C   UNL     1      10.047  47.243  54.252  1.00  0.00     0.052 C 
ATOM     29  C   UNL     1      10.349  46.296  51.958  1.00  0.00     0.052 C 
ENDBRANCH  26  27
ENDBRANCH  25  26
ENDBRANCH  18  20
ENDBRANCH   3  18
TORSDOF 8
ENDMDL
MODEL 8
REMARK VINA RESULT:    -7.815      3.301      4.759
REMARK INTER + INTRA:         -12.372
REMARK INTER:                 -11.303
REMARK INTRA:                  -1.069
REMARK UNBOUND:                -1.131
REMARK SMILES CC(C)Oc1ccc(Nc2nc(NC[C@@H](C)O)nc3c2cnn3C)cc1
REMARK SMILES IDX 12 1 11 2 10 3 20 4 21 5 22 6 23 7 24 8 19 9 18 10 13 11
REMARK SMILES IDX 14 13 15 14 16 15 17 16 9 18 8 20 7 21 25 22 6 23 26 24 5 25
REMARK SMILES IDX 4 26 2 27 1 28 3 29
REMARK H PARENT 13 12 17 17 9 19
ROOT
ATOM      1  C   UNL     1       0.230  44.160  54.085  1.00  0.00     0.226 A 
ATOM      2  N   UNL     1       1.538  44.255  54.382  1.00  0.00    -0.195 NA
ATOM      3  C   UNL     1       1.935  44.853  55.534  1.00  0.00     0.147 A 
ATOM      4  C   UNL     1       0.948  45.402  56.355  1.00  0.00     0.082 A 
ATOM      5  C   UNL     1       0.853  46.147  57.549  1.00  0.00     0.149 A 
ATOM      6  N   UNL     1      -0.412  46.413  57.897  1.00  0.00    -0.179 NA
ATOM      7  N   UNL     1      -1.131  45.861  56.893  1.00  0.00    -0.250 N 
ATOM      8  C   UNL     1      -2.567  45.976  56.903  1.00  0.00     0.176 C 
ATOM      9  C   UNL     1      -0.362  45.245  55.945  1.00  0.00     0.165 A 
ATOM     10  N   UNL     1      -0.779  44.623  54.833  1.00  0.00    -0.193 NA
ENDROOT
BRANCH   1  11
ATOM     11  N   UNL     1      -0.040  43.528  52.876  1.00  0.00    -0.352 N 
ATOM     12  H   UNL     1       0.249  42.563  53.013  1.00  0.00     0.163 HD
BRANCH  11  13
ATOM     13  C   UNL     1      -1.407  43.678  52.377  1.00  0.00     0.147 C 
BRANCH  13  14
ATOM     14  C   UNL     1      -1.500  44.866  51.400  1.00  0.00     0.130 C 
ATOM     15  C   UNL     1      -2.689  44.790  50.452  1.00  0.00     0.040 C 
BRANCH  14  16
ATOM     16  O   UNL     1      -1.590  46.085  52.144  1.00  0.00    -0.392 OA
ATOM     17  H   UNL     1      -2.256  46.618  51.665  1.00  0.00     0.211 HD
ENDBRANCH  14  16
ENDBRANCH  13  14
ENDBRANCH  11  13
ENDBRANCH   1  11
BRANCH   3  18
ATOM     18  N   UNL     1       3.315  44.926  55.768  1.00  0.00    -0.339 N 
ATOM     19  H   UNL     1       3.457  45.128  56.755  1.00  0.00     0.168 HD
BRANCH  18  20
ATOM     20  C   UNL     1       4.325  45.499  54.973  1.00  0.00     0.040 A 
ATOM     21  C   UNL     1       4.257  46.797  54.455  1.00  0.00     0.030 A 
ATOM     22  C   UNL     1       5.467  44.739  54.698  1.00  0.00     0.030 A 
ATOM     23  C   UNL     1       5.293  47.317  53.666  1.00  0.00     0.048 A 
ATOM     24  C   UNL     1       6.500  45.257  53.911  1.00  0.00     0.048 A 
ATOM     25  C   UNL     1       6.417  46.546  53.383  1.00  0.00     0.119 A 
BRANCH  25  26
ATOM     26  O   UNL     1       7.497  46.923  52.638  1.00  0.00    -0.491 OA
BRANCH  26  27
ATOM     27  C   UNL     1       8.813  46.657  53.131  1.00  0.00     0.167 C 
ATOM     28  C   UNL     1       9.143  47.768  54.127  1.00  0.00     0.052 C 
ATOM     29  C   UNL     1       9.812  46.678  51.978  1.00  0.00     0.052 C 
ENDBRANCH  26  27
ENDBRANCH  25  26
ENDBRANCH  18  20
ENDBRANCH   3  18
TORSDOF 8
ENDMDL
MODEL 9
REMARK VINA RESULT:    -7.799      3.824      8.154
REMARK INTER + INTRA:         -12.349
REMARK INTER:                 -11.397
REMARK INTRA:                  -0.953
REMARK UNBOUND:                -1.131
REMARK SMILES CC(C)Oc1ccc(Nc2nc(NC[C@@H](C)O)nc3c2cnn3C)cc1
REMARK SMILES IDX 12 1 11 2 10 3 20 4 21 5 22 6 23 7 24 8 19 9 18 10 13 11
REMARK SMILES IDX 14 13 15 14 16 15 17 16 9 18 8 20 7 21 25 22 6 23 26 24 5 25
REMARK SMILES IDX 4 26 2 27 1 28 3 29
REMARK H PARENT 13 12 17 17 9 19
ROOT
ATOM      1  C   UNL     1       6.915  44.776  50.641  1.00  0.00     0.226 A 
ATOM      2  N   UNL     1       6.956  43.738  49.786  1.00  0.00    -0.195 NA
ATOM      3  C   UNL     1       6.005  42.771  49.839  1.00  0.00     0.147 A 
ATOM      4  C   UNL     1       5.032  42.870  50.837  1.00  0.00     0.082 A 
ATOM      5  C   UNL     1       3.937  42.130  51.330  1.00  0.00     0.149 A 
ATOM      6  N   UNL     1       3.324  42.730  52.357  1.00  0.00    -0.179 NA
ATOM      7  N   UNL     1       4.059  43.850  52.543  1.00  0.00    -0.250 N 
ATOM      8  C   UNL     1       3.714  44.756  53.609  1.00  0.00     0.176 C 
ATOM      9  C   UNL     1       5.094  43.979  51.658  1.00  0.00     0.165 A 
ATOM     10  N   UNL     1       5.999  44.967  51.598  1.00  0.00    -0.193 NA
ENDROOT
BRANCH   1  11
ATOM     11  N   UNL     1       7.948  45.692  50.481  1.00  0.00    -0.352 N 
ATOM     12  H   UNL     1       7.764  46.145  49.589  1.00  0.00     0.163 HD
BRANCH  11  13
ATOM     13  C   UNL     1       8.144  46.622  51.593  1.00  0.00     0.147 C 
BRANCH  13  14
ATOM     14  C   UNL     1       9.644  46.780  51.910  1.00  0.00     0.130 C 
ATOM     15  C   UNL     1       9.952  46.867  53.399  1.00  0.00     0.040 C 
BRANCH  14  16
ATOM     16  O   UNL     1      10.363  45.670  51.362  1.00  0.00    -0.392 OA
ATOM     17  H   UNL     1      10.563  45.937  50.442  1.00  0.00     0.211 HD
ENDBRANCH  14  16
ENDBRANCH  13  14
ENDBRANCH  11  13
ENDBRANCH   1  11
BRANCH   3  18
ATOM     18  N   UNL     1       6.121  41.716  48.925  1.00  0.00    -0.339 N 
ATOM     19  H   UNL     1       7.111  41.530  48.783  1.00  0.00     0.168 HD
BRANCH  18  20
ATOM     20  C   UNL     1       5.376  41.460  47.758  1.00  0.00     0.040 A 
ATOM     21  C   UNL     1       5.738  41.932  46.492  1.00  0.00     0.030 A 
ATOM     22  C   UNL     1       4.221  40.678  47.864  1.00  0.00     0.030 A 
ATOM     23  C   UNL     1       4.955  41.648  45.363  1.00  0.00     0.048 A 
ATOM     24  C   UNL     1       3.441  40.396  46.739  1.00  0.00     0.048 A 
ATOM     25  C   UNL     1       3.798  40.885  45.482  1.00  0.00     0.119 A 
BRANCH  25  26
ATOM     26  O   UNL     1       2.949  40.529  44.474  1.00  0.00    -0.491 OA
BRANCH  26  27
ATOM     27  C   UNL     1       1.570  40.901  44.558  1.00  0.00     0.167 C 
ATOM     28  C   UNL     1       0.912  40.444  43.257  1.00  0.00     0.052 C 
ATOM     29  C   UNL     1       1.451  42.416  44.698  1.00  0.00     0.052 C 
ENDBRANCH  26  27
ENDBRANCH  25  26
ENDBRANCH  18  20
ENDBRANCH   3  18
TORSDOF 8
ENDMDL
MODEL 10
REMARK VINA RESULT:    -7.765      3.536      5.757
REMARK INTER + INTRA:         -12.300
REMARK INTER:                 -11.304
REMARK INTRA:                  -0.996
REMARK UNBOUND:                -1.131
REMARK SMILES CC(C)Oc1ccc(Nc2nc(NC[C@@H](C)O)nc3c2cnn3C)cc1
REMARK SMILES IDX 12 1 11 2 10 3 20 4 21 5 22 6 23 7 24 8 19 9 18 10 13 11
REMARK SMILES IDX 14 13 15 14 16 15 17 16 9 18 8 20 7 21 25 22 6 23 26 24 5 25
REMARK SMILES IDX 4 26 2 27 1 28 3 29
REMARK H PARENT 13 12 17 17 9 19
ROOT
ATOM      1  C   UNL     1      -0.324  45.137  55.871  1.00  0.00     0.226 A 
ATOM      2  N   UNL     1       0.982  45.281  56.159  1.00  0.00    -0.195 NA
ATOM      3  C   UNL     1       1.926  44.785  55.319  1.00  0.00     0.147 A 
ATOM      4  C   UNL     1       1.489  44.085  54.192  1.00  0.00     0.082 A 
ATOM      5  C   UNL     1       2.038  43.358  53.115  1.00  0.00     0.149 A 
ATOM      6  N   UNL     1       1.106  42.877  52.283  1.00  0.00    -0.179 NA
ATOM      7  N   UNL     1      -0.053  43.274  52.857  1.00  0.00    -0.250 N 
ATOM      8  C   UNL     1      -1.307  42.906  52.249  1.00  0.00     0.176 C 
ATOM      9  C   UNL     1       0.124  43.999  54.003  1.00  0.00     0.165 A 
ATOM     10  N   UNL     1      -0.826  44.516  54.796  1.00  0.00    -0.193 NA
ENDROOT
BRANCH   1  11
ATOM     11  N   UNL     1      -1.184  45.687  56.815  1.00  0.00    -0.352 N 
ATOM     12  H   UNL     1      -1.471  44.904  57.398  1.00  0.00     0.163 HD
BRANCH  11  13
ATOM     13  C   UNL     1      -0.653  46.826  57.563  1.00  0.00     0.147 C 
BRANCH  13  14
ATOM     14  C   UNL     1      -1.776  47.830  57.891  1.00  0.00     0.130 C 
ATOM     15  C   UNL     1      -1.436  48.781  59.031  1.00  0.00     0.040 C 
BRANCH  14  16
ATOM     16  O   UNL     1      -2.072  48.606  56.724  1.00  0.00    -0.392 OA
ATOM     17  H   UNL     1      -2.329  47.946  56.049  1.00  0.00     0.211 HD
ENDBRANCH  14  16
ENDBRANCH  13  14
ENDBRANCH  11  13
ENDBRANCH   1  11
BRANCH   3  18
ATOM     18  N   UNL     1       3.264  44.963  55.693  1.00  0.00    -0.339 N 
ATOM     19  H   UNL     1       3.285  45.224  56.675  1.00  0.00     0.168 HD
BRANCH  18  20
ATOM     20  C   UNL     1       4.318  45.563  54.977  1.00  0.00     0.040 A 
ATOM     21  C   UNL     1       4.296  46.891  54.539  1.00  0.00     0.030 A 
ATOM     22  C   UNL     1       5.456  44.798  54.703  1.00  0.00     0.030 A 
ATOM     23  C   UNL     1       5.374  47.437  53.827  1.00  0.00     0.048 A 
ATOM     24  C   UNL     1       6.531  45.341  53.993  1.00  0.00     0.048 A 
ATOM     25  C   UNL     1       6.495  46.661  53.544  1.00  0.00     0.119 A 
BRANCH  25  26
ATOM     26  O   UNL     1       7.612  47.061  52.869  1.00  0.00    -0.491 OA
BRANCH  26  27
ATOM     27  C   UNL     1       8.897  46.630  53.328  1.00  0.00     0.167 C 
ATOM     28  C   UNL     1       9.342  47.632  54.392  1.00  0.00     0.052 C 
ATOM     29  C   UNL     1       9.887  46.628  52.167  1.00  0.00     0.052 C 
ENDBRANCH  26  27
ENDBRANCH  25  26
ENDBRANCH  18  20
ENDBRANCH   3  18
TORSDOF 8
ENDMDL
MODEL 11
REMARK VINA RESULT:    -7.715      3.418      7.960
REMARK INTER + INTRA:         -12.229
REMARK INTER:                 -11.305
REMARK INTRA:                  -0.924
REMARK UNBOUND:                -1.131
REMARK SMILES CC(C)Oc1ccc(Nc2nc(NC[C@@H](C)O)nc3c2cnn3C)cc1
REMARK SMILES IDX 12 1 11 2 10 3 20 4 21 5 22 6 23 7 24 8 19 9 18 10 13 11
REMARK SMILES IDX 14 13 15 14 16 15 17 16 9 18 8 20 7 21 25 22 6 23 26 24 5 25
REMARK SMILES IDX 4 26 2 27 1 28 3 29
REMARK H PARENT 13 12 17 17 9 19
ROOT
ATOM      1  C   UNL     1       6.048  46.918  54.288  1.00  0.00     0.226 A 
ATOM      2  N   UNL     1       5.841  46.494  53.028  1.00  0.00    -0.195 NA
ATOM      3  C   UNL     1       6.895  46.245  52.209  1.00  0.00     0.147 A 
ATOM      4  C   UNL     1       8.177  46.496  52.705  1.00  0.00     0.082 A 
ATOM      5  C   UNL     1       9.513  46.469  52.255  1.00  0.00     0.149 A 
ATOM      6  N   UNL     1      10.389  46.821  53.204  1.00  0.00    -0.179 NA
ATOM      7  N   UNL     1       9.597  47.109  54.263  1.00  0.00    -0.250 N 
ATOM      8  C   UNL     1      10.194  47.568  55.491  1.00  0.00     0.176 C 
ATOM      9  C   UNL     1       8.264  46.931  54.013  1.00  0.00     0.165 A 
ATOM     10  N   UNL     1       7.240  47.144  54.853  1.00  0.00    -0.193 NA
ENDROOT
BRANCH   1  11
ATOM     11  N   UNL     1       4.885  47.138  55.017  1.00  0.00    -0.352 N 
ATOM     12  H   UNL     1       4.940  48.109  55.315  1.00  0.00     0.163 HD
BRANCH  11  13
ATOM     13  C   UNL     1       3.638  46.792  54.336  1.00  0.00     0.147 C 
BRANCH  13  14
ATOM     14  C   UNL     1       3.044  45.494  54.917  1.00  0.00     0.130 C 
ATOM     15  C   UNL     1       2.589  44.499  53.859  1.00  0.00     0.040 C 
BRANCH  14  16
ATOM     16  O   UNL     1       4.021  44.858  55.749  1.00  0.00    -0.392 OA
ATOM     17  H   UNL     1       4.031  45.393  56.568  1.00  0.00     0.211 HD
ENDBRANCH  14  16
ENDBRANCH  13  14
ENDBRANCH  11  13
ENDBRANCH   1  11
BRANCH   3  18
ATOM     18  N   UNL     1       6.600  45.820  50.907  1.00  0.00    -0.339 N 
ATOM     19  H   UNL     1       6.045  46.544  50.458  1.00  0.00     0.168 HD
BRANCH  18  20
ATOM     20  C   UNL     1       6.247  44.537  50.447  1.00  0.00     0.040 A 
ATOM     21  C   UNL     1       7.004  43.813  49.520  1.00  0.00     0.030 A 
ATOM     22  C   UNL     1       5.085  43.945  50.954  1.00  0.00     0.030 A 
ATOM     23  C   UNL     1       6.603  42.539  49.094  1.00  0.00     0.048 A 
ATOM     24  C   UNL     1       4.685  42.674  50.529  1.00  0.00     0.048 A 
ATOM     25  C   UNL     1       5.436  41.966  49.591  1.00  0.00     0.119 A 
BRANCH  25  26
ATOM     26  O   UNL     1       4.931  40.739  49.271  1.00  0.00    -0.491 OA
BRANCH  26  27
ATOM     27  C   UNL     1       3.844  40.651  48.344  1.00  0.00     0.167 C 
ATOM     28  C   UNL     1       3.250  39.252  48.496  1.00  0.00     0.052 C 
ATOM     29  C   UNL     1       4.361  40.846  46.922  1.00  0.00     0.052 C 
ENDBRANCH  26  27
ENDBRANCH  25  26
ENDBRANCH  18  20
ENDBRANCH   3  18
TORSDOF 8
ENDMDL
MODEL 12
REMARK VINA RESULT:    -7.667      2.301      4.432
REMARK INTER + INTRA:         -12.160
REMARK INTER:                 -10.945
REMARK INTRA:                  -1.215
REMARK UNBOUND:                -1.131
REMARK SMILES CC(C)Oc1ccc(Nc2nc(NC[C@@H](C)O)nc3c2cnn3C)cc1
REMARK SMILES IDX 12 1 11 2 10 3 20 4 21 5 22 6 23 7 24 8 19 9 18 10 13 11
REMARK SMILES IDX 14 13 15 14 16 15 17 16 9 18 8 20 7 21 25 22 6 23 26 24 5 25
REMARK SMILES IDX 4 26 2 27 1 28 3 29
REMARK H PARENT 13 12 17 17 9 19
ROOT
ATOM      1  C   UNL     1       0.828  43.442  51.027  1.00  0.00     0.226 A 
ATOM      2  N   UNL     1       1.303  43.977  52.166  1.00  0.00    -0.195 NA
ATOM      3  C   UNL     1       2.548  43.660  52.603  1.00  0.00     0.147 A 
ATOM      4  C   UNL     1       3.279  42.729  51.862  1.00  0.00     0.082 A 
ATOM      5  C   UNL     1       4.515  42.053  51.930  1.00  0.00     0.149 A 
ATOM      6  N   UNL     1       4.717  41.232  50.893  1.00  0.00    -0.179 NA
ATOM      7  N   UNL     1       3.579  41.361  50.171  1.00  0.00    -0.250 N 
ATOM      8  C   UNL     1       3.411  40.587  48.968  1.00  0.00     0.176 C 
ATOM      9  C   UNL     1       2.687  42.246  50.711  1.00  0.00     0.165 A 
ATOM     10  N   UNL     1       1.476  42.576  50.239  1.00  0.00    -0.193 NA
ENDROOT
BRANCH   1  11
ATOM     11  N   UNL     1      -0.460  43.847  50.695  1.00  0.00    -0.352 N 
ATOM     12  H   UNL     1      -0.682  43.345  49.839  1.00  0.00     0.163 HD
BRANCH  11  13
ATOM     13  C   UNL     1      -1.460  43.696  51.752  1.00  0.00     0.147 C 
BRANCH  13  14
ATOM     14  C   UNL     1      -2.111  45.054  52.080  1.00  0.00     0.130 C 
ATOM     15  C   UNL     1      -3.033  45.015  53.292  1.00  0.00     0.040 C 
BRANCH  14  16
ATOM     16  O   UNL     1      -1.086  46.024  52.319  1.00  0.00    -0.392 OA
ATOM     17  H   UNL     1      -0.893  45.948  53.275  1.00  0.00     0.211 HD
ENDBRANCH  14  16
ENDBRANCH  13  14
ENDBRANCH  11  13
ENDBRANCH   1  11
BRANCH   3  18
ATOM     18  N   UNL     1       2.967  44.248  53.804  1.00  0.00    -0.339 N 
ATOM     19  H   UNL     1       2.140  44.534  54.320  1.00  0.00     0.168 HD
BRANCH  18  20
ATOM     20  C   UNL     1       4.050  45.116  54.042  1.00  0.00     0.040 A 
ATOM     21  C   UNL     1       3.950  46.510  53.981  1.00  0.00     0.030 A 
ATOM     22  C   UNL     1       5.289  44.558  54.374  1.00  0.00     0.030 A 
ATOM     23  C   UNL     1       5.063  47.327  54.226  1.00  0.00     0.048 A 
ATOM     24  C   UNL     1       6.400  45.373  54.617  1.00  0.00     0.048 A 
ATOM     25  C   UNL     1       6.297  46.762  54.537  1.00  0.00     0.119 A 
BRANCH  25  26
ATOM     26  O   UNL     1       7.456  47.431  54.802  1.00  0.00    -0.491 OA
BRANCH  26  27
ATOM     27  C   UNL     1       8.656  47.047  54.123  1.00  0.00     0.167 C 
ATOM     28  C   UNL     1       9.821  47.535  54.981  1.00  0.00     0.052 C 
ATOM     29  C   UNL     1       8.707  47.707  52.749  1.00  0.00     0.052 C 
ENDBRANCH  26  27
ENDBRANCH  25  26
ENDBRANCH  18  20
ENDBRANCH   3  18
TORSDOF 8
ENDMDL
MODEL 13
REMARK VINA RESULT:    -7.663      3.452      6.805
REMARK INTER + INTRA:         -12.154
REMARK INTER:                 -11.175
REMARK INTRA:                  -0.980
REMARK UNBOUND:                -1.131
REMARK SMILES CC(C)Oc1ccc(Nc2nc(NC[C@@H](C)O)nc3c2cnn3C)cc1
REMARK SMILES IDX 12 1 11 2 10 3 20 4 21 5 22 6 23 7 24 8 19 9 18 10 13 11
REMARK SMILES IDX 14 13 15 14 16 15 17 16 9 18 8 20 7 21 25 22 6 23 26 24 5 25
REMARK SMILES IDX 4 26 2 27 1 28 3 29
REMARK H PARENT 13 12 17 17 9 19
ROOT
ATOM      1  C   UNL     1       6.581  44.902  50.528  1.00  0.00     0.226 A 
ATOM      2  N   UNL     1       5.573  45.521  51.168  1.00  0.00    -0.195 NA
ATOM      3  C   UNL     1       5.837  46.508  52.062  1.00  0.00     0.147 A 
ATOM      4  C   UNL     1       7.175  46.808  52.324  1.00  0.00     0.082 A 
ATOM      5  C   UNL     1       7.929  47.648  53.170  1.00  0.00     0.149 A 
ATOM      6  N   UNL     1       9.249  47.521  52.987  1.00  0.00    -0.179 NA
ATOM      7  N   UNL     1       9.338  46.563  52.036  1.00  0.00    -0.250 N 
ATOM      8  C   UNL     1      10.636  46.124  51.590  1.00  0.00     0.176 C 
ATOM      9  C   UNL     1       8.123  46.104  51.607  1.00  0.00     0.165 A 
ATOM     10  N   UNL     1       7.886  45.155  50.690  1.00  0.00    -0.193 NA
ENDROOT
BRANCH   1  11
ATOM     11  N   UNL     1       6.175  43.910  49.642  1.00  0.00    -0.352 N 
ATOM     12  H   UNL     1       6.054  44.386  48.751  1.00  0.00     0.163 HD
BRANCH  11  13
ATOM     13  C   UNL     1       7.038  42.731  49.576  1.00  0.00     0.147 C 
BRANCH  13  14
ATOM     14  C   UNL     1       6.195  41.441  49.582  1.00  0.00     0.130 C 
ATOM     15  C   UNL     1       4.929  41.538  50.422  1.00  0.00     0.040 C 
BRANCH  14  16
ATOM     16  O   UNL     1       5.825  41.112  48.239  1.00  0.00    -0.392 OA
ATOM     17  H   UNL     1       5.332  40.270  48.319  1.00  0.00     0.211 HD
ENDBRANCH  14  16
ENDBRANCH  13  14
ENDBRANCH  11  13
ENDBRANCH   1  11
BRANCH   3  18
ATOM     18  N   UNL     1       4.736  47.097  52.699  1.00  0.00    -0.339 N 
ATOM     19  H   UNL     1       5.063  47.921  53.196  1.00  0.00     0.168 HD
BRANCH  18  20
ATOM     20  C   UNL     1       3.659  46.484  53.368  1.00  0.00     0.040 A 
ATOM     21  C   UNL     1       2.404  46.278  52.785  1.00  0.00     0.030 A 
ATOM     22  C   UNL     1       3.857  46.040  54.680  1.00  0.00     0.030 A 
ATOM     23  C   UNL     1       1.366  45.664  53.500  1.00  0.00     0.048 A 
ATOM     24  C   UNL     1       2.822  45.427  55.393  1.00  0.00     0.048 A 
ATOM     25  C   UNL     1       1.567  45.242  54.811  1.00  0.00     0.119 A 
BRANCH  25  26
ATOM     26  O   UNL     1       0.654  44.629  55.619  1.00  0.00    -0.491 OA
BRANCH  26  27
ATOM     27  C   UNL     1      -0.592  45.280  55.885  1.00  0.00     0.167 C 
ATOM     28  C   UNL     1      -0.367  46.181  57.097  1.00  0.00     0.052 C 
ATOM     29  C   UNL     1      -1.663  44.239  56.200  1.00  0.00     0.052 C 
ENDBRANCH  26  27
ENDBRANCH  25  26
ENDBRANCH  18  20
ENDBRANCH   3  18
TORSDOF 8
ENDMDL
MODEL 14
REMARK VINA RESULT:    -7.585      3.892      8.285
REMARK INTER + INTRA:         -12.041
REMARK INTER:                 -11.061
REMARK INTRA:                  -0.981
REMARK UNBOUND:                -1.131
REMARK SMILES CC(C)Oc1ccc(Nc2nc(NC[C@@H](C)O)nc3c2cnn3C)cc1
REMARK SMILES IDX 12 1 11 2 10 3 20 4 21 5 22 6 23 7 24 8 19 9 18 10 13 11
REMARK SMILES IDX 14 13 15 14 16 15 17 16 9 18 8 20 7 21 25 22 6 23 26 24 5 25
REMARK SMILES IDX 4 26 2 27 1 28 3 29
REMARK H PARENT 13 12 17 17 9 19
ROOT
ATOM      1  C   UNL     1       6.910  44.823  50.646  1.00  0.00     0.226 A 
ATOM      2  N   UNL     1       6.958  43.775  49.804  1.00  0.00    -0.195 NA
ATOM      3  C   UNL     1       6.011  42.805  49.867  1.00  0.00     0.147 A 
ATOM      4  C   UNL     1       5.036  42.911  50.861  1.00  0.00     0.082 A 
ATOM      5  C   UNL     1       3.943  42.172  51.360  1.00  0.00     0.149 A 
ATOM      6  N   UNL     1       3.324  42.781  52.378  1.00  0.00    -0.179 NA
ATOM      7  N   UNL     1       4.053  43.908  52.553  1.00  0.00    -0.250 N 
ATOM      8  C   UNL     1       3.701  44.824  53.607  1.00  0.00     0.176 C 
ATOM      9  C   UNL     1       5.090  44.030  51.669  1.00  0.00     0.165 A 
ATOM     10  N   UNL     1       5.990  45.022  51.599  1.00  0.00    -0.193 NA
ENDROOT
BRANCH   1  11
ATOM     11  N   UNL     1       7.939  45.743  50.478  1.00  0.00    -0.352 N 
ATOM     12  H   UNL     1       7.740  46.201  49.592  1.00  0.00     0.163 HD
BRANCH  11  13
ATOM     13  C   UNL     1       8.149  46.665  51.593  1.00  0.00     0.147 C 
BRANCH  13  14
ATOM     14  C   UNL     1       9.651  46.792  51.916  1.00  0.00     0.130 C 
ATOM     15  C   UNL     1       9.958  46.822  53.407  1.00  0.00     0.040 C 
BRANCH  14  16
ATOM     16  O   UNL     1      10.356  45.694  51.328  1.00  0.00    -0.392 OA
ATOM     17  H   UNL     1      10.136  44.928  51.896  1.00  0.00     0.211 HD
ENDBRANCH  14  16
ENDBRANCH  13  14
ENDBRANCH  11  13
ENDBRANCH   1  11
BRANCH   3  18
ATOM     18  N   UNL     1       6.136  41.739  48.966  1.00  0.00    -0.339 N 
ATOM     19  H   UNL     1       7.127  41.569  48.814  1.00  0.00     0.168 HD
BRANCH  18  20
ATOM     20  C   UNL     1       5.380  41.452  47.814  1.00  0.00     0.040 A 
ATOM     21  C   UNL     1       5.728  41.894  46.533  1.00  0.00     0.030 A 
ATOM     22  C   UNL     1       4.228  40.670  47.950  1.00  0.00     0.030 A 
ATOM     23  C   UNL     1       4.935  41.580  45.419  1.00  0.00     0.048 A 
ATOM     24  C   UNL     1       3.438  40.358  46.840  1.00  0.00     0.048 A 
ATOM     25  C   UNL     1       3.781  40.817  45.568  1.00  0.00     0.119 A 
BRANCH  25  26
ATOM     26  O   UNL     1       2.924  40.434  44.578  1.00  0.00    -0.491 OA
BRANCH  26  27
ATOM     27  C   UNL     1       3.027  39.113  44.036  1.00  0.00     0.167 C 
ATOM     28  C   UNL     1       3.754  39.243  42.699  1.00  0.00     0.052 C 
ATOM     29  C   UNL     1       1.633  38.533  43.817  1.00  0.00     0.052 C 
ENDBRANCH  26  27
ENDBRANCH  25  26
ENDBRANCH  18  20
ENDBRANCH   3  18
TORSDOF 8
ENDMDL
MODEL 15
REMARK VINA RESULT:    -7.503      2.437      4.070
REMARK INTER + INTRA:         -11.924
REMARK INTER:                 -10.969
REMARK INTRA:                  -0.956
REMARK UNBOUND:                -1.131
REMARK SMILES CC(C)Oc1ccc(Nc2nc(NC[C@@H](C)O)nc3c2cnn3C)cc1
REMARK SMILES IDX 12 1 11 2 10 3 20 4 21 5 22 6 23 7 24 8 19 9 18 10 13 11
REMARK SMILES IDX 14 13 15 14 16 15 17 16 9 18 8 20 7 21 25 22 6 23 26 24 5 25
REMARK SMILES IDX 4 26 2 27 1 28 3 29
REMARK H PARENT 13 12 17 17 9 19
ROOT
ATOM      1  C   UNL     1       0.182  43.836  51.687  1.00  0.00     0.226 A 
ATOM      2  N   UNL     1       1.497  43.552  51.689  1.00  0.00    -0.195 NA
ATOM      3  C   UNL     1       2.228  43.712  52.821  1.00  0.00     0.147 A 
ATOM      4  C   UNL     1       1.581  44.225  53.947  1.00  0.00     0.082 A 
ATOM      5  C   UNL     1       1.894  44.620  55.264  1.00  0.00     0.149 A 
ATOM      6  N   UNL     1       0.827  45.059  55.943  1.00  0.00    -0.179 NA
ATOM      7  N   UNL     1      -0.172  44.974  55.036  1.00  0.00    -0.250 N 
ATOM      8  C   UNL     1      -1.500  45.400  55.401  1.00  0.00     0.176 C 
ATOM      9  C   UNL     1       0.229  44.481  53.824  1.00  0.00     0.165 A 
ATOM     10  N   UNL     1      -0.522  44.293  52.730  1.00  0.00    -0.193 NA
ENDROOT
BRANCH   1  11
ATOM     11  N   UNL     1      -0.448  43.632  50.465  1.00  0.00    -0.352 N 
ATOM     12  H   UNL     1       0.220  43.101  49.910  1.00  0.00     0.163 HD
BRANCH  11  13
ATOM     13  C   UNL     1      -1.779  43.031  50.533  1.00  0.00     0.147 C 
BRANCH  13  14
ATOM     14  C   UNL     1      -2.539  43.244  49.210  1.00  0.00     0.130 C 
ATOM     15  C   UNL     1      -3.022  44.673  49.002  1.00  0.00     0.040 C 
BRANCH  14  16
ATOM     16  O   UNL     1      -1.690  42.887  48.114  1.00  0.00    -0.392 OA
ATOM     17  H   UNL     1      -2.291  42.836  47.344  1.00  0.00     0.211 HD
ENDBRANCH  14  16
ENDBRANCH  13  14
ENDBRANCH  11  13
ENDBRANCH   1  11
BRANCH   3  18
ATOM     18  N   UNL     1       3.594  43.408  52.741  1.00  0.00    -0.339 N 
ATOM     19  H   UNL     1       3.801  42.702  53.443  1.00  0.00     0.168 HD
BRANCH  18  20
ATOM     20  C   UNL     1       4.689  44.269  52.536  1.00  0.00     0.040 A 
ATOM     21  C   UNL     1       5.121  44.681  51.271  1.00  0.00     0.030 A 
ATOM     22  C   UNL     1       5.373  44.755  53.656  1.00  0.00     0.030 A 
ATOM     23  C   UNL     1       6.220  45.540  51.125  1.00  0.00     0.048 A 
ATOM     24  C   UNL     1       6.469  45.610  53.510  1.00  0.00     0.048 A 
ATOM     25  C   UNL     1       6.905  46.003  52.244  1.00  0.00     0.119 A 
BRANCH  25  26
ATOM     26  O   UNL     1       7.982  46.841  52.251  1.00  0.00    -0.491 OA
BRANCH  26  27
ATOM     27  C   UNL     1       9.193  46.419  52.886  1.00  0.00     0.167 C 
ATOM     28  C   UNL     1       9.605  47.541  53.837  1.00  0.00     0.052 C 
ATOM     29  C   UNL     1      10.278  46.200  51.836  1.00  0.00     0.052 C 
ENDBRANCH  26  27
ENDBRANCH  25  26
ENDBRANCH  18  20
ENDBRANCH   3  18
TORSDOF 8
ENDMDL
MODEL 16
REMARK VINA RESULT:    -7.378      3.266      6.680
REMARK INTER + INTRA:         -11.743
REMARK INTER:                 -10.695
REMARK INTRA:                  -1.048
REMARK UNBOUND:                -1.131
REMARK SMILES CC(C)Oc1ccc(Nc2nc(NC[C@@H](C)O)nc3c2cnn3C)cc1
REMARK SMILES IDX 12 1 11 2 10 3 20 4 21 5 22 6 23 7 24 8 19 9 18 10 13 11
REMARK SMILES IDX 14 13 15 14 16 15 17 16 9 18 8 20 7 21 25 22 6 23 26 24 5 25
REMARK SMILES IDX 4 26 2 27 1 28 3 29
REMARK H PARENT 13 12 17 17 9 19
ROOT
ATOM      1  C   UNL     1       6.892  45.660  50.990  1.00  0.00     0.226 A 
ATOM      2  N   UNL     1       5.838  46.270  51.563  1.00  0.00    -0.195 NA
ATOM      3  C   UNL     1       4.684  45.586  51.770  1.00  0.00     0.147 A 
ATOM      4  C   UNL     1       4.621  44.265  51.321  1.00  0.00     0.082 A 
ATOM      5  C   UNL     1       3.682  43.216  51.238  1.00  0.00     0.149 A 
ATOM      6  N   UNL     1       4.189  42.106  50.690  1.00  0.00    -0.179 NA
ATOM      7  N   UNL     1       5.459  42.464  50.389  1.00  0.00    -0.250 N 
ATOM      8  C   UNL     1       6.328  41.515  49.739  1.00  0.00     0.176 C 
ATOM      9  C   UNL     1       5.765  43.748  50.746  1.00  0.00     0.165 A 
ATOM     10  N   UNL     1       6.929  44.390  50.569  1.00  0.00    -0.193 NA
ENDROOT
BRANCH   1  11
ATOM     11  N   UNL     1       8.010  46.472  50.834  1.00  0.00    -0.352 N 
ATOM     12  H   UNL     1       7.863  46.954  49.951  1.00  0.00     0.163 HD
BRANCH  11  13
ATOM     13  C   UNL     1       8.306  47.360  51.958  1.00  0.00     0.147 C 
BRANCH  13  14
ATOM     14  C   UNL     1       9.762  47.175  52.426  1.00  0.00     0.130 C 
ATOM     15  C   UNL     1       9.895  46.857  53.909  1.00  0.00     0.040 C 
BRANCH  14  16
ATOM     16  O   UNL     1      10.369  46.117  51.677  1.00  0.00    -0.392 OA
ATOM     17  H   UNL     1       9.934  45.304  52.004  1.00  0.00     0.211 HD
ENDBRANCH  14  16
ENDBRANCH  13  14
ENDBRANCH  11  13
ENDBRANCH   1  11
BRANCH   3  18
ATOM     18  N   UNL     1       3.626  46.293  52.359  1.00  0.00    -0.339 N 
ATOM     19  H   UNL     1       3.857  47.283  52.335  1.00  0.00     0.168 HD
BRANCH  18  20
ATOM     20  C   UNL     1       2.861  45.968  53.495  1.00  0.00     0.040 A 
ATOM     21  C   UNL     1       3.370  45.976  54.798  1.00  0.00     0.030 A 
ATOM     22  C   UNL     1       1.513  45.637  53.317  1.00  0.00     0.030 A 
ATOM     23  C   UNL     1       2.561  45.641  55.893  1.00  0.00     0.048 A 
ATOM     24  C   UNL     1       0.707  45.302  54.409  1.00  0.00     0.048 A 
ATOM     25  C   UNL     1       1.227  45.295  55.703  1.00  0.00     0.119 A 
BRANCH  25  26
ATOM     26  O   UNL     1       0.328  44.954  56.672  1.00  0.00    -0.491 OA
BRANCH  26  27
ATOM     27  C   UNL     1      -1.050  45.301  56.500  1.00  0.00     0.167 C 
ATOM     28  C   UNL     1      -1.273  46.604  57.265  1.00  0.00     0.052 C 
ATOM     29  C   UNL     1      -1.936  44.200  57.076  1.00  0.00     0.052 C 
ENDBRANCH  26  27
ENDBRANCH  25  26
ENDBRANCH  18  20
ENDBRANCH   3  18
TORSDOF 8
ENDMDL
MODEL 17
REMARK VINA RESULT:    -7.338      3.841      8.108
REMARK INTER + INTRA:         -11.686
REMARK INTER:                 -10.686
REMARK INTRA:                  -1.000
REMARK UNBOUND:                -1.131
REMARK SMILES CC(C)Oc1ccc(Nc2nc(NC[C@@H](C)O)nc3c2cnn3C)cc1
REMARK SMILES IDX 12 1 11 2 10 3 20 4 21 5 22 6 23 7 24 8 19 9 18 10 13 11
REMARK SMILES IDX 14 13 15 14 16 15 17 16 9 18 8 20 7 21 25 22 6 23 26 24 5 25
REMARK SMILES IDX 4 26 2 27 1 28 3 29
REMARK H PARENT 13 12 17 17 9 19
ROOT
ATOM      1  C   UNL     1       3.357  42.760  52.379  1.00  0.00     0.226 A 
ATOM      2  N   UNL     1       3.844  41.912  51.454  1.00  0.00    -0.195 NA
ATOM      3  C   UNL     1       4.904  42.273  50.688  1.00  0.00     0.147 A 
ATOM      4  C   UNL     1       5.423  43.558  50.860  1.00  0.00     0.082 A 
ATOM      5  C   UNL     1       6.413  44.388  50.293  1.00  0.00     0.149 A 
ATOM      6  N   UNL     1       6.486  45.587  50.882  1.00  0.00    -0.179 NA
ATOM      7  N   UNL     1       5.506  45.534  51.813  1.00  0.00    -0.250 N 
ATOM      8  C   UNL     1       5.253  46.683  52.643  1.00  0.00     0.176 C 
ATOM      9  C   UNL     1       4.840  44.339  51.838  1.00  0.00     0.165 A 
ATOM     10  N   UNL     1       3.820  43.990  52.634  1.00  0.00    -0.193 NA
ENDROOT
BRANCH   1  11
ATOM     11  N   UNL     1       2.270  42.268  53.092  1.00  0.00    -0.352 N 
ATOM     12  H   UNL     1       2.675  41.780  53.887  1.00  0.00     0.163 HD
BRANCH  11  13
ATOM     13  C   UNL     1       1.254  43.257  53.454  1.00  0.00     0.147 C 
BRANCH  13  14
ATOM     14  C   UNL     1      -0.157  42.645  53.357  1.00  0.00     0.130 C 
ATOM     15  C   UNL     1      -0.808  42.815  51.992  1.00  0.00     0.040 C 
BRANCH  14  16
ATOM     16  O   UNL     1      -0.087  41.247  53.658  1.00  0.00    -0.392 OA
ATOM     17  H   UNL     1       0.790  41.128  54.074  1.00  0.00     0.211 HD
ENDBRANCH  14  16
ENDBRANCH  13  14
ENDBRANCH  11  13
ENDBRANCH   1  11
BRANCH   3  18
ATOM     18  N   UNL     1       5.346  41.342  49.738  1.00  0.00    -0.339 N 
ATOM     19  H   UNL     1       6.341  41.193  49.882  1.00  0.00     0.168 HD
BRANCH  18  20
ATOM     20  C   UNL     1       4.997  41.220  48.379  1.00  0.00     0.040 A 
ATOM     21  C   UNL     1       5.739  41.787  47.338  1.00  0.00     0.030 A 
ATOM     22  C   UNL     1       3.858  40.478  48.049  1.00  0.00     0.030 A 
ATOM     23  C   UNL     1       5.343  41.636  46.001  1.00  0.00     0.048 A 
ATOM     24  C   UNL     1       3.463  40.327  46.716  1.00  0.00     0.048 A 
ATOM     25  C   UNL     1       4.198  40.911  45.684  1.00  0.00     0.119 A 
BRANCH  25  26
ATOM     26  O   UNL     1       3.701  40.680  44.434  1.00  0.00    -0.491 OA
BRANCH  26  27
ATOM     27  C   UNL     1       3.984  39.434  43.789  1.00  0.00     0.167 C 
ATOM     28  C   UNL     1       5.051  39.719  42.734  1.00  0.00     0.052 C 
ATOM     29  C   UNL     1       2.721  38.899  43.121  1.00  0.00     0.052 C 
ENDBRANCH  26  27
ENDBRANCH  25  26
ENDBRANCH  18  20
ENDBRANCH   3  18
TORSDOF 8
ENDMDL
MODEL 18
REMARK VINA RESULT:    -7.323      2.042      3.989
REMARK INTER + INTRA:         -11.665
REMARK INTER:                 -11.242
REMARK INTRA:                  -0.422
REMARK UNBOUND:                -1.131
REMARK SMILES CC(C)Oc1ccc(Nc2nc(NC[C@@H](C)O)nc3c2cnn3C)cc1
REMARK SMILES IDX 12 1 11 2 10 3 20 4 21 5 22 6 23 7 24 8 19 9 18 10 13 11
REMARK SMILES IDX 14 13 15 14 16 15 17 16 9 18 8 20 7 21 25 22 6 23 26 24 5 25
REMARK SMILES IDX 4 26 2 27 1 28 3 29
REMARK H PARENT 13 12 17 17 9 19
ROOT
ATOM      1  C   UNL     1       1.844  44.492  54.559  1.00  0.00     0.226 A 
ATOM      2  N   UNL     1       2.641  44.235  53.505  1.00  0.00    -0.195 NA
ATOM      3  C   UNL     1       2.102  43.842  52.323  1.00  0.00     0.147 A 
ATOM      4  C   UNL     1       0.718  43.665  52.265  1.00  0.00     0.082 A 
ATOM      5  C   UNL     1      -0.259  43.226  51.348  1.00  0.00     0.149 A 
ATOM      6  N   UNL     1      -1.499  43.267  51.849  1.00  0.00    -0.179 NA
ATOM      7  N   UNL     1      -1.306  43.706  53.114  1.00  0.00    -0.250 N 
ATOM      8  C   UNL     1      -2.437  43.850  53.995  1.00  0.00     0.176 C 
ATOM      9  C   UNL     1       0.005  43.957  53.412  1.00  0.00     0.165 A 
ATOM     10  N   UNL     1       0.510  44.387  54.577  1.00  0.00    -0.193 NA
ENDROOT
BRANCH   1  11
ATOM     11  N   UNL     1       2.522  44.883  55.708  1.00  0.00    -0.352 N 
ATOM     12  H   UNL     1       2.934  44.028  56.075  1.00  0.00     0.163 HD
BRANCH  11  13
ATOM     13  C   UNL     1       3.476  45.979  55.536  1.00  0.00     0.147 C 
BRANCH  13  14
ATOM     14  C   UNL     1       4.832  45.444  55.036  1.00  0.00     0.130 C 
ATOM     15  C   UNL     1       5.849  46.536  54.735  1.00  0.00     0.040 C 
BRANCH  14  16
ATOM     16  O   UNL     1       5.385  44.565  56.021  1.00  0.00    -0.392 OA
ATOM     17  H   UNL     1       6.238  44.977  56.266  1.00  0.00     0.211 HD
ENDBRANCH  14  16
ENDBRANCH  13  14
ENDBRANCH  11  13
ENDBRANCH   1  11
BRANCH   3  18
ATOM     18  N   UNL     1       2.996  43.580  51.276  1.00  0.00    -0.339 N 
ATOM     19  H   UNL     1       2.941  42.589  51.055  1.00  0.00     0.168 HD
BRANCH  18  20
ATOM     20  C   UNL     1       4.292  44.086  51.062  1.00  0.00     0.040 A 
ATOM     21  C   UNL     1       5.360  43.305  50.607  1.00  0.00     0.030 A 
ATOM     22  C   UNL     1       4.524  45.444  51.301  1.00  0.00     0.030 A 
ATOM     23  C   UNL     1       6.633  43.862  50.414  1.00  0.00     0.048 A 
ATOM     24  C   UNL     1       5.793  45.999  51.109  1.00  0.00     0.048 A 
ATOM     25  C   UNL     1       6.858  45.211  50.671  1.00  0.00     0.119 A 
BRANCH  25  26
ATOM     26  O   UNL     1       8.037  45.883  50.523  1.00  0.00    -0.491 OA
BRANCH  26  27
ATOM     27  C   UNL     1       8.740  46.326  51.688  1.00  0.00     0.167 C 
ATOM     28  C   UNL     1       8.621  47.848  51.721  1.00  0.00     0.052 C 
ATOM     29  C   UNL     1      10.207  45.919  51.593  1.00  0.00     0.052 C 
ENDBRANCH  26  27
ENDBRANCH  25  26
ENDBRANCH  18  20
ENDBRANCH   3  18
TORSDOF 8
ENDMDL
MODEL 19
REMARK VINA RESULT:    -7.290      2.763      7.839
REMARK INTER + INTRA:         -11.617
REMARK INTER:                 -10.682
REMARK INTRA:                  -0.935
REMARK UNBOUND:                -1.131
REMARK SMILES CC(C)Oc1ccc(Nc2nc(NC[C@@H](C)O)nc3c2cnn3C)cc1
REMARK SMILES IDX 12 1 11 2 10 3 20 4 21 5 22 6 23 7 24 8 19 9 18 10 13 11
REMARK SMILES IDX 14 13 15 14 16 15 17 16 9 18 8 20 7 21 25 22 6 23 26 24 5 25
REMARK SMILES IDX 4 26 2 27 1 28 3 29
REMARK H PARENT 13 12 17 17 9 19
ROOT
ATOM      1  C   UNL     1       5.932  45.780  52.085  1.00  0.00     0.226 A 
ATOM      2  N   UNL     1       4.929  45.094  52.663  1.00  0.00    -0.195 NA
ATOM      3  C   UNL     1       4.626  43.841  52.239  1.00  0.00     0.147 A 
ATOM      4  C   UNL     1       5.350  43.326  51.162  1.00  0.00     0.082 A 
ATOM      5  C   UNL     1       5.370  42.172  50.350  1.00  0.00     0.149 A 
ATOM      6  N   UNL     1       6.330  42.208  49.419  1.00  0.00    -0.179 NA
ATOM      7  N   UNL     1       6.907  43.416  49.617  1.00  0.00    -0.250 N 
ATOM      8  C   UNL     1       7.986  43.835  48.760  1.00  0.00     0.176 C 
ATOM      9  C   UNL     1       6.354  44.123  50.649  1.00  0.00     0.165 A 
ATOM     10  N   UNL     1       6.699  45.346  51.077  1.00  0.00    -0.193 NA
ENDROOT
BRANCH   1  11
ATOM     11  N   UNL     1       6.135  47.051  52.610  1.00  0.00    -0.352 N 
ATOM     12  H   UNL     1       5.740  47.015  53.547  1.00  0.00     0.163 HD
BRANCH  11  13
ATOM     13  C   UNL     1       7.513  47.540  52.562  1.00  0.00     0.147 C 
BRANCH  13  14
ATOM     14  C   UNL     1       8.331  46.973  53.739  1.00  0.00     0.130 C 
ATOM     15  C   UNL     1       9.836  47.143  53.579  1.00  0.00     0.040 C 
BRANCH  14  16
ATOM     16  O   UNL     1       7.926  47.619  54.951  1.00  0.00    -0.392 OA
ATOM     17  H   UNL     1       8.121  48.566  54.801  1.00  0.00     0.211 HD
ENDBRANCH  14  16
ENDBRANCH  13  14
ENDBRANCH  11  13
ENDBRANCH   1  11
BRANCH   3  18
ATOM     18  N   UNL     1       3.560  43.195  52.881  1.00  0.00    -0.339 N 
ATOM     19  H   UNL     1       3.866  42.260  53.135  1.00  0.00     0.168 HD
BRANCH  18  20
ATOM     20  C   UNL     1       2.186  43.225  52.577  1.00  0.00     0.040 A 
ATOM     21  C   UNL     1       1.202  42.660  53.395  1.00  0.00     0.030 A 
ATOM     22  C   UNL     1       1.778  43.867  51.403  1.00  0.00     0.030 A 
ATOM     23  C   UNL     1      -0.154  42.717  53.041  1.00  0.00     0.048 A 
ATOM     24  C   UNL     1       0.426  43.923  51.049  1.00  0.00     0.048 A 
ATOM     25  C   UNL     1      -0.548  43.342  51.861  1.00  0.00     0.119 A 
BRANCH  25  26
ATOM     26  O   UNL     1      -1.825  43.475  51.397  1.00  0.00    -0.491 OA
BRANCH  26  27
ATOM     27  C   UNL     1      -2.244  42.697  50.272  1.00  0.00     0.167 C 
ATOM     28  C   UNL     1      -2.885  43.668  49.281  1.00  0.00     0.052 C 
ATOM     29  C   UNL     1      -3.265  41.654  50.715  1.00  0.00     0.052 C 
ENDBRANCH  26  27
ENDBRANCH  25  26
ENDBRANCH  18  20
ENDBRANCH   3  18
TORSDOF 8
ENDMDL
