MODEL 1
REMARK VINA RESULT:    -7.962      0.000      0.000
REMARK INTER + INTRA:         -12.590
REMARK INTER:                 -11.453
REMARK INTRA:                  -1.138
REMARK UNBOUND:                -1.138
REMARK SMILES COCCCNc1nc(Nc2ccc(O)cc2)c2cnn(C)c2n1
REMARK SMILES IDX 6 1 5 3 4 4 3 5 2 6 1 7 7 8 8 9 24 10 9 11 23 12 18 13 21 14
REMARK SMILES IDX 19 15 20 16 22 17 10 18 11 20 12 21 17 22 13 23 16 24 14 25
REMARK SMILES IDX 15 26
REMARK H PARENT 6 2 10 19 15 27
ROOT
ATOM      1  N   UNL     1       4.747  47.040  55.048  1.00  0.00    -0.354 N 
ATOM      2  H   UNL     1       4.121  47.559  54.441  1.00  0.00     0.163 HD
ENDROOT
BRANCH   1   3
ATOM      3  C   UNL     1       4.208  45.781  55.543  1.00  0.00     0.118 C 
BRANCH   3   4
ATOM      4  C   UNL     1       2.696  45.724  55.327  1.00  0.00     0.050 C 
BRANCH   4   5
ATOM      5  C   UNL     1       2.345  45.463  53.868  1.00  0.00     0.161 C 
BRANCH   5   6
ATOM      6  O   UNL     1       2.315  46.697  53.155  1.00  0.00    -0.385 OA
ATOM      7  C   UNL     1       2.650  46.520  51.784  1.00  0.00     0.194 C 
ENDBRANCH   5   6
ENDBRANCH   4   5
ENDBRANCH   3   4
ENDBRANCH   1   3
BRANCH   1   8
ATOM      8  C   UNL     1       5.942  46.952  54.342  1.00  0.00     0.226 A 
ATOM      9  N   UNL     1       5.806  46.523  53.075  1.00  0.00    -0.195 NA
ATOM     10  N   UNL     1       7.098  47.277  54.935  1.00  0.00    -0.193 NA
ATOM     11  C   UNL     1       6.885  46.391  52.258  1.00  0.00     0.147 A 
ATOM     12  C   UNL     1       8.154  47.142  54.121  1.00  0.00     0.165 A 
ATOM     13  C   UNL     1       8.131  46.714  52.809  1.00  0.00     0.082 A 
ATOM     14  N   UNL     1       9.465  47.397  54.415  1.00  0.00    -0.250 N 
ATOM     15  C   UNL     1       9.485  46.744  52.410  1.00  0.00     0.149 A 
ATOM     16  N   UNL     1      10.307  47.154  53.383  1.00  0.00    -0.179 NA
ATOM     17  C   UNL     1       9.996  47.877  55.666  1.00  0.00     0.176 C 
BRANCH  11  18
ATOM     18  N   UNL     1       6.767  45.930  50.938  1.00  0.00    -0.339 N 
ATOM     19  H   UNL     1       6.780  46.665  50.247  1.00  0.00     0.168 HD
BRANCH  18  20
ATOM     20  C   UNL     1       6.560  44.647  50.400  1.00  0.00     0.040 A 
ATOM     21  C   UNL     1       5.511  43.802  50.776  1.00  0.00     0.030 A 
ATOM     22  C   UNL     1       7.485  44.161  49.460  1.00  0.00     0.030 A 
ATOM     23  C   UNL     1       5.372  42.523  50.223  1.00  0.00     0.048 A 
ATOM     24  C   UNL     1       7.355  42.884  48.904  1.00  0.00     0.048 A 
ATOM     25  C   UNL     1       6.298  42.075  49.290  1.00  0.00     0.115 A 
BRANCH  25  26
ATOM     26  O   UNL     1       6.203  40.837  48.728  1.00  0.00    -0.508 OA
ATOM     27  H   UNL     1       6.103  40.184  49.440  1.00  0.00     0.293 HD
ENDBRANCH  25  26
ENDBRANCH  18  20
ENDBRANCH  11  18
ENDBRANCH   1   8
TORSDOF 8
ENDMDL
MODEL 2
REMARK VINA RESULT:    -7.862      1.071      1.598
REMARK INTER + INTRA:         -12.446
REMARK INTER:                 -11.624
REMARK INTRA:                  -0.822
REMARK UNBOUND:                -1.138
REMARK SMILES COCCCNc1nc(Nc2ccc(O)cc2)c2cnn(C)c2n1
REMARK SMILES IDX 6 1 5 3 4 4 3 5 2 6 1 7 7 8 8 9 24 10 9 11 23 12 18 13 21 14
REMARK SMILES IDX 19 15 20 16 22 17 10 18 11 20 12 21 17 22 13 23 16 24 14 25
REMARK SMILES IDX 15 26
REMARK H PARENT 6 2 10 19 15 27
ROOT
ATOM      1  N   UNL     1       4.540  46.434  55.333  1.00  0.00    -0.354 N 
ATOM      2  H   UNL     1       4.056  47.288  55.076  1.00  0.00     0.163 HD
ENDROOT
BRANCH   1   3
ATOM      3  C   UNL     1       3.711  45.236  55.307  1.00  0.00     0.118 C 
BRANCH   3   4
ATOM      4  C   UNL     1       2.237  45.608  55.145  1.00  0.00     0.050 C 
BRANCH   4   5
ATOM      5  C   UNL     1       1.832  45.678  53.679  1.00  0.00     0.161 C 
BRANCH   5   6
ATOM      6  O   UNL     1       2.361  46.865  53.093  1.00  0.00    -0.385 OA
ATOM      7  C   UNL     1       2.742  46.658  51.738  1.00  0.00     0.194 C 
ENDBRANCH   5   6
ENDBRANCH   4   5
ENDBRANCH   3   4
ENDBRANCH   1   3
BRANCH   1   8
ATOM      8  C   UNL     1       5.673  46.405  54.529  1.00  0.00     0.226 A 
ATOM      9  N   UNL     1       5.520  45.721  53.381  1.00  0.00    -0.195 NA
ATOM     10  N   UNL     1       6.794  47.021  54.925  1.00  0.00    -0.193 NA
ATOM     11  C   UNL     1       6.539  45.610  52.488  1.00  0.00     0.147 A 
ATOM     12  C   UNL     1       7.792  46.903  54.038  1.00  0.00     0.165 A 
ATOM     13  C   UNL     1       7.746  46.231  52.834  1.00  0.00     0.082 A 
ATOM     14  N   UNL     1       9.055  47.419  54.138  1.00  0.00    -0.250 N 
ATOM     15  C   UNL     1       9.039  46.401  52.292  1.00  0.00     0.149 A 
ATOM     16  N   UNL     1       9.846  47.119  53.080  1.00  0.00    -0.179 NA
ATOM     17  C   UNL     1       9.585  48.211  55.218  1.00  0.00     0.176 C 
BRANCH  11  18
ATOM     18  N   UNL     1       6.405  44.888  51.292  1.00  0.00    -0.339 N 
ATOM     19  H   UNL     1       6.840  45.333  50.497  1.00  0.00     0.168 HD
BRANCH  18  20
ATOM     20  C   UNL     1       5.720  43.702  50.976  1.00  0.00     0.040 A 
ATOM     21  C   UNL     1       6.171  42.765  50.040  1.00  0.00     0.030 A 
ATOM     22  C   UNL     1       4.485  43.457  51.601  1.00  0.00     0.030 A 
ATOM     23  C   UNL     1       5.430  41.613  49.747  1.00  0.00     0.048 A 
ATOM     24  C   UNL     1       3.739  42.311  51.313  1.00  0.00     0.048 A 
ATOM     25  C   UNL     1       4.218  41.396  50.388  1.00  0.00     0.115 A 
BRANCH  25  26
ATOM     26  O   UNL     1       3.463  40.290  50.133  1.00  0.00    -0.508 OA
ATOM     27  H   UNL     1       3.324  39.816  50.969  1.00  0.00     0.293 HD
ENDBRANCH  25  26
ENDBRANCH  18  20
ENDBRANCH  11  18
ENDBRANCH   1   8
TORSDOF 8
ENDMDL
MODEL 3
REMARK VINA RESULT:    -7.524      2.709      5.685
REMARK INTER + INTRA:         -11.960
REMARK INTER:                 -10.814
REMARK INTRA:                  -1.147
REMARK UNBOUND:                -1.138
REMARK SMILES COCCCNc1nc(Nc2ccc(O)cc2)c2cnn(C)c2n1
REMARK SMILES IDX 6 1 5 3 4 4 3 5 2 6 1 7 7 8 8 9 24 10 9 11 23 12 18 13 21 14
REMARK SMILES IDX 19 15 20 16 22 17 10 18 11 20 12 21 17 22 13 23 16 24 14 25
REMARK SMILES IDX 15 26
REMARK H PARENT 6 2 10 19 15 27
ROOT
ATOM      1  N   UNL     1       2.271  45.375  52.334  1.00  0.00    -0.354 N 
ATOM      2  H   UNL     1       1.760  45.801  51.568  1.00  0.00     0.163 HD
ENDROOT
BRANCH   1   3
ATOM      3  C   UNL     1       1.477  44.491  53.176  1.00  0.00     0.118 C 
BRANCH   3   4
ATOM      4  C   UNL     1       1.080  45.198  54.472  1.00  0.00     0.050 C 
BRANCH   4   5
ATOM      5  C   UNL     1       2.179  45.105  55.523  1.00  0.00     0.161 C 
BRANCH   5   6
ATOM      6  O   UNL     1       3.272  45.939  55.147  1.00  0.00    -0.385 OA
ATOM      7  C   UNL     1       4.522  45.296  55.365  1.00  0.00     0.194 C 
ENDBRANCH   5   6
ENDBRANCH   4   5
ENDBRANCH   3   4
ENDBRANCH   1   3
BRANCH   1   8
ATOM      8  C   UNL     1       3.393  44.804  51.744  1.00  0.00     0.226 A 
ATOM      9  N   UNL     1       4.477  45.599  51.730  1.00  0.00    -0.195 NA
ATOM     10  N   UNL     1       3.331  43.562  51.245  1.00  0.00    -0.193 NA
ATOM     11  C   UNL     1       5.652  45.177  51.192  1.00  0.00     0.147 A 
ATOM     12  C   UNL     1       4.494  43.158  50.716  1.00  0.00     0.165 A 
ATOM     13  C   UNL     1       5.665  43.886  50.649  1.00  0.00     0.082 A 
ATOM     14  N   UNL     1       4.765  41.949  50.135  1.00  0.00    -0.250 N 
ATOM     15  C   UNL     1       6.576  43.022  50.004  1.00  0.00     0.149 A 
ATOM     16  N   UNL     1       6.036  41.841  49.682  1.00  0.00    -0.179 NA
ATOM     17  C   UNL     1       3.857  40.842  49.974  1.00  0.00     0.176 C 
BRANCH  11  18
ATOM     18  N   UNL     1       6.790  45.998  51.153  1.00  0.00    -0.339 N 
ATOM     19  H   UNL     1       7.018  46.334  50.228  1.00  0.00     0.168 HD
BRANCH  18  20
ATOM     20  C   UNL     1       7.714  46.380  52.141  1.00  0.00     0.040 A 
ATOM     21  C   UNL     1       9.101  46.360  51.963  1.00  0.00     0.030 A 
ATOM     22  C   UNL     1       7.222  46.766  53.401  1.00  0.00     0.030 A 
ATOM     23  C   UNL     1       9.973  46.727  52.996  1.00  0.00     0.048 A 
ATOM     24  C   UNL     1       8.086  47.133  54.437  1.00  0.00     0.048 A 
ATOM     25  C   UNL     1       9.456  47.111  54.226  1.00  0.00     0.115 A 
BRANCH  25  26
ATOM     26  O   UNL     1      10.267  47.476  55.259  1.00  0.00    -0.508 OA
ATOM     27  H   UNL     1      10.736  48.289  55.008  1.00  0.00     0.293 HD
ENDBRANCH  25  26
ENDBRANCH  18  20
ENDBRANCH  11  18
ENDBRANCH   1   8
TORSDOF 8
ENDMDL
MODEL 4
REMARK VINA RESULT:    -7.466      2.965      6.715
REMARK INTER + INTRA:         -11.877
REMARK INTER:                 -11.146
REMARK INTRA:                  -0.731
REMARK UNBOUND:                -1.138
REMARK SMILES COCCCNc1nc(Nc2ccc(O)cc2)c2cnn(C)c2n1
REMARK SMILES IDX 6 1 5 3 4 4 3 5 2 6 1 7 7 8 8 9 24 10 9 11 23 12 18 13 21 14
REMARK SMILES IDX 19 15 20 16 22 17 10 18 11 20 12 21 17 22 13 23 16 24 14 25
REMARK SMILES IDX 15 26
REMARK H PARENT 6 2 10 19 15 27
ROOT
ATOM      1  N   UNL     1       4.629  41.845  50.932  1.00  0.00    -0.354 N 
ATOM      2  H   UNL     1       3.717  41.488  50.667  1.00  0.00     0.163 HD
ENDROOT
BRANCH   1   3
ATOM      3  C   UNL     1       5.694  41.562  49.980  1.00  0.00     0.118 C 
BRANCH   3   4
ATOM      4  C   UNL     1       5.109  41.174  48.622  1.00  0.00     0.050 C 
BRANCH   4   5
ATOM      5  C   UNL     1       3.790  40.426  48.770  1.00  0.00     0.161 C 
BRANCH   5   6
ATOM      6  O   UNL     1       3.113  40.397  47.516  1.00  0.00    -0.385 OA
ATOM      7  C   UNL     1       3.087  39.087  46.963  1.00  0.00     0.194 C 
ENDBRANCH   5   6
ENDBRANCH   4   5
ENDBRANCH   3   4
ENDBRANCH   1   3
BRANCH   1   8
ATOM      8  C   UNL     1       4.418  43.188  51.224  1.00  0.00     0.226 A 
ATOM      9  N   UNL     1       5.519  43.955  51.130  1.00  0.00    -0.195 NA
ATOM     10  N   UNL     1       3.197  43.617  51.568  1.00  0.00    -0.193 NA
ATOM     11  C   UNL     1       5.469  45.290  51.379  1.00  0.00     0.147 A 
ATOM     12  C   UNL     1       3.161  44.934  51.814  1.00  0.00     0.165 A 
ATOM     13  C   UNL     1       4.223  45.813  51.746  1.00  0.00     0.082 A 
ATOM     14  N   UNL     1       2.073  45.679  52.179  1.00  0.00    -0.250 N 
ATOM     15  C   UNL     1       3.664  47.062  52.096  1.00  0.00     0.149 A 
ATOM     16  N   UNL     1       2.355  46.991  52.366  1.00  0.00    -0.179 NA
ATOM     17  C   UNL     1       0.725  45.209  52.372  1.00  0.00     0.176 C 
BRANCH  11  18
ATOM     18  N   UNL     1       6.609  46.105  51.303  1.00  0.00    -0.339 N 
ATOM     19  H   UNL     1       6.800  46.452  50.374  1.00  0.00     0.168 HD
BRANCH  18  20
ATOM     20  C   UNL     1       7.576  46.470  52.256  1.00  0.00     0.040 A 
ATOM     21  C   UNL     1       8.954  46.474  52.010  1.00  0.00     0.030 A 
ATOM     22  C   UNL     1       7.143  46.809  53.550  1.00  0.00     0.030 A 
ATOM     23  C   UNL     1       9.871  46.822  53.009  1.00  0.00     0.048 A 
ATOM     24  C   UNL     1       8.053  47.156  54.553  1.00  0.00     0.048 A 
ATOM     25  C   UNL     1       9.411  47.160  54.275  1.00  0.00     0.115 A 
BRANCH  25  26
ATOM     26  O   UNL     1      10.268  47.504  55.277  1.00  0.00    -0.508 OA
ATOM     27  H   UNL     1       9.909  48.284  55.732  1.00  0.00     0.293 HD
ENDBRANCH  25  26
ENDBRANCH  18  20
ENDBRANCH  11  18
ENDBRANCH   1   8
TORSDOF 8
ENDMDL
MODEL 5
REMARK VINA RESULT:    -7.434      3.122      5.931
REMARK INTER + INTRA:         -11.831
REMARK INTER:                 -10.785
REMARK INTRA:                  -1.045
REMARK UNBOUND:                -1.138
REMARK SMILES COCCCNc1nc(Nc2ccc(O)cc2)c2cnn(C)c2n1
REMARK SMILES IDX 6 1 5 3 4 4 3 5 2 6 1 7 7 8 8 9 24 10 9 11 23 12 18 13 21 14
REMARK SMILES IDX 19 15 20 16 22 17 10 18 11 20 12 21 17 22 13 23 16 24 14 25
REMARK SMILES IDX 15 26
REMARK H PARENT 6 2 10 19 15 27
ROOT
ATOM      1  N   UNL     1       3.542  45.537  55.371  1.00  0.00    -0.354 N 
ATOM      2  H   UNL     1       3.295  45.394  56.345  1.00  0.00     0.163 HD
ENDROOT
BRANCH   1   3
ATOM      3  C   UNL     1       4.962  45.393  55.078  1.00  0.00     0.118 C 
BRANCH   3   4
ATOM      4  C   UNL     1       5.573  46.746  54.714  1.00  0.00     0.050 C 
BRANCH   4   5
ATOM      5  C   UNL     1       5.209  47.163  53.295  1.00  0.00     0.161 C 
BRANCH   5   6
ATOM      6  O   UNL     1       3.896  47.717  53.281  1.00  0.00    -0.385 OA
ATOM      7  C   UNL     1       3.166  47.309  52.131  1.00  0.00     0.194 C 
ENDBRANCH   5   6
ENDBRANCH   4   5
ENDBRANCH   3   4
ENDBRANCH   1   3
BRANCH   1   8
ATOM      8  C   UNL     1       2.689  44.704  54.657  1.00  0.00     0.226 A 
ATOM      9  N   UNL     1       3.279  44.040  53.647  1.00  0.00    -0.195 NA
ATOM     10  N   UNL     1       1.395  44.618  54.994  1.00  0.00    -0.193 NA
ATOM     11  C   UNL     1       2.574  43.183  52.862  1.00  0.00     0.147 A 
ATOM     12  C   UNL     1       0.711  43.772  54.212  1.00  0.00     0.165 A 
ATOM     13  C   UNL     1       1.212  43.041  53.155  1.00  0.00     0.082 A 
ATOM     14  N   UNL     1      -0.618  43.457  54.297  1.00  0.00    -0.250 N 
ATOM     15  C   UNL     1       0.097  42.323  52.669  1.00  0.00     0.149 A 
ATOM     16  N   UNL     1      -1.024  42.573  53.355  1.00  0.00    -0.179 NA
ATOM     17  C   UNL     1      -1.570  43.961  55.253  1.00  0.00     0.176 C 
BRANCH  11  18
ATOM     18  N   UNL     1       3.167  42.494  51.793  1.00  0.00    -0.339 N 
ATOM     19  H   UNL     1       2.644  41.685  51.489  1.00  0.00     0.168 HD
BRANCH  18  20
ATOM     20  C   UNL     1       4.385  42.672  51.113  1.00  0.00     0.040 A 
ATOM     21  C   UNL     1       5.020  43.909  50.958  1.00  0.00     0.030 A 
ATOM     22  C   UNL     1       4.984  41.550  50.513  1.00  0.00     0.030 A 
ATOM     23  C   UNL     1       6.220  44.027  50.246  1.00  0.00     0.048 A 
ATOM     24  C   UNL     1       6.182  41.660  49.800  1.00  0.00     0.048 A 
ATOM     25  C   UNL     1       6.792  42.899  49.672  1.00  0.00     0.115 A 
BRANCH  25  26
ATOM     26  O   UNL     1       7.958  42.968  48.971  1.00  0.00    -0.508 OA
ATOM     27  H   UNL     1       8.687  43.088  49.601  1.00  0.00     0.293 HD
ENDBRANCH  25  26
ENDBRANCH  18  20
ENDBRANCH  11  18
ENDBRANCH   1   8
TORSDOF 8
ENDMDL
MODEL 6
REMARK VINA RESULT:    -7.426      2.811      5.627
REMARK INTER + INTRA:         -11.819
REMARK INTER:                 -10.717
REMARK INTRA:                  -1.102
REMARK UNBOUND:                -1.138
REMARK SMILES COCCCNc1nc(Nc2ccc(O)cc2)c2cnn(C)c2n1
REMARK SMILES IDX 6 1 5 3 4 4 3 5 2 6 1 7 7 8 8 9 24 10 9 11 23 12 18 13 21 14
REMARK SMILES IDX 19 15 20 16 22 17 10 18 11 20 12 21 17 22 13 23 16 24 14 25
REMARK SMILES IDX 15 26
REMARK H PARENT 6 2 10 19 15 27
ROOT
ATOM      1  N   UNL     1       2.420  45.680  52.414  1.00  0.00    -0.354 N 
ATOM      2  H   UNL     1       1.667  45.011  52.290  1.00  0.00     0.163 HD
ENDROOT
BRANCH   1   3
ATOM      3  C   UNL     1       2.602  46.142  53.783  1.00  0.00     0.118 C 
BRANCH   3   4
ATOM      4  C   UNL     1       2.330  45.008  54.772  1.00  0.00     0.050 C 
BRANCH   4   5
ATOM      5  C   UNL     1       1.012  44.305  54.473  1.00  0.00     0.161 C 
BRANCH   5   6
ATOM      6  O   UNL     1       1.270  43.061  53.827  1.00  0.00    -0.385 OA
ATOM      7  C   UNL     1       0.273  42.756  52.859  1.00  0.00     0.194 C 
ENDBRANCH   5   6
ENDBRANCH   4   5
ENDBRANCH   3   4
ENDBRANCH   1   3
BRANCH   1   8
ATOM      8  C   UNL     1       3.529  45.087  51.822  1.00  0.00     0.226 A 
ATOM      9  N   UNL     1       4.626  45.864  51.796  1.00  0.00    -0.195 NA
ATOM     10  N   UNL     1       3.445  43.843  51.332  1.00  0.00    -0.193 NA
ATOM     11  C   UNL     1       5.791  45.419  51.255  1.00  0.00     0.147 A 
ATOM     12  C   UNL     1       4.598  43.416  50.800  1.00  0.00     0.165 A 
ATOM     13  C   UNL     1       5.780  44.124  50.722  1.00  0.00     0.082 A 
ATOM     14  N   UNL     1       4.846  42.199  50.226  1.00  0.00    -0.250 N 
ATOM     15  C   UNL     1       6.673  43.241  50.077  1.00  0.00     0.149 A 
ATOM     16  N   UNL     1       6.113  42.067  49.767  1.00  0.00    -0.179 NA
ATOM     17  C   UNL     1       3.920  41.106  50.078  1.00  0.00     0.176 C 
BRANCH  11  18
ATOM     18  N   UNL     1       6.942  46.221  51.204  1.00  0.00    -0.339 N 
ATOM     19  H   UNL     1       7.142  46.588  50.285  1.00  0.00     0.168 HD
BRANCH  18  20
ATOM     20  C   UNL     1       7.908  46.550  52.171  1.00  0.00     0.040 A 
ATOM     21  C   UNL     1       9.288  46.476  51.953  1.00  0.00     0.030 A 
ATOM     22  C   UNL     1       7.469  46.934  53.450  1.00  0.00     0.030 A 
ATOM     23  C   UNL     1      10.203  46.791  52.965  1.00  0.00     0.048 A 
ATOM     24  C   UNL     1       8.377  47.249  54.466  1.00  0.00     0.048 A 
ATOM     25  C   UNL     1       9.738  47.176  54.215  1.00  0.00     0.115 A 
BRANCH  25  26
ATOM     26  O   UNL     1      10.592  47.490  55.229  1.00  0.00    -0.508 OA
ATOM     27  H   UNL     1      11.417  46.994  55.100  1.00  0.00     0.293 HD
ENDBRANCH  25  26
ENDBRANCH  18  20
ENDBRANCH  11  18
ENDBRANCH   1   8
TORSDOF 8
ENDMDL
MODEL 7
REMARK VINA RESULT:    -7.398      2.742      6.532
REMARK INTER + INTRA:         -11.779
REMARK INTER:                 -10.946
REMARK INTRA:                  -0.834
REMARK UNBOUND:                -1.138
REMARK SMILES COCCCNc1nc(Nc2ccc(O)cc2)c2cnn(C)c2n1
REMARK SMILES IDX 6 1 5 3 4 4 3 5 2 6 1 7 7 8 8 9 24 10 9 11 23 12 18 13 21 14
REMARK SMILES IDX 19 15 20 16 22 17 10 18 11 20 12 21 17 22 13 23 16 24 14 25
REMARK SMILES IDX 15 26
REMARK H PARENT 6 2 10 19 15 27
ROOT
ATOM      1  N   UNL     1       4.364  41.996  50.851  1.00  0.00    -0.354 N 
ATOM      2  H   UNL     1       3.632  41.838  50.166  1.00  0.00     0.163 HD
ENDROOT
BRANCH   1   3
ATOM      3  C   UNL     1       5.696  41.591  50.422  1.00  0.00     0.118 C 
BRANCH   3   4
ATOM      4  C   UNL     1       5.770  41.525  48.897  1.00  0.00     0.050 C 
BRANCH   4   5
ATOM      5  C   UNL     1       6.691  42.598  48.331  1.00  0.00     0.161 C 
BRANCH   5   6
ATOM      6  O   UNL     1       7.762  42.838  49.240  1.00  0.00    -0.385 OA
ATOM      7  C   UNL     1       8.387  44.092  48.996  1.00  0.00     0.194 C 
ENDBRANCH   5   6
ENDBRANCH   4   5
ENDBRANCH   3   4
ENDBRANCH   1   3
BRANCH   1   8
ATOM      8  C   UNL     1       4.226  43.329  51.223  1.00  0.00     0.226 A 
ATOM      9  N   UNL     1       5.352  44.056  51.108  1.00  0.00    -0.195 NA
ATOM     10  N   UNL     1       3.045  43.787  51.656  1.00  0.00    -0.193 NA
ATOM     11  C   UNL     1       5.372  45.377  51.428  1.00  0.00     0.147 A 
ATOM     12  C   UNL     1       3.078  45.089  51.971  1.00  0.00     0.165 A 
ATOM     13  C   UNL     1       4.170  45.928  51.890  1.00  0.00     0.082 A 
ATOM     14  N   UNL     1       2.043  45.856  52.433  1.00  0.00    -0.250 N 
ATOM     15  C   UNL     1       3.684  47.177  52.334  1.00  0.00     0.149 A 
ATOM     16  N   UNL     1       2.390  47.143  52.672  1.00  0.00    -0.179 NA
ATOM     17  C   UNL     1       0.689  45.430  52.676  1.00  0.00     0.176 C 
BRANCH  11  18
ATOM     18  N   UNL     1       6.540  46.148  51.330  1.00  0.00    -0.339 N 
ATOM     19  H   UNL     1       6.730  46.484  50.397  1.00  0.00     0.168 HD
BRANCH  18  20
ATOM     20  C   UNL     1       7.534  46.482  52.268  1.00  0.00     0.040 A 
ATOM     21  C   UNL     1       8.906  46.450  51.997  1.00  0.00     0.030 A 
ATOM     22  C   UNL     1       7.134  46.827  53.571  1.00  0.00     0.030 A 
ATOM     23  C   UNL     1       9.850  46.768  52.981  1.00  0.00     0.048 A 
ATOM     24  C   UNL     1       8.071  47.144  54.559  1.00  0.00     0.048 A 
ATOM     25  C   UNL     1       9.423  47.112  54.256  1.00  0.00     0.115 A 
BRANCH  25  26
ATOM     26  O   UNL     1      10.307  47.428  55.244  1.00  0.00    -0.508 OA
ATOM     27  H   UNL     1      11.102  46.882  55.129  1.00  0.00     0.293 HD
ENDBRANCH  25  26
ENDBRANCH  18  20
ENDBRANCH  11  18
ENDBRANCH   1   8
TORSDOF 8
ENDMDL
MODEL 8
REMARK VINA RESULT:    -7.382      3.217      6.122
REMARK INTER + INTRA:         -11.756
REMARK INTER:                 -11.234
REMARK INTRA:                  -0.521
REMARK UNBOUND:                -1.138
REMARK SMILES COCCCNc1nc(Nc2ccc(O)cc2)c2cnn(C)c2n1
REMARK SMILES IDX 6 1 5 3 4 4 3 5 2 6 1 7 7 8 8 9 24 10 9 11 23 12 18 13 21 14
REMARK SMILES IDX 19 15 20 16 22 17 10 18 11 20 12 21 17 22 13 23 16 24 14 25
REMARK SMILES IDX 15 26
REMARK H PARENT 6 2 10 19 15 27
ROOT
ATOM      1  N   UNL     1       3.797  45.534  55.373  1.00  0.00    -0.354 N 
ATOM      2  H   UNL     1       3.594  45.298  56.339  1.00  0.00     0.163 HD
ENDROOT
BRANCH   1   3
ATOM      3  C   UNL     1       5.203  45.440  55.007  1.00  0.00     0.118 C 
BRANCH   3   4
ATOM      4  C   UNL     1       5.724  46.794  54.528  1.00  0.00     0.050 C 
BRANCH   4   5
ATOM      5  C   UNL     1       7.169  46.705  54.052  1.00  0.00     0.161 C 
BRANCH   5   6
ATOM      6  O   UNL     1       8.010  47.443  54.935  1.00  0.00    -0.385 OA
ATOM      7  C   UNL     1       9.341  47.531  54.441  1.00  0.00     0.194 C 
ENDBRANCH   5   6
ENDBRANCH   4   5
ENDBRANCH   3   4
ENDBRANCH   1   3
BRANCH   1   8
ATOM      8  C   UNL     1       2.921  44.758  54.621  1.00  0.00     0.226 A 
ATOM      9  N   UNL     1       3.477  44.189  53.537  1.00  0.00    -0.195 NA
ATOM     10  N   UNL     1       1.642  44.634  54.997  1.00  0.00    -0.193 NA
ATOM     11  C   UNL     1       2.748  43.396  52.707  1.00  0.00     0.147 A 
ATOM     12  C   UNL     1       0.933  43.852  54.170  1.00  0.00     0.165 A 
ATOM     13  C   UNL     1       1.398  43.218  53.036  1.00  0.00     0.082 A 
ATOM     14  N   UNL     1      -0.390  43.520  54.276  1.00  0.00    -0.250 N 
ATOM     15  C   UNL     1       0.271  42.536  52.532  1.00  0.00     0.149 A 
ATOM     16  N   UNL     1      -0.826  42.717  53.277  1.00  0.00    -0.179 NA
ATOM     17  C   UNL     1      -1.309  43.933  55.306  1.00  0.00     0.176 C 
BRANCH  11  18
ATOM     18  N   UNL     1       3.305  42.806  51.563  1.00  0.00    -0.339 N 
ATOM     19  H   UNL     1       2.704  42.125  51.121  1.00  0.00     0.168 HD
BRANCH  18  20
ATOM     20  C   UNL     1       4.567  42.928  50.955  1.00  0.00     0.040 A 
ATOM     21  C   UNL     1       5.243  44.142  50.794  1.00  0.00     0.030 A 
ATOM     22  C   UNL     1       5.173  41.769  50.437  1.00  0.00     0.030 A 
ATOM     23  C   UNL     1       6.488  44.203  50.156  1.00  0.00     0.048 A 
ATOM     24  C   UNL     1       6.415  41.822  49.797  1.00  0.00     0.048 A 
ATOM     25  C   UNL     1       7.064  43.040  49.662  1.00  0.00     0.115 A 
BRANCH  25  26
ATOM     26  O   UNL     1       8.273  43.053  49.034  1.00  0.00    -0.508 OA
ATOM     27  H   UNL     1       8.919  42.603  49.603  1.00  0.00     0.293 HD
ENDBRANCH  25  26
ENDBRANCH  18  20
ENDBRANCH  11  18
ENDBRANCH   1   8
TORSDOF 8
ENDMDL
MODEL 9
REMARK VINA RESULT:    -7.358      3.040      7.095
REMARK INTER + INTRA:         -11.722
REMARK INTER:                 -11.063
REMARK INTRA:                  -0.659
REMARK UNBOUND:                -1.138
REMARK SMILES COCCCNc1nc(Nc2ccc(O)cc2)c2cnn(C)c2n1
REMARK SMILES IDX 6 1 5 3 4 4 3 5 2 6 1 7 7 8 8 9 24 10 9 11 23 12 18 13 21 14
REMARK SMILES IDX 19 15 20 16 22 17 10 18 11 20 12 21 17 22 13 23 16 24 14 25
REMARK SMILES IDX 15 26
REMARK H PARENT 6 2 10 19 15 27
ROOT
ATOM      1  N   UNL     1       6.691  42.292  48.844  1.00  0.00    -0.354 N 
ATOM      2  H   UNL     1       7.377  41.715  49.320  1.00  0.00     0.163 HD
ENDROOT
BRANCH   1   3
ATOM      3  C   UNL     1       5.718  41.552  48.054  1.00  0.00     0.118 C 
BRANCH   3   4
ATOM      4  C   UNL     1       5.738  42.022  46.599  1.00  0.00     0.050 C 
BRANCH   4   5
ATOM      5  C   UNL     1       4.706  41.287  45.755  1.00  0.00     0.161 C 
BRANCH   5   6
ATOM      6  O   UNL     1       3.843  40.533  46.603  1.00  0.00    -0.385 OA
ATOM      7  C   UNL     1       2.751  39.977  45.882  1.00  0.00     0.194 C 
ENDBRANCH   5   6
ENDBRANCH   4   5
ENDBRANCH   3   4
ENDBRANCH   1   3
BRANCH   1   8
ATOM      8  C   UNL     1       6.168  43.118  49.832  1.00  0.00     0.226 A 
ATOM      9  N   UNL     1       6.891  44.227  50.068  1.00  0.00    -0.195 NA
ATOM     10  N   UNL     1       5.037  42.777  50.463  1.00  0.00    -0.193 NA
ATOM     11  C   UNL     1       6.502  45.135  51.002  1.00  0.00     0.147 A 
ATOM     12  C   UNL     1       4.665  43.678  51.383  1.00  0.00     0.165 A 
ATOM     13  C   UNL     1       5.326  44.846  51.705  1.00  0.00     0.082 A 
ATOM     14  N   UNL     1       3.562  43.630  52.190  1.00  0.00    -0.250 N 
ATOM     15  C   UNL     1       4.536  45.423  52.723  1.00  0.00     0.149 A 
ATOM     16  N   UNL     1       3.461  44.688  53.030  1.00  0.00    -0.179 NA
ATOM     17  C   UNL     1       2.552  42.603  52.221  1.00  0.00     0.176 C 
BRANCH  11  18
ATOM     18  N   UNL     1       7.251  46.290  51.275  1.00  0.00    -0.339 N 
ATOM     19  H   UNL     1       7.202  46.988  50.547  1.00  0.00     0.168 HD
BRANCH  18  20
ATOM     20  C   UNL     1       8.114  46.630  52.331  1.00  0.00     0.040 A 
ATOM     21  C   UNL     1       9.502  46.459  52.293  1.00  0.00     0.030 A 
ATOM     22  C   UNL     1       7.550  47.132  53.518  1.00  0.00     0.030 A 
ATOM     23  C   UNL     1      10.307  46.792  53.390  1.00  0.00     0.048 A 
ATOM     24  C   UNL     1       8.347  47.466  54.617  1.00  0.00     0.048 A 
ATOM     25  C   UNL     1       9.721  47.293  54.544  1.00  0.00     0.115 A 
BRANCH  25  26
ATOM     26  O   UNL     1      10.466  47.630  55.635  1.00  0.00    -0.508 OA
ATOM     27  H   UNL     1      10.430  48.594  55.744  1.00  0.00     0.293 HD
ENDBRANCH  25  26
ENDBRANCH  18  20
ENDBRANCH  11  18
ENDBRANCH   1   8
TORSDOF 8
ENDMDL
MODEL 10
REMARK VINA RESULT:    -7.273      2.921      6.673
REMARK INTER + INTRA:         -11.600
REMARK INTER:                 -10.511
REMARK INTRA:                  -1.089
REMARK UNBOUND:                -1.138
REMARK SMILES COCCCNc1nc(Nc2ccc(O)cc2)c2cnn(C)c2n1
REMARK SMILES IDX 6 1 5 3 4 4 3 5 2 6 1 7 7 8 8 9 24 10 9 11 23 12 18 13 21 14
REMARK SMILES IDX 19 15 20 16 22 17 10 18 11 20 12 21 17 22 13 23 16 24 14 25
REMARK SMILES IDX 15 26
REMARK H PARENT 6 2 10 19 15 27
ROOT
ATOM      1  N   UNL     1       4.279  41.534  51.208  1.00  0.00    -0.354 N 
ATOM      2  H   UNL     1       4.289  40.862  51.969  1.00  0.00     0.163 HD
ENDROOT
BRANCH   1   3
ATOM      3  C   UNL     1       3.578  41.086  50.013  1.00  0.00     0.118 C 
BRANCH   3   4
ATOM      4  C   UNL     1       4.558  40.902  48.854  1.00  0.00     0.050 C 
BRANCH   4   5
ATOM      5  C   UNL     1       5.966  41.345  49.233  1.00  0.00     0.161 C 
BRANCH   5   6
ATOM      6  O   UNL     1       6.159  42.704  48.849  1.00  0.00    -0.385 OA
ATOM      7  C   UNL     1       7.396  43.216  49.330  1.00  0.00     0.194 C 
ENDBRANCH   5   6
ENDBRANCH   4   5
ENDBRANCH   3   4
ENDBRANCH   1   3
BRANCH   1   8
ATOM      8  C   UNL     1       3.814  42.714  51.777  1.00  0.00     0.226 A 
ATOM      9  N   UNL     1       4.618  43.775  51.586  1.00  0.00    -0.195 NA
ATOM     10  N   UNL     1       2.657  42.725  52.452  1.00  0.00    -0.193 NA
ATOM     11  C   UNL     1       4.294  45.001  52.078  1.00  0.00     0.147 A 
ATOM     12  C   UNL     1       2.350  43.938  52.933  1.00  0.00     0.165 A 
ATOM     13  C   UNL     1       3.095  45.091  52.796  1.00  0.00     0.082 A 
ATOM     14  N   UNL     1       1.241  44.285  53.656  1.00  0.00    -0.250 N 
ATOM     15  C   UNL     1       2.346  46.073  53.479  1.00  0.00     0.149 A 
ATOM     16  N   UNL     1       1.216  45.592  54.011  1.00  0.00    -0.179 NA
ATOM     17  C   UNL     1       0.157  43.423  54.050  1.00  0.00     0.176 C 
BRANCH  11  18
ATOM     18  N   UNL     1       5.127  46.117  51.903  1.00  0.00    -0.339 N 
ATOM     19  H   UNL     1       4.741  46.821  51.291  1.00  0.00     0.168 HD
BRANCH  18  20
ATOM     20  C   UNL     1       6.425  46.408  52.358  1.00  0.00     0.040 A 
ATOM     21  C   UNL     1       7.565  46.360  51.549  1.00  0.00     0.030 A 
ATOM     22  C   UNL     1       6.600  46.725  53.716  1.00  0.00     0.030 A 
ATOM     23  C   UNL     1       8.837  46.634  52.067  1.00  0.00     0.048 A 
ATOM     24  C   UNL     1       7.867  47.000  54.241  1.00  0.00     0.048 A 
ATOM     25  C   UNL     1       8.976  46.953  53.411  1.00  0.00     0.115 A 
BRANCH  25  26
ATOM     26  O   UNL     1      10.194  47.227  53.958  1.00  0.00    -0.508 OA
ATOM     27  H   UNL     1      10.245  48.182  54.130  1.00  0.00     0.293 HD
ENDBRANCH  25  26
ENDBRANCH  18  20
ENDBRANCH  11  18
ENDBRANCH   1   8
TORSDOF 8
ENDMDL
MODEL 11
REMARK VINA RESULT:    -7.214      2.945      5.738
REMARK INTER + INTRA:         -11.514
REMARK INTER:                 -10.754
REMARK INTRA:                  -0.760
REMARK UNBOUND:                -1.138
REMARK SMILES COCCCNc1nc(Nc2ccc(O)cc2)c2cnn(C)c2n1
REMARK SMILES IDX 6 1 5 3 4 4 3 5 2 6 1 7 7 8 8 9 24 10 9 11 23 12 18 13 21 14
REMARK SMILES IDX 19 15 20 16 22 17 10 18 11 20 12 21 17 22 13 23 16 24 14 25
REMARK SMILES IDX 15 26
REMARK H PARENT 6 2 10 19 15 27
ROOT
ATOM      1  N   UNL     1       7.663  46.056  50.687  1.00  0.00    -0.354 N 
ATOM      2  H   UNL     1       7.213  46.895  51.037  1.00  0.00     0.163 HD
ENDROOT
BRANCH   1   3
ATOM      3  C   UNL     1       8.970  45.780  51.268  1.00  0.00     0.118 C 
BRANCH   3   4
ATOM      4  C   UNL     1       9.500  47.011  52.003  1.00  0.00     0.050 C 
BRANCH   4   5
ATOM      5  C   UNL     1       8.370  47.926  52.457  1.00  0.00     0.161 C 
BRANCH   5   6
ATOM      6  O   UNL     1       8.282  47.907  53.879  1.00  0.00    -0.385 OA
ATOM      7  C   UNL     1       9.527  47.572  54.479  1.00  0.00     0.194 C 
ENDBRANCH   5   6
ENDBRANCH   4   5
ENDBRANCH   3   4
ENDBRANCH   1   3
BRANCH   1   8
ATOM      8  C   UNL     1       6.712  45.052  50.830  1.00  0.00     0.226 A 
ATOM      9  N   UNL     1       6.861  44.021  49.979  1.00  0.00    -0.195 NA
ATOM     10  N   UNL     1       5.749  45.165  51.755  1.00  0.00    -0.193 NA
ATOM     11  C   UNL     1       6.011  42.961  50.002  1.00  0.00     0.147 A 
ATOM     12  C   UNL     1       4.917  44.115  51.767  1.00  0.00     0.165 A 
ATOM     13  C   UNL     1       4.977  43.007  50.945  1.00  0.00     0.082 A 
ATOM     14  N   UNL     1       3.841  43.920  52.589  1.00  0.00    -0.250 N 
ATOM     15  C   UNL     1       3.886  42.211  51.355  1.00  0.00     0.149 A 
ATOM     16  N   UNL     1       3.184  42.759  52.353  1.00  0.00    -0.179 NA
ATOM     17  C   UNL     1       3.374  44.800  53.630  1.00  0.00     0.176 C 
BRANCH  11  18
ATOM     18  N   UNL     1       6.141  41.884  49.112  1.00  0.00    -0.339 N 
ATOM     19  H   UNL     1       6.929  41.285  49.309  1.00  0.00     0.168 HD
BRANCH  18  20
ATOM     20  C   UNL     1       5.426  41.521  47.957  1.00  0.00     0.040 A 
ATOM     21  C   UNL     1       5.758  41.949  46.666  1.00  0.00     0.030 A 
ATOM     22  C   UNL     1       4.282  40.717  48.104  1.00  0.00     0.030 A 
ATOM     23  C   UNL     1       4.991  41.576  45.556  1.00  0.00     0.048 A 
ATOM     24  C   UNL     1       3.511  40.342  47.000  1.00  0.00     0.048 A 
ATOM     25  C   UNL     1       3.872  40.774  45.733  1.00  0.00     0.115 A 
BRANCH  25  26
ATOM     26  O   UNL     1       3.096  40.387  44.681  1.00  0.00    -0.508 OA
ATOM     27  H   UNL     1       2.315  39.927  45.030  1.00  0.00     0.293 HD
ENDBRANCH  25  26
ENDBRANCH  18  20
ENDBRANCH  11  18
ENDBRANCH   1   8
TORSDOF 8
ENDMDL
MODEL 12
REMARK VINA RESULT:    -7.186      2.542      5.432
REMARK INTER + INTRA:         -11.474
REMARK INTER:                 -11.160
REMARK INTRA:                  -0.314
REMARK UNBOUND:                -1.138
REMARK SMILES COCCCNc1nc(Nc2ccc(O)cc2)c2cnn(C)c2n1
REMARK SMILES IDX 6 1 5 3 4 4 3 5 2 6 1 7 7 8 8 9 24 10 9 11 23 12 18 13 21 14
REMARK SMILES IDX 19 15 20 16 22 17 10 18 11 20 12 21 17 22 13 23 16 24 14 25
REMARK SMILES IDX 15 26
REMARK H PARENT 6 2 10 19 15 27
ROOT
ATOM      1  N   UNL     1       5.463  46.995  54.859  1.00  0.00    -0.354 N 
ATOM      2  H   UNL     1       5.248  47.314  55.798  1.00  0.00     0.163 HD
ENDROOT
BRANCH   1   3
ATOM      3  C   UNL     1       6.816  46.485  54.687  1.00  0.00     0.118 C 
BRANCH   3   4
ATOM      4  C   UNL     1       7.542  47.253  53.581  1.00  0.00     0.050 C 
BRANCH   4   5
ATOM      5  C   UNL     1       8.980  47.570  53.968  1.00  0.00     0.161 C 
BRANCH   5   6
ATOM      6  O   UNL     1       9.841  46.534  53.502  1.00  0.00    -0.385 OA
ATOM      7  C   UNL     1      10.037  46.607  52.095  1.00  0.00     0.194 C 
ENDBRANCH   5   6
ENDBRANCH   4   5
ENDBRANCH   3   4
ENDBRANCH   1   3
BRANCH   1   8
ATOM      8  C   UNL     1       4.437  46.115  54.534  1.00  0.00     0.226 A 
ATOM      9  N   UNL     1       4.694  45.334  53.469  1.00  0.00    -0.195 NA
ATOM     10  N   UNL     1       3.310  46.100  55.257  1.00  0.00    -0.193 NA
ATOM     11  C   UNL     1       3.788  44.419  53.034  1.00  0.00     0.147 A 
ATOM     12  C   UNL     1       2.425  45.196  54.817  1.00  0.00     0.165 A 
ATOM     13  C   UNL     1       2.583  44.344  53.743  1.00  0.00     0.082 A 
ATOM     14  N   UNL     1       1.188  44.927  55.336  1.00  0.00    -0.250 N 
ATOM     15  C   UNL     1       1.378  43.610  53.700  1.00  0.00     0.149 A 
ATOM     16  N   UNL     1       0.519  43.960  54.664  1.00  0.00    -0.179 NA
ATOM     17  C   UNL     1       0.571  45.554  56.477  1.00  0.00     0.176 C 
BRANCH  11  18
ATOM     18  N   UNL     1       4.031  43.606  51.916  1.00  0.00    -0.339 N 
ATOM     19  H   UNL     1       3.294  42.940  51.729  1.00  0.00     0.168 HD
BRANCH  18  20
ATOM     20  C   UNL     1       5.134  43.491  51.052  1.00  0.00     0.040 A 
ATOM     21  C   UNL     1       5.474  42.317  50.372  1.00  0.00     0.030 A 
ATOM     22  C   UNL     1       5.975  44.606  50.892  1.00  0.00     0.030 A 
ATOM     23  C   UNL     1       6.603  42.256  49.544  1.00  0.00     0.048 A 
ATOM     24  C   UNL     1       7.104  44.553  50.068  1.00  0.00     0.048 A 
ATOM     25  C   UNL     1       7.409  43.377  49.400  1.00  0.00     0.115 A 
BRANCH  25  26
ATOM     26  O   UNL     1       8.516  43.363  48.606  1.00  0.00    -0.508 OA
ATOM     27  H   UNL     1       8.978  44.211  48.710  1.00  0.00     0.293 HD
ENDBRANCH  25  26
ENDBRANCH  18  20
ENDBRANCH  11  18
ENDBRANCH   1   8
TORSDOF 8
ENDMDL
MODEL 13
REMARK VINA RESULT:    -7.156      2.788      6.925
REMARK INTER + INTRA:         -11.431
REMARK INTER:                 -10.446
REMARK INTRA:                  -0.985
REMARK UNBOUND:                -1.138
REMARK SMILES COCCCNc1nc(Nc2ccc(O)cc2)c2cnn(C)c2n1
REMARK SMILES IDX 6 1 5 3 4 4 3 5 2 6 1 7 7 8 8 9 24 10 9 11 23 12 18 13 21 14
REMARK SMILES IDX 19 15 20 16 22 17 10 18 11 20 12 21 17 22 13 23 16 24 14 25
REMARK SMILES IDX 15 26
REMARK H PARENT 6 2 10 19 15 27
ROOT
ATOM      1  N   UNL     1       6.951  46.302  51.225  1.00  0.00    -0.354 N 
ATOM      2  H   UNL     1       6.699  46.699  50.325  1.00  0.00     0.163 HD
ENDROOT
BRANCH   1   3
ATOM      3  C   UNL     1       6.917  47.244  52.335  1.00  0.00     0.118 C 
BRANCH   3   4
ATOM      4  C   UNL     1       8.179  48.107  52.344  1.00  0.00     0.050 C 
BRANCH   4   5
ATOM      5  C   UNL     1       9.251  47.528  53.258  1.00  0.00     0.161 C 
BRANCH   5   6
ATOM      6  O   UNL     1       9.505  46.173  52.898  1.00  0.00    -0.385 OA
ATOM      7  C   UNL     1      10.450  46.079  51.839  1.00  0.00     0.194 C 
ENDBRANCH   5   6
ENDBRANCH   4   5
ENDBRANCH   3   4
ENDBRANCH   1   3
BRANCH   1   8
ATOM      8  C   UNL     1       6.146  45.176  51.360  1.00  0.00     0.226 A 
ATOM      9  N   UNL     1       5.350  45.191  52.444  1.00  0.00    -0.195 NA
ATOM     10  N   UNL     1       6.210  44.192  50.454  1.00  0.00    -0.193 NA
ATOM     11  C   UNL     1       4.501  44.163  52.707  1.00  0.00     0.147 A 
ATOM     12  C   UNL     1       5.371  43.183  50.725  1.00  0.00     0.165 A 
ATOM     13  C   UNL     1       4.511  43.094  51.802  1.00  0.00     0.082 A 
ATOM     14  N   UNL     1       5.189  42.038  49.999  1.00  0.00    -0.250 N 
ATOM     15  C   UNL     1       3.864  41.852  51.629  1.00  0.00     0.149 A 
ATOM     16  N   UNL     1       4.273  41.198  50.535  1.00  0.00    -0.179 NA
ATOM     17  C   UNL     1       5.857  41.672  48.776  1.00  0.00     0.176 C 
BRANCH  11  18
ATOM     18  N   UNL     1       3.675  44.152  53.841  1.00  0.00    -0.339 N 
ATOM     19  H   UNL     1       4.142  43.848  54.683  1.00  0.00     0.168 HD
BRANCH  18  20
ATOM     20  C   UNL     1       2.304  44.412  54.014  1.00  0.00     0.040 A 
ATOM     21  C   UNL     1       1.346  44.261  53.005  1.00  0.00     0.030 A 
ATOM     22  C   UNL     1       1.868  44.896  55.260  1.00  0.00     0.030 A 
ATOM     23  C   UNL     1      -0.003  44.562  53.230  1.00  0.00     0.048 A 
ATOM     24  C   UNL     1       0.523  45.200  55.492  1.00  0.00     0.048 A 
ATOM     25  C   UNL     1      -0.403  45.030  54.475  1.00  0.00     0.115 A 
BRANCH  25  26
ATOM     26  O   UNL     1      -1.704  45.336  54.737  1.00  0.00    -0.508 OA
ATOM     27  H   UNL     1      -1.725  46.129  55.298  1.00  0.00     0.293 HD
ENDBRANCH  25  26
ENDBRANCH  18  20
ENDBRANCH  11  18
ENDBRANCH   1   8
TORSDOF 8
ENDMDL
MODEL 14
REMARK VINA RESULT:    -7.101      1.853      5.124
REMARK INTER + INTRA:         -11.352
REMARK INTER:                 -10.500
REMARK INTRA:                  -0.853
REMARK UNBOUND:                -1.138
REMARK SMILES COCCCNc1nc(Nc2ccc(O)cc2)c2cnn(C)c2n1
REMARK SMILES IDX 6 1 5 3 4 4 3 5 2 6 1 7 7 8 8 9 24 10 9 11 23 12 18 13 21 14
REMARK SMILES IDX 19 15 20 16 22 17 10 18 11 20 12 21 17 22 13 23 16 24 14 25
REMARK SMILES IDX 15 26
REMARK H PARENT 6 2 10 19 15 27
ROOT
ATOM      1  N   UNL     1       7.967  45.260  49.518  1.00  0.00    -0.354 N 
ATOM      2  H   UNL     1       8.713  45.902  49.270  1.00  0.00     0.163 HD
ENDROOT
BRANCH   1   3
ATOM      3  C   UNL     1       8.324  43.851  49.424  1.00  0.00     0.118 C 
BRANCH   3   4
ATOM      4  C   UNL     1       7.196  43.055  48.768  1.00  0.00     0.050 C 
BRANCH   4   5
ATOM      5  C   UNL     1       6.506  42.132  49.764  1.00  0.00     0.161 C 
BRANCH   5   6
ATOM      6  O   UNL     1       5.763  41.139  49.061  1.00  0.00    -0.385 OA
ATOM      7  C   UNL     1       4.417  41.071  49.514  1.00  0.00     0.194 C 
ENDBRANCH   5   6
ENDBRANCH   4   5
ENDBRANCH   3   4
ENDBRANCH   1   3
BRANCH   1   8
ATOM      8  C   UNL     1       7.520  45.690  50.762  1.00  0.00     0.226 A 
ATOM      9  N   UNL     1       6.187  45.617  50.926  1.00  0.00    -0.195 NA
ATOM     10  N   UNL     1       8.394  46.134  51.674  1.00  0.00    -0.193 NA
ATOM     11  C   UNL     1       5.601  45.997  52.093  1.00  0.00     0.147 A 
ATOM     12  C   UNL     1       7.804  46.507  52.818  1.00  0.00     0.165 A 
ATOM     13  C   UNL     1       6.453  46.473  53.097  1.00  0.00     0.082 A 
ATOM     14  N   UNL     1       8.412  46.995  53.942  1.00  0.00    -0.250 N 
ATOM     15  C   UNL     1       6.357  46.969  54.415  1.00  0.00     0.149 A 
ATOM     16  N   UNL     1       7.544  47.295  54.938  1.00  0.00    -0.179 NA
ATOM     17  C   UNL     1       9.823  47.208  54.144  1.00  0.00     0.176 C 
BRANCH  11  18
ATOM     18  N   UNL     1       4.211  45.944  52.278  1.00  0.00    -0.339 N 
ATOM     19  H   UNL     1       3.760  46.847  52.242  1.00  0.00     0.168 HD
BRANCH  18  20
ATOM     20  C   UNL     1       3.337  44.884  52.579  1.00  0.00     0.040 A 
ATOM     21  C   UNL     1       3.283  43.688  51.856  1.00  0.00     0.030 A 
ATOM     22  C   UNL     1       2.429  45.048  53.640  1.00  0.00     0.030 A 
ATOM     23  C   UNL     1       2.371  42.678  52.187  1.00  0.00     0.048 A 
ATOM     24  C   UNL     1       1.515  44.045  53.976  1.00  0.00     0.048 A 
ATOM     25  C   UNL     1       1.493  42.866  53.246  1.00  0.00     0.115 A 
BRANCH  25  26
ATOM     26  O   UNL     1       0.589  41.911  53.602  1.00  0.00    -0.508 OA
ATOM     27  H   UNL     1      -0.053  42.310  54.213  1.00  0.00     0.293 HD
ENDBRANCH  25  26
ENDBRANCH  18  20
ENDBRANCH  11  18
ENDBRANCH   1   8
TORSDOF 8
ENDMDL
MODEL 15
REMARK VINA RESULT:    -7.077      3.206      5.614
REMARK INTER + INTRA:         -11.318
REMARK INTER:                 -10.756
REMARK INTRA:                  -0.562
REMARK UNBOUND:                -1.138
REMARK SMILES COCCCNc1nc(Nc2ccc(O)cc2)c2cnn(C)c2n1
REMARK SMILES IDX 6 1 5 3 4 4 3 5 2 6 1 7 7 8 8 9 24 10 9 11 23 12 18 13 21 14
REMARK SMILES IDX 19 15 20 16 22 17 10 18 11 20 12 21 17 22 13 23 16 24 14 25
REMARK SMILES IDX 15 26
REMARK H PARENT 6 2 10 19 15 27
ROOT
ATOM      1  N   UNL     1       2.807  46.022  56.426  1.00  0.00    -0.354 N 
ATOM      2  H   UNL     1       3.102  46.903  56.834  1.00  0.00     0.163 HD
ENDROOT
BRANCH   1   3
ATOM      3  C   UNL     1       1.439  45.634  56.744  1.00  0.00     0.118 C 
BRANCH   3   4
ATOM      4  C   UNL     1       0.920  46.433  57.940  1.00  0.00     0.050 C 
BRANCH   4   5
ATOM      5  C   UNL     1      -0.509  46.911  57.719  1.00  0.00     0.161 C 
BRANCH   5   6
ATOM      6  O   UNL     1      -0.912  47.734  58.811  1.00  0.00    -0.385 OA
ATOM      7  C   UNL     1       0.161  47.971  59.714  1.00  0.00     0.194 C 
ENDBRANCH   5   6
ENDBRANCH   4   5
ENDBRANCH   3   4
ENDBRANCH   1   3
BRANCH   1   8
ATOM      8  C   UNL     1       3.106  46.133  55.073  1.00  0.00     0.226 A 
ATOM      9  N   UNL     1       4.262  46.768  54.812  1.00  0.00    -0.195 NA
ATOM     10  N   UNL     1       2.268  45.632  54.156  1.00  0.00    -0.193 NA
ATOM     11  C   UNL     1       4.693  46.948  53.535  1.00  0.00     0.147 A 
ATOM     12  C   UNL     1       2.702  45.817  52.902  1.00  0.00     0.165 A 
ATOM     13  C   UNL     1       3.867  46.449  52.519  1.00  0.00     0.082 A 
ATOM     14  N   UNL     1       2.087  45.421  51.746  1.00  0.00    -0.250 N 
ATOM     15  C   UNL     1       3.852  46.384  51.109  1.00  0.00     0.149 A 
ATOM     16  N   UNL     1       2.769  45.763  50.627  1.00  0.00    -0.179 NA
ATOM     17  C   UNL     1       0.840  44.710  51.626  1.00  0.00     0.176 C 
BRANCH  11  18
ATOM     18  N   UNL     1       5.888  47.622  53.241  1.00  0.00    -0.339 N 
ATOM     19  H   UNL     1       5.795  48.627  53.226  1.00  0.00     0.168 HD
BRANCH  18  20
ATOM     20  C   UNL     1       7.170  47.163  52.891  1.00  0.00     0.040 A 
ATOM     21  C   UNL     1       8.309  47.349  53.682  1.00  0.00     0.030 A 
ATOM     22  C   UNL     1       7.333  46.517  51.653  1.00  0.00     0.030 A 
ATOM     23  C   UNL     1       9.566  46.893  53.267  1.00  0.00     0.048 A 
ATOM     24  C   UNL     1       8.586  46.060  51.231  1.00  0.00     0.048 A 
ATOM     25  C   UNL     1       9.693  46.251  52.042  1.00  0.00     0.115 A 
BRANCH  25  26
ATOM     26  O   UNL     1      10.897  45.792  51.598  1.00  0.00    -0.508 OA
ATOM     27  H   UNL     1      11.083  46.202  50.738  1.00  0.00     0.293 HD
ENDBRANCH  25  26
ENDBRANCH  18  20
ENDBRANCH  11  18
ENDBRANCH   1   8
TORSDOF 8
ENDMDL
MODEL 16
REMARK VINA RESULT:    -7.061      2.879      6.669
REMARK INTER + INTRA:         -11.295
REMARK INTER:                 -10.081
REMARK INTRA:                  -1.214
REMARK UNBOUND:                -1.138
REMARK SMILES COCCCNc1nc(Nc2ccc(O)cc2)c2cnn(C)c2n1
REMARK SMILES IDX 6 1 5 3 4 4 3 5 2 6 1 7 7 8 8 9 24 10 9 11 23 12 18 13 21 14
REMARK SMILES IDX 19 15 20 16 22 17 10 18 11 20 12 21 17 22 13 23 16 24 14 25
REMARK SMILES IDX 15 26
REMARK H PARENT 6 2 10 19 15 27
ROOT
ATOM      1  N   UNL     1       7.146  46.380  50.930  1.00  0.00    -0.354 N 
ATOM      2  H   UNL     1       6.708  47.162  51.406  1.00  0.00     0.163 HD
ENDROOT
BRANCH   1   3
ATOM      3  C   UNL     1       8.489  46.062  51.394  1.00  0.00     0.118 C 
BRANCH   3   4
ATOM      4  C   UNL     1       9.090  47.247  52.149  1.00  0.00     0.050 C 
BRANCH   4   5
ATOM      5  C   UNL     1       8.732  47.211  53.630  1.00  0.00     0.161 C 
BRANCH   5   6
ATOM      6  O   UNL     1       7.356  47.545  53.797  1.00  0.00    -0.385 OA
ATOM      7  C   UNL     1       6.676  46.584  54.596  1.00  0.00     0.194 C 
ENDBRANCH   5   6
ENDBRANCH   4   5
ENDBRANCH   3   4
ENDBRANCH   1   3
BRANCH   1   8
ATOM      8  C   UNL     1       6.218  45.348  51.004  1.00  0.00     0.226 A 
ATOM      9  N   UNL     1       5.024  45.711  51.506  1.00  0.00    -0.195 NA
ATOM     10  N   UNL     1       6.550  44.115  50.599  1.00  0.00    -0.193 NA
ATOM     11  C   UNL     1       4.013  44.812  51.635  1.00  0.00     0.147 A 
ATOM     12  C   UNL     1       5.546  43.238  50.733  1.00  0.00     0.165 A 
ATOM     13  C   UNL     1       4.286  43.499  51.231  1.00  0.00     0.082 A 
ATOM     14  N   UNL     1       5.558  41.909  50.407  1.00  0.00    -0.250 N 
ATOM     15  C   UNL     1       3.621  42.255  51.165  1.00  0.00     0.149 A 
ATOM     16  N   UNL     1       4.389  41.278  50.669  1.00  0.00    -0.179 NA
ATOM     17  C   UNL     1       6.654  41.165  49.839  1.00  0.00     0.176 C 
BRANCH  11  18
ATOM     18  N   UNL     1       2.765  45.167  52.171  1.00  0.00    -0.339 N 
ATOM     19  H   UNL     1       2.149  45.613  51.507  1.00  0.00     0.168 HD
BRANCH  18  20
ATOM     20  C   UNL     1       2.238  45.086  53.472  1.00  0.00     0.040 A 
ATOM     21  C   UNL     1       0.981  44.552  53.774  1.00  0.00     0.030 A 
ATOM     22  C   UNL     1       2.995  45.613  54.533  1.00  0.00     0.030 A 
ATOM     23  C   UNL     1       0.498  44.524  55.088  1.00  0.00     0.048 A 
ATOM     24  C   UNL     1       2.520  45.589  55.848  1.00  0.00     0.048 A 
ATOM     25  C   UNL     1       1.274  45.044  56.115  1.00  0.00     0.115 A 
BRANCH  25  26
ATOM     26  O   UNL     1       0.843  45.039  57.408  1.00  0.00    -0.508 OA
ATOM     27  H   UNL     1       0.059  44.468  57.467  1.00  0.00     0.293 HD
ENDBRANCH  25  26
ENDBRANCH  18  20
ENDBRANCH  11  18
ENDBRANCH   1   8
TORSDOF 8
ENDMDL
MODEL 17
REMARK VINA RESULT:    -7.040      1.977      5.513
REMARK INTER + INTRA:         -11.264
REMARK INTER:                 -10.199
REMARK INTRA:                  -1.065
REMARK UNBOUND:                -1.138
REMARK SMILES COCCCNc1nc(Nc2ccc(O)cc2)c2cnn(C)c2n1
REMARK SMILES IDX 6 1 5 3 4 4 3 5 2 6 1 7 7 8 8 9 24 10 9 11 23 12 18 13 21 14
REMARK SMILES IDX 19 15 20 16 22 17 10 18 11 20 12 21 17 22 13 23 16 24 14 25
REMARK SMILES IDX 15 26
REMARK H PARENT 6 2 10 19 15 27
ROOT
ATOM      1  N   UNL     1       6.623  43.382  49.205  1.00  0.00    -0.354 N 
ATOM      2  H   UNL     1       7.395  43.486  48.555  1.00  0.00     0.163 HD
ENDROOT
BRANCH   1   3
ATOM      3  C   UNL     1       6.504  42.056  49.798  1.00  0.00     0.118 C 
BRANCH   3   4
ATOM      4  C   UNL     1       5.371  41.273  49.135  1.00  0.00     0.050 C 
BRANCH   4   5
ATOM      5  C   UNL     1       4.136  41.208  50.025  1.00  0.00     0.161 C 
BRANCH   5   6
ATOM      6  O   UNL     1       4.483  41.592  51.353  1.00  0.00    -0.385 OA
ATOM      7  C   UNL     1       3.453  42.361  51.963  1.00  0.00     0.194 C 
ENDBRANCH   5   6
ENDBRANCH   4   5
ENDBRANCH   3   4
ENDBRANCH   1   3
BRANCH   1   8
ATOM      8  C   UNL     1       6.761  44.436  50.101  1.00  0.00     0.226 A 
ATOM      9  N   UNL     1       5.599  44.899  50.595  1.00  0.00    -0.195 NA
ATOM     10  N   UNL     1       7.979  44.908  50.401  1.00  0.00    -0.193 NA
ATOM     11  C   UNL     1       5.574  45.924  51.487  1.00  0.00     0.147 A 
ATOM     12  C   UNL     1       7.940  45.919  51.279  1.00  0.00     0.165 A 
ATOM     13  C   UNL     1       6.811  46.471  51.850  1.00  0.00     0.082 A 
ATOM     14  N   UNL     1       9.003  46.612  51.792  1.00  0.00    -0.250 N 
ATOM     15  C   UNL     1       7.309  47.493  52.687  1.00  0.00     0.149 A 
ATOM     16  N   UNL     1       8.643  47.591  52.655  1.00  0.00    -0.179 NA
ATOM     17  C   UNL     1      10.398  46.398  51.504  1.00  0.00     0.176 C 
BRANCH  11  18
ATOM     18  N   UNL     1       4.371  46.433  52.002  1.00  0.00    -0.339 N 
ATOM     19  H   UNL     1       4.021  47.237  51.501  1.00  0.00     0.168 HD
BRANCH  18  20
ATOM     20  C   UNL     1       3.601  46.082  53.125  1.00  0.00     0.040 A 
ATOM     21  C   UNL     1       2.258  45.693  53.060  1.00  0.00     0.030 A 
ATOM     22  C   UNL     1       4.195  46.168  54.396  1.00  0.00     0.030 A 
ATOM     23  C   UNL     1       1.534  45.382  54.218  1.00  0.00     0.048 A 
ATOM     24  C   UNL     1       3.478  45.860  55.556  1.00  0.00     0.048 A 
ATOM     25  C   UNL     1       2.152  45.468  55.458  1.00  0.00     0.115 A 
BRANCH  25  26
ATOM     26  O   UNL     1       1.486  45.175  56.610  1.00  0.00    -0.508 OA
ATOM     27  H   UNL     1       1.543  44.218  56.762  1.00  0.00     0.293 HD
ENDBRANCH  25  26
ENDBRANCH  18  20
ENDBRANCH  11  18
ENDBRANCH   1   8
TORSDOF 8
ENDMDL
MODEL 18
REMARK VINA RESULT:    -7.022      3.123      6.023
REMARK INTER + INTRA:         -11.238
REMARK INTER:                 -10.438
REMARK INTRA:                  -0.801
REMARK UNBOUND:                -1.138
REMARK SMILES COCCCNc1nc(Nc2ccc(O)cc2)c2cnn(C)c2n1
REMARK SMILES IDX 6 1 5 3 4 4 3 5 2 6 1 7 7 8 8 9 24 10 9 11 23 12 18 13 21 14
REMARK SMILES IDX 19 15 20 16 22 17 10 18 11 20 12 21 17 22 13 23 16 24 14 25
REMARK SMILES IDX 15 26
REMARK H PARENT 6 2 10 19 15 27
ROOT
ATOM      1  N   UNL     1       3.334  46.823  53.440  1.00  0.00    -0.354 N 
ATOM      2  H   UNL     1       2.675  47.511  53.789  1.00  0.00     0.163 HD
ENDROOT
BRANCH   1   3
ATOM      3  C   UNL     1       4.610  46.792  54.142  1.00  0.00     0.118 C 
BRANCH   3   4
ATOM      4  C   UNL     1       5.751  47.174  53.200  1.00  0.00     0.050 C 
BRANCH   4   5
ATOM      5  C   UNL     1       6.724  46.021  52.998  1.00  0.00     0.161 C 
BRANCH   5   6
ATOM      6  O   UNL     1       6.709  45.615  51.631  1.00  0.00    -0.385 OA
ATOM      7  C   UNL     1       7.885  46.028  50.947  1.00  0.00     0.194 C 
ENDBRANCH   5   6
ENDBRANCH   4   5
ENDBRANCH   3   4
ENDBRANCH   1   3
BRANCH   1   8
ATOM      8  C   UNL     1       2.627  45.627  53.415  1.00  0.00     0.226 A 
ATOM      9  N   UNL     1       3.329  44.576  52.957  1.00  0.00    -0.195 NA
ATOM     10  N   UNL     1       1.351  45.592  53.824  1.00  0.00    -0.193 NA
ATOM     11  C   UNL     1       2.774  43.338  52.880  1.00  0.00     0.147 A 
ATOM     12  C   UNL     1       0.814  44.367  53.741  1.00  0.00     0.165 A 
ATOM     13  C   UNL     1       1.440  43.223  53.291  1.00  0.00     0.082 A 
ATOM     14  N   UNL     1      -0.457  43.996  54.084  1.00  0.00    -0.250 N 
ATOM     15  C   UNL     1       0.452  42.220  53.399  1.00  0.00     0.149 A 
ATOM     16  N   UNL     1      -0.709  42.681  53.877  1.00  0.00    -0.179 NA
ATOM     17  C   UNL     1      -1.494  44.841  54.618  1.00  0.00     0.176 C 
BRANCH  11  18
ATOM     18  N   UNL     1       3.485  42.232  52.389  1.00  0.00    -0.339 N 
ATOM     19  H   UNL     1       3.635  41.507  53.075  1.00  0.00     0.168 HD
BRANCH  18  20
ATOM     20  C   UNL     1       4.091  41.974  51.147  1.00  0.00     0.040 A 
ATOM     21  C   UNL     1       3.588  41.069  50.205  1.00  0.00     0.030 A 
ATOM     22  C   UNL     1       5.298  42.627  50.844  1.00  0.00     0.030 A 
ATOM     23  C   UNL     1       4.252  40.833  48.995  1.00  0.00     0.048 A 
ATOM     24  C   UNL     1       5.967  42.396  49.638  1.00  0.00     0.048 A 
ATOM     25  C   UNL     1       5.438  41.501  48.722  1.00  0.00     0.115 A 
BRANCH  25  26
ATOM     26  O   UNL     1       6.118  41.302  47.558  1.00  0.00    -0.508 OA
ATOM     27  H   UNL     1       7.069  41.360  47.745  1.00  0.00     0.293 HD
ENDBRANCH  25  26
ENDBRANCH  18  20
ENDBRANCH  11  18
ENDBRANCH   1   8
TORSDOF 8
ENDMDL
MODEL 19
REMARK VINA RESULT:    -6.979      2.855      6.273
REMARK INTER + INTRA:         -11.177
REMARK INTER:                 -10.092
REMARK INTRA:                  -1.085
REMARK UNBOUND:                -1.138
REMARK SMILES COCCCNc1nc(Nc2ccc(O)cc2)c2cnn(C)c2n1
REMARK SMILES IDX 6 1 5 3 4 4 3 5 2 6 1 7 7 8 8 9 24 10 9 11 23 12 18 13 21 14
REMARK SMILES IDX 19 15 20 16 22 17 10 18 11 20 12 21 17 22 13 23 16 24 14 25
REMARK SMILES IDX 15 26
REMARK H PARENT 6 2 10 19 15 27
ROOT
ATOM      1  N   UNL     1       6.752  47.160  52.942  1.00  0.00    -0.354 N 
ATOM      2  H   UNL     1       6.009  47.852  52.975  1.00  0.00     0.163 HD
ENDROOT
BRANCH   1   3
ATOM      3  C   UNL     1       7.524  47.039  54.170  1.00  0.00     0.118 C 
BRANCH   3   4
ATOM      4  C   UNL     1       8.768  47.925  54.111  1.00  0.00     0.050 C 
BRANCH   4   5
ATOM      5  C   UNL     1      10.025  47.113  53.830  1.00  0.00     0.161 C 
BRANCH   5   6
ATOM      6  O   UNL     1       9.699  45.994  53.010  1.00  0.00    -0.385 OA
ATOM      7  C   UNL     1      10.290  46.097  51.721  1.00  0.00     0.194 C 
ENDBRANCH   5   6
ENDBRANCH   4   5
ENDBRANCH   3   4
ENDBRANCH   1   3
BRANCH   1   8
ATOM      8  C   UNL     1       6.138  45.995  52.494  1.00  0.00     0.226 A 
ATOM      9  N   UNL     1       5.051  45.635  53.199  1.00  0.00    -0.195 NA
ATOM     10  N   UNL     1       6.642  45.331  51.445  1.00  0.00    -0.193 NA
ATOM     11  C   UNL     1       4.341  44.521  52.877  1.00  0.00     0.147 A 
ATOM     12  C   UNL     1       5.935  44.235  51.138  1.00  0.00     0.165 A 
ATOM     13  C   UNL     1       4.808  43.774  51.788  1.00  0.00     0.082 A 
ATOM     14  N   UNL     1       6.178  43.349  50.125  1.00  0.00    -0.250 N 
ATOM     15  C   UNL     1       4.458  42.600  51.087  1.00  0.00     0.149 A 
ATOM     16  N   UNL     1       5.289  42.329  50.074  1.00  0.00    -0.179 NA
ATOM     17  C   UNL     1       7.246  43.407  49.159  1.00  0.00     0.176 C 
BRANCH  11  18
ATOM     18  N   UNL     1       3.214  44.120  53.610  1.00  0.00    -0.339 N 
ATOM     19  H   UNL     1       3.427  43.804  54.545  1.00  0.00     0.168 HD
BRANCH  18  20
ATOM     20  C   UNL     1       1.855  44.004  53.266  1.00  0.00     0.040 A 
ATOM     21  C   UNL     1       1.064  45.075  52.836  1.00  0.00     0.030 A 
ATOM     22  C   UNL     1       1.237  42.749  53.404  1.00  0.00     0.030 A 
ATOM     23  C   UNL     1      -0.292  44.903  52.534  1.00  0.00     0.048 A 
ATOM     24  C   UNL     1      -0.117  42.570  53.105  1.00  0.00     0.048 A 
ATOM     25  C   UNL     1      -0.872  43.649  52.672  1.00  0.00     0.115 A 
BRANCH  25  26
ATOM     26  O   UNL     1      -2.188  43.436  52.390  1.00  0.00    -0.508 OA
ATOM     27  H   UNL     1      -2.719  44.048  52.927  1.00  0.00     0.293 HD
ENDBRANCH  25  26
ENDBRANCH  18  20
ENDBRANCH  11  18
ENDBRANCH   1   8
TORSDOF 8
ENDMDL
MODEL 20
REMARK VINA RESULT:    -6.922      2.546      6.340
REMARK INTER + INTRA:         -11.095
REMARK INTER:                 -10.651
REMARK INTRA:                  -0.444
REMARK UNBOUND:                -1.138
REMARK SMILES COCCCNc1nc(Nc2ccc(O)cc2)c2cnn(C)c2n1
REMARK SMILES IDX 6 1 5 3 4 4 3 5 2 6 1 7 7 8 8 9 24 10 9 11 23 12 18 13 21 14
REMARK SMILES IDX 19 15 20 16 22 17 10 18 11 20 12 21 17 22 13 23 16 24 14 25
REMARK SMILES IDX 15 26
REMARK H PARENT 6 2 10 19 15 27
ROOT
ATOM      1  N   UNL     1       8.605  47.398  51.736  1.00  0.00    -0.354 N 
ATOM      2  H   UNL     1       8.237  48.193  52.250  1.00  0.00     0.163 HD
ENDROOT
BRANCH   1   3
ATOM      3  C   UNL     1       9.865  46.876  52.247  1.00  0.00     0.118 C 
BRANCH   3   4
ATOM      4  C   UNL     1       9.827  46.782  53.772  1.00  0.00     0.050 C 
BRANCH   4   5
ATOM      5  C   UNL     1       9.195  48.019  54.397  1.00  0.00     0.161 C 
BRANCH   5   6
ATOM      6  O   UNL     1       9.714  48.211  55.710  1.00  0.00    -0.385 OA
ATOM      7  C   UNL     1      10.893  47.445  55.926  1.00  0.00     0.194 C 
ENDBRANCH   5   6
ENDBRANCH   4   5
ENDBRANCH   3   4
ENDBRANCH   1   3
BRANCH   1   8
ATOM      8  C   UNL     1       7.552  46.492  51.676  1.00  0.00     0.226 A 
ATOM      9  N   UNL     1       6.543  46.756  52.525  1.00  0.00    -0.195 NA
ATOM     10  N   UNL     1       7.604  45.459  50.825  1.00  0.00    -0.193 NA
ATOM     11  C   UNL     1       5.441  45.962  52.576  1.00  0.00     0.147 A 
ATOM     12  C   UNL     1       6.513  44.682  50.887  1.00  0.00     0.165 A 
ATOM     13  C   UNL     1       5.422  44.860  51.713  1.00  0.00     0.082 A 
ATOM     14  N   UNL     1       6.253  43.560  50.149  1.00  0.00    -0.250 N 
ATOM     15  C   UNL     1       4.566  43.783  51.395  1.00  0.00     0.149 A 
ATOM     16  N   UNL     1       5.064  42.982  50.446  1.00  0.00    -0.179 NA
ATOM     17  C   UNL     1       7.093  42.972  49.137  1.00  0.00     0.176 C 
BRANCH  11  18
ATOM     18  N   UNL     1       4.385  46.212  53.466  1.00  0.00    -0.339 N 
ATOM     19  H   UNL     1       4.648  46.773  54.264  1.00  0.00     0.168 HD
BRANCH  18  20
ATOM     20  C   UNL     1       3.051  45.771  53.497  1.00  0.00     0.040 A 
ATOM     21  C   UNL     1       2.087  46.128  52.548  1.00  0.00     0.030 A 
ATOM     22  C   UNL     1       2.642  44.956  54.567  1.00  0.00     0.030 A 
ATOM     23  C   UNL     1       0.765  45.678  52.647  1.00  0.00     0.048 A 
ATOM     24  C   UNL     1       1.323  44.503  54.674  1.00  0.00     0.048 A 
ATOM     25  C   UNL     1       0.394  44.867  53.711  1.00  0.00     0.115 A 
BRANCH  25  26
ATOM     26  O   UNL     1      -0.881  44.407  53.848  1.00  0.00    -0.508 OA
ATOM     27  H   UNL     1      -1.355  44.995  54.459  1.00  0.00     0.293 HD
ENDBRANCH  25  26
ENDBRANCH  18  20
ENDBRANCH  11  18
ENDBRANCH   1   8
TORSDOF 8
ENDMDL
