MODEL 1
REMARK VINA RESULT:    -8.181      0.000      0.000
REMARK INTER + INTRA:         -12.777
REMARK INTER:                 -11.529
REMARK INTRA:                  -1.248
REMARK UNBOUND:                -1.248
REMARK SMILES COc1ccc(Nc2nc(NCCC(C)C)nc3c2cnn3C)cc1
REMARK SMILES IDX 8 1 9 2 10 3 17 4 18 5 19 6 20 7 21 8 22 9 23 10 7 11 6 13
REMARK SMILES IDX 3 14 4 15 25 16 5 17 24 18 2 19 1 20 11 21 12 23 13 24 14 25
REMARK SMILES IDX 15 26 16 27
REMARK H PARENT 7 12 11 22
ROOT
ATOM      1  C   UNL     1       6.780  45.687  51.013  1.00  0.00     0.147 A 
ATOM      2  N   UNL     1       5.576  45.717  51.640  1.00  0.00    -0.195 NA
ATOM      3  C   UNL     1       4.685  44.727  51.444  1.00  0.00     0.226 A 
ATOM      4  N   UNL     1       4.867  43.657  50.659  1.00  0.00    -0.193 NA
ATOM      5  C   UNL     1       6.077  43.631  50.083  1.00  0.00     0.165 A 
ATOM      6  C   UNL     1       7.068  44.582  50.210  1.00  0.00     0.082 A 
ATOM      7  C   UNL     1       8.140  44.075  49.447  1.00  0.00     0.149 A 
ATOM      8  N   UNL     1       7.849  42.913  48.849  1.00  0.00    -0.179 NA
ATOM      9  N   UNL     1       6.586  42.662  49.262  1.00  0.00    -0.250 N 
ATOM     10  C   UNL     1       5.925  41.454  48.837  1.00  0.00     0.176 C 
ENDROOT
BRANCH   1  11
ATOM     11  N   UNL     1       7.660  46.744  51.283  1.00  0.00    -0.339 N 
ATOM     12  H   UNL     1       8.226  46.898  50.453  1.00  0.00     0.168 HD
BRANCH  11  13
ATOM     13  C   UNL     1       8.381  47.025  52.459  1.00  0.00     0.040 A 
ATOM     14  C   UNL     1       9.735  47.661  54.858  1.00  0.00     0.119 A 
ATOM     15  C   UNL     1      10.329  46.828  53.913  1.00  0.00     0.048 A 
ATOM     16  C   UNL     1       8.467  48.183  54.597  1.00  0.00     0.048 A 
ATOM     17  C   UNL     1       9.657  46.516  52.724  1.00  0.00     0.030 A 
ATOM     18  C   UNL     1       7.799  47.870  53.410  1.00  0.00     0.030 A 
BRANCH  14  19
ATOM     19  O   UNL     1      10.277  48.042  56.053  1.00  0.00    -0.497 OA
ATOM     20  C   UNL     1      11.441  47.347  56.481  1.00  0.00     0.278 C 
ENDBRANCH  14  19
ENDBRANCH  11  13
ENDBRANCH   1  11
BRANCH   3  21
ATOM     21  N   UNL     1       3.490  44.886  52.136  1.00  0.00    -0.354 N 
ATOM     22  H   UNL     1       2.760  44.625  51.482  1.00  0.00     0.163 HD
BRANCH  21  23
ATOM     23  C   UNL     1       3.416  44.243  53.439  1.00  0.00     0.116 C 
BRANCH  23  24
ATOM     24  C   UNL     1       3.036  45.262  54.518  1.00  0.00     0.024 C 
BRANCH  24  25
ATOM     25  C   UNL     1       4.225  45.948  55.219  1.00  0.00    -0.016 C 
ATOM     26  C   UNL     1       4.529  47.324  54.626  1.00  0.00     0.007 C 
ATOM     27  C   UNL     1       5.482  45.079  55.227  1.00  0.00     0.007 C 
ENDBRANCH  24  25
ENDBRANCH  23  24
ENDBRANCH  21  23
ENDBRANCH   3  21
TORSDOF 7
ENDMDL
MODEL 2
REMARK VINA RESULT:    -8.133      2.979      6.199
REMARK INTER + INTRA:         -12.710
REMARK INTER:                 -11.774
REMARK INTRA:                  -0.936
REMARK UNBOUND:                -1.248
REMARK SMILES COc1ccc(Nc2nc(NCCC(C)C)nc3c2cnn3C)cc1
REMARK SMILES IDX 8 1 9 2 10 3 17 4 18 5 19 6 20 7 21 8 22 9 23 10 7 11 6 13
REMARK SMILES IDX 3 14 4 15 25 16 5 17 24 18 2 19 1 20 11 21 12 23 13 24 14 25
REMARK SMILES IDX 15 26 16 27
REMARK H PARENT 7 12 11 22
ROOT
ATOM      1  C   UNL     1       6.712  45.960  52.203  1.00  0.00     0.147 A 
ATOM      2  N   UNL     1       5.652  46.185  53.019  1.00  0.00    -0.195 NA
ATOM      3  C   UNL     1       5.835  46.753  54.227  1.00  0.00     0.226 A 
ATOM      4  N   UNL     1       7.010  47.143  54.736  1.00  0.00    -0.193 NA
ATOM      5  C   UNL     1       8.036  46.946  53.894  1.00  0.00     0.165 A 
ATOM      6  C   UNL     1       7.970  46.379  52.639  1.00  0.00     0.082 A 
ATOM      7  C   UNL     1       9.296  46.434  52.161  1.00  0.00     0.149 A 
ATOM      8  N   UNL     1      10.149  46.959  53.050  1.00  0.00    -0.179 NA
ATOM      9  N   UNL     1       9.349  47.271  54.096  1.00  0.00    -0.250 N 
ATOM     10  C   UNL     1       9.917  47.898  55.262  1.00  0.00     0.176 C 
ENDROOT
BRANCH   1  11
ATOM     11  N   UNL     1       6.439  45.382  50.955  1.00  0.00    -0.339 N 
ATOM     12  H   UNL     1       6.083  46.113  50.344  1.00  0.00     0.168 HD
BRANCH  11  13
ATOM     13  C   UNL     1       5.857  44.134  50.660  1.00  0.00     0.040 A 
ATOM     14  C   UNL     1       4.595  41.658  50.140  1.00  0.00     0.119 A 
ATOM     15  C   UNL     1       5.831  41.953  49.569  1.00  0.00     0.048 A 
ATOM     16  C   UNL     1       3.997  42.599  50.979  1.00  0.00     0.048 A 
ATOM     17  C   UNL     1       6.456  43.180  49.829  1.00  0.00     0.030 A 
ATOM     18  C   UNL     1       4.622  43.822  51.238  1.00  0.00     0.030 A 
BRANCH  14  19
ATOM     19  O   UNL     1       3.881  40.506  49.969  1.00  0.00    -0.497 OA
ATOM     20  C   UNL     1       3.495  40.181  48.639  1.00  0.00     0.278 C 
ENDBRANCH  14  19
ENDBRANCH  11  13
ENDBRANCH   1  11
BRANCH   3  21
ATOM     21  N   UNL     1       4.668  46.916  54.966  1.00  0.00    -0.354 N 
ATOM     22  H   UNL     1       4.055  47.478  54.387  1.00  0.00     0.163 HD
BRANCH  21  23
ATOM     23  C   UNL     1       4.076  45.698  55.498  1.00  0.00     0.116 C 
BRANCH  23  24
ATOM     24  C   UNL     1       2.588  45.626  55.139  1.00  0.00     0.024 C 
BRANCH  24  25
ATOM     25  C   UNL     1       2.273  44.982  53.775  1.00  0.00    -0.016 C 
ATOM     26  C   UNL     1       1.783  46.006  52.751  1.00  0.00     0.007 C 
ATOM     27  C   UNL     1       1.284  43.823  53.888  1.00  0.00     0.007 C 
ENDBRANCH  24  25
ENDBRANCH  23  24
ENDBRANCH  21  23
ENDBRANCH   3  21
TORSDOF 7
ENDMDL
MODEL 3
REMARK VINA RESULT:    -8.028      3.732      7.933
REMARK INTER + INTRA:         -12.561
REMARK INTER:                 -11.908
REMARK INTRA:                  -0.653
REMARK UNBOUND:                -1.248
REMARK SMILES COc1ccc(Nc2nc(NCCC(C)C)nc3c2cnn3C)cc1
REMARK SMILES IDX 8 1 9 2 10 3 17 4 18 5 19 6 20 7 21 8 22 9 23 10 7 11 6 13
REMARK SMILES IDX 3 14 4 15 25 16 5 17 24 18 2 19 1 20 11 21 12 23 13 24 14 25
REMARK SMILES IDX 15 26 16 27
REMARK H PARENT 7 12 11 22
ROOT
ATOM      1  C   UNL     1       5.845  42.958  50.041  1.00  0.00     0.147 A 
ATOM      2  N   UNL     1       6.694  44.016  50.076  1.00  0.00    -0.195 NA
ATOM      3  C   UNL     1       6.489  45.021  50.949  1.00  0.00     0.226 A 
ATOM      4  N   UNL     1       5.487  45.093  51.835  1.00  0.00    -0.193 NA
ATOM      5  C   UNL     1       4.686  44.018  51.807  1.00  0.00     0.165 A 
ATOM      6  C   UNL     1       4.798  42.932  50.964  1.00  0.00     0.082 A 
ATOM      7  C   UNL     1       3.750  42.075  51.358  1.00  0.00     0.149 A 
ATOM      8  N   UNL     1       3.003  42.583  52.346  1.00  0.00    -0.179 NA
ATOM      9  N   UNL     1       3.605  43.767  52.607  1.00  0.00    -0.250 N 
ATOM     10  C   UNL     1       3.090  44.610  53.656  1.00  0.00     0.176 C 
ENDROOT
BRANCH   1  11
ATOM     11  N   UNL     1       6.136  41.944  49.118  1.00  0.00    -0.339 N 
ATOM     12  H   UNL     1       7.129  41.989  48.908  1.00  0.00     0.168 HD
BRANCH  11  13
ATOM     13  C   UNL     1       5.391  41.514  48.003  1.00  0.00     0.040 A 
ATOM     14  C   UNL     1       3.972  40.717  45.691  1.00  0.00     0.119 A 
ATOM     15  C   UNL     1       3.567  40.283  46.952  1.00  0.00     0.048 A 
ATOM     16  C   UNL     1       5.082  41.557  45.590  1.00  0.00     0.048 A 
ATOM     17  C   UNL     1       4.271  40.682  48.096  1.00  0.00     0.030 A 
ATOM     18  C   UNL     1       5.782  41.953  46.733  1.00  0.00     0.030 A 
BRANCH  14  19
ATOM     19  O   UNL     1       3.379  40.404  44.501  1.00  0.00    -0.497 OA
ATOM     20  C   UNL     1       3.199  39.023  44.216  1.00  0.00     0.278 C 
ENDBRANCH  14  19
ENDBRANCH  11  13
ENDBRANCH   1  11
BRANCH   3  21
ATOM     21  N   UNL     1       7.424  46.047  50.872  1.00  0.00    -0.354 N 
ATOM     22  H   UNL     1       7.474  46.297  49.891  1.00  0.00     0.163 HD
BRANCH  21  23
ATOM     23  C   UNL     1       7.226  47.160  51.788  1.00  0.00     0.116 C 
BRANCH  23  24
ATOM     24  C   UNL     1       8.575  47.698  52.276  1.00  0.00     0.024 C 
BRANCH  24  25
ATOM     25  C   UNL     1       9.494  46.655  52.942  1.00  0.00    -0.016 C 
ATOM     26  C   UNL     1      10.074  47.158  54.265  1.00  0.00     0.007 C 
ATOM     27  C   UNL     1      10.611  46.180  52.014  1.00  0.00     0.007 C 
ENDBRANCH  24  25
ENDBRANCH  23  24
ENDBRANCH  21  23
ENDBRANCH   3  21
TORSDOF 7
ENDMDL
MODEL 4
REMARK VINA RESULT:    -7.995      3.743      7.912
REMARK INTER + INTRA:         -12.514
REMARK INTER:                 -11.770
REMARK INTRA:                  -0.744
REMARK UNBOUND:                -1.248
REMARK SMILES COc1ccc(Nc2nc(NCCC(C)C)nc3c2cnn3C)cc1
REMARK SMILES IDX 8 1 9 2 10 3 17 4 18 5 19 6 20 7 21 8 22 9 23 10 7 11 6 13
REMARK SMILES IDX 3 14 4 15 25 16 5 17 24 18 2 19 1 20 11 21 12 23 13 24 14 25
REMARK SMILES IDX 15 26 16 27
REMARK H PARENT 7 12 11 22
ROOT
ATOM      1  C   UNL     1       5.767  42.901  50.099  1.00  0.00     0.147 A 
ATOM      2  N   UNL     1       6.623  43.954  50.076  1.00  0.00    -0.195 NA
ATOM      3  C   UNL     1       6.444  44.991  50.917  1.00  0.00     0.226 A 
ATOM      4  N   UNL     1       5.463  45.102  51.822  1.00  0.00    -0.193 NA
ATOM      5  C   UNL     1       4.655  44.032  51.851  1.00  0.00     0.165 A 
ATOM      6  C   UNL     1       4.741  42.915  51.045  1.00  0.00     0.082 A 
ATOM      7  C   UNL     1       3.698  42.079  51.493  1.00  0.00     0.149 A 
ATOM      8  N   UNL     1       2.977  42.628  52.479  1.00  0.00    -0.179 NA
ATOM      9  N   UNL     1       3.591  43.817  52.683  1.00  0.00    -0.250 N 
ATOM     10  C   UNL     1       3.105  44.700  53.713  1.00  0.00     0.176 C 
ENDROOT
BRANCH   1  11
ATOM     11  N   UNL     1       6.032  41.852  49.207  1.00  0.00    -0.339 N 
ATOM     12  H   UNL     1       7.040  41.778  49.103  1.00  0.00     0.168 HD
BRANCH  11  13
ATOM     13  C   UNL     1       5.363  41.504  48.018  1.00  0.00     0.040 A 
ATOM     14  C   UNL     1       3.940  40.739  45.698  1.00  0.00     0.119 A 
ATOM     15  C   UNL     1       5.063  41.557  45.598  1.00  0.00     0.048 A 
ATOM     16  C   UNL     1       3.536  40.297  46.958  1.00  0.00     0.048 A 
ATOM     17  C   UNL     1       5.768  41.933  46.749  1.00  0.00     0.030 A 
ATOM     18  C   UNL     1       4.240  40.673  48.105  1.00  0.00     0.030 A 
BRANCH  14  19
ATOM     19  O   UNL     1       3.166  40.301  44.660  1.00  0.00    -0.497 OA
ATOM     20  C   UNL     1       1.772  40.568  44.741  1.00  0.00     0.278 C 
ENDBRANCH  14  19
ENDBRANCH  11  13
ENDBRANCH   1  11
BRANCH   3  21
ATOM     21  N   UNL     1       7.383  46.007  50.782  1.00  0.00    -0.354 N 
ATOM     22  H   UNL     1       7.379  46.253  49.798  1.00  0.00     0.163 HD
BRANCH  21  23
ATOM     23  C   UNL     1       7.248  47.126  51.702  1.00  0.00     0.116 C 
BRANCH  23  24
ATOM     24  C   UNL     1       8.629  47.641  52.124  1.00  0.00     0.024 C 
BRANCH  24  25
ATOM     25  C   UNL     1       9.526  46.607  52.832  1.00  0.00    -0.016 C 
ATOM     26  C   UNL     1      10.113  47.149  54.135  1.00  0.00     0.007 C 
ATOM     27  C   UNL     1      10.635  46.075  51.925  1.00  0.00     0.007 C 
ENDBRANCH  24  25
ENDBRANCH  23  24
ENDBRANCH  21  23
ENDBRANCH   3  21
TORSDOF 7
ENDMDL
MODEL 5
REMARK VINA RESULT:    -7.979      3.780      7.344
REMARK INTER + INTRA:         -12.492
REMARK INTER:                 -11.717
REMARK INTRA:                  -0.775
REMARK UNBOUND:                -1.248
REMARK SMILES COc1ccc(Nc2nc(NCCC(C)C)nc3c2cnn3C)cc1
REMARK SMILES IDX 8 1 9 2 10 3 17 4 18 5 19 6 20 7 21 8 22 9 23 10 7 11 6 13
REMARK SMILES IDX 3 14 4 15 25 16 5 17 24 18 2 19 1 20 11 21 12 23 13 24 14 25
REMARK SMILES IDX 15 26 16 27
REMARK H PARENT 7 12 11 22
ROOT
ATOM      1  C   UNL     1       3.920  44.211  52.925  1.00  0.00     0.147 A 
ATOM      2  N   UNL     1       4.495  45.440  52.970  1.00  0.00    -0.195 NA
ATOM      3  C   UNL     1       5.482  45.757  52.110  1.00  0.00     0.226 A 
ATOM      4  N   UNL     1       5.983  44.952  51.165  1.00  0.00    -0.193 NA
ATOM      5  C   UNL     1       5.371  43.760  51.116  1.00  0.00     0.165 A 
ATOM      6  C   UNL     1       4.352  43.325  51.938  1.00  0.00     0.082 A 
ATOM      7  C   UNL     1       4.042  42.036  51.458  1.00  0.00     0.149 A 
ATOM      8  N   UNL     1       4.821  41.658  50.437  1.00  0.00    -0.179 NA
ATOM      9  N   UNL     1       5.618  42.735  50.243  1.00  0.00    -0.250 N 
ATOM     10  C   UNL     1       6.594  42.716  49.184  1.00  0.00     0.176 C 
ENDROOT
BRANCH   1  11
ATOM     11  N   UNL     1       2.887  43.963  53.840  1.00  0.00    -0.339 N 
ATOM     12  H   UNL     1       3.229  43.291  54.522  1.00  0.00     0.168 HD
BRANCH  11  13
ATOM     13  C   UNL     1       1.508  43.803  53.605  1.00  0.00     0.040 A 
ATOM     14  C   UNL     1      -1.244  43.360  53.130  1.00  0.00     0.119 A 
ATOM     15  C   UNL     1      -0.747  44.657  53.239  1.00  0.00     0.048 A 
ATOM     16  C   UNL     1      -0.361  42.286  53.249  1.00  0.00     0.048 A 
ATOM     17  C   UNL     1       0.617  44.874  53.472  1.00  0.00     0.030 A 
ATOM     18  C   UNL     1       1.000  42.505  53.481  1.00  0.00     0.030 A 
BRANCH  14  19
ATOM     19  O   UNL     1      -2.545  43.010  52.906  1.00  0.00    -0.497 OA
ATOM     20  C   UNL     1      -2.897  42.659  51.574  1.00  0.00     0.278 C 
ENDBRANCH  14  19
ENDBRANCH  11  13
ENDBRANCH   1  11
BRANCH   3  21
ATOM     21  N   UNL     1       5.991  47.041  52.271  1.00  0.00    -0.354 N 
ATOM     22  H   UNL     1       5.212  47.605  52.593  1.00  0.00     0.163 HD
BRANCH  21  23
ATOM     23  C   UNL     1       7.206  47.150  53.064  1.00  0.00     0.116 C 
BRANCH  23  24
ATOM     24  C   UNL     1       8.347  47.726  52.218  1.00  0.00     0.024 C 
BRANCH  24  25
ATOM     25  C   UNL     1       9.759  47.248  52.609  1.00  0.00    -0.016 C 
ATOM     26  C   UNL     1      10.205  46.034  51.793  1.00  0.00     0.007 C 
ATOM     27  C   UNL     1       9.887  46.963  54.105  1.00  0.00     0.007 C 
ENDBRANCH  24  25
ENDBRANCH  23  24
ENDBRANCH  21  23
ENDBRANCH   3  21
TORSDOF 7
ENDMDL
MODEL 6
REMARK VINA RESULT:    -7.975      1.625      4.996
REMARK INTER + INTRA:         -12.487
REMARK INTER:                 -11.917
REMARK INTRA:                  -0.569
REMARK UNBOUND:                -1.248
REMARK SMILES COc1ccc(Nc2nc(NCCC(C)C)nc3c2cnn3C)cc1
REMARK SMILES IDX 8 1 9 2 10 3 17 4 18 5 19 6 20 7 21 8 22 9 23 10 7 11 6 13
REMARK SMILES IDX 3 14 4 15 25 16 5 17 24 18 2 19 1 20 11 21 12 23 13 24 14 25
REMARK SMILES IDX 15 26 16 27
REMARK H PARENT 7 12 11 22
ROOT
ATOM      1  C   UNL     1       6.359  45.001  50.954  1.00  0.00     0.147 A 
ATOM      2  N   UNL     1       6.767  43.891  50.286  1.00  0.00    -0.195 NA
ATOM      3  C   UNL     1       5.933  42.844  50.140  1.00  0.00     0.226 A 
ATOM      4  N   UNL     1       4.679  42.774  50.603  1.00  0.00    -0.193 NA
ATOM      5  C   UNL     1       4.287  43.896  51.224  1.00  0.00     0.165 A 
ATOM      6  C   UNL     1       5.048  45.028  51.431  1.00  0.00     0.082 A 
ATOM      7  C   UNL     1       4.175  45.920  52.087  1.00  0.00     0.149 A 
ATOM      8  N   UNL     1       2.966  45.393  52.316  1.00  0.00    -0.179 NA
ATOM      9  N   UNL     1       3.061  44.159  51.770  1.00  0.00    -0.250 N 
ATOM     10  C   UNL     1       1.919  43.280  51.796  1.00  0.00     0.176 C 
ENDROOT
BRANCH   1  11
ATOM     11  N   UNL     1       7.278  46.055  51.049  1.00  0.00    -0.339 N 
ATOM     12  H   UNL     1       7.869  46.029  50.222  1.00  0.00     0.168 HD
BRANCH  11  13
ATOM     13  C   UNL     1       7.983  46.524  52.173  1.00  0.00     0.040 A 
ATOM     14  C   UNL     1       9.291  47.485  54.488  1.00  0.00     0.119 A 
ATOM     15  C   UNL     1      10.029  47.084  53.377  1.00  0.00     0.048 A 
ATOM     16  C   UNL     1       7.899  47.413  54.437  1.00  0.00     0.048 A 
ATOM     17  C   UNL     1       9.379  46.611  52.230  1.00  0.00     0.030 A 
ATOM     18  C   UNL     1       7.252  46.940  53.291  1.00  0.00     0.030 A 
BRANCH  14  19
ATOM     19  O   UNL     1       9.798  47.962  55.664  1.00  0.00    -0.497 OA
ATOM     20  C   UNL     1      11.041  47.423  56.094  1.00  0.00     0.278 C 
ENDBRANCH  14  19
ENDBRANCH  11  13
ENDBRANCH   1  11
BRANCH   3  21
ATOM     21  N   UNL     1       6.479  41.770  49.446  1.00  0.00    -0.354 N 
ATOM     22  H   UNL     1       6.770  41.107  50.156  1.00  0.00     0.163 HD
BRANCH  21  23
ATOM     23  C   UNL     1       5.659  41.216  48.380  1.00  0.00     0.116 C 
BRANCH  23  24
ATOM     24  C   UNL     1       5.726  42.109  47.136  1.00  0.00     0.024 C 
BRANCH  24  25
ATOM     25  C   UNL     1       5.234  41.454  45.831  1.00  0.00    -0.016 C 
ATOM     26  C   UNL     1       5.170  42.450  44.673  1.00  0.00     0.007 C 
ATOM     27  C   UNL     1       3.891  40.745  46.002  1.00  0.00     0.007 C 
ENDBRANCH  24  25
ENDBRANCH  23  24
ENDBRANCH  21  23
ENDBRANCH   3  21
TORSDOF 7
ENDMDL
MODEL 7
REMARK VINA RESULT:    -7.959      2.700      5.997
REMARK INTER + INTRA:         -12.464
REMARK INTER:                 -11.730
REMARK INTRA:                  -0.734
REMARK UNBOUND:                -1.248
REMARK SMILES COc1ccc(Nc2nc(NCCC(C)C)nc3c2cnn3C)cc1
REMARK SMILES IDX 8 1 9 2 10 3 17 4 18 5 19 6 20 7 21 8 22 9 23 10 7 11 6 13
REMARK SMILES IDX 3 14 4 15 25 16 5 17 24 18 2 19 1 20 11 21 12 23 13 24 14 25
REMARK SMILES IDX 15 26 16 27
REMARK H PARENT 7 12 11 22
ROOT
ATOM      1  C   UNL     1       3.738  44.678  51.634  1.00  0.00     0.147 A 
ATOM      2  N   UNL     1       4.682  45.650  51.566  1.00  0.00    -0.195 NA
ATOM      3  C   UNL     1       5.925  45.359  51.135  1.00  0.00     0.226 A 
ATOM      4  N   UNL     1       6.353  44.151  50.744  1.00  0.00    -0.193 NA
ATOM      5  C   UNL     1       5.390  43.218  50.784  1.00  0.00     0.165 A 
ATOM      6  C   UNL     1       4.088  43.398  51.201  1.00  0.00     0.082 A 
ATOM      7  C   UNL     1       3.485  42.137  51.017  1.00  0.00     0.149 A 
ATOM      8  N   UNL     1       4.337  41.213  50.555  1.00  0.00    -0.179 NA
ATOM      9  N   UNL     1       5.492  41.905  50.413  1.00  0.00    -0.250 N 
ATOM     10  C   UNL     1       6.661  41.238  49.899  1.00  0.00     0.176 C 
ENDROOT
BRANCH   1  11
ATOM     11  N   UNL     1       2.464  45.064  52.073  1.00  0.00    -0.339 N 
ATOM     12  H   UNL     1       2.197  45.901  51.562  1.00  0.00     0.168 HD
BRANCH  11  13
ATOM     13  C   UNL     1       1.935  45.066  53.378  1.00  0.00     0.040 A 
ATOM     14  C   UNL     1       0.979  45.120  56.038  1.00  0.00     0.119 A 
ATOM     15  C   UNL     1       0.187  44.605  55.015  1.00  0.00     0.048 A 
ATOM     16  C   UNL     1       2.254  45.598  55.731  1.00  0.00     0.048 A 
ATOM     17  C   UNL     1       0.664  44.577  53.698  1.00  0.00     0.030 A 
ATOM     18  C   UNL     1       2.727  45.569  54.416  1.00  0.00     0.030 A 
BRANCH  14  19
ATOM     19  O   UNL     1       0.637  45.206  57.359  1.00  0.00    -0.497 OA
ATOM     20  C   UNL     1       0.948  46.424  58.025  1.00  0.00     0.278 C 
ENDBRANCH  14  19
ENDBRANCH  11  13
ENDBRANCH   1  11
BRANCH   3  21
ATOM     21  N   UNL     1       6.797  46.442  51.125  1.00  0.00    -0.354 N 
ATOM     22  H   UNL     1       6.581  46.957  50.279  1.00  0.00     0.163 HD
BRANCH  21  23
ATOM     23  C   UNL     1       6.840  47.237  52.343  1.00  0.00     0.116 C 
BRANCH  23  24
ATOM     24  C   UNL     1       8.256  47.771  52.583  1.00  0.00     0.024 C 
BRANCH  24  25
ATOM     25  C   UNL     1       9.278  46.725  53.068  1.00  0.00    -0.016 C 
ATOM     26  C   UNL     1      10.007  47.174  54.334  1.00  0.00     0.007 C 
ATOM     27  C   UNL     1      10.281  46.338  51.981  1.00  0.00     0.007 C 
ENDBRANCH  24  25
ENDBRANCH  23  24
ENDBRANCH  21  23
ENDBRANCH   3  21
TORSDOF 7
ENDMDL
MODEL 8
REMARK VINA RESULT:    -7.945      3.694      7.167
REMARK INTER + INTRA:         -12.444
REMARK INTER:                 -11.685
REMARK INTRA:                  -0.760
REMARK UNBOUND:                -1.248
REMARK SMILES COc1ccc(Nc2nc(NCCC(C)C)nc3c2cnn3C)cc1
REMARK SMILES IDX 8 1 9 2 10 3 17 4 18 5 19 6 20 7 21 8 22 9 23 10 7 11 6 13
REMARK SMILES IDX 3 14 4 15 25 16 5 17 24 18 2 19 1 20 11 21 12 23 13 24 14 25
REMARK SMILES IDX 15 26 16 27
REMARK H PARENT 7 12 11 22
ROOT
ATOM      1  C   UNL     1       4.443  43.827  52.245  1.00  0.00     0.147 A 
ATOM      2  N   UNL     1       4.790  45.101  52.561  1.00  0.00    -0.195 NA
ATOM      3  C   UNL     1       5.784  45.717  51.893  1.00  0.00     0.226 A 
ATOM      4  N   UNL     1       6.505  45.183  50.898  1.00  0.00    -0.193 NA
ATOM      5  C   UNL     1       6.117  43.940  50.580  1.00  0.00     0.165 A 
ATOM      6  C   UNL     1       5.115  43.211  51.188  1.00  0.00     0.082 A 
ATOM      7  C   UNL     1       5.080  41.998  50.469  1.00  0.00     0.149 A 
ATOM      8  N   UNL     1       6.006  41.937  49.505  1.00  0.00    -0.179 NA
ATOM      9  N   UNL     1       6.619  43.141  49.590  1.00  0.00    -0.250 N 
ATOM     10  C   UNL     1       7.680  43.465  48.671  1.00  0.00     0.176 C 
ENDROOT
BRANCH   1  11
ATOM     11  N   UNL     1       3.386  43.261  52.972  1.00  0.00    -0.339 N 
ATOM     12  H   UNL     1       3.732  42.414  53.417  1.00  0.00     0.168 HD
BRANCH  11  13
ATOM     13  C   UNL     1       2.028  43.143  52.622  1.00  0.00     0.040 A 
ATOM     14  C   UNL     1      -0.676  42.967  51.815  1.00  0.00     0.119 A 
ATOM     15  C   UNL     1      -0.273  42.451  53.044  1.00  0.00     0.048 A 
ATOM     16  C   UNL     1       0.272  43.579  50.995  1.00  0.00     0.048 A 
ATOM     17  C   UNL     1       1.068  42.542  53.444  1.00  0.00     0.030 A 
ATOM     18  C   UNL     1       1.609  43.668  51.395  1.00  0.00     0.030 A 
BRANCH  14  19
ATOM     19  O   UNL     1      -1.944  42.943  51.307  1.00  0.00    -0.497 OA
ATOM     20  C   UNL     1      -2.074  43.058  49.895  1.00  0.00     0.278 C 
ENDBRANCH  14  19
ENDBRANCH  11  13
ENDBRANCH   1  11
BRANCH   3  21
ATOM     21  N   UNL     1       6.046  47.013  52.323  1.00  0.00    -0.354 N 
ATOM     22  H   UNL     1       5.171  47.356  52.703  1.00  0.00     0.163 HD
BRANCH  21  23
ATOM     23  C   UNL     1       7.204  47.176  53.188  1.00  0.00     0.116 C 
BRANCH  23  24
ATOM     24  C   UNL     1       8.376  47.777  52.405  1.00  0.00     0.024 C 
BRANCH  24  25
ATOM     25  C   UNL     1       9.771  47.265  52.815  1.00  0.00    -0.016 C 
ATOM     26  C   UNL     1      10.233  46.093  51.950  1.00  0.00     0.007 C 
ATOM     27  C   UNL     1       9.847  46.899  54.297  1.00  0.00     0.007 C 
ENDBRANCH  24  25
ENDBRANCH  23  24
ENDBRANCH  21  23
ENDBRANCH   3  21
TORSDOF 7
ENDMDL
MODEL 9
REMARK VINA RESULT:    -7.927      3.435      6.851
REMARK INTER + INTRA:         -12.419
REMARK INTER:                 -11.650
REMARK INTRA:                  -0.769
REMARK UNBOUND:                -1.248
REMARK SMILES COc1ccc(Nc2nc(NCCC(C)C)nc3c2cnn3C)cc1
REMARK SMILES IDX 8 1 9 2 10 3 17 4 18 5 19 6 20 7 21 8 22 9 23 10 7 11 6 13
REMARK SMILES IDX 3 14 4 15 25 16 5 17 24 18 2 19 1 20 11 21 12 23 13 24 14 25
REMARK SMILES IDX 15 26 16 27
REMARK H PARENT 7 12 11 22
ROOT
ATOM      1  C   UNL     1       4.383  44.242  52.635  1.00  0.00     0.147 A 
ATOM      2  N   UNL     1       5.249  45.254  52.372  1.00  0.00    -0.195 NA
ATOM      3  C   UNL     1       6.142  45.138  51.370  1.00  0.00     0.226 A 
ATOM      4  N   UNL     1       6.275  44.079  50.561  1.00  0.00    -0.193 NA
ATOM      5  C   UNL     1       5.383  43.111  50.817  1.00  0.00     0.165 A 
ATOM      6  C   UNL     1       4.424  43.118  51.809  1.00  0.00     0.082 A 
ATOM      7  C   UNL     1       3.730  41.903  51.633  1.00  0.00     0.149 A 
ATOM      8  N   UNL     1       4.226  41.159  50.636  1.00  0.00    -0.179 NA
ATOM      9  N   UNL     1       5.228  41.927  50.149  1.00  0.00    -0.250 N 
ATOM     10  C   UNL     1       5.997  41.462  49.022  1.00  0.00     0.176 C 
ENDROOT
BRANCH   1  11
ATOM     11  N   UNL     1       3.472  44.446  53.681  1.00  0.00    -0.339 N 
ATOM     12  H   UNL     1       3.760  43.864  54.463  1.00  0.00     0.168 HD
BRANCH  11  13
ATOM     13  C   UNL     1       2.072  44.584  53.628  1.00  0.00     0.040 A 
ATOM     14  C   UNL     1      -0.728  44.909  53.407  1.00  0.00     0.119 A 
ATOM     15  C   UNL     1      -0.168  44.388  54.571  1.00  0.00     0.048 A 
ATOM     16  C   UNL     1       0.115  45.276  52.358  1.00  0.00     0.048 A 
ATOM     17  C   UNL     1       1.220  44.230  54.679  1.00  0.00     0.030 A 
ATOM     18  C   UNL     1       1.499  45.117  52.468  1.00  0.00     0.030 A 
BRANCH  14  19
ATOM     19  O   UNL     1      -2.059  45.113  53.172  1.00  0.00    -0.497 OA
ATOM     20  C   UNL     1      -2.910  43.979  53.272  1.00  0.00     0.278 C 
ENDBRANCH  14  19
ENDBRANCH  11  13
ENDBRANCH   1  11
BRANCH   3  21
ATOM     21  N   UNL     1       6.976  46.240  51.216  1.00  0.00    -0.354 N 
ATOM     22  H   UNL     1       6.784  46.598  50.287  1.00  0.00     0.163 HD
BRANCH  21  23
ATOM     23  C   UNL     1       6.932  47.227  52.283  1.00  0.00     0.116 C 
BRANCH  23  24
ATOM     24  C   UNL     1       8.335  47.777  52.560  1.00  0.00     0.024 C 
BRANCH  24  25
ATOM     25  C   UNL     1       9.350  46.747  53.093  1.00  0.00    -0.016 C 
ATOM     26  C   UNL     1      10.057  47.234  54.358  1.00  0.00     0.007 C 
ATOM     27  C   UNL     1      10.372  46.330  52.036  1.00  0.00     0.007 C 
ENDBRANCH  24  25
ENDBRANCH  23  24
ENDBRANCH  21  23
ENDBRANCH   3  21
TORSDOF 7
ENDMDL
MODEL 10
REMARK VINA RESULT:    -7.825      3.007      6.410
REMARK INTER + INTRA:         -12.275
REMARK INTER:                 -11.780
REMARK INTRA:                  -0.495
REMARK UNBOUND:                -1.248
REMARK SMILES COc1ccc(Nc2nc(NCCC(C)C)nc3c2cnn3C)cc1
REMARK SMILES IDX 8 1 9 2 10 3 17 4 18 5 19 6 20 7 21 8 22 9 23 10 7 11 6 13
REMARK SMILES IDX 3 14 4 15 25 16 5 17 24 18 2 19 1 20 11 21 12 23 13 24 14 25
REMARK SMILES IDX 15 26 16 27
REMARK H PARENT 7 12 11 22
ROOT
ATOM      1  C   UNL     1       3.279  44.280  51.951  1.00  0.00     0.147 A 
ATOM      2  N   UNL     1       4.087  45.367  52.040  1.00  0.00    -0.195 NA
ATOM      3  C   UNL     1       5.364  45.299  51.617  1.00  0.00     0.226 A 
ATOM      4  N   UNL     1       5.955  44.220  51.088  1.00  0.00    -0.193 NA
ATOM      5  C   UNL     1       5.125  43.172  50.975  1.00  0.00     0.165 A 
ATOM      6  C   UNL     1       3.803  43.125  51.369  1.00  0.00     0.082 A 
ATOM      7  C   UNL     1       3.376  41.832  51.003  1.00  0.00     0.149 A 
ATOM      8  N   UNL     1       4.351  41.096  50.455  1.00  0.00    -0.179 NA
ATOM      9  N   UNL     1       5.406  41.944  50.442  1.00  0.00    -0.250 N 
ATOM     10  C   UNL     1       6.661  41.509  49.885  1.00  0.00     0.176 C 
ENDROOT
BRANCH   1  11
ATOM     11  N   UNL     1       1.958  44.436  52.394  1.00  0.00    -0.339 N 
ATOM     12  H   UNL     1       1.456  44.975  51.695  1.00  0.00     0.168 HD
BRANCH  11  13
ATOM     13  C   UNL     1       1.480  44.700  53.692  1.00  0.00     0.040 A 
ATOM     14  C   UNL     1       0.403  45.214  56.255  1.00  0.00     0.119 A 
ATOM     15  C   UNL     1       1.779  45.271  56.044  1.00  0.00     0.048 A 
ATOM     16  C   UNL     1      -0.433  44.909  55.180  1.00  0.00     0.048 A 
ATOM     17  C   UNL     1       2.310  45.018  54.772  1.00  0.00     0.030 A 
ATOM     18  C   UNL     1       0.099  44.657  53.913  1.00  0.00     0.030 A 
BRANCH  14  19
ATOM     19  O   UNL     1      -0.242  45.437  57.439  1.00  0.00    -0.497 OA
ATOM     20  C   UNL     1      -0.933  46.672  57.572  1.00  0.00     0.278 C 
ENDBRANCH  14  19
ENDBRANCH  11  13
ENDBRANCH   1  11
BRANCH   3  21
ATOM     21  N   UNL     1       6.084  46.478  51.776  1.00  0.00    -0.354 N 
ATOM     22  H   UNL     1       5.781  46.865  52.663  1.00  0.00     0.163 HD
BRANCH  21  23
ATOM     23  C   UNL     1       7.525  46.372  51.605  1.00  0.00     0.116 C 
BRANCH  23  24
ATOM     24  C   UNL     1       8.239  47.477  52.391  1.00  0.00     0.024 C 
BRANCH  24  25
ATOM     25  C   UNL     1       9.708  47.182  52.750  1.00  0.00    -0.016 C 
ATOM     26  C   UNL     1      10.286  46.036  51.919  1.00  0.00     0.007 C 
ATOM     27  C   UNL     1       9.906  46.915  54.241  1.00  0.00     0.007 C 
ENDBRANCH  24  25
ENDBRANCH  23  24
ENDBRANCH  21  23
ENDBRANCH   3  21
TORSDOF 7
ENDMDL
MODEL 11
REMARK VINA RESULT:    -7.789      2.524      5.831
REMARK INTER + INTRA:         -12.225
REMARK INTER:                 -11.282
REMARK INTRA:                  -0.943
REMARK UNBOUND:                -1.248
REMARK SMILES COc1ccc(Nc2nc(NCCC(C)C)nc3c2cnn3C)cc1
REMARK SMILES IDX 8 1 9 2 10 3 17 4 18 5 19 6 20 7 21 8 22 9 23 10 7 11 6 13
REMARK SMILES IDX 3 14 4 15 25 16 5 17 24 18 2 19 1 20 11 21 12 23 13 24 14 25
REMARK SMILES IDX 15 26 16 27
REMARK H PARENT 7 12 11 22
ROOT
ATOM      1  C   UNL     1       4.825  45.509  51.741  1.00  0.00     0.147 A 
ATOM      2  N   UNL     1       6.017  46.110  51.495  1.00  0.00    -0.195 NA
ATOM      3  C   UNL     1       7.003  45.431  50.878  1.00  0.00     0.226 A 
ATOM      4  N   UNL     1       6.933  44.162  50.457  1.00  0.00    -0.193 NA
ATOM      5  C   UNL     1       5.733  43.604  50.677  1.00  0.00     0.165 A 
ATOM      6  C   UNL     1       4.652  44.198  51.294  1.00  0.00     0.082 A 
ATOM      7  C   UNL     1       3.639  43.218  51.244  1.00  0.00     0.149 A 
ATOM      8  N   UNL     1       4.047  42.076  50.676  1.00  0.00    -0.179 NA
ATOM      9  N   UNL     1       5.328  42.344  50.331  1.00  0.00    -0.250 N 
ATOM     10  C   UNL     1       6.107  41.339  49.654  1.00  0.00     0.176 C 
ENDROOT
BRANCH   1  11
ATOM     11  N   UNL     1       3.843  46.286  52.370  1.00  0.00    -0.339 N 
ATOM     12  H   UNL     1       4.200  47.234  52.452  1.00  0.00     0.168 HD
BRANCH  11  13
ATOM     13  C   UNL     1       3.002  45.956  53.450  1.00  0.00     0.040 A 
ATOM     14  C   UNL     1       1.409  45.310  55.694  1.00  0.00     0.119 A 
ATOM     15  C   UNL     1       0.865  45.283  54.413  1.00  0.00     0.048 A 
ATOM     16  C   UNL     1       2.753  45.652  55.851  1.00  0.00     0.048 A 
ATOM     17  C   UNL     1       1.657  45.601  53.301  1.00  0.00     0.030 A 
ATOM     18  C   UNL     1       3.541  45.969  54.741  1.00  0.00     0.030 A 
BRANCH  14  19
ATOM     19  O   UNL     1       0.751  45.025  56.857  1.00  0.00    -0.497 OA
ATOM     20  C   UNL     1      -0.668  44.955  56.793  1.00  0.00     0.278 C 
ENDBRANCH  14  19
ENDBRANCH  11  13
ENDBRANCH   1  11
BRANCH   3  21
ATOM     21  N   UNL     1       8.174  46.159  50.698  1.00  0.00    -0.354 N 
ATOM     22  H   UNL     1       8.256  46.300  49.698  1.00  0.00     0.163 HD
BRANCH  21  23
ATOM     23  C   UNL     1       8.308  47.361  51.507  1.00  0.00     0.116 C 
BRANCH  23  24
ATOM     24  C   UNL     1       9.465  47.211  52.501  1.00  0.00     0.024 C 
BRANCH  24  25
ATOM     25  C   UNL     1       9.140  47.619  53.951  1.00  0.00    -0.016 C 
ATOM     26  C   UNL     1      10.264  47.251  54.920  1.00  0.00     0.007 C 
ATOM     27  C   UNL     1       7.807  47.050  54.436  1.00  0.00     0.007 C 
ENDBRANCH  24  25
ENDBRANCH  23  24
ENDBRANCH  21  23
ENDBRANCH   3  21
TORSDOF 7
ENDMDL
MODEL 12
REMARK VINA RESULT:    -7.715      2.808      6.599
REMARK INTER + INTRA:         -12.120
REMARK INTER:                 -11.622
REMARK INTRA:                  -0.499
REMARK UNBOUND:                -1.248
REMARK SMILES COc1ccc(Nc2nc(NCCC(C)C)nc3c2cnn3C)cc1
REMARK SMILES IDX 8 1 9 2 10 3 17 4 18 5 19 6 20 7 21 8 22 9 23 10 7 11 6 13
REMARK SMILES IDX 3 14 4 15 25 16 5 17 24 18 2 19 1 20 11 21 12 23 13 24 14 25
REMARK SMILES IDX 15 26 16 27
REMARK H PARENT 7 12 11 22
ROOT
ATOM      1  C   UNL     1       3.157  44.187  53.188  1.00  0.00     0.147 A 
ATOM      2  N   UNL     1       4.283  44.729  53.717  1.00  0.00    -0.195 NA
ATOM      3  C   UNL     1       4.229  45.400  54.883  1.00  0.00     0.226 A 
ATOM      4  N   UNL     1       3.128  45.599  55.619  1.00  0.00    -0.193 NA
ATOM      5  C   UNL     1       2.037  45.021  55.095  1.00  0.00     0.165 A 
ATOM      6  C   UNL     1       1.972  44.310  53.915  1.00  0.00     0.082 A 
ATOM      7  C   UNL     1       0.628  43.888  53.836  1.00  0.00     0.149 A 
ATOM      8  N   UNL     1      -0.116  44.322  54.860  1.00  0.00    -0.179 NA
ATOM      9  N   UNL     1       0.774  45.004  55.619  1.00  0.00    -0.250 N 
ATOM     10  C   UNL     1       0.340  45.609  56.852  1.00  0.00     0.176 C 
ENDROOT
BRANCH   1  11
ATOM     11  N   UNL     1       3.298  43.488  51.981  1.00  0.00    -0.339 N 
ATOM     12  H   UNL     1       2.744  42.638  52.046  1.00  0.00     0.168 HD
BRANCH  11  13
ATOM     13  C   UNL     1       4.448  43.296  51.192  1.00  0.00     0.040 A 
ATOM     14  C   UNL     1       6.778  43.032  49.613  1.00  0.00     0.119 A 
ATOM     15  C   UNL     1       6.012  41.914  49.931  1.00  0.00     0.048 A 
ATOM     16  C   UNL     1       6.373  44.284  50.078  1.00  0.00     0.048 A 
ATOM     17  C   UNL     1       4.856  42.047  50.711  1.00  0.00     0.030 A 
ATOM     18  C   UNL     1       5.220  44.414  50.857  1.00  0.00     0.030 A 
BRANCH  14  19
ATOM     19  O   UNL     1       7.922  43.042  48.865  1.00  0.00    -0.497 OA
ATOM     20  C   UNL     1       8.797  44.148  49.042  1.00  0.00     0.278 C 
ENDBRANCH  14  19
ENDBRANCH  11  13
ENDBRANCH   1  11
BRANCH   3  21
ATOM     21  N   UNL     1       5.450  45.914  55.306  1.00  0.00    -0.354 N 
ATOM     22  H   UNL     1       6.016  45.108  55.546  1.00  0.00     0.163 HD
BRANCH  21  23
ATOM     23  C   UNL     1       6.082  46.872  54.413  1.00  0.00     0.116 C 
BRANCH  23  24
ATOM     24  C   UNL     1       7.469  46.375  53.990  1.00  0.00     0.024 C 
BRANCH  24  25
ATOM     25  C   UNL     1       8.475  47.481  53.614  1.00  0.00    -0.016 C 
ATOM     26  C   UNL     1       8.327  47.925  52.159  1.00  0.00     0.007 C 
ATOM     27  C   UNL     1       9.920  47.082  53.908  1.00  0.00     0.007 C 
ENDBRANCH  24  25
ENDBRANCH  23  24
ENDBRANCH  21  23
ENDBRANCH   3  21
TORSDOF 7
ENDMDL
MODEL 13
REMARK VINA RESULT:    -7.654      2.610      5.498
REMARK INTER + INTRA:         -12.034
REMARK INTER:                 -10.788
REMARK INTRA:                  -1.246
REMARK UNBOUND:                -1.248
REMARK SMILES COc1ccc(Nc2nc(NCCC(C)C)nc3c2cnn3C)cc1
REMARK SMILES IDX 8 1 9 2 10 3 17 4 18 5 19 6 20 7 21 8 22 9 23 10 7 11 6 13
REMARK SMILES IDX 3 14 4 15 25 16 5 17 24 18 2 19 1 20 11 21 12 23 13 24 14 25
REMARK SMILES IDX 15 26 16 27
REMARK H PARENT 7 12 11 22
ROOT
ATOM      1  C   UNL     1       2.593  43.951  52.947  1.00  0.00     0.147 A 
ATOM      2  N   UNL     1       3.203  43.036  52.151  1.00  0.00    -0.195 NA
ATOM      3  C   UNL     1       2.526  42.459  51.140  1.00  0.00     0.226 A 
ATOM      4  N   UNL     1       1.250  42.702  50.815  1.00  0.00    -0.193 NA
ATOM      5  C   UNL     1       0.682  43.637  51.591  1.00  0.00     0.165 A 
ATOM      6  C   UNL     1       1.274  44.296  52.648  1.00  0.00     0.082 A 
ATOM      7  C   UNL     1       0.281  45.190  53.101  1.00  0.00     0.149 A 
ATOM      8  N   UNL     1      -0.865  45.088  52.416  1.00  0.00    -0.179 NA
ATOM      9  N   UNL     1      -0.587  44.137  51.494  1.00  0.00    -0.250 N 
ATOM     10  C   UNL     1      -1.594  43.764  50.533  1.00  0.00     0.176 C 
ENDROOT
BRANCH   1  11
ATOM     11  N   UNL     1       3.369  44.521  53.965  1.00  0.00    -0.339 N 
ATOM     12  H   UNL     1       2.737  44.868  54.682  1.00  0.00     0.168 HD
BRANCH  11  13
ATOM     13  C   UNL     1       4.523  45.320  53.864  1.00  0.00     0.040 A 
ATOM     14  C   UNL     1       6.773  47.011  53.601  1.00  0.00     0.119 A 
ATOM     15  C   UNL     1       6.896  45.764  54.209  1.00  0.00     0.048 A 
ATOM     16  C   UNL     1       5.526  47.408  53.117  1.00  0.00     0.048 A 
ATOM     17  C   UNL     1       5.780  44.927  54.336  1.00  0.00     0.030 A 
ATOM     18  C   UNL     1       4.414  46.570  53.245  1.00  0.00     0.030 A 
BRANCH  14  19
ATOM     19  O   UNL     1       7.776  47.921  53.416  1.00  0.00    -0.497 OA
ATOM     20  C   UNL     1       9.097  47.493  53.722  1.00  0.00     0.278 C 
ENDBRANCH  14  19
ENDBRANCH  11  13
ENDBRANCH   1  11
BRANCH   3  21
ATOM     21  N   UNL     1       3.265  41.533  50.411  1.00  0.00    -0.354 N 
ATOM     22  H   UNL     1       3.083  41.746  49.437  1.00  0.00     0.163 HD
BRANCH  21  23
ATOM     23  C   UNL     1       4.670  41.414  50.769  1.00  0.00     0.116 C 
BRANCH  23  24
ATOM     24  C   UNL     1       5.555  41.977  49.652  1.00  0.00     0.024 C 
BRANCH  24  25
ATOM     25  C   UNL     1       6.543  43.077  50.090  1.00  0.00    -0.016 C 
ATOM     26  C   UNL     1       5.829  44.370  50.483  1.00  0.00     0.007 C 
ATOM     27  C   UNL     1       7.614  43.355  49.036  1.00  0.00     0.007 C 
ENDBRANCH  24  25
ENDBRANCH  23  24
ENDBRANCH  21  23
ENDBRANCH   3  21
TORSDOF 7
ENDMDL
MODEL 14
REMARK VINA RESULT:    -7.649      3.151      6.337
REMARK INTER + INTRA:         -12.028
REMARK INTER:                 -10.503
REMARK INTRA:                  -1.525
REMARK UNBOUND:                -1.248
REMARK SMILES COc1ccc(Nc2nc(NCCC(C)C)nc3c2cnn3C)cc1
REMARK SMILES IDX 8 1 9 2 10 3 17 4 18 5 19 6 20 7 21 8 22 9 23 10 7 11 6 13
REMARK SMILES IDX 3 14 4 15 25 16 5 17 24 18 2 19 1 20 11 21 12 23 13 24 14 25
REMARK SMILES IDX 15 26 16 27
REMARK H PARENT 7 12 11 22
ROOT
ATOM      1  C   UNL     1       2.305  45.289  55.363  1.00  0.00     0.147 A 
ATOM      2  N   UNL     1       2.353  44.589  54.201  1.00  0.00    -0.195 NA
ATOM      3  C   UNL     1       1.273  43.905  53.777  1.00  0.00     0.226 A 
ATOM      4  N   UNL     1       0.094  43.837  54.409  1.00  0.00    -0.193 NA
ATOM      5  C   UNL     1       0.060  44.568  55.533  1.00  0.00     0.165 A 
ATOM      6  C   UNL     1       1.097  45.308  56.063  1.00  0.00     0.082 A 
ATOM      7  C   UNL     1       0.545  45.907  57.214  1.00  0.00     0.149 A 
ATOM      8  N   UNL     1      -0.728  45.552  57.427  1.00  0.00    -0.179 NA
ATOM      9  N   UNL     1      -1.000  44.740  56.379  1.00  0.00    -0.250 N 
ATOM     10  C   UNL     1      -2.317  44.170  56.245  1.00  0.00     0.176 C 
ENDROOT
BRANCH   1  11
ATOM     11  N   UNL     1       3.462  45.991  55.727  1.00  0.00    -0.339 N 
ATOM     12  H   UNL     1       3.175  46.827  56.230  1.00  0.00     0.168 HD
BRANCH  11  13
ATOM     13  C   UNL     1       4.640  46.211  54.988  1.00  0.00     0.040 A 
ATOM     14  C   UNL     1       6.950  46.754  53.451  1.00  0.00     0.119 A 
ATOM     15  C   UNL     1       6.909  45.647  54.296  1.00  0.00     0.048 A 
ATOM     16  C   UNL     1       5.831  47.583  53.369  1.00  0.00     0.048 A 
ATOM     17  C   UNL     1       5.762  45.379  55.055  1.00  0.00     0.030 A 
ATOM     18  C   UNL     1       4.688  47.314  54.127  1.00  0.00     0.030 A 
BRANCH  14  19
ATOM     19  O   UNL     1       8.000  47.129  52.661  1.00  0.00    -0.497 OA
ATOM     20  C   UNL     1       9.199  47.509  53.325  1.00  0.00     0.278 C 
ENDBRANCH  14  19
ENDBRANCH  11  13
ENDBRANCH   1  11
BRANCH   3  21
ATOM     21  N   UNL     1       1.461  43.223  52.580  1.00  0.00    -0.354 N 
ATOM     22  H   UNL     1       1.101  43.837  51.858  1.00  0.00     0.163 HD
BRANCH  21  23
ATOM     23  C   UNL     1       2.800  42.705  52.345  1.00  0.00     0.116 C 
BRANCH  23  24
ATOM     24  C   UNL     1       3.415  43.357  51.102  1.00  0.00     0.024 C 
BRANCH  24  25
ATOM     25  C   UNL     1       4.283  44.600  51.376  1.00  0.00    -0.016 C 
ATOM     26  C   UNL     1       3.628  45.886  50.871  1.00  0.00     0.007 C 
ATOM     27  C   UNL     1       5.697  44.463  50.811  1.00  0.00     0.007 C 
ENDBRANCH  24  25
ENDBRANCH  23  24
ENDBRANCH  21  23
ENDBRANCH   3  21
TORSDOF 7
ENDMDL
MODEL 15
REMARK VINA RESULT:    -7.636      1.484      2.152
REMARK INTER + INTRA:         -12.009
REMARK INTER:                 -11.478
REMARK INTRA:                  -0.531
REMARK UNBOUND:                -1.248
REMARK SMILES COc1ccc(Nc2nc(NCCC(C)C)nc3c2cnn3C)cc1
REMARK SMILES IDX 8 1 9 2 10 3 17 4 18 5 19 6 20 7 21 8 22 9 23 10 7 11 6 13
REMARK SMILES IDX 3 14 4 15 25 16 5 17 24 18 2 19 1 20 11 21 12 23 13 24 14 25
REMARK SMILES IDX 15 26 16 27
REMARK H PARENT 7 12 11 22
ROOT
ATOM      1  C   UNL     1       6.031  45.106  51.068  1.00  0.00     0.147 A 
ATOM      2  N   UNL     1       4.920  45.648  51.627  1.00  0.00    -0.195 NA
ATOM      3  C   UNL     1       3.767  44.953  51.654  1.00  0.00     0.226 A 
ATOM      4  N   UNL     1       3.587  43.719  51.166  1.00  0.00    -0.193 NA
ATOM      5  C   UNL     1       4.709  43.191  50.654  1.00  0.00     0.165 A 
ATOM      6  C   UNL     1       5.943  43.803  50.574  1.00  0.00     0.082 A 
ATOM      7  C   UNL     1       6.780  42.827  49.997  1.00  0.00     0.149 A 
ATOM      8  N   UNL     1       6.131  41.695  49.696  1.00  0.00    -0.179 NA
ATOM      9  N   UNL     1       4.870  41.943  50.117  1.00  0.00    -0.250 N 
ATOM     10  C   UNL     1       3.862  40.922  49.984  1.00  0.00     0.176 C 
ENDROOT
BRANCH   1  11
ATOM     11  N   UNL     1       7.197  45.884  51.095  1.00  0.00    -0.339 N 
ATOM     12  H   UNL     1       7.826  45.529  50.379  1.00  0.00     0.168 HD
BRANCH  11  13
ATOM     13  C   UNL     1       7.907  46.385  52.202  1.00  0.00     0.040 A 
ATOM     14  C   UNL     1       9.226  47.400  54.488  1.00  0.00     0.119 A 
ATOM     15  C   UNL     1       9.945  47.110  53.330  1.00  0.00     0.048 A 
ATOM     16  C   UNL     1       7.847  47.191  54.498  1.00  0.00     0.048 A 
ATOM     17  C   UNL     1       9.288  46.609  52.198  1.00  0.00     0.030 A 
ATOM     18  C   UNL     1       7.194  46.691  53.367  1.00  0.00     0.030 A 
BRANCH  14  19
ATOM     19  O   UNL     1       9.740  47.889  55.656  1.00  0.00    -0.497 OA
ATOM     20  C   UNL     1      11.054  47.471  56.005  1.00  0.00     0.278 C 
ENDBRANCH  14  19
ENDBRANCH  11  13
ENDBRANCH   1  11
BRANCH   3  21
ATOM     21  N   UNL     1       2.705  45.628  52.245  1.00  0.00    -0.354 N 
ATOM     22  H   UNL     1       1.874  45.105  51.990  1.00  0.00     0.163 HD
BRANCH  21  23
ATOM     23  C   UNL     1       2.844  45.918  53.664  1.00  0.00     0.116 C 
BRANCH  23  24
ATOM     24  C   UNL     1       2.170  44.826  54.502  1.00  0.00     0.024 C 
BRANCH  24  25
ATOM     25  C   UNL     1       0.877  44.242  53.901  1.00  0.00    -0.016 C 
ATOM     26  C   UNL     1      -0.337  44.481  54.800  1.00  0.00     0.007 C 
ATOM     27  C   UNL     1       1.006  42.758  53.560  1.00  0.00     0.007 C 
ENDBRANCH  24  25
ENDBRANCH  23  24
ENDBRANCH  21  23
ENDBRANCH   3  21
TORSDOF 7
ENDMDL
MODEL 16
REMARK VINA RESULT:    -7.591      2.019      5.301
REMARK INTER + INTRA:         -11.946
REMARK INTER:                 -10.968
REMARK INTRA:                  -0.978
REMARK UNBOUND:                -1.248
REMARK SMILES COc1ccc(Nc2nc(NCCC(C)C)nc3c2cnn3C)cc1
REMARK SMILES IDX 8 1 9 2 10 3 17 4 18 5 19 6 20 7 21 8 22 9 23 10 7 11 6 13
REMARK SMILES IDX 3 14 4 15 25 16 5 17 24 18 2 19 1 20 11 21 12 23 13 24 14 25
REMARK SMILES IDX 15 26 16 27
REMARK H PARENT 7 12 11 22
ROOT
ATOM      1  C   UNL     1       3.894  44.887  51.830  1.00  0.00     0.147 A 
ATOM      2  N   UNL     1       3.923  43.671  51.226  1.00  0.00    -0.195 NA
ATOM      3  C   UNL     1       3.038  42.719  51.576  1.00  0.00     0.226 A 
ATOM      4  N   UNL     1       2.079  42.847  52.502  1.00  0.00    -0.193 NA
ATOM      5  C   UNL     1       2.046  44.069  53.055  1.00  0.00     0.165 A 
ATOM      6  C   UNL     1       2.895  45.120  52.776  1.00  0.00     0.082 A 
ATOM      7  C   UNL     1       2.422  46.174  53.585  1.00  0.00     0.149 A 
ATOM      8  N   UNL     1       1.381  45.820  54.348  1.00  0.00    -0.179 NA
ATOM      9  N   UNL     1       1.167  44.531  53.996  1.00  0.00    -0.250 N 
ATOM     10  C   UNL     1       0.082  43.800  54.600  1.00  0.00     0.176 C 
ENDROOT
BRANCH   1  11
ATOM     11  N   UNL     1       4.835  45.831  51.397  1.00  0.00    -0.339 N 
ATOM     12  H   UNL     1       4.759  45.908  50.386  1.00  0.00     0.168 HD
BRANCH  11  13
ATOM     13  C   UNL     1       6.160  46.031  51.831  1.00  0.00     0.040 A 
ATOM     14  C   UNL     1       8.776  46.454  52.816  1.00  0.00     0.119 A 
ATOM     15  C   UNL     1       8.568  46.166  51.469  1.00  0.00     0.048 A 
ATOM     16  C   UNL     1       7.673  46.538  53.667  1.00  0.00     0.048 A 
ATOM     17  C   UNL     1       7.270  45.960  50.983  1.00  0.00     0.030 A 
ATOM     18  C   UNL     1       6.380  46.331  53.180  1.00  0.00     0.030 A 
BRANCH  14  19
ATOM     19  O   UNL     1       9.983  46.675  53.417  1.00  0.00    -0.497 OA
ATOM     20  C   UNL     1       9.963  47.342  54.673  1.00  0.00     0.278 C 
ENDBRANCH  14  19
ENDBRANCH  11  13
ENDBRANCH   1  11
BRANCH   3  21
ATOM     21  N   UNL     1       3.185  41.519  50.890  1.00  0.00    -0.354 N 
ATOM     22  H   UNL     1       2.496  41.543  50.147  1.00  0.00     0.163 HD
BRANCH  21  23
ATOM     23  C   UNL     1       4.538  41.187  50.471  1.00  0.00     0.116 C 
BRANCH  23  24
ATOM     24  C   UNL     1       4.598  41.005  48.950  1.00  0.00     0.024 C 
BRANCH  24  25
ATOM     25  C   UNL     1       5.872  41.548  48.275  1.00  0.00    -0.016 C 
ATOM     26  C   UNL     1       6.450  42.754  49.016  1.00  0.00     0.007 C 
ATOM     27  C   UNL     1       5.657  41.879  46.799  1.00  0.00     0.007 C 
ENDBRANCH  24  25
ENDBRANCH  23  24
ENDBRANCH  21  23
ENDBRANCH   3  21
TORSDOF 7
ENDMDL
MODEL 17
REMARK VINA RESULT:    -7.540      3.001      6.616
REMARK INTER + INTRA:         -11.874
REMARK INTER:                 -11.434
REMARK INTRA:                  -0.440
REMARK UNBOUND:                -1.248
REMARK SMILES COc1ccc(Nc2nc(NCCC(C)C)nc3c2cnn3C)cc1
REMARK SMILES IDX 8 1 9 2 10 3 17 4 18 5 19 6 20 7 21 8 22 9 23 10 7 11 6 13
REMARK SMILES IDX 3 14 4 15 25 16 5 17 24 18 2 19 1 20 11 21 12 23 13 24 14 25
REMARK SMILES IDX 15 26 16 27
REMARK H PARENT 7 12 11 22
ROOT
ATOM      1  C   UNL     1       2.588  43.285  52.939  1.00  0.00     0.147 A 
ATOM      2  N   UNL     1       3.450  44.190  53.467  1.00  0.00    -0.195 NA
ATOM      3  C   UNL     1       3.027  45.065  54.399  1.00  0.00     0.226 A 
ATOM      4  N   UNL     1       1.784  45.143  54.890  1.00  0.00    -0.193 NA
ATOM      5  C   UNL     1       0.962  44.213  54.382  1.00  0.00     0.165 A 
ATOM      6  C   UNL     1       1.281  43.267  53.429  1.00  0.00     0.082 A 
ATOM      7  C   UNL     1       0.096  42.520  53.268  1.00  0.00     0.149 A 
ATOM      8  N   UNL     1      -0.911  42.971  54.026  1.00  0.00    -0.179 NA
ATOM      9  N   UNL     1      -0.350  44.000  54.703  1.00  0.00    -0.250 N 
ATOM     10  C   UNL     1      -1.138  44.733  55.661  1.00  0.00     0.176 C 
ENDROOT
BRANCH   1  11
ATOM     11  N   UNL     1       3.108  42.396  51.988  1.00  0.00    -0.339 N 
ATOM     12  H   UNL     1       2.982  41.452  52.342  1.00  0.00     0.168 HD
BRANCH  11  13
ATOM     13  C   UNL     1       4.278  42.505  51.213  1.00  0.00     0.040 A 
ATOM     14  C   UNL     1       6.628  42.847  49.678  1.00  0.00     0.119 A 
ATOM     15  C   UNL     1       6.057  41.585  49.822  1.00  0.00     0.048 A 
ATOM     16  C   UNL     1       6.017  43.939  50.295  1.00  0.00     0.048 A 
ATOM     17  C   UNL     1       4.891  41.418  50.581  1.00  0.00     0.030 A 
ATOM     18  C   UNL     1       4.854  43.771  51.052  1.00  0.00     0.030 A 
BRANCH  14  19
ATOM     19  O   UNL     1       7.758  43.147  48.971  1.00  0.00    -0.497 OA
ATOM     20  C   UNL     1       8.474  44.310  49.365  1.00  0.00     0.278 C 
ENDBRANCH  14  19
ENDBRANCH  11  13
ENDBRANCH   1  11
BRANCH   3  21
ATOM     21  N   UNL     1       4.007  45.944  54.847  1.00  0.00    -0.354 N 
ATOM     22  H   UNL     1       4.341  45.557  55.722  1.00  0.00     0.163 HD
BRANCH  21  23
ATOM     23  C   UNL     1       5.043  46.288  53.885  1.00  0.00     0.116 C 
BRANCH  23  24
ATOM     24  C   UNL     1       6.419  46.297  54.560  1.00  0.00     0.024 C 
BRANCH  24  25
ATOM     25  C   UNL     1       7.619  46.422  53.601  1.00  0.00    -0.016 C 
ATOM     26  C   UNL     1       8.749  47.261  54.198  1.00  0.00     0.007 C 
ATOM     27  C   UNL     1       7.218  46.962  52.229  1.00  0.00     0.007 C 
ENDBRANCH  24  25
ENDBRANCH  23  24
ENDBRANCH  21  23
ENDBRANCH   3  21
TORSDOF 7
ENDMDL
MODEL 18
REMARK VINA RESULT:    -7.530      3.075      7.050
REMARK INTER + INTRA:         -11.859
REMARK INTER:                 -10.691
REMARK INTRA:                  -1.169
REMARK UNBOUND:                -1.248
REMARK SMILES COc1ccc(Nc2nc(NCCC(C)C)nc3c2cnn3C)cc1
REMARK SMILES IDX 8 1 9 2 10 3 17 4 18 5 19 6 20 7 21 8 22 9 23 10 7 11 6 13
REMARK SMILES IDX 3 14 4 15 25 16 5 17 24 18 2 19 1 20 11 21 12 23 13 24 14 25
REMARK SMILES IDX 15 26 16 27
REMARK H PARENT 7 12 11 22
ROOT
ATOM      1  C   UNL     1       5.682  46.375  51.991  1.00  0.00     0.147 A 
ATOM      2  N   UNL     1       6.230  45.828  50.875  1.00  0.00    -0.195 NA
ATOM      3  C   UNL     1       7.566  45.692  50.773  1.00  0.00     0.226 A 
ATOM      4  N   UNL     1       8.461  46.056  51.701  1.00  0.00    -0.193 NA
ATOM      5  C   UNL     1       7.892  46.557  52.808  1.00  0.00     0.165 A 
ATOM      6  C   UNL     1       6.543  46.740  53.027  1.00  0.00     0.082 A 
ATOM      7  C   UNL     1       6.469  47.254  54.338  1.00  0.00     0.149 A 
ATOM      8  N   UNL     1       7.672  47.422  54.901  1.00  0.00    -0.179 NA
ATOM      9  N   UNL     1       8.522  46.979  53.946  1.00  0.00    -0.250 N 
ATOM     10  C   UNL     1       9.940  46.978  54.202  1.00  0.00     0.176 C 
ENDROOT
BRANCH   1  11
ATOM     11  N   UNL     1       4.284  46.465  52.030  1.00  0.00    -0.339 N 
ATOM     12  H   UNL     1       4.038  47.259  52.614  1.00  0.00     0.168 HD
BRANCH  11  13
ATOM     13  C   UNL     1       3.328  45.436  52.129  1.00  0.00     0.040 A 
ATOM     14  C   UNL     1       1.370  43.398  52.213  1.00  0.00     0.119 A 
ATOM     15  C   UNL     1       2.197  43.626  53.310  1.00  0.00     0.048 A 
ATOM     16  C   UNL     1       1.516  44.196  51.078  1.00  0.00     0.048 A 
ATOM     17  C   UNL     1       3.166  44.638  53.267  1.00  0.00     0.030 A 
ATOM     18  C   UNL     1       2.483  45.205  51.038  1.00  0.00     0.030 A 
BRANCH  14  19
ATOM     19  O   UNL     1       0.391  42.448  52.124  1.00  0.00    -0.497 OA
ATOM     20  C   UNL     1      -0.201  42.019  53.343  1.00  0.00     0.278 C 
ENDBRANCH  14  19
ENDBRANCH  11  13
ENDBRANCH   1  11
BRANCH   3  21
ATOM     21  N   UNL     1       7.995  45.129  49.577  1.00  0.00    -0.354 N 
ATOM     22  H   UNL     1       8.848  45.620  49.335  1.00  0.00     0.163 HD
BRANCH  21  23
ATOM     23  C   UNL     1       8.087  43.677  49.553  1.00  0.00     0.116 C 
BRANCH  23  24
ATOM     24  C   UNL     1       6.900  43.079  48.790  1.00  0.00     0.024 C 
BRANCH  24  25
ATOM     25  C   UNL     1       6.108  41.999  49.552  1.00  0.00    -0.016 C 
ATOM     26  C   UNL     1       5.256  41.140  48.617  1.00  0.00     0.007 C 
ATOM     27  C   UNL     1       5.249  42.584  50.673  1.00  0.00     0.007 C 
ENDBRANCH  24  25
ENDBRANCH  23  24
ENDBRANCH  21  23
ENDBRANCH   3  21
TORSDOF 7
ENDMDL
MODEL 19
REMARK VINA RESULT:    -7.407      2.815      6.126
REMARK INTER + INTRA:         -11.686
REMARK INTER:                 -10.621
REMARK INTRA:                  -1.065
REMARK UNBOUND:                -1.248
REMARK SMILES COc1ccc(Nc2nc(NCCC(C)C)nc3c2cnn3C)cc1
REMARK SMILES IDX 8 1 9 2 10 3 17 4 18 5 19 6 20 7 21 8 22 9 23 10 7 11 6 13
REMARK SMILES IDX 3 14 4 15 25 16 5 17 24 18 2 19 1 20 11 21 12 23 13 24 14 25
REMARK SMILES IDX 15 26 16 27
REMARK H PARENT 7 12 11 22
ROOT
ATOM      1  C   UNL     1       5.798  46.449  51.993  1.00  0.00     0.147 A 
ATOM      2  N   UNL     1       5.537  45.474  51.086  1.00  0.00    -0.195 NA
ATOM      3  C   UNL     1       6.548  44.853  50.449  1.00  0.00     0.226 A 
ATOM      4  N   UNL     1       7.852  45.103  50.624  1.00  0.00    -0.193 NA
ATOM      5  C   UNL     1       8.084  46.042  51.554  1.00  0.00     0.165 A 
ATOM      6  C   UNL     1       7.134  46.741  52.269  1.00  0.00     0.082 A 
ATOM      7  C   UNL     1       7.885  47.570  53.129  1.00  0.00     0.149 A 
ATOM      8  N   UNL     1       9.206  47.441  52.954  1.00  0.00    -0.179 NA
ATOM      9  N   UNL     1       9.298  46.493  51.992  1.00  0.00    -0.250 N 
ATOM     10  C   UNL     1      10.597  46.057  51.546  1.00  0.00     0.176 C 
ENDROOT
BRANCH   1  11
ATOM     11  N   UNL     1       4.693  47.035  52.627  1.00  0.00    -0.339 N 
ATOM     12  H   UNL     1       5.008  47.892  53.074  1.00  0.00     0.168 HD
BRANCH  11  13
ATOM     13  C   UNL     1       3.657  46.423  53.358  1.00  0.00     0.040 A 
ATOM     14  C   UNL     1       1.502  45.210  54.728  1.00  0.00     0.119 A 
ATOM     15  C   UNL     1       2.737  45.366  55.353  1.00  0.00     0.048 A 
ATOM     16  C   UNL     1       1.344  45.670  53.420  1.00  0.00     0.048 A 
ATOM     17  C   UNL     1       3.803  45.969  54.673  1.00  0.00     0.030 A 
ATOM     18  C   UNL     1       2.409  46.272  52.744  1.00  0.00     0.030 A 
BRANCH  14  19
ATOM     19  O   UNL     1       0.387  44.640  55.274  1.00  0.00    -0.497 OA
ATOM     20  C   UNL     1      -0.110  45.220  56.473  1.00  0.00     0.278 C 
ENDBRANCH  14  19
ENDBRANCH  11  13
ENDBRANCH   1  11
BRANCH   3  21
ATOM     21  N   UNL     1       6.142  43.884  49.538  1.00  0.00    -0.354 N 
ATOM     22  H   UNL     1       6.219  44.318  48.626  1.00  0.00     0.163 HD
BRANCH  21  23
ATOM     23  C   UNL     1       6.784  42.584  49.663  1.00  0.00     0.116 C 
BRANCH  23  24
ATOM     24  C   UNL     1       5.893  41.622  50.457  1.00  0.00     0.024 C 
BRANCH  24  25
ATOM     25  C   UNL     1       4.382  41.916  50.385  1.00  0.00    -0.016 C 
ATOM     26  C   UNL     1       3.795  42.261  51.753  1.00  0.00     0.007 C 
ATOM     27  C   UNL     1       3.595  40.779  49.735  1.00  0.00     0.007 C 
ENDBRANCH  24  25
ENDBRANCH  23  24
ENDBRANCH  21  23
ENDBRANCH   3  21
TORSDOF 7
ENDMDL
