MODEL 1
REMARK VINA RESULT:    -7.990      0.000      0.000
REMARK INTER + INTRA:         -12.692
REMARK INTER:                 -11.493
REMARK INTRA:                  -1.199
REMARK UNBOUND:                -1.199
REMARK SMILES COc1ccc(Nc2nc(NCCCO)nc3nccnc23)cc1
REMARK SMILES IDX 11 1 10 3 8 4 9 5 22 6 21 7 17 8 16 9 20 10 18 11 19 12 7 13
REMARK SMILES IDX 6 15 3 16 4 17 24 18 5 19 23 20 2 21 1 22 12 23 13 24 14 25
REMARK SMILES IDX 15 26
REMARK H PARENT 11 2 7 14 15 27
ROOT
ATOM      1  N   UNL     1       2.153  43.336  53.482  1.00  0.00    -0.354 N 
ATOM      2  H   UNL     1       2.494  42.796  54.270  1.00  0.00     0.163 HD
ENDROOT
BRANCH   1   3
ATOM      3  C   UNL     1       3.178  43.344  52.550  1.00  0.00     0.226 A 
ATOM      4  C   UNL     1       4.898  44.537  51.611  1.00  0.00     0.164 A 
ATOM      5  N   UNL     1       3.874  44.477  52.481  1.00  0.00    -0.193 NA
ATOM      6  C   UNL     1       5.234  43.474  50.776  1.00  0.00     0.150 A 
ATOM      7  N   UNL     1       6.276  43.529  49.886  1.00  0.00    -0.247 NA
ATOM      8  C   UNL     1       4.422  42.345  50.925  1.00  0.00     0.185 A 
ATOM      9  N   UNL     1       3.417  42.282  51.788  1.00  0.00    -0.191 NA
ATOM     10  C   UNL     1       6.476  42.421  49.146  1.00  0.00     0.132 A 
ATOM     11  N   UNL     1       4.651  41.265  50.167  1.00  0.00    -0.233 NA
ATOM     12  C   UNL     1       5.676  41.311  49.286  1.00  0.00     0.133 A 
BRANCH   4  13
ATOM     13  N   UNL     1       5.662  45.729  51.459  1.00  0.00    -0.338 N 
ATOM     14  H   UNL     1       5.461  46.154  50.556  1.00  0.00     0.168 HD
BRANCH  13  15
ATOM     15  C   UNL     1       6.824  46.207  52.084  1.00  0.00     0.040 A 
ATOM     16  C   UNL     1       9.128  47.066  53.503  1.00  0.00     0.119 A 
ATOM     17  C   UNL     1       9.163  46.886  52.121  1.00  0.00     0.048 A 
ATOM     18  C   UNL     1       7.943  46.804  54.183  1.00  0.00     0.048 A 
ATOM     19  C   UNL     1       8.029  46.453  51.422  1.00  0.00     0.030 A 
ATOM     20  C   UNL     1       6.811  46.372  53.479  1.00  0.00     0.030 A 
BRANCH  16  21
ATOM     21  O   UNL     1      10.302  47.490  54.058  1.00  0.00    -0.497 OA
ATOM     22  C   UNL     1      10.382  47.476  55.478  1.00  0.00     0.278 C 
ENDBRANCH  16  21
ENDBRANCH  13  15
ENDBRANCH   4  13
ENDBRANCH   1   3
BRANCH   1  23
ATOM     23  C   UNL     1       1.559  44.620  53.810  1.00  0.00     0.118 C 
BRANCH  23  24
ATOM     24  C   UNL     1       1.641  44.927  55.305  1.00  0.00     0.049 C 
BRANCH  24  25
ATOM     25  C   UNL     1       2.916  45.669  55.681  1.00  0.00     0.158 C 
BRANCH  25  26
ATOM     26  O   UNL     1       4.037  44.791  55.609  1.00  0.00    -0.396 OA
ATOM     27  H   UNL     1       4.094  44.459  54.698  1.00  0.00     0.210 HD
ENDBRANCH  25  26
ENDBRANCH  24  25
ENDBRANCH  23  24
ENDBRANCH   1  23
TORSDOF 8
ENDMDL
MODEL 2
REMARK VINA RESULT:    -7.882      0.247      1.008
REMARK INTER + INTRA:         -12.537
REMARK INTER:                 -11.324
REMARK INTRA:                  -1.213
REMARK UNBOUND:                -1.199
REMARK SMILES COc1ccc(Nc2nc(NCCCO)nc3nccnc23)cc1
REMARK SMILES IDX 11 1 10 3 8 4 9 5 22 6 21 7 17 8 16 9 20 10 18 11 19 12 7 13
REMARK SMILES IDX 6 15 3 16 4 17 24 18 5 19 23 20 2 21 1 22 12 23 13 24 14 25
REMARK SMILES IDX 15 26
REMARK H PARENT 11 2 7 14 15 27
ROOT
ATOM      1  N   UNL     1       2.310  43.448  53.504  1.00  0.00    -0.354 N 
ATOM      2  H   UNL     1       2.658  42.911  54.292  1.00  0.00     0.163 HD
ENDROOT
BRANCH   1   3
ATOM      3  C   UNL     1       3.302  43.396  52.537  1.00  0.00     0.226 A 
ATOM      4  C   UNL     1       5.086  44.465  51.570  1.00  0.00     0.164 A 
ATOM      5  N   UNL     1       4.089  44.468  52.473  1.00  0.00    -0.193 NA
ATOM      6  C   UNL     1       5.304  43.402  50.698  1.00  0.00     0.150 A 
ATOM      7  N   UNL     1       6.318  43.394  49.774  1.00  0.00    -0.247 NA
ATOM      8  C   UNL     1       4.404  42.341  50.847  1.00  0.00     0.185 A 
ATOM      9  N   UNL     1       3.426  42.338  51.742  1.00  0.00    -0.191 NA
ATOM     10  C   UNL     1       6.399  42.294  49.001  1.00  0.00     0.132 A 
ATOM     11  N   UNL     1       4.516  41.267  50.054  1.00  0.00    -0.233 NA
ATOM     12  C   UNL     1       5.513  41.251  49.140  1.00  0.00     0.133 A 
BRANCH   4  13
ATOM     13  N   UNL     1       5.943  45.593  51.422  1.00  0.00    -0.338 N 
ATOM     14  H   UNL     1       5.845  45.979  50.485  1.00  0.00     0.168 HD
BRANCH  13  15
ATOM     15  C   UNL     1       7.083  46.027  52.115  1.00  0.00     0.040 A 
ATOM     16  C   UNL     1       9.437  47.010  53.360  1.00  0.00     0.119 A 
ATOM     17  C   UNL     1       8.282  46.766  54.103  1.00  0.00     0.048 A 
ATOM     18  C   UNL     1       9.414  46.777  51.990  1.00  0.00     0.048 A 
ATOM     19  C   UNL     1       7.118  46.289  53.486  1.00  0.00     0.030 A 
ATOM     20  C   UNL     1       8.247  46.300  51.378  1.00  0.00     0.030 A 
BRANCH  16  21
ATOM     21  O   UNL     1      10.499  47.473  54.085  1.00  0.00    -0.497 OA
ATOM     22  C   UNL     1      10.370  47.449  55.500  1.00  0.00     0.278 C 
ENDBRANCH  16  21
ENDBRANCH  13  15
ENDBRANCH   4  13
ENDBRANCH   1   3
BRANCH   1  23
ATOM     23  C   UNL     1       1.778  44.761  53.822  1.00  0.00     0.118 C 
BRANCH  23  24
ATOM     24  C   UNL     1       1.927  45.098  55.305  1.00  0.00     0.049 C 
BRANCH  24  25
ATOM     25  C   UNL     1       3.255  45.773  55.621  1.00  0.00     0.158 C 
BRANCH  25  26
ATOM     26  O   UNL     1       4.311  44.816  55.605  1.00  0.00    -0.396 OA
ATOM     27  H   UNL     1       5.113  45.254  55.933  1.00  0.00     0.210 HD
ENDBRANCH  25  26
ENDBRANCH  24  25
ENDBRANCH  23  24
ENDBRANCH   1  23
TORSDOF 8
ENDMDL
MODEL 3
REMARK VINA RESULT:    -7.851      2.608      6.038
REMARK INTER + INTRA:         -12.492
REMARK INTER:                 -11.561
REMARK INTRA:                  -0.931
REMARK UNBOUND:                -1.199
REMARK SMILES COc1ccc(Nc2nc(NCCCO)nc3nccnc23)cc1
REMARK SMILES IDX 11 1 10 3 8 4 9 5 22 6 21 7 17 8 16 9 20 10 18 11 19 12 7 13
REMARK SMILES IDX 6 15 3 16 4 17 24 18 5 19 23 20 2 21 1 22 12 23 13 24 14 25
REMARK SMILES IDX 15 26
REMARK H PARENT 11 2 7 14 15 27
ROOT
ATOM      1  N   UNL     1       4.186  46.790  55.167  1.00  0.00    -0.354 N 
ATOM      2  H   UNL     1       3.709  47.586  54.755  1.00  0.00     0.163 HD
ENDROOT
BRANCH   1   3
ATOM      3  C   UNL     1       5.375  46.654  54.468  1.00  0.00     0.226 A 
ATOM      4  C   UNL     1       6.403  45.844  52.584  1.00  0.00     0.164 A 
ATOM      5  N   UNL     1       5.285  45.989  53.319  1.00  0.00    -0.193 NA
ATOM      6  C   UNL     1       7.637  46.342  52.993  1.00  0.00     0.150 A 
ATOM      7  N   UNL     1       8.781  46.198  52.250  1.00  0.00    -0.247 NA
ATOM      8  C   UNL     1       7.611  47.006  54.225  1.00  0.00     0.185 A 
ATOM      9  N   UNL     1       6.509  47.156  54.946  1.00  0.00    -0.191 NA
ATOM     10  C   UNL     1       9.897  46.733  52.779  1.00  0.00     0.132 A 
ATOM     11  N   UNL     1       8.745  47.520  54.719  1.00  0.00    -0.233 NA
ATOM     12  C   UNL     1       9.878  47.381  53.993  1.00  0.00     0.133 A 
BRANCH   4  13
ATOM     13  N   UNL     1       6.387  45.113  51.362  1.00  0.00    -0.338 N 
ATOM     14  H   UNL     1       6.710  45.708  50.601  1.00  0.00     0.168 HD
BRANCH  13  15
ATOM     15  C   UNL     1       5.717  43.951  50.950  1.00  0.00     0.040 A 
ATOM     16  C   UNL     1       4.538  41.514  50.100  1.00  0.00     0.119 A 
ATOM     17  C   UNL     1       3.904  42.328  51.037  1.00  0.00     0.048 A 
ATOM     18  C   UNL     1       5.771  41.909  49.594  1.00  0.00     0.048 A 
ATOM     19  C   UNL     1       4.491  43.526  51.463  1.00  0.00     0.030 A 
ATOM     20  C   UNL     1       6.354  43.109  50.023  1.00  0.00     0.030 A 
BRANCH  16  21
ATOM     21  O   UNL     1       3.857  40.375  49.773  1.00  0.00    -0.497 OA
ATOM     22  C   UNL     1       3.521  40.199  48.402  1.00  0.00     0.278 C 
ENDBRANCH  16  21
ENDBRANCH  13  15
ENDBRANCH   4  13
ENDBRANCH   1   3
BRANCH   1  23
ATOM     23  C   UNL     1       3.383  45.591  55.329  1.00  0.00     0.118 C 
BRANCH  23  24
ATOM     24  C   UNL     1       1.946  45.791  54.848  1.00  0.00     0.049 C 
BRANCH  24  25
ATOM     25  C   UNL     1       1.828  45.771  53.330  1.00  0.00     0.158 C 
BRANCH  25  26
ATOM     26  O   UNL     1       2.314  46.994  52.782  1.00  0.00    -0.396 OA
ATOM     27  H   UNL     1       2.836  47.439  53.470  1.00  0.00     0.210 HD
ENDBRANCH  25  26
ENDBRANCH  24  25
ENDBRANCH  23  24
ENDBRANCH   1  23
TORSDOF 8
ENDMDL
MODEL 4
REMARK VINA RESULT:    -7.600      1.445      1.598
REMARK INTER + INTRA:         -12.132
REMARK INTER:                 -11.039
REMARK INTRA:                  -1.093
REMARK UNBOUND:                -1.199
REMARK SMILES COc1ccc(Nc2nc(NCCCO)nc3nccnc23)cc1
REMARK SMILES IDX 11 1 10 3 8 4 9 5 22 6 21 7 17 8 16 9 20 10 18 11 19 12 7 13
REMARK SMILES IDX 6 15 3 16 4 17 24 18 5 19 23 20 2 21 1 22 12 23 13 24 14 25
REMARK SMILES IDX 15 26
REMARK H PARENT 11 2 7 14 15 27
ROOT
ATOM      1  N   UNL     1       2.025  43.360  53.489  1.00  0.00    -0.354 N 
ATOM      2  H   UNL     1       2.039  44.261  53.956  1.00  0.00     0.163 HD
ENDROOT
BRANCH   1   3
ATOM      3  C   UNL     1       3.083  43.376  52.595  1.00  0.00     0.226 A 
ATOM      4  C   UNL     1       4.817  44.586  51.707  1.00  0.00     0.164 A 
ATOM      5  N   UNL     1       3.763  44.519  52.540  1.00  0.00    -0.193 NA
ATOM      6  C   UNL     1       5.201  43.522  50.897  1.00  0.00     0.150 A 
ATOM      7  N   UNL     1       6.274  43.584  50.044  1.00  0.00    -0.247 NA
ATOM      8  C   UNL     1       4.401  42.380  51.028  1.00  0.00     0.185 A 
ATOM      9  N   UNL     1       3.367  42.310  51.854  1.00  0.00    -0.191 NA
ATOM     10  C   UNL     1       6.518  42.473  49.324  1.00  0.00     0.132 A 
ATOM     11  N   UNL     1       4.675  41.297  50.289  1.00  0.00    -0.233 NA
ATOM     12  C   UNL     1       5.731  41.351  49.446  1.00  0.00     0.133 A 
BRANCH   4  13
ATOM     13  N   UNL     1       5.568  45.790  51.571  1.00  0.00    -0.338 N 
ATOM     14  H   UNL     1       5.332  46.245  50.691  1.00  0.00     0.168 HD
BRANCH  13  15
ATOM     15  C   UNL     1       6.748  46.255  52.171  1.00  0.00     0.040 A 
ATOM     16  C   UNL     1       9.097  47.077  53.535  1.00  0.00     0.119 A 
ATOM     17  C   UNL     1       9.071  46.986  52.144  1.00  0.00     0.048 A 
ATOM     18  C   UNL     1       7.953  46.743  54.250  1.00  0.00     0.048 A 
ATOM     19  C   UNL     1       7.914  46.571  51.472  1.00  0.00     0.030 A 
ATOM     20  C   UNL     1       6.797  46.330  53.572  1.00  0.00     0.030 A 
BRANCH  16  21
ATOM     21  O   UNL     1      10.288  47.493  54.062  1.00  0.00    -0.497 OA
ATOM     22  C   UNL     1      10.398  47.490  55.479  1.00  0.00     0.278 C 
ENDBRANCH  16  21
ENDBRANCH  13  15
ENDBRANCH   4  13
ENDBRANCH   1   3
BRANCH   1  23
ATOM     23  C   UNL     1       0.735  42.943  52.966  1.00  0.00     0.118 C 
BRANCH  23  24
ATOM     24  C   UNL     1       0.245  43.857  51.844  1.00  0.00     0.049 C 
BRANCH  24  25
ATOM     25  C   UNL     1      -0.223  45.213  52.356  1.00  0.00     0.158 C 
BRANCH  25  26
ATOM     26  O   UNL     1       0.896  46.063  52.595  1.00  0.00    -0.396 OA
ATOM     27  H   UNL     1       0.571  46.863  53.039  1.00  0.00     0.210 HD
ENDBRANCH  25  26
ENDBRANCH  24  25
ENDBRANCH  23  24
ENDBRANCH   1  23
TORSDOF 8
ENDMDL
MODEL 5
REMARK VINA RESULT:    -7.372      1.912      4.531
REMARK INTER + INTRA:         -11.804
REMARK INTER:                 -11.001
REMARK INTRA:                  -0.803
REMARK UNBOUND:                -1.199
REMARK SMILES COc1ccc(Nc2nc(NCCCO)nc3nccnc23)cc1
REMARK SMILES IDX 11 1 10 3 8 4 9 5 22 6 21 7 17 8 16 9 20 10 18 11 19 12 7 13
REMARK SMILES IDX 6 15 3 16 4 17 24 18 5 19 23 20 2 21 1 22 12 23 13 24 14 25
REMARK SMILES IDX 15 26
REMARK H PARENT 11 2 7 14 15 27
ROOT
ATOM      1  N   UNL     1       4.252  41.327  51.168  1.00  0.00    -0.354 N 
ATOM      2  H   UNL     1       4.054  40.511  51.739  1.00  0.00     0.163 HD
ENDROOT
BRANCH   1   3
ATOM      3  C   UNL     1       3.695  42.406  51.837  1.00  0.00     0.226 A 
ATOM      4  C   UNL     1       3.916  44.612  52.424  1.00  0.00     0.164 A 
ATOM      5  N   UNL     1       4.417  43.524  51.811  1.00  0.00    -0.193 NA
ATOM      6  C   UNL     1       2.695  44.600  53.092  1.00  0.00     0.150 A 
ATOM      7  N   UNL     1       2.180  45.706  53.720  1.00  0.00    -0.247 NA
ATOM      8  C   UNL     1       2.036  43.365  53.067  1.00  0.00     0.185 A 
ATOM      9  N   UNL     1       2.525  42.294  52.457  1.00  0.00    -0.191 NA
ATOM     10  C   UNL     1       0.989  45.536  54.325  1.00  0.00     0.132 A 
ATOM     11  N   UNL     1       0.856  43.238  53.685  1.00  0.00    -0.233 NA
ATOM     12  C   UNL     1       0.340  44.323  54.307  1.00  0.00     0.133 A 
BRANCH   4  13
ATOM     13  N   UNL     1       4.652  45.831  52.467  1.00  0.00    -0.338 N 
ATOM     14  H   UNL     1       4.163  46.546  51.931  1.00  0.00     0.168 HD
BRANCH  13  15
ATOM     15  C   UNL     1       5.991  46.132  52.756  1.00  0.00     0.040 A 
ATOM     16  C   UNL     1       8.716  46.817  53.161  1.00  0.00     0.119 A 
ATOM     17  C   UNL     1       7.800  46.871  54.210  1.00  0.00     0.048 A 
ATOM     18  C   UNL     1       8.270  46.433  51.901  1.00  0.00     0.048 A 
ATOM     19  C   UNL     1       6.454  46.542  54.008  1.00  0.00     0.030 A 
ATOM     20  C   UNL     1       6.922  46.104  51.704  1.00  0.00     0.030 A 
BRANCH  16  21
ATOM     21  O   UNL     1       9.995  47.163  53.495  1.00  0.00    -0.497 OA
ATOM     22  C   UNL     1      10.287  47.278  54.881  1.00  0.00     0.278 C 
ENDBRANCH  16  21
ENDBRANCH  13  15
ENDBRANCH   4  13
ENDBRANCH   1   3
BRANCH   1  23
ATOM     23  C   UNL     1       3.934  41.200  49.757  1.00  0.00     0.118 C 
BRANCH  23  24
ATOM     24  C   UNL     1       5.188  41.168  48.885  1.00  0.00     0.049 C 
BRANCH  24  25
ATOM     25  C   UNL     1       6.399  41.780  49.577  1.00  0.00     0.158 C 
BRANCH  25  26
ATOM     26  O   UNL     1       7.256  40.753  50.070  1.00  0.00    -0.396 OA
ATOM     27  H   UNL     1       8.150  41.123  50.142  1.00  0.00     0.210 HD
ENDBRANCH  25  26
ENDBRANCH  24  25
ENDBRANCH  23  24
ENDBRANCH   1  23
TORSDOF 8
ENDMDL
MODEL 6
REMARK VINA RESULT:    -7.367      2.562      3.804
REMARK INTER + INTRA:         -11.796
REMARK INTER:                 -10.938
REMARK INTRA:                  -0.858
REMARK UNBOUND:                -1.199
REMARK SMILES COc1ccc(Nc2nc(NCCCO)nc3nccnc23)cc1
REMARK SMILES IDX 11 1 10 3 8 4 9 5 22 6 21 7 17 8 16 9 20 10 18 11 19 12 7 13
REMARK SMILES IDX 6 15 3 16 4 17 24 18 5 19 23 20 2 21 1 22 12 23 13 24 14 25
REMARK SMILES IDX 15 26
REMARK H PARENT 11 2 7 14 15 27
ROOT
ATOM      1  N   UNL     1       2.128  45.893  56.613  1.00  0.00    -0.354 N 
ATOM      2  H   UNL     1       2.387  46.874  56.577  1.00  0.00     0.163 HD
ENDROOT
BRANCH   1   3
ATOM      3  C   UNL     1       2.107  45.455  55.299  1.00  0.00     0.226 A 
ATOM      4  C   UNL     1       2.995  45.677  53.196  1.00  0.00     0.164 A 
ATOM      5  N   UNL     1       2.953  46.076  54.480  1.00  0.00    -0.193 NA
ATOM      6  C   UNL     1       2.180  44.665  52.699  1.00  0.00     0.150 A 
ATOM      7  N   UNL     1       2.217  44.254  51.390  1.00  0.00    -0.247 NA
ATOM      8  C   UNL     1       1.321  44.098  53.648  1.00  0.00     0.185 A 
ATOM      9  N   UNL     1       1.283  44.485  54.915  1.00  0.00    -0.191 NA
ATOM     10  C   UNL     1       1.366  43.264  51.060  1.00  0.00     0.132 A 
ATOM     11  N   UNL     1       0.486  43.119  53.277  1.00  0.00    -0.233 NA
ATOM     12  C   UNL     1       0.516  42.708  51.989  1.00  0.00     0.133 A 
BRANCH   4  13
ATOM     13  N   UNL     1       3.850  46.322  52.256  1.00  0.00    -0.338 N 
ATOM     14  H   UNL     1       3.308  46.626  51.449  1.00  0.00     0.168 HD
BRANCH  13  15
ATOM     15  C   UNL     1       5.238  46.299  52.051  1.00  0.00     0.040 A 
ATOM     16  C   UNL     1       8.010  46.226  51.445  1.00  0.00     0.119 A 
ATOM     17  C   UNL     1       7.521  47.041  52.466  1.00  0.00     0.048 A 
ATOM     18  C   UNL     1       7.113  45.455  50.714  1.00  0.00     0.048 A 
ATOM     19  C   UNL     1       6.152  47.083  52.758  1.00  0.00     0.030 A 
ATOM     20  C   UNL     1       5.744  45.501  51.012  1.00  0.00     0.030 A 
BRANCH  16  21
ATOM     21  O   UNL     1       9.364  46.281  51.265  1.00  0.00    -0.497 OA
ATOM     22  C   UNL     1      10.149  46.626  52.399  1.00  0.00     0.278 C 
ENDBRANCH  16  21
ENDBRANCH  13  15
ENDBRANCH   4  13
ENDBRANCH   1   3
BRANCH   1  23
ATOM     23  C   UNL     1       0.964  45.580  57.424  1.00  0.00     0.118 C 
BRANCH  23  24
ATOM     24  C   UNL     1       0.275  46.837  57.952  1.00  0.00     0.049 C 
BRANCH  24  25
ATOM     25  C   UNL     1       0.883  47.334  59.257  1.00  0.00     0.158 C 
BRANCH  25  26
ATOM     26  O   UNL     1       2.155  46.729  59.469  1.00  0.00    -0.396 OA
ATOM     27  H   UNL     1       2.045  45.768  59.379  1.00  0.00     0.210 HD
ENDBRANCH  25  26
ENDBRANCH  24  25
ENDBRANCH  23  24
ENDBRANCH   1  23
TORSDOF 8
ENDMDL
MODEL 7
REMARK VINA RESULT:    -7.363      2.927      6.780
REMARK INTER + INTRA:         -11.790
REMARK INTER:                 -11.082
REMARK INTRA:                  -0.709
REMARK UNBOUND:                -1.199
REMARK SMILES COc1ccc(Nc2nc(NCCCO)nc3nccnc23)cc1
REMARK SMILES IDX 11 1 10 3 8 4 9 5 22 6 21 7 17 8 16 9 20 10 18 11 19 12 7 13
REMARK SMILES IDX 6 15 3 16 4 17 24 18 5 19 23 20 2 21 1 22 12 23 13 24 14 25
REMARK SMILES IDX 15 26
REMARK H PARENT 11 2 7 14 15 27
ROOT
ATOM      1  N   UNL     1       7.510  44.923  49.482  1.00  0.00    -0.354 N 
ATOM      2  H   UNL     1       8.160  45.372  48.844  1.00  0.00     0.163 HD
ENDROOT
BRANCH   1   3
ATOM      3  C   UNL     1       7.618  45.608  50.682  1.00  0.00     0.226 A 
ATOM      4  C   UNL     1       6.506  46.690  52.371  1.00  0.00     0.164 A 
ATOM      5  N   UNL     1       6.468  46.039  51.195  1.00  0.00    -0.193 NA
ATOM      6  C   UNL     1       7.696  46.944  53.048  1.00  0.00     0.150 A 
ATOM      7  N   UNL     1       7.742  47.609  54.247  1.00  0.00    -0.247 NA
ATOM      8  C   UNL     1       8.840  46.461  52.403  1.00  0.00     0.185 A 
ATOM      9  N   UNL     1       8.803  45.811  51.248  1.00  0.00    -0.191 NA
ATOM     10  C   UNL     1       8.968  47.779  54.777  1.00  0.00     0.132 A 
ATOM     11  N   UNL     1      10.041  46.655  52.962  1.00  0.00    -0.233 NA
ATOM     12  C   UNL     1      10.096  47.310  54.144  1.00  0.00     0.133 A 
BRANCH   4  13
ATOM     13  N   UNL     1       5.318  47.210  52.960  1.00  0.00    -0.338 N 
ATOM     14  H   UNL     1       5.521  48.093  53.425  1.00  0.00     0.168 HD
BRANCH  13  15
ATOM     15  C   UNL     1       4.097  46.624  53.329  1.00  0.00     0.040 A 
ATOM     16  C   UNL     1       1.659  45.505  54.258  1.00  0.00     0.119 A 
ATOM     17  C   UNL     1       1.767  46.016  52.965  1.00  0.00     0.048 A 
ATOM     18  C   UNL     1       2.767  45.564  55.096  1.00  0.00     0.048 A 
ATOM     19  C   UNL     1       2.967  46.577  52.510  1.00  0.00     0.030 A 
ATOM     20  C   UNL     1       3.967  46.125  54.636  1.00  0.00     0.030 A 
BRANCH  16  21
ATOM     21  O   UNL     1       0.434  44.989  54.572  1.00  0.00    -0.497 OA
ATOM     22  C   UNL     1      -0.024  43.897  53.785  1.00  0.00     0.278 C 
ENDBRANCH  16  21
ENDBRANCH  13  15
ENDBRANCH   4  13
ENDBRANCH   1   3
BRANCH   1  23
ATOM     23  C   UNL     1       7.593  43.475  49.548  1.00  0.00     0.118 C 
BRANCH  23  24
ATOM     24  C   UNL     1       6.231  42.811  49.344  1.00  0.00     0.049 C 
BRANCH  24  25
ATOM     25  C   UNL     1       6.115  41.478  50.071  1.00  0.00     0.158 C 
BRANCH  25  26
ATOM     26  O   UNL     1       7.372  40.804  50.068  1.00  0.00    -0.396 OA
ATOM     27  H   UNL     1       7.998  41.350  49.565  1.00  0.00     0.210 HD
ENDBRANCH  25  26
ENDBRANCH  24  25
ENDBRANCH  23  24
ENDBRANCH   1  23
TORSDOF 8
ENDMDL
MODEL 8
REMARK VINA RESULT:    -7.354      2.908      6.817
REMARK INTER + INTRA:         -11.778
REMARK INTER:                 -11.128
REMARK INTRA:                  -0.650
REMARK UNBOUND:                -1.199
REMARK SMILES COc1ccc(Nc2nc(NCCCO)nc3nccnc23)cc1
REMARK SMILES IDX 11 1 10 3 8 4 9 5 22 6 21 7 17 8 16 9 20 10 18 11 19 12 7 13
REMARK SMILES IDX 6 15 3 16 4 17 24 18 5 19 23 20 2 21 1 22 12 23 13 24 14 25
REMARK SMILES IDX 15 26
REMARK H PARENT 11 2 7 14 15 27
ROOT
ATOM      1  N   UNL     1       7.457  45.053  49.602  1.00  0.00    -0.354 N 
ATOM      2  H   UNL     1       8.091  45.518  48.961  1.00  0.00     0.163 HD
ENDROOT
BRANCH   1   3
ATOM      3  C   UNL     1       7.605  45.696  50.821  1.00  0.00     0.226 A 
ATOM      4  C   UNL     1       6.555  46.750  52.566  1.00  0.00     0.164 A 
ATOM      5  N   UNL     1       6.476  46.139  51.370  1.00  0.00    -0.193 NA
ATOM      6  C   UNL     1       7.763  46.951  53.227  1.00  0.00     0.150 A 
ATOM      7  N   UNL     1       7.850  47.575  54.445  1.00  0.00    -0.247 NA
ATOM      8  C   UNL     1       8.882  46.459  52.544  1.00  0.00     0.185 A 
ATOM      9  N   UNL     1       8.806  45.849  51.369  1.00  0.00    -0.191 NA
ATOM     10  C   UNL     1       9.090  47.696  54.956  1.00  0.00     0.132 A 
ATOM     11  N   UNL     1      10.098  46.605  53.085  1.00  0.00    -0.233 NA
ATOM     12  C   UNL     1      10.193  47.219  54.286  1.00  0.00     0.133 A 
BRANCH   4  13
ATOM     13  N   UNL     1       5.392  47.281  53.195  1.00  0.00    -0.338 N 
ATOM     14  H   UNL     1       5.608  48.185  53.611  1.00  0.00     0.168 HD
BRANCH  13  15
ATOM     15  C   UNL     1       4.200  46.697  53.652  1.00  0.00     0.040 A 
ATOM     16  C   UNL     1       1.758  45.455  54.393  1.00  0.00     0.119 A 
ATOM     17  C   UNL     1       2.838  45.494  55.273  1.00  0.00     0.048 A 
ATOM     18  C   UNL     1       1.900  46.025  53.132  1.00  0.00     0.048 A 
ATOM     19  C   UNL     1       4.046  46.099  54.904  1.00  0.00     0.030 A 
ATOM     20  C   UNL     1       3.111  46.630  52.768  1.00  0.00     0.030 A 
BRANCH  16  21
ATOM     21  O   UNL     1       0.642  44.835  54.879  1.00  0.00    -0.497 OA
ATOM     22  C   UNL     1      -0.278  44.325  53.922  1.00  0.00     0.278 C 
ENDBRANCH  16  21
ENDBRANCH  13  15
ENDBRANCH   4  13
ENDBRANCH   1   3
BRANCH   1  23
ATOM     23  C   UNL     1       7.527  43.603  49.616  1.00  0.00     0.118 C 
BRANCH  23  24
ATOM     24  C   UNL     1       6.192  42.965  50.000  1.00  0.00     0.049 C 
BRANCH  24  25
ATOM     25  C   UNL     1       6.118  41.491  49.626  1.00  0.00     0.158 C 
BRANCH  25  26
ATOM     26  O   UNL     1       7.290  40.811  50.068  1.00  0.00    -0.396 OA
ATOM     27  H   UNL     1       7.600  41.251  50.876  1.00  0.00     0.210 HD
ENDBRANCH  25  26
ENDBRANCH  24  25
ENDBRANCH  23  24
ENDBRANCH   1  23
TORSDOF 8
ENDMDL
MODEL 9
REMARK VINA RESULT:    -7.180      2.191      4.805
REMARK INTER + INTRA:         -11.528
REMARK INTER:                 -11.055
REMARK INTRA:                  -0.473
REMARK UNBOUND:                -1.199
REMARK SMILES COc1ccc(Nc2nc(NCCCO)nc3nccnc23)cc1
REMARK SMILES IDX 11 1 10 3 8 4 9 5 22 6 21 7 17 8 16 9 20 10 18 11 19 12 7 13
REMARK SMILES IDX 6 15 3 16 4 17 24 18 5 19 23 20 2 21 1 22 12 23 13 24 14 25
REMARK SMILES IDX 15 26
REMARK H PARENT 11 2 7 14 15 27
ROOT
ATOM      1  N   UNL     1       3.019  41.861  50.758  1.00  0.00    -0.354 N 
ATOM      2  H   UNL     1       2.813  42.373  49.907  1.00  0.00     0.163 HD
ENDROOT
BRANCH   1   3
ATOM      3  C   UNL     1       2.695  42.710  51.804  1.00  0.00     0.226 A 
ATOM      4  C   UNL     1       3.427  44.351  53.230  1.00  0.00     0.164 A 
ATOM      5  N   UNL     1       3.687  43.488  52.231  1.00  0.00    -0.193 NA
ATOM      6  C   UNL     1       2.177  44.440  53.836  1.00  0.00     0.150 A 
ATOM      7  N   UNL     1       1.905  45.317  54.855  1.00  0.00    -0.247 NA
ATOM      8  C   UNL     1       1.220  43.562  53.314  1.00  0.00     0.185 A 
ATOM      9  N   UNL     1       1.473  42.716  52.325  1.00  0.00    -0.191 NA
ATOM     10  C   UNL     1       0.649  45.285  55.339  1.00  0.00     0.132 A 
ATOM     11  N   UNL     1      -0.017  43.558  53.828  1.00  0.00    -0.233 NA
ATOM     12  C   UNL     1      -0.293  44.419  54.834  1.00  0.00     0.133 A 
BRANCH   4  13
ATOM     13  N   UNL     1       4.451  45.187  53.761  1.00  0.00    -0.338 N 
ATOM     14  H   UNL     1       4.084  45.725  54.543  1.00  0.00     0.168 HD
BRANCH  13  15
ATOM     15  C   UNL     1       5.662  45.666  53.239  1.00  0.00     0.040 A 
ATOM     16  C   UNL     1       8.202  46.558  52.339  1.00  0.00     0.119 A 
ATOM     17  C   UNL     1       7.221  46.157  51.433  1.00  0.00     0.048 A 
ATOM     18  C   UNL     1       7.921  46.501  53.699  1.00  0.00     0.048 A 
ATOM     19  C   UNL     1       5.971  45.709  51.878  1.00  0.00     0.030 A 
ATOM     20  C   UNL     1       6.668  46.052  54.140  1.00  0.00     0.030 A 
BRANCH  16  21
ATOM     21  O   UNL     1       9.374  46.973  51.771  1.00  0.00    -0.497 OA
ATOM     22  C   UNL     1      10.411  46.007  51.662  1.00  0.00     0.278 C 
ENDBRANCH  16  21
ENDBRANCH  13  15
ENDBRANCH   4  13
ENDBRANCH   1   3
BRANCH   1  23
ATOM     23  C   UNL     1       4.324  41.227  50.811  1.00  0.00     0.118 C 
BRANCH  23  24
ATOM     24  C   UNL     1       5.131  41.463  49.535  1.00  0.00     0.049 C 
BRANCH  24  25
ATOM     25  C   UNL     1       6.564  41.894  49.818  1.00  0.00     0.158 C 
BRANCH  25  26
ATOM     26  O   UNL     1       7.370  40.758  50.115  1.00  0.00    -0.396 OA
ATOM     27  H   UNL     1       7.184  40.079  49.446  1.00  0.00     0.210 HD
ENDBRANCH  25  26
ENDBRANCH  24  25
ENDBRANCH  23  24
ENDBRANCH   1  23
TORSDOF 8
ENDMDL
MODEL 10
REMARK VINA RESULT:    -7.122      2.533      4.846
REMARK INTER + INTRA:         -11.443
REMARK INTER:                 -10.801
REMARK INTRA:                  -0.642
REMARK UNBOUND:                -1.199
REMARK SMILES COc1ccc(Nc2nc(NCCCO)nc3nccnc23)cc1
REMARK SMILES IDX 11 1 10 3 8 4 9 5 22 6 21 7 17 8 16 9 20 10 18 11 19 12 7 13
REMARK SMILES IDX 6 15 3 16 4 17 24 18 5 19 23 20 2 21 1 22 12 23 13 24 14 25
REMARK SMILES IDX 15 26
REMARK H PARENT 11 2 7 14 15 27
ROOT
ATOM      1  N   UNL     1       6.144  41.580  49.157  1.00  0.00    -0.354 N 
ATOM      2  H   UNL     1       6.526  40.825  49.717  1.00  0.00     0.163 HD
ENDROOT
BRANCH   1   3
ATOM      3  C   UNL     1       5.531  42.446  50.049  1.00  0.00     0.226 A 
ATOM      4  C   UNL     1       5.560  44.523  51.022  1.00  0.00     0.164 A 
ATOM      5  N   UNL     1       6.123  43.630  50.188  1.00  0.00    -0.193 NA
ATOM      6  C   UNL     1       4.407  44.243  51.750  1.00  0.00     0.150 A 
ATOM      7  N   UNL     1       3.828  45.148  52.604  1.00  0.00    -0.247 NA
ATOM      8  C   UNL     1       3.886  42.962  51.536  1.00  0.00     0.185 A 
ATOM      9  N   UNL     1       4.435  42.084  50.707  1.00  0.00    -0.191 NA
ATOM     10  C   UNL     1       2.717  44.730  53.239  1.00  0.00     0.132 A 
ATOM     11  N   UNL     1       2.781  42.583  52.191  1.00  0.00    -0.233 NA
ATOM     12  C   UNL     1       2.204  43.469  53.035  1.00  0.00     0.133 A 
BRANCH   4  13
ATOM     13  N   UNL     1       6.159  45.795  51.247  1.00  0.00    -0.338 N 
ATOM     14  H   UNL     1       5.877  46.443  50.513  1.00  0.00     0.168 HD
BRANCH  13  15
ATOM     15  C   UNL     1       7.269  46.212  51.997  1.00  0.00     0.040 A 
ATOM     16  C   UNL     1       9.436  46.963  53.670  1.00  0.00     0.119 A 
ATOM     17  C   UNL     1       9.640  46.666  52.323  1.00  0.00     0.048 A 
ATOM     18  C   UNL     1       8.149  46.872  54.189  1.00  0.00     0.048 A 
ATOM     19  C   UNL     1       8.572  46.287  51.500  1.00  0.00     0.030 A 
ATOM     20  C   UNL     1       7.083  46.492  53.361  1.00  0.00     0.030 A 
BRANCH  16  21
ATOM     21  O   UNL     1      10.562  47.319  54.358  1.00  0.00    -0.497 OA
ATOM     22  C   UNL     1      10.399  47.642  55.732  1.00  0.00     0.278 C 
ENDBRANCH  16  21
ENDBRANCH  13  15
ENDBRANCH   4  13
ENDBRANCH   1   3
BRANCH   1  23
ATOM     23  C   UNL     1       5.365  41.174  48.001  1.00  0.00     0.118 C 
BRANCH  23  24
ATOM     24  C   UNL     1       5.770  41.933  46.738  1.00  0.00     0.049 C 
BRANCH  24  25
ATOM     25  C   UNL     1       5.006  41.469  45.505  1.00  0.00     0.158 C 
BRANCH  25  26
ATOM     26  O   UNL     1       4.294  40.268  45.791  1.00  0.00    -0.396 OA
ATOM     27  H   UNL     1       4.921  39.637  46.181  1.00  0.00     0.210 HD
ENDBRANCH  25  26
ENDBRANCH  24  25
ENDBRANCH  23  24
ENDBRANCH   1  23
TORSDOF 8
ENDMDL
MODEL 11
REMARK VINA RESULT:    -7.083      1.759      6.222
REMARK INTER + INTRA:         -11.388
REMARK INTER:                 -10.306
REMARK INTRA:                  -1.082
REMARK UNBOUND:                -1.199
REMARK SMILES COc1ccc(Nc2nc(NCCCO)nc3nccnc23)cc1
REMARK SMILES IDX 11 1 10 3 8 4 9 5 22 6 21 7 17 8 16 9 20 10 18 11 19 12 7 13
REMARK SMILES IDX 6 15 3 16 4 17 24 18 5 19 23 20 2 21 1 22 12 23 13 24 14 25
REMARK SMILES IDX 15 26
REMARK H PARENT 11 2 7 14 15 27
ROOT
ATOM      1  N   UNL     1       7.290  47.536  52.190  1.00  0.00    -0.354 N 
ATOM      2  H   UNL     1       6.926  47.806  53.098  1.00  0.00     0.163 HD
ENDROOT
BRANCH   1   3
ATOM      3  C   UNL     1       6.734  46.298  51.909  1.00  0.00     0.226 A 
ATOM      4  C   UNL     1       5.294  44.649  52.594  1.00  0.00     0.164 A 
ATOM      5  N   UNL     1       5.884  45.836  52.823  1.00  0.00    -0.193 NA
ATOM      6  C   UNL     1       5.559  43.889  51.458  1.00  0.00     0.150 A 
ATOM      7  N   UNL     1       4.962  42.677  51.219  1.00  0.00    -0.247 NA
ATOM      8  C   UNL     1       6.482  44.467  50.579  1.00  0.00     0.185 A 
ATOM      9  N   UNL     1       7.058  45.641  50.800  1.00  0.00    -0.191 NA
ATOM     10  C   UNL     1       5.322  42.060  50.077  1.00  0.00     0.132 A 
ATOM     11  N   UNL     1       6.816  43.818  49.456  1.00  0.00    -0.233 NA
ATOM     12  C   UNL     1       6.233  42.622  49.213  1.00  0.00     0.133 A 
BRANCH   4  13
ATOM     13  N   UNL     1       4.401  44.079  53.546  1.00  0.00    -0.338 N 
ATOM     14  H   UNL     1       4.735  43.157  53.822  1.00  0.00     0.168 HD
BRANCH  13  15
ATOM     15  C   UNL     1       3.063  44.338  53.878  1.00  0.00     0.040 A 
ATOM     16  C   UNL     1       0.314  44.678  54.499  1.00  0.00     0.119 A 
ATOM     17  C   UNL     1       1.302  45.318  55.246  1.00  0.00     0.048 A 
ATOM     18  C   UNL     1       0.698  43.854  53.446  1.00  0.00     0.048 A 
ATOM     19  C   UNL     1       2.659  45.142  54.945  1.00  0.00     0.030 A 
ATOM     20  C   UNL     1       2.057  43.682  53.149  1.00  0.00     0.030 A 
BRANCH  16  21
ATOM     21  O   UNL     1      -0.967  44.935  54.899  1.00  0.00    -0.497 OA
ATOM     22  C   UNL     1      -1.196  45.023  56.299  1.00  0.00     0.278 C 
ENDBRANCH  16  21
ENDBRANCH  13  15
ENDBRANCH   4  13
ENDBRANCH   1   3
BRANCH   1  23
ATOM     23  C   UNL     1       8.727  47.659  52.026  1.00  0.00     0.118 C 
BRANCH  23  24
ATOM     24  C   UNL     1       9.494  47.084  53.216  1.00  0.00     0.049 C 
BRANCH  24  25
ATOM     25  C   UNL     1       9.166  47.795  54.523  1.00  0.00     0.158 C 
BRANCH  25  26
ATOM     26  O   UNL     1       7.842  47.473  54.940  1.00  0.00    -0.396 OA
ATOM     27  H   UNL     1       7.233  48.073  54.479  1.00  0.00     0.210 HD
ENDBRANCH  25  26
ENDBRANCH  24  25
ENDBRANCH  23  24
ENDBRANCH   1  23
TORSDOF 8
ENDMDL
MODEL 12
REMARK VINA RESULT:    -7.078      2.129      4.511
REMARK INTER + INTRA:         -11.380
REMARK INTER:                 -10.698
REMARK INTRA:                  -0.682
REMARK UNBOUND:                -1.199
REMARK SMILES COc1ccc(Nc2nc(NCCCO)nc3nccnc23)cc1
REMARK SMILES IDX 11 1 10 3 8 4 9 5 22 6 21 7 17 8 16 9 20 10 18 11 19 12 7 13
REMARK SMILES IDX 6 15 3 16 4 17 24 18 5 19 23 20 2 21 1 22 12 23 13 24 14 25
REMARK SMILES IDX 15 26
REMARK H PARENT 11 2 7 14 15 27
ROOT
ATOM      1  N   UNL     1       4.436  41.206  50.874  1.00  0.00    -0.354 N 
ATOM      2  H   UNL     1       3.873  40.369  50.981  1.00  0.00     0.163 HD
ENDROOT
BRANCH   1   3
ATOM      3  C   UNL     1       3.632  42.262  51.270  1.00  0.00     0.226 A 
ATOM      4  C   UNL     1       3.549  44.352  52.212  1.00  0.00     0.164 A 
ATOM      5  N   UNL     1       4.274  43.286  51.828  1.00  0.00    -0.193 NA
ATOM      6  C   UNL     1       2.166  44.408  52.066  1.00  0.00     0.150 A 
ATOM      7  N   UNL     1       1.420  45.492  52.456  1.00  0.00    -0.247 NA
ATOM      8  C   UNL     1       1.600  43.268  51.484  1.00  0.00     0.185 A 
ATOM      9  N   UNL     1       2.315  42.220  51.098  1.00  0.00    -0.191 NA
ATOM     10  C   UNL     1       0.092  45.396  52.251  1.00  0.00     0.132 A 
ATOM     11  N   UNL     1       0.275  43.210  51.302  1.00  0.00    -0.233 NA
ATOM     12  C   UNL     1      -0.468  44.274  51.685  1.00  0.00     0.133 A 
BRANCH   4  13
ATOM     13  N   UNL     1       4.166  45.467  52.848  1.00  0.00    -0.338 N 
ATOM     14  H   UNL     1       3.472  46.192  53.021  1.00  0.00     0.168 HD
BRANCH  13  15
ATOM     15  C   UNL     1       5.497  45.900  52.942  1.00  0.00     0.040 A 
ATOM     16  C   UNL     1       8.165  46.869  52.963  1.00  0.00     0.119 A 
ATOM     17  C   UNL     1       7.451  46.710  54.150  1.00  0.00     0.048 A 
ATOM     18  C   UNL     1       7.542  46.558  51.760  1.00  0.00     0.048 A 
ATOM     19  C   UNL     1       6.131  46.240  54.139  1.00  0.00     0.030 A 
ATOM     20  C   UNL     1       6.222  46.087  51.754  1.00  0.00     0.030 A 
BRANCH  16  21
ATOM     21  O   UNL     1       9.440  47.336  53.117  1.00  0.00    -0.497 OA
ATOM     22  C   UNL     1       9.989  47.282  54.428  1.00  0.00     0.278 C 
ENDBRANCH  16  21
ENDBRANCH  13  15
ENDBRANCH   4  13
ENDBRANCH   1   3
BRANCH   1  23
ATOM     23  C   UNL     1       5.117  41.346  49.598  1.00  0.00     0.118 C 
BRANCH  23  24
ATOM     24  C   UNL     1       6.611  41.613  49.769  1.00  0.00     0.049 C 
BRANCH  24  25
ATOM     25  C   UNL     1       6.990  43.052  49.445  1.00  0.00     0.158 C 
BRANCH  25  26
ATOM     26  O   UNL     1       8.378  43.137  49.133  1.00  0.00    -0.396 OA
ATOM     27  H   UNL     1       8.458  43.481  48.228  1.00  0.00     0.210 HD
ENDBRANCH  25  26
ENDBRANCH  24  25
ENDBRANCH  23  24
ENDBRANCH   1  23
TORSDOF 8
ENDMDL
MODEL 13
REMARK VINA RESULT:    -7.005      2.917      6.386
REMARK INTER + INTRA:         -11.275
REMARK INTER:                 -10.520
REMARK INTRA:                  -0.755
REMARK UNBOUND:                -1.199
REMARK SMILES COc1ccc(Nc2nc(NCCCO)nc3nccnc23)cc1
REMARK SMILES IDX 11 1 10 3 8 4 9 5 22 6 21 7 17 8 16 9 20 10 18 11 19 12 7 13
REMARK SMILES IDX 6 15 3 16 4 17 24 18 5 19 23 20 2 21 1 22 12 23 13 24 14 25
REMARK SMILES IDX 15 26
REMARK H PARENT 11 2 7 14 15 27
ROOT
ATOM      1  N   UNL     1       6.588  44.014  49.443  1.00  0.00    -0.354 N 
ATOM      2  H   UNL     1       6.953  44.419  48.588  1.00  0.00     0.163 HD
ENDROOT
BRANCH   1   3
ATOM      3  C   UNL     1       6.890  44.914  50.453  1.00  0.00     0.226 A 
ATOM      4  C   UNL     1       6.070  46.332  52.058  1.00  0.00     0.164 A 
ATOM      5  N   UNL     1       5.839  45.468  51.053  1.00  0.00    -0.193 NA
ATOM      6  C   UNL     1       7.354  46.677  52.469  1.00  0.00     0.150 A 
ATOM      7  N   UNL     1       7.597  47.559  53.491  1.00  0.00    -0.247 NA
ATOM      8  C   UNL     1       8.378  46.046  51.752  1.00  0.00     0.185 A 
ATOM      9  N   UNL     1       8.152  45.188  50.767  1.00  0.00    -0.191 NA
ATOM     10  C   UNL     1       8.893  47.793  53.771  1.00  0.00     0.132 A 
ATOM     11  N   UNL     1       9.654  46.311  52.059  1.00  0.00    -0.233 NA
ATOM     12  C   UNL     1       9.902  47.179  53.065  1.00  0.00     0.133 A 
BRANCH   4  13
ATOM     13  N   UNL     1       4.994  46.989  52.721  1.00  0.00    -0.338 N 
ATOM     14  H   UNL     1       5.251  47.954  52.922  1.00  0.00     0.168 HD
BRANCH  13  15
ATOM     15  C   UNL     1       3.881  46.520  53.436  1.00  0.00     0.040 A 
ATOM     16  C   UNL     1       1.574  45.478  54.720  1.00  0.00     0.119 A 
ATOM     17  C   UNL     1       2.765  45.659  55.422  1.00  0.00     0.048 A 
ATOM     18  C   UNL     1       1.537  45.803  53.368  1.00  0.00     0.048 A 
ATOM     19  C   UNL     1       3.905  46.165  54.786  1.00  0.00     0.030 A 
ATOM     20  C   UNL     1       2.681  46.310  52.736  1.00  0.00     0.030 A 
BRANCH  16  21
ATOM     21  O   UNL     1       0.540  44.977  55.460  1.00  0.00    -0.497 OA
ATOM     22  C   UNL     1       0.590  45.198  56.863  1.00  0.00     0.278 C 
ENDBRANCH  16  21
ENDBRANCH  13  15
ENDBRANCH   4  13
ENDBRANCH   1   3
BRANCH   1  23
ATOM     23  C   UNL     1       6.939  42.625  49.681  1.00  0.00     0.118 C 
BRANCH  23  24
ATOM     24  C   UNL     1       5.750  41.687  49.474  1.00  0.00     0.049 C 
BRANCH  24  25
ATOM     25  C   UNL     1       4.774  41.713  50.643  1.00  0.00     0.158 C 
BRANCH  25  26
ATOM     26  O   UNL     1       3.775  40.710  50.473  1.00  0.00    -0.396 OA
ATOM     27  H   UNL     1       3.912  40.037  51.159  1.00  0.00     0.210 HD
ENDBRANCH  25  26
ENDBRANCH  24  25
ENDBRANCH  23  24
ENDBRANCH   1  23
TORSDOF 8
ENDMDL
MODEL 14
REMARK VINA RESULT:    -6.960      1.054      1.675
REMARK INTER + INTRA:         -11.211
REMARK INTER:                 -10.381
REMARK INTRA:                  -0.830
REMARK UNBOUND:                -1.199
REMARK SMILES COc1ccc(Nc2nc(NCCCO)nc3nccnc23)cc1
REMARK SMILES IDX 11 1 10 3 8 4 9 5 22 6 21 7 17 8 16 9 20 10 18 11 19 12 7 13
REMARK SMILES IDX 6 15 3 16 4 17 24 18 5 19 23 20 2 21 1 22 12 23 13 24 14 25
REMARK SMILES IDX 15 26
REMARK H PARENT 11 2 7 14 15 27
ROOT
ATOM      1  N   UNL     1       1.036  45.698  53.379  1.00  0.00    -0.354 N 
ATOM      2  H   UNL     1       0.374  45.969  52.660  1.00  0.00     0.163 HD
ENDROOT
BRANCH   1   3
ATOM      3  C   UNL     1       2.129  45.166  52.712  1.00  0.00     0.226 A 
ATOM      4  C   UNL     1       4.243  45.540  51.907  1.00  0.00     0.164 A 
ATOM      5  N   UNL     1       3.145  46.006  52.528  1.00  0.00    -0.193 NA
ATOM      6  C   UNL     1       4.341  44.233  51.439  1.00  0.00     0.150 A 
ATOM      7  N   UNL     1       5.458  43.752  50.804  1.00  0.00    -0.247 NA
ATOM      8  C   UNL     1       3.205  43.450  51.674  1.00  0.00     0.185 A 
ATOM      9  N   UNL     1       2.125  43.905  52.293  1.00  0.00    -0.191 NA
ATOM     10  C   UNL     1       5.401  42.466  50.407  1.00  0.00     0.132 A 
ATOM     11  N   UNL     1       3.187  42.176  51.259  1.00  0.00    -0.233 NA
ATOM     12  C   UNL     1       4.284  41.694  50.631  1.00  0.00     0.133 A 
BRANCH   4  13
ATOM     13  N   UNL     1       5.353  46.393  51.644  1.00  0.00    -0.338 N 
ATOM     14  H   UNL     1       5.301  46.742  50.689  1.00  0.00     0.168 HD
BRANCH  13  15
ATOM     15  C   UNL     1       6.608  46.546  52.253  1.00  0.00     0.040 A 
ATOM     16  C   UNL     1       9.204  46.958  53.326  1.00  0.00     0.119 A 
ATOM     17  C   UNL     1       8.083  46.919  54.155  1.00  0.00     0.048 A 
ATOM     18  C   UNL     1       9.029  46.805  51.955  1.00  0.00     0.048 A 
ATOM     19  C   UNL     1       6.802  46.725  53.624  1.00  0.00     0.030 A 
ATOM     20  C   UNL     1       7.744  46.610  51.429  1.00  0.00     0.030 A 
BRANCH  16  21
ATOM     21  O   UNL     1      10.391  47.154  53.973  1.00  0.00    -0.497 OA
ATOM     22  C   UNL     1      10.323  47.458  55.360  1.00  0.00     0.278 C 
ENDBRANCH  16  21
ENDBRANCH  13  15
ENDBRANCH   4  13
ENDBRANCH   1   3
BRANCH   1  23
ATOM     23  C   UNL     1       0.491  44.910  54.471  1.00  0.00     0.118 C 
BRANCH  23  24
ATOM     24  C   UNL     1       1.543  44.594  55.533  1.00  0.00     0.049 C 
BRANCH  24  25
ATOM     25  C   UNL     1       1.987  45.830  56.305  1.00  0.00     0.158 C 
BRANCH  25  26
ATOM     26  O   UNL     1       3.308  46.202  55.920  1.00  0.00    -0.396 OA
ATOM     27  H   UNL     1       3.418  47.147  56.116  1.00  0.00     0.210 HD
ENDBRANCH  25  26
ENDBRANCH  24  25
ENDBRANCH  23  24
ENDBRANCH   1  23
TORSDOF 8
ENDMDL
MODEL 15
REMARK VINA RESULT:    -6.905      2.165      4.481
REMARK INTER + INTRA:         -11.132
REMARK INTER:                 -10.584
REMARK INTRA:                  -0.549
REMARK UNBOUND:                -1.199
REMARK SMILES COc1ccc(Nc2nc(NCCCO)nc3nccnc23)cc1
REMARK SMILES IDX 11 1 10 3 8 4 9 5 22 6 21 7 17 8 16 9 20 10 18 11 19 12 7 13
REMARK SMILES IDX 6 15 3 16 4 17 24 18 5 19 23 20 2 21 1 22 12 23 13 24 14 25
REMARK SMILES IDX 15 26
REMARK H PARENT 11 2 7 14 15 27
ROOT
ATOM      1  N   UNL     1       6.597  42.997  49.422  1.00  0.00    -0.354 N 
ATOM      2  H   UNL     1       7.590  43.111  49.249  1.00  0.00     0.163 HD
ENDROOT
BRANCH   1   3
ATOM      3  C   UNL     1       6.240  44.017  50.290  1.00  0.00     0.226 A 
ATOM      4  C   UNL     1       6.896  45.944  51.348  1.00  0.00     0.164 A 
ATOM      5  N   UNL     1       7.191  44.917  50.531  1.00  0.00    -0.193 NA
ATOM      6  C   UNL     1       5.652  46.082  51.957  1.00  0.00     0.150 A 
ATOM      7  N   UNL     1       5.345  47.127  52.792  1.00  0.00    -0.247 NA
ATOM      8  C   UNL     1       4.740  45.068  51.643  1.00  0.00     0.185 A 
ATOM      9  N   UNL     1       5.027  44.059  50.831  1.00  0.00    -0.191 NA
ATOM     10  C   UNL     1       4.100  47.121  53.306  1.00  0.00     0.132 A 
ATOM     11  N   UNL     1       3.514  45.097  52.179  1.00  0.00    -0.233 NA
ATOM     12  C   UNL     1       3.202  46.123  53.004  1.00  0.00     0.133 A 
BRANCH   4  13
ATOM     13  N   UNL     1       7.877  46.922  51.678  1.00  0.00    -0.338 N 
ATOM     14  H   UNL     1       8.297  47.289  50.826  1.00  0.00     0.168 HD
BRANCH  13  15
ATOM     15  C   UNL     1       8.598  47.198  52.850  1.00  0.00     0.040 A 
ATOM     16  C   UNL     1       9.887  47.814  55.303  1.00  0.00     0.119 A 
ATOM     17  C   UNL     1      10.309  46.739  54.521  1.00  0.00     0.048 A 
ATOM     18  C   UNL     1       8.809  48.577  54.867  1.00  0.00     0.048 A 
ATOM     19  C   UNL     1       9.666  46.430  53.316  1.00  0.00     0.030 A 
ATOM     20  C   UNL     1       8.170  48.263  53.659  1.00  0.00     0.030 A 
BRANCH  16  21
ATOM     21  O   UNL     1      10.600  48.004  56.453  1.00  0.00    -0.497 OA
ATOM     22  C   UNL     1      11.702  47.134  56.676  1.00  0.00     0.278 C 
ENDBRANCH  16  21
ENDBRANCH  13  15
ENDBRANCH   4  13
ENDBRANCH   1   3
BRANCH   1  23
ATOM     23  C   UNL     1       6.170  41.656  49.780  1.00  0.00     0.118 C 
BRANCH  23  24
ATOM     24  C   UNL     1       5.033  41.157  48.888  1.00  0.00     0.049 C 
BRANCH  24  25
ATOM     25  C   UNL     1       3.792  40.771  49.682  1.00  0.00     0.158 C 
BRANCH  25  26
ATOM     26  O   UNL     1       3.957  41.121  51.054  1.00  0.00    -0.396 OA
ATOM     27  H   UNL     1       3.961  40.299  51.571  1.00  0.00     0.210 HD
ENDBRANCH  25  26
ENDBRANCH  24  25
ENDBRANCH  23  24
ENDBRANCH   1  23
TORSDOF 8
ENDMDL
MODEL 16
REMARK VINA RESULT:    -6.824      3.142      7.371
REMARK INTER + INTRA:         -11.015
REMARK INTER:                 -10.426
REMARK INTRA:                  -0.590
REMARK UNBOUND:                -1.199
REMARK SMILES COc1ccc(Nc2nc(NCCCO)nc3nccnc23)cc1
REMARK SMILES IDX 11 1 10 3 8 4 9 5 22 6 21 7 17 8 16 9 20 10 18 11 19 12 7 13
REMARK SMILES IDX 6 15 3 16 4 17 24 18 5 19 23 20 2 21 1 22 12 23 13 24 14 25
REMARK SMILES IDX 15 26
REMARK H PARENT 11 2 7 14 15 27
ROOT
ATOM      1  N   UNL     1       7.868  45.950  50.607  1.00  0.00    -0.354 N 
ATOM      2  H   UNL     1       7.716  46.338  49.682  1.00  0.00     0.163 HD
ENDROOT
BRANCH   1   3
ATOM      3  C   UNL     1       6.824  45.066  50.829  1.00  0.00     0.226 A 
ATOM      4  C   UNL     1       5.907  43.026  50.322  1.00  0.00     0.164 A 
ATOM      5  N   UNL     1       6.881  43.934  50.131  1.00  0.00    -0.193 NA
ATOM      6  C   UNL     1       4.845  43.239  51.196  1.00  0.00     0.150 A 
ATOM      7  N   UNL     1       3.848  42.318  51.394  1.00  0.00    -0.247 NA
ATOM      8  C   UNL     1       4.883  44.472  51.859  1.00  0.00     0.185 A 
ATOM      9  N   UNL     1       5.846  45.364  51.678  1.00  0.00    -0.191 NA
ATOM     10  C   UNL     1       2.888  42.670  52.270  1.00  0.00     0.132 A 
ATOM     11  N   UNL     1       3.906  44.785  52.719  1.00  0.00    -0.233 NA
ATOM     12  C   UNL     1       2.918  43.883  52.920  1.00  0.00     0.133 A 
BRANCH   4  13
ATOM     13  N   UNL     1       5.886  41.809  49.582  1.00  0.00    -0.338 N 
ATOM     14  H   UNL     1       6.626  41.193  49.913  1.00  0.00     0.168 HD
BRANCH  13  15
ATOM     15  C   UNL     1       5.343  41.454  48.338  1.00  0.00     0.040 A 
ATOM     16  C   UNL     1       4.066  40.738  45.906  1.00  0.00     0.119 A 
ATOM     17  C   UNL     1       5.199  41.552  45.909  1.00  0.00     0.048 A 
ATOM     18  C   UNL     1       3.559  40.290  47.121  1.00  0.00     0.048 A 
ATOM     19  C   UNL     1       5.822  41.912  47.110  1.00  0.00     0.030 A 
ATOM     20  C   UNL     1       4.188  40.653  48.320  1.00  0.00     0.030 A 
BRANCH  16  21
ATOM     21  O   UNL     1       3.558  40.464  44.667  1.00  0.00    -0.497 OA
ATOM     22  C   UNL     1       4.476  40.003  43.685  1.00  0.00     0.278 C 
ENDBRANCH  16  21
ENDBRANCH  13  15
ENDBRANCH   4  13
ENDBRANCH   1   3
BRANCH   1  23
ATOM     23  C   UNL     1       8.139  46.917  51.657  1.00  0.00     0.118 C 
BRANCH  23  24
ATOM     24  C   UNL     1       9.568  46.806  52.186  1.00  0.00     0.049 C 
BRANCH  24  25
ATOM     25  C   UNL     1       9.677  47.170  53.661  1.00  0.00     0.158 C 
BRANCH  25  26
ATOM     26  O   UNL     1       8.764  48.219  53.978  1.00  0.00    -0.396 OA
ATOM     27  H   UNL     1       8.197  47.909  54.703  1.00  0.00     0.210 HD
ENDBRANCH  25  26
ENDBRANCH  24  25
ENDBRANCH  23  24
ENDBRANCH   1  23
TORSDOF 8
ENDMDL
MODEL 17
REMARK VINA RESULT:    -6.803      1.945      6.498
REMARK INTER + INTRA:         -10.985
REMARK INTER:                  -9.924
REMARK INTRA:                  -1.061
REMARK UNBOUND:                -1.199
REMARK SMILES COc1ccc(Nc2nc(NCCCO)nc3nccnc23)cc1
REMARK SMILES IDX 11 1 10 3 8 4 9 5 22 6 21 7 17 8 16 9 20 10 18 11 19 12 7 13
REMARK SMILES IDX 6 15 3 16 4 17 24 18 5 19 23 20 2 21 1 22 12 23 13 24 14 25
REMARK SMILES IDX 15 26
REMARK H PARENT 11 2 7 14 15 27
ROOT
ATOM      1  N   UNL     1       6.653  46.727  51.957  1.00  0.00    -0.354 N 
ATOM      2  H   UNL     1       5.870  47.371  52.001  1.00  0.00     0.163 HD
ENDROOT
BRANCH   1   3
ATOM      3  C   UNL     1       6.112  45.487  51.658  1.00  0.00     0.226 A 
ATOM      4  C   UNL     1       4.597  43.869  52.250  1.00  0.00     0.164 A 
ATOM      5  N   UNL     1       5.177  45.057  52.502  1.00  0.00    -0.193 NA
ATOM      6  C   UNL     1       4.955  43.077  51.163  1.00  0.00     0.150 A 
ATOM      7  N   UNL     1       4.369  41.864  50.901  1.00  0.00    -0.247 NA
ATOM      8  C   UNL     1       5.961  43.624  50.357  1.00  0.00     0.185 A 
ATOM      9  N   UNL     1       6.527  44.798  50.600  1.00  0.00    -0.191 NA
ATOM     10  C   UNL     1       4.824  41.215  49.812  1.00  0.00     0.132 A 
ATOM     11  N   UNL     1       6.388  42.943  49.286  1.00  0.00    -0.233 NA
ATOM     12  C   UNL     1       5.817  41.746  49.021  1.00  0.00     0.133 A 
BRANCH   4  13
ATOM     13  N   UNL     1       3.615  43.332  53.131  1.00  0.00    -0.338 N 
ATOM     14  H   UNL     1       3.795  42.341  53.282  1.00  0.00     0.168 HD
BRANCH  13  15
ATOM     15  C   UNL     1       2.333  43.757  53.509  1.00  0.00     0.040 A 
ATOM     16  C   UNL     1      -0.317  44.430  54.272  1.00  0.00     0.119 A 
ATOM     17  C   UNL     1       0.773  45.158  54.749  1.00  0.00     0.048 A 
ATOM     18  C   UNL     1      -0.085  43.354  53.423  1.00  0.00     0.048 A 
ATOM     19  C   UNL     1       2.081  44.820  54.379  1.00  0.00     0.030 A 
ATOM     20  C   UNL     1       1.227  43.020  53.056  1.00  0.00     0.030 A 
BRANCH  16  21
ATOM     21  O   UNL     1      -1.536  44.865  54.711  1.00  0.00    -0.497 OA
ATOM     22  C   UNL     1      -2.202  44.051  55.667  1.00  0.00     0.278 C 
ENDBRANCH  16  21
ENDBRANCH  13  15
ENDBRANCH   4  13
ENDBRANCH   1   3
BRANCH   1  23
ATOM     23  C   UNL     1       7.578  46.783  53.075  1.00  0.00     0.118 C 
BRANCH  23  24
ATOM     24  C   UNL     1       8.872  47.512  52.716  1.00  0.00     0.049 C 
BRANCH  24  25
ATOM     25  C   UNL     1       9.974  46.561  52.266  1.00  0.00     0.158 C 
BRANCH  25  26
ATOM     26  O   UNL     1       9.503  45.725  51.212  1.00  0.00    -0.396 OA
ATOM     27  H   UNL     1       9.701  46.170  50.371  1.00  0.00     0.210 HD
ENDBRANCH  25  26
ENDBRANCH  24  25
ENDBRANCH  23  24
ENDBRANCH   1  23
TORSDOF 8
ENDMDL
MODEL 18
REMARK VINA RESULT:    -6.713      2.516      5.460
REMARK INTER + INTRA:         -10.855
REMARK INTER:                  -9.777
REMARK INTRA:                  -1.078
REMARK UNBOUND:                -1.199
REMARK SMILES COc1ccc(Nc2nc(NCCCO)nc3nccnc23)cc1
REMARK SMILES IDX 11 1 10 3 8 4 9 5 22 6 21 7 17 8 16 9 20 10 18 11 19 12 7 13
REMARK SMILES IDX 6 15 3 16 4 17 24 18 5 19 23 20 2 21 1 22 12 23 13 24 14 25
REMARK SMILES IDX 15 26
REMARK H PARENT 11 2 7 14 15 27
ROOT
ATOM      1  N   UNL     1       3.978  45.878  55.732  1.00  0.00    -0.354 N 
ATOM      2  H   UNL     1       3.709  45.774  56.705  1.00  0.00     0.163 HD
ENDROOT
BRANCH   1   3
ATOM      3  C   UNL     1       3.029  45.185  54.997  1.00  0.00     0.226 A 
ATOM      4  C   UNL     1       2.610  43.903  53.142  1.00  0.00     0.164 A 
ATOM      5  N   UNL     1       3.480  44.610  53.885  1.00  0.00    -0.193 NA
ATOM      6  C   UNL     1       1.267  43.773  53.483  1.00  0.00     0.150 A 
ATOM      7  N   UNL     1       0.374  43.055  52.729  1.00  0.00    -0.247 NA
ATOM      8  C   UNL     1       0.905  44.434  54.663  1.00  0.00     0.185 A 
ATOM      9  N   UNL     1       1.764  45.125  55.400  1.00  0.00    -0.191 NA
ATOM     10  C   UNL     1      -0.892  43.023  53.189  1.00  0.00     0.132 A 
ATOM     11  N   UNL     1      -0.365  44.382  55.083  1.00  0.00    -0.233 NA
ATOM     12  C   UNL     1      -1.253  43.676  54.345  1.00  0.00     0.133 A 
BRANCH   4  13
ATOM     13  N   UNL     1       3.016  43.293  51.920  1.00  0.00    -0.338 N 
ATOM     14  H   UNL     1       2.382  42.530  51.689  1.00  0.00     0.168 HD
BRANCH  13  15
ATOM     15  C   UNL     1       4.229  43.277  51.215  1.00  0.00     0.040 A 
ATOM     16  C   UNL     1       6.609  43.100  49.679  1.00  0.00     0.119 A 
ATOM     17  C   UNL     1       6.154  44.328  50.157  1.00  0.00     0.048 A 
ATOM     18  C   UNL     1       5.868  41.957  49.956  1.00  0.00     0.048 A 
ATOM     19  C   UNL     1       4.975  44.416  50.907  1.00  0.00     0.030 A 
ATOM     20  C   UNL     1       4.688  42.050  50.708  1.00  0.00     0.030 A 
BRANCH  16  21
ATOM     21  O   UNL     1       7.771  43.156  48.962  1.00  0.00    -0.497 OA
ATOM     22  C   UNL     1       8.682  44.195  49.296  1.00  0.00     0.278 C 
ENDBRANCH  16  21
ENDBRANCH  13  15
ENDBRANCH   4  13
ENDBRANCH   1   3
BRANCH   1  23
ATOM     23  C   UNL     1       5.370  45.595  55.431  1.00  0.00     0.118 C 
BRANCH  23  24
ATOM     24  C   UNL     1       6.104  46.824  54.895  1.00  0.00     0.049 C 
BRANCH  24  25
ATOM     25  C   UNL     1       6.042  46.928  53.377  1.00  0.00     0.158 C 
BRANCH  25  26
ATOM     26  O   UNL     1       4.732  47.307  52.962  1.00  0.00    -0.396 OA
ATOM     27  H   UNL     1       4.814  48.106  52.417  1.00  0.00     0.210 HD
ENDBRANCH  25  26
ENDBRANCH  24  25
ENDBRANCH  23  24
ENDBRANCH   1  23
TORSDOF 8
ENDMDL
