MODEL 1
REMARK VINA RESULT:    -8.924      0.000      0.000
REMARK INTER + INTRA:         -13.405
REMARK INTER:                 -12.055
REMARK INTRA:                  -1.350
REMARK UNBOUND:                -1.350
REMARK SMILES CC(=O)NCCNc1nc(Nc2ccc(Br)cc2C)c2cnn(C)c2n1
REMARK SMILES IDX 7 1 6 3 5 4 4 5 2 6 1 7 3 8 8 10 9 11 26 12 10 13 25 14
REMARK SMILES IDX 20 15 23 16 21 17 22 18 24 19 11 20 12 22 13 23 18 24 14 25
REMARK SMILES IDX 17 26 15 27 19 28 16 29
REMARK H PARENT 7 2 4 9 11 21
ROOT
ATOM      1  N   UNL     1       2.694  45.914  52.373  1.00  0.00    -0.352 N 
ATOM      2  H   UNL     1       3.063  46.750  52.812  1.00  0.00     0.163 HD
ENDROOT
BRANCH   1   3
ATOM      3  C   UNL     1       1.840  45.115  53.251  1.00  0.00     0.137 C 
BRANCH   3   4
ATOM      4  C   UNL     1       2.093  45.400  54.745  1.00  0.00     0.137 C 
BRANCH   4   5
ATOM      5  N   UNL     1       3.362  44.868  55.220  1.00  0.00    -0.355 N 
ATOM      6  C   UNL     1       4.490  45.650  55.271  1.00  0.00     0.216 C 
ATOM      7  C   UNL     1       5.729  44.921  55.716  1.00  0.00     0.114 C 
ATOM      8  O   UNL     1       4.504  46.837  54.964  1.00  0.00    -0.275 OA
ATOM      9  H   UNL     1       3.443  43.864  55.321  1.00  0.00     0.163 HD
ENDBRANCH   4   5
ENDBRANCH   3   4
ENDBRANCH   1   3
BRANCH   1  10
ATOM     10  C   UNL     1       3.759  45.253  51.785  1.00  0.00     0.226 A 
ATOM     11  N   UNL     1       4.894  45.976  51.714  1.00  0.00    -0.195 NA
ATOM     12  N   UNL     1       3.608  43.988  51.373  1.00  0.00    -0.193 NA
ATOM     13  C   UNL     1       6.004  45.443  51.144  1.00  0.00     0.147 A 
ATOM     14  C   UNL     1       4.727  43.476  50.840  1.00  0.00     0.165 A 
ATOM     15  C   UNL     1       5.939  44.121  50.698  1.00  0.00     0.082 A 
ATOM     16  N   UNL     1       4.908  42.219  50.331  1.00  0.00    -0.250 N 
ATOM     17  C   UNL     1       6.786  43.156  50.117  1.00  0.00     0.149 A 
ATOM     18  N   UNL     1       6.166  41.993  49.885  1.00  0.00    -0.179 NA
ATOM     19  C   UNL     1       3.925  41.170  50.240  1.00  0.00     0.176 C 
BRANCH  13  20
ATOM     20  N   UNL     1       7.149  46.255  51.098  1.00  0.00    -0.339 N 
ATOM     21  H   UNL     1       7.717  45.906  50.328  1.00  0.00     0.168 HD
BRANCH  20  22
ATOM     22  C   UNL     1       7.980  46.620  52.185  1.00  0.00     0.043 A 
ATOM     23  C   UNL     1       7.464  47.275  53.315  1.00  0.00     0.027 A 
ATOM     24  C   UNL     1       9.330  46.212  52.190  1.00  0.00    -0.026 A 
ATOM     25  C   UNL     1       8.280  47.573  54.408  1.00  0.00     0.018 A 
ATOM     26  C   UNL     1      10.144  46.515  53.295  1.00  0.00     0.021 A 
ATOM     27  C   UNL     1       9.617  47.195  54.391  1.00  0.00     0.018 A 
ATOM     28  C   UNL     1       9.920  45.473  51.019  1.00  0.00     0.046 C 
ATOM     29  Br  UNL     1      10.726  47.593  55.869  1.00  0.00    -0.051 Br
ENDBRANCH  20  22
ENDBRANCH  13  20
ENDBRANCH   1  10
TORSDOF 6
ENDMDL
MODEL 2
REMARK VINA RESULT:    -8.663      1.335      1.775
REMARK INTER + INTRA:         -13.052
REMARK INTER:                 -12.088
REMARK INTRA:                  -0.964
REMARK UNBOUND:                -1.350
REMARK SMILES CC(=O)NCCNc1nc(Nc2ccc(Br)cc2C)c2cnn(C)c2n1
REMARK SMILES IDX 7 1 6 3 5 4 4 5 2 6 1 7 3 8 8 10 9 11 26 12 10 13 25 14
REMARK SMILES IDX 20 15 23 16 21 17 22 18 24 19 11 20 12 22 13 23 18 24 14 25
REMARK SMILES IDX 17 26 15 27 19 28 16 29
REMARK H PARENT 7 2 4 9 11 21
ROOT
ATOM      1  N   UNL     1       3.493  45.456  52.592  1.00  0.00    -0.352 N 
ATOM      2  H   UNL     1       2.760  45.742  51.954  1.00  0.00     0.163 HD
ENDROOT
BRANCH   1   3
ATOM      3  C   UNL     1       3.721  46.397  53.688  1.00  0.00     0.137 C 
BRANCH   3   4
ATOM      4  C   UNL     1       3.981  45.691  55.033  1.00  0.00     0.137 C 
BRANCH   4   5
ATOM      5  N   UNL     1       2.857  45.785  55.953  1.00  0.00    -0.355 N 
ATOM      6  C   UNL     1       1.725  45.027  55.779  1.00  0.00     0.216 C 
ATOM      7  C   UNL     1       0.635  45.305  56.778  1.00  0.00     0.114 C 
ATOM      8  O   UNL     1       1.595  44.205  54.878  1.00  0.00    -0.275 OA
ATOM      9  H   UNL     1       2.846  46.561  56.603  1.00  0.00     0.163 HD
ENDBRANCH   4   5
ENDBRANCH   3   4
ENDBRANCH   1   3
BRANCH   1  10
ATOM     10  C   UNL     1       4.600  45.126  51.827  1.00  0.00     0.226 A 
ATOM     11  N   UNL     1       5.612  46.012  51.899  1.00  0.00    -0.195 NA
ATOM     12  N   UNL     1       4.603  43.988  51.122  1.00  0.00    -0.193 NA
ATOM     13  C   UNL     1       6.746  45.808  51.182  1.00  0.00     0.147 A 
ATOM     14  C   UNL     1       5.744  43.797  50.445  1.00  0.00     0.165 A 
ATOM     15  C   UNL     1       6.840  44.636  50.428  1.00  0.00     0.082 A 
ATOM     16  N   UNL     1       6.067  42.740  49.637  1.00  0.00    -0.250 N 
ATOM     17  C   UNL     1       7.774  43.980  49.601  1.00  0.00     0.149 A 
ATOM     18  N   UNL     1       7.311  42.824  49.111  1.00  0.00    -0.179 NA
ATOM     19  C   UNL     1       5.239  41.604  49.322  1.00  0.00     0.176 C 
BRANCH  13  20
ATOM     20  N   UNL     1       7.759  46.774  51.301  1.00  0.00    -0.339 N 
ATOM     21  H   UNL     1       8.371  46.648  50.498  1.00  0.00     0.168 HD
BRANCH  20  22
ATOM     22  C   UNL     1       8.526  47.067  52.453  1.00  0.00     0.043 A 
ATOM     23  C   UNL     1       7.987  47.791  53.530  1.00  0.00     0.027 A 
ATOM     24  C   UNL     1       9.820  46.519  52.579  1.00  0.00    -0.026 A 
ATOM     25  C   UNL     1       8.734  48.018  54.688  1.00  0.00     0.018 A 
ATOM     26  C   UNL     1      10.563  46.752  53.749  1.00  0.00     0.021 A 
ATOM     27  C   UNL     1      10.020  47.501  54.790  1.00  0.00     0.018 A 
ATOM     28  C   UNL     1      10.427  45.704  51.469  1.00  0.00     0.046 C 
ATOM     29  Br  UNL     1      11.032  47.804  56.357  1.00  0.00    -0.051 Br
ENDBRANCH  20  22
ENDBRANCH  13  20
ENDBRANCH   1  10
TORSDOF 6
ENDMDL
MODEL 3
REMARK VINA RESULT:    -8.648      2.987      5.616
REMARK INTER + INTRA:         -13.032
REMARK INTER:                 -11.982
REMARK INTRA:                  -1.050
REMARK UNBOUND:                -1.350
REMARK SMILES CC(=O)NCCNc1nc(Nc2ccc(Br)cc2C)c2cnn(C)c2n1
REMARK SMILES IDX 7 1 6 3 5 4 4 5 2 6 1 7 3 8 8 10 9 11 26 12 10 13 25 14
REMARK SMILES IDX 20 15 23 16 21 17 22 18 24 19 11 20 12 22 13 23 18 24 14 25
REMARK SMILES IDX 17 26 15 27 19 28 16 29
REMARK H PARENT 7 2 4 9 11 21
ROOT
ATOM      1  N   UNL     1       4.720  46.914  54.955  1.00  0.00    -0.352 N 
ATOM      2  H   UNL     1       4.879  47.555  55.724  1.00  0.00     0.163 HD
ENDROOT
BRANCH   1   3
ATOM      3  C   UNL     1       4.058  45.672  55.350  1.00  0.00     0.137 C 
BRANCH   3   4
ATOM      4  C   UNL     1       2.524  45.750  55.222  1.00  0.00     0.137 C 
BRANCH   4   5
ATOM      5  N   UNL     1       2.028  45.207  53.966  1.00  0.00    -0.355 N 
ATOM      6  C   UNL     1       1.981  45.970  52.825  1.00  0.00     0.216 C 
ATOM      7  C   UNL     1       1.372  45.273  51.638  1.00  0.00     0.114 C 
ATOM      8  O   UNL     1       2.381  47.128  52.771  1.00  0.00    -0.275 OA
ATOM      9  H   UNL     1       1.534  44.323  53.998  1.00  0.00     0.163 HD
ENDBRANCH   4   5
ENDBRANCH   3   4
ENDBRANCH   1   3
BRANCH   1  10
ATOM     10  C   UNL     1       5.920  46.780  54.276  1.00  0.00     0.226 A 
ATOM     11  N   UNL     1       5.807  46.252  53.042  1.00  0.00    -0.195 NA
ATOM     12  N   UNL     1       7.057  47.192  54.852  1.00  0.00    -0.193 NA
ATOM     13  C   UNL     1       6.915  46.056  52.283  1.00  0.00     0.147 A 
ATOM     14  C   UNL     1       8.132  47.013  54.070  1.00  0.00     0.165 A 
ATOM     15  C   UNL     1       8.144  46.471  52.801  1.00  0.00     0.082 A 
ATOM     16  N   UNL     1       9.432  47.328  54.357  1.00  0.00    -0.250 N 
ATOM     17  C   UNL     1       9.495  46.529  52.405  1.00  0.00     0.149 A 
ATOM     18  N   UNL     1      10.291  47.047  53.349  1.00  0.00    -0.179 NA
ATOM     19  C   UNL     1       9.936  47.909  55.575  1.00  0.00     0.176 C 
BRANCH  13  20
ATOM     20  N   UNL     1       6.724  45.497  51.009  1.00  0.00    -0.339 N 
ATOM     21  H   UNL     1       6.385  46.250  50.413  1.00  0.00     0.168 HD
BRANCH  20  22
ATOM     22  C   UNL     1       6.046  44.294  50.699  1.00  0.00     0.043 A 
ATOM     23  C   UNL     1       4.778  44.008  51.230  1.00  0.00     0.027 A 
ATOM     24  C   UNL     1       6.598  43.416  49.741  1.00  0.00    -0.026 A 
ATOM     25  C   UNL     1       4.091  42.847  50.867  1.00  0.00     0.018 A 
ATOM     26  C   UNL     1       5.899  42.252  49.380  1.00  0.00     0.021 A 
ATOM     27  C   UNL     1       4.657  41.973  49.947  1.00  0.00     0.018 A 
ATOM     28  C   UNL     1       7.936  43.699  49.114  1.00  0.00     0.046 C 
ATOM     29  Br  UNL     1       3.730  40.403  49.449  1.00  0.00    -0.051 Br
ENDBRANCH  20  22
ENDBRANCH  13  20
ENDBRANCH   1  10
TORSDOF 6
ENDMDL
MODEL 4
REMARK VINA RESULT:    -8.528      2.477      5.662
REMARK INTER + INTRA:         -12.869
REMARK INTER:                 -12.256
REMARK INTRA:                  -0.614
REMARK UNBOUND:                -1.350
REMARK SMILES CC(=O)NCCNc1nc(Nc2ccc(Br)cc2C)c2cnn(C)c2n1
REMARK SMILES IDX 7 1 6 3 5 4 4 5 2 6 1 7 3 8 8 10 9 11 26 12 10 13 25 14
REMARK SMILES IDX 20 15 23 16 21 17 22 18 24 19 11 20 12 22 13 23 18 24 14 25
REMARK SMILES IDX 17 26 15 27 19 28 16 29
REMARK H PARENT 7 2 4 9 11 21
ROOT
ATOM      1  N   UNL     1       4.340  45.805  55.775  1.00  0.00    -0.352 N 
ATOM      2  H   UNL     1       4.164  46.790  55.935  1.00  0.00     0.163 HD
ENDROOT
BRANCH   1   3
ATOM      3  C   UNL     1       5.650  45.528  55.187  1.00  0.00     0.137 C 
BRANCH   3   4
ATOM      4  C   UNL     1       6.317  46.789  54.604  1.00  0.00     0.137 C 
BRANCH   4   5
ATOM      5  N   UNL     1       7.576  46.508  53.931  1.00  0.00    -0.355 N 
ATOM      6  C   UNL     1       8.709  47.237  54.200  1.00  0.00     0.216 C 
ATOM      7  C   UNL     1       9.901  46.862  53.361  1.00  0.00     0.114 C 
ATOM      8  O   UNL     1       8.752  48.134  55.036  1.00  0.00    -0.275 OA
ATOM      9  H   UNL     1       7.552  45.901  53.121  1.00  0.00     0.163 HD
ENDBRANCH   4   5
ENDBRANCH   3   4
ENDBRANCH   1   3
BRANCH   1  10
ATOM     10  C   UNL     1       3.244  45.295  55.099  1.00  0.00     0.226 A 
ATOM     11  N   UNL     1       3.515  44.840  53.860  1.00  0.00    -0.195 NA
ATOM     12  N   UNL     1       2.049  45.263  55.703  1.00  0.00    -0.193 NA
ATOM     13  C   UNL     1       2.520  44.330  53.092  1.00  0.00     0.147 A 
ATOM     14  C   UNL     1       1.090  44.729  54.932  1.00  0.00     0.165 A 
ATOM     15  C   UNL     1       1.242  44.246  53.649  1.00  0.00     0.082 A 
ATOM     16  N   UNL     1      -0.229  44.549  55.249  1.00  0.00    -0.250 N 
ATOM     17  C   UNL     1      -0.039  43.775  53.296  1.00  0.00     0.149 A 
ATOM     18  N   UNL     1      -0.945  43.958  54.264  1.00  0.00    -0.179 NA
ATOM     19  C   UNL     1      -0.883  44.910  56.481  1.00  0.00     0.176 C 
BRANCH  13  20
ATOM     20  N   UNL     1       2.873  43.879  51.809  1.00  0.00    -0.339 N 
ATOM     21  H   UNL     1       2.516  42.928  51.732  1.00  0.00     0.168 HD
BRANCH  20  22
ATOM     22  C   UNL     1       4.143  43.971  51.192  1.00  0.00     0.043 A 
ATOM     23  C   UNL     1       4.816  45.198  51.078  1.00  0.00     0.027 A 
ATOM     24  C   UNL     1       4.804  42.790  50.793  1.00  0.00    -0.026 A 
ATOM     25  C   UNL     1       6.097  45.267  50.525  1.00  0.00     0.018 A 
ATOM     26  C   UNL     1       6.093  42.869  50.240  1.00  0.00     0.021 A 
ATOM     27  C   UNL     1       6.728  44.102  50.105  1.00  0.00     0.018 A 
ATOM     28  C   UNL     1       4.141  41.447  50.931  1.00  0.00     0.046 C 
ATOM     29  Br  UNL     1       8.462  44.189  49.360  1.00  0.00    -0.051 Br
ENDBRANCH  20  22
ENDBRANCH  13  20
ENDBRANCH   1  10
TORSDOF 6
ENDMDL
MODEL 5
REMARK VINA RESULT:    -8.503      1.622      2.256
REMARK INTER + INTRA:         -12.835
REMARK INTER:                 -11.947
REMARK INTRA:                  -0.888
REMARK UNBOUND:                -1.350
REMARK SMILES CC(=O)NCCNc1nc(Nc2ccc(Br)cc2C)c2cnn(C)c2n1
REMARK SMILES IDX 7 1 6 3 5 4 4 5 2 6 1 7 3 8 8 10 9 11 26 12 10 13 25 14
REMARK SMILES IDX 20 15 23 16 21 17 22 18 24 19 11 20 12 22 13 23 18 24 14 25
REMARK SMILES IDX 17 26 15 27 19 28 16 29
REMARK H PARENT 7 2 4 9 11 21
ROOT
ATOM      1  N   UNL     1       3.548  44.523  53.989  1.00  0.00    -0.352 N 
ATOM      2  H   UNL     1       2.924  43.726  54.035  1.00  0.00     0.163 HD
ENDROOT
BRANCH   1   3
ATOM      3  C   UNL     1       2.864  45.812  54.077  1.00  0.00     0.137 C 
BRANCH   3   4
ATOM      4  C   UNL     1       1.562  45.851  53.254  1.00  0.00     0.137 C 
BRANCH   4   5
ATOM      5  N   UNL     1       0.394  45.426  54.012  1.00  0.00    -0.355 N 
ATOM      6  C   UNL     1       0.073  44.097  54.145  1.00  0.00     0.216 C 
ATOM      7  C   UNL     1      -1.205  43.841  54.896  1.00  0.00     0.114 C 
ATOM      8  O   UNL     1       0.752  43.188  53.678  1.00  0.00    -0.275 OA
ATOM      9  H   UNL     1      -0.284  46.133  54.268  1.00  0.00     0.163 HD
ENDBRANCH   4   5
ENDBRANCH   3   4
ENDBRANCH   1   3
BRANCH   1  10
ATOM     10  C   UNL     1       4.372  44.340  52.891  1.00  0.00     0.226 A 
ATOM     11  N   UNL     1       5.331  45.276  52.752  1.00  0.00    -0.195 NA
ATOM     12  N   UNL     1       4.189  43.279  52.095  1.00  0.00    -0.193 NA
ATOM     13  C   UNL     1       6.193  45.214  51.705  1.00  0.00     0.147 A 
ATOM     14  C   UNL     1       5.070  43.227  51.086  1.00  0.00     0.165 A 
ATOM     15  C   UNL     1       6.082  44.130  50.830  1.00  0.00     0.082 A 
ATOM     16  N   UNL     1       5.158  42.277  50.104  1.00  0.00    -0.250 N 
ATOM     17  C   UNL     1       6.733  43.618  49.690  1.00  0.00     0.149 A 
ATOM     18  N   UNL     1       6.175  42.489  49.237  1.00  0.00    -0.179 NA
ATOM     19  C   UNL     1       4.307  41.128  49.930  1.00  0.00     0.176 C 
BRANCH  13  20
ATOM     20  N   UNL     1       7.164  46.225  51.618  1.00  0.00    -0.339 N 
ATOM     21  H   UNL     1       7.676  46.057  50.754  1.00  0.00     0.168 HD
BRANCH  20  22
ATOM     22  C   UNL     1       8.055  46.641  52.636  1.00  0.00     0.043 A 
ATOM     23  C   UNL     1       7.590  47.221  53.827  1.00  0.00     0.027 A 
ATOM     24  C   UNL     1       9.431  46.357  52.507  1.00  0.00    -0.026 A 
ATOM     25  C   UNL     1       8.474  47.568  54.851  1.00  0.00     0.018 A 
ATOM     26  C   UNL     1      10.313  46.709  53.542  1.00  0.00     0.021 A 
ATOM     27  C   UNL     1       9.833  47.314  54.701  1.00  0.00     0.018 A 
ATOM     28  C   UNL     1       9.973  45.701  51.266  1.00  0.00     0.046 C 
ATOM     29  Br  UNL     1      11.033  47.779  56.085  1.00  0.00    -0.051 Br
ENDBRANCH  20  22
ENDBRANCH  13  20
ENDBRANCH   1  10
TORSDOF 6
ENDMDL
MODEL 6
REMARK VINA RESULT:    -8.467      2.901      5.246
REMARK INTER + INTRA:         -12.788
REMARK INTER:                 -12.028
REMARK INTRA:                  -0.759
REMARK UNBOUND:                -1.350
REMARK SMILES CC(=O)NCCNc1nc(Nc2ccc(Br)cc2C)c2cnn(C)c2n1
REMARK SMILES IDX 7 1 6 3 5 4 4 5 2 6 1 7 3 8 8 10 9 11 26 12 10 13 25 14
REMARK SMILES IDX 20 15 23 16 21 17 22 18 24 19 11 20 12 22 13 23 18 24 14 25
REMARK SMILES IDX 17 26 15 27 19 28 16 29
REMARK H PARENT 7 2 4 9 11 21
ROOT
ATOM      1  N   UNL     1       6.616  42.910  49.178  1.00  0.00    -0.352 N 
ATOM      2  H   UNL     1       6.379  43.325  48.285  1.00  0.00     0.163 HD
ENDROOT
BRANCH   1   3
ATOM      3  C   UNL     1       6.190  41.518  49.313  1.00  0.00     0.137 C 
BRANCH   3   4
ATOM      4  C   UNL     1       5.156  41.108  48.246  1.00  0.00     0.137 C 
BRANCH   4   5
ATOM      5  N   UNL     1       5.575  41.433  46.891  1.00  0.00    -0.355 N 
ATOM      6  C   UNL     1       4.753  41.203  45.814  1.00  0.00     0.216 C 
ATOM      7  C   UNL     1       5.373  41.528  44.482  1.00  0.00     0.114 C 
ATOM      8  O   UNL     1       3.617  40.753  45.916  1.00  0.00    -0.275 OA
ATOM      9  H   UNL     1       6.553  41.644  46.738  1.00  0.00     0.163 HD
ENDBRANCH   4   5
ENDBRANCH   3   4
ENDBRANCH   1   3
BRANCH   1  10
ATOM     10  C   UNL     1       6.185  43.782  50.164  1.00  0.00     0.226 A 
ATOM     11  N   UNL     1       6.993  44.841  50.366  1.00  0.00    -0.195 NA
ATOM     12  N   UNL     1       5.031  43.543  50.803  1.00  0.00    -0.193 NA
ATOM     13  C   UNL     1       6.686  45.759  51.317  1.00  0.00     0.147 A 
ATOM     14  C   UNL     1       4.738  44.479  51.717  1.00  0.00     0.165 A 
ATOM     15  C   UNL     1       5.492  45.594  52.022  1.00  0.00     0.082 A 
ATOM     16  N   UNL     1       3.640  44.532  52.532  1.00  0.00    -0.250 N 
ATOM     17  C   UNL     1       4.747  46.262  53.014  1.00  0.00     0.149 A 
ATOM     18  N   UNL     1       3.616  45.621  53.335  1.00  0.00    -0.179 NA
ATOM     19  C   UNL     1       2.562  43.579  52.598  1.00  0.00     0.176 C 
BRANCH  13  20
ATOM     20  N   UNL     1       7.576  46.833  51.476  1.00  0.00    -0.339 N 
ATOM     21  H   UNL     1       8.119  46.886  50.616  1.00  0.00     0.168 HD
BRANCH  20  22
ATOM     22  C   UNL     1       8.410  47.092  52.591  1.00  0.00     0.043 A 
ATOM     23  C   UNL     1       7.933  47.775  53.721  1.00  0.00     0.027 A 
ATOM     24  C   UNL     1       9.711  46.548  52.621  1.00  0.00    -0.026 A 
ATOM     25  C   UNL     1       8.746  47.968  54.840  1.00  0.00     0.018 A 
ATOM     26  C   UNL     1      10.521  46.745  53.752  1.00  0.00     0.021 A 
ATOM     27  C   UNL     1      10.037  47.455  54.848  1.00  0.00     0.018 A 
ATOM     28  C   UNL     1      10.253  45.774  51.450  1.00  0.00     0.046 C 
ATOM     29  Br  UNL     1      11.140  47.711  56.362  1.00  0.00    -0.051 Br
ENDBRANCH  20  22
ENDBRANCH  13  20
ENDBRANCH   1  10
TORSDOF 6
ENDMDL
MODEL 7
REMARK VINA RESULT:    -8.277      2.572      5.755
REMARK INTER + INTRA:         -12.531
REMARK INTER:                 -12.045
REMARK INTRA:                  -0.485
REMARK UNBOUND:                -1.350
REMARK SMILES CC(=O)NCCNc1nc(Nc2ccc(Br)cc2C)c2cnn(C)c2n1
REMARK SMILES IDX 7 1 6 3 5 4 4 5 2 6 1 7 3 8 8 10 9 11 26 12 10 13 25 14
REMARK SMILES IDX 20 15 23 16 21 17 22 18 24 19 11 20 12 22 13 23 18 24 14 25
REMARK SMILES IDX 17 26 15 27 19 28 16 29
REMARK H PARENT 7 2 4 9 11 21
ROOT
ATOM      1  N   UNL     1       4.155  45.679  55.927  1.00  0.00    -0.352 N 
ATOM      2  H   UNL     1       3.975  46.648  56.164  1.00  0.00     0.163 HD
ENDROOT
BRANCH   1   3
ATOM      3  C   UNL     1       5.459  45.456  55.304  1.00  0.00     0.137 C 
BRANCH   3   4
ATOM      4  C   UNL     1       6.027  46.728  54.646  1.00  0.00     0.137 C 
BRANCH   4   5
ATOM      5  N   UNL     1       7.251  46.485  53.897  1.00  0.00    -0.355 N 
ATOM      6  C   UNL     1       8.412  47.159  54.185  1.00  0.00     0.216 C 
ATOM      7  C   UNL     1       9.559  46.839  53.264  1.00  0.00     0.114 C 
ATOM      8  O   UNL     1       8.513  47.969  55.100  1.00  0.00    -0.275 OA
ATOM      9  H   UNL     1       7.177  45.960  53.034  1.00  0.00     0.163 HD
ENDBRANCH   4   5
ENDBRANCH   3   4
ENDBRANCH   1   3
BRANCH   1  10
ATOM     10  C   UNL     1       3.054  45.215  55.227  1.00  0.00     0.226 A 
ATOM     11  N   UNL     1       3.318  44.831  53.963  1.00  0.00    -0.195 NA
ATOM     12  N   UNL     1       1.861  45.152  55.833  1.00  0.00    -0.193 NA
ATOM     13  C   UNL     1       2.317  44.372  53.170  1.00  0.00     0.147 A 
ATOM     14  C   UNL     1       0.896  44.670  55.036  1.00  0.00     0.165 A 
ATOM     15  C   UNL     1       1.040  44.261  53.726  1.00  0.00     0.082 A 
ATOM     16  N   UNL     1      -0.422  44.477  55.348  1.00  0.00    -0.250 N 
ATOM     17  C   UNL     1      -0.244  43.818  53.351  1.00  0.00     0.149 A 
ATOM     18  N   UNL     1      -1.145  43.949  54.333  1.00  0.00    -0.179 NA
ATOM     19  C   UNL     1      -1.070  44.769  56.601  1.00  0.00     0.176 C 
BRANCH  13  20
ATOM     20  N   UNL     1       2.662  43.995  51.861  1.00  0.00    -0.339 N 
ATOM     21  H   UNL     1       2.183  43.114  51.681  1.00  0.00     0.168 HD
BRANCH  20  22
ATOM     22  C   UNL     1       3.960  43.963  51.298  1.00  0.00     0.043 A 
ATOM     23  C   UNL     1       4.616  42.750  51.033  1.00  0.00     0.027 A 
ATOM     24  C   UNL     1       4.561  45.169  50.879  1.00  0.00    -0.026 A 
ATOM     25  C   UNL     1       5.870  42.730  50.418  1.00  0.00     0.018 A 
ATOM     26  C   UNL     1       5.822  45.139  50.259  1.00  0.00     0.021 A 
ATOM     27  C   UNL     1       6.468  43.925  50.038  1.00  0.00     0.018 A 
ATOM     28  C   UNL     1       3.880  46.492  51.105  1.00  0.00     0.046 C 
ATOM     29  Br  UNL     1       8.163  43.903  49.202  1.00  0.00    -0.051 Br
ENDBRANCH  20  22
ENDBRANCH  13  20
ENDBRANCH   1  10
TORSDOF 6
ENDMDL
MODEL 8
REMARK VINA RESULT:    -8.145      2.128      4.381
REMARK INTER + INTRA:         -12.352
REMARK INTER:                 -11.285
REMARK INTRA:                  -1.067
REMARK UNBOUND:                -1.350
REMARK SMILES CC(=O)NCCNc1nc(Nc2ccc(Br)cc2C)c2cnn(C)c2n1
REMARK SMILES IDX 7 1 6 3 5 4 4 5 2 6 1 7 3 8 8 10 9 11 26 12 10 13 25 14
REMARK SMILES IDX 20 15 23 16 21 17 22 18 24 19 11 20 12 22 13 23 18 24 14 25
REMARK SMILES IDX 17 26 15 27 19 28 16 29
REMARK H PARENT 7 2 4 9 11 21
ROOT
ATOM      1  N   UNL     1       4.330  41.856  51.411  1.00  0.00    -0.352 N 
ATOM      2  H   UNL     1       5.317  41.632  51.466  1.00  0.00     0.163 HD
ENDROOT
BRANCH   1   3
ATOM      3  C   UNL     1       3.671  41.327  50.218  1.00  0.00     0.137 C 
BRANCH   3   4
ATOM      4  C   UNL     1       4.673  40.892  49.131  1.00  0.00     0.137 C 
BRANCH   4   5
ATOM      5  N   UNL     1       5.621  41.937  48.777  1.00  0.00    -0.355 N 
ATOM      6  C   UNL     1       6.863  42.004  49.360  1.00  0.00     0.216 C 
ATOM      7  C   UNL     1       7.684  43.190  48.933  1.00  0.00     0.114 C 
ATOM      8  O   UNL     1       7.270  41.184  50.176  1.00  0.00    -0.275 OA
ATOM      9  H   UNL     1       5.275  42.726  48.244  1.00  0.00     0.163 HD
ENDBRANCH   4   5
ENDBRANCH   3   4
ENDBRANCH   1   3
BRANCH   1  10
ATOM     10  C   UNL     1       4.204  43.218  51.628  1.00  0.00     0.226 A 
ATOM     11  N   UNL     1       5.337  43.921  51.435  1.00  0.00    -0.195 NA
ATOM     12  N   UNL     1       3.014  43.728  51.972  1.00  0.00    -0.193 NA
ATOM     13  C   UNL     1       5.345  45.264  51.631  1.00  0.00     0.147 A 
ATOM     14  C   UNL     1       3.044  45.058  52.132  1.00  0.00     0.165 A 
ATOM     15  C   UNL     1       4.142  45.880  51.978  1.00  0.00     0.082 A 
ATOM     16  N   UNL     1       2.004  45.879  52.477  1.00  0.00    -0.250 N 
ATOM     17  C   UNL     1       3.649  47.177  52.228  1.00  0.00     0.149 A 
ATOM     18  N   UNL     1       2.346  47.187  52.536  1.00  0.00    -0.179 NA
ATOM     19  C   UNL     1       0.647  45.488  52.760  1.00  0.00     0.176 C 
BRANCH  13  20
ATOM     20  N   UNL     1       6.562  45.932  51.416  1.00  0.00    -0.339 N 
ATOM     21  H   UNL     1       7.056  45.404  50.699  1.00  0.00     0.168 HD
BRANCH  20  22
ATOM     22  C   UNL     1       7.474  46.381  52.401  1.00  0.00     0.043 A 
ATOM     23  C   UNL     1       7.034  46.855  53.647  1.00  0.00     0.027 A 
ATOM     24  C   UNL     1       8.860  46.237  52.177  1.00  0.00    -0.026 A 
ATOM     25  C   UNL     1       7.945  47.235  54.635  1.00  0.00     0.018 A 
ATOM     26  C   UNL     1       9.769  46.620  53.176  1.00  0.00     0.021 A 
ATOM     27  C   UNL     1       9.309  47.119  54.393  1.00  0.00     0.018 A 
ATOM     28  C   UNL     1       9.380  45.697  50.872  1.00  0.00     0.046 C 
ATOM     29  Br  UNL     1      10.546  47.629  55.727  1.00  0.00    -0.051 Br
ENDBRANCH  20  22
ENDBRANCH  13  20
ENDBRANCH   1  10
TORSDOF 6
ENDMDL
MODEL 9
REMARK VINA RESULT:    -8.100      2.332      5.001
REMARK INTER + INTRA:         -12.291
REMARK INTER:                 -11.168
REMARK INTRA:                  -1.123
REMARK UNBOUND:                -1.350
REMARK SMILES CC(=O)NCCNc1nc(Nc2ccc(Br)cc2C)c2cnn(C)c2n1
REMARK SMILES IDX 7 1 6 3 5 4 4 5 2 6 1 7 3 8 8 10 9 11 26 12 10 13 25 14
REMARK SMILES IDX 20 15 23 16 21 17 22 18 24 19 11 20 12 22 13 23 18 24 14 25
REMARK SMILES IDX 17 26 15 27 19 28 16 29
REMARK H PARENT 7 2 4 9 11 21
ROOT
ATOM      1  N   UNL     1       4.036  41.445  51.016  1.00  0.00    -0.352 N 
ATOM      2  H   UNL     1       5.033  41.611  51.085  1.00  0.00     0.163 HD
ENDROOT
BRANCH   1   3
ATOM      3  C   UNL     1       3.617  40.899  49.726  1.00  0.00     0.137 C 
BRANCH   3   4
ATOM      4  C   UNL     1       4.782  40.785  48.724  1.00  0.00     0.137 C 
BRANCH   4   5
ATOM      5  N   UNL     1       5.624  41.971  48.691  1.00  0.00    -0.355 N 
ATOM      6  C   UNL     1       6.770  42.055  49.444  1.00  0.00     0.216 C 
ATOM      7  C   UNL     1       7.480  43.378  49.346  1.00  0.00     0.114 C 
ATOM      8  O   UNL     1       7.180  41.143  50.154  1.00  0.00    -0.275 OA
ATOM      9  H   UNL     1       5.246  42.805  48.259  1.00  0.00     0.163 HD
ENDBRANCH   4   5
ENDBRANCH   3   4
ENDBRANCH   1   3
BRANCH   1  10
ATOM     10  C   UNL     1       3.396  42.602  51.430  1.00  0.00     0.226 A 
ATOM     11  N   UNL     1       4.140  43.720  51.323  1.00  0.00    -0.195 NA
ATOM     12  N   UNL     1       2.129  42.541  51.861  1.00  0.00    -0.193 NA
ATOM     13  C   UNL     1       3.630  44.916  51.711  1.00  0.00     0.147 A 
ATOM     14  C   UNL     1       1.640  43.739  52.212  1.00  0.00     0.165 A 
ATOM     15  C   UNL     1       2.308  44.946  52.162  1.00  0.00     0.082 A 
ATOM     16  N   UNL     1       0.388  44.022  52.687  1.00  0.00    -0.250 N 
ATOM     17  C   UNL     1       1.361  45.892  52.603  1.00  0.00     0.149 A 
ATOM     18  N   UNL     1       0.187  45.338  52.929  1.00  0.00    -0.179 NA
ATOM     19  C   UNL     1      -0.678  43.085  52.931  1.00  0.00     0.176 C 
BRANCH  13  20
ATOM     20  N   UNL     1       4.463  46.039  51.576  1.00  0.00    -0.339 N 
ATOM     21  H   UNL     1       4.534  46.225  50.578  1.00  0.00     0.168 HD
BRANCH  20  22
ATOM     22  C   UNL     1       5.717  46.249  52.198  1.00  0.00     0.043 A 
ATOM     23  C   UNL     1       6.922  46.068  51.500  1.00  0.00     0.027 A 
ATOM     24  C   UNL     1       5.759  46.770  53.509  1.00  0.00    -0.026 A 
ATOM     25  C   UNL     1       8.151  46.341  52.104  1.00  0.00     0.018 A 
ATOM     26  C   UNL     1       7.000  47.043  54.108  1.00  0.00     0.021 A 
ATOM     27  C   UNL     1       8.184  46.823  53.407  1.00  0.00     0.018 A 
ATOM     28  C   UNL     1       4.494  47.018  54.284  1.00  0.00     0.046 C 
ATOM     29  Br  UNL     1       9.844  47.197  54.229  1.00  0.00    -0.051 Br
ENDBRANCH  20  22
ENDBRANCH  13  20
ENDBRANCH   1  10
TORSDOF 6
ENDMDL
MODEL 10
REMARK VINA RESULT:    -8.095      2.969      5.550
REMARK INTER + INTRA:         -12.285
REMARK INTER:                 -11.424
REMARK INTRA:                  -0.861
REMARK UNBOUND:                -1.350
REMARK SMILES CC(=O)NCCNc1nc(Nc2ccc(Br)cc2C)c2cnn(C)c2n1
REMARK SMILES IDX 7 1 6 3 5 4 4 5 2 6 1 7 3 8 8 10 9 11 26 12 10 13 25 14
REMARK SMILES IDX 20 15 23 16 21 17 22 18 24 19 11 20 12 22 13 23 18 24 14 25
REMARK SMILES IDX 17 26 15 27 19 28 16 29
REMARK H PARENT 7 2 4 9 11 21
ROOT
ATOM      1  N   UNL     1       3.874  41.217  51.016  1.00  0.00    -0.352 N 
ATOM      2  H   UNL     1       4.342  40.730  51.771  1.00  0.00     0.163 HD
ENDROOT
BRANCH   1   3
ATOM      3  C   UNL     1       4.612  41.196  49.754  1.00  0.00     0.137 C 
BRANCH   3   4
ATOM      4  C   UNL     1       3.871  40.423  48.645  1.00  0.00     0.137 C 
BRANCH   4   5
ATOM      5  N   UNL     1       4.369  40.722  47.311  1.00  0.00    -0.355 N 
ATOM      6  C   UNL     1       3.566  40.597  46.203  1.00  0.00     0.216 C 
ATOM      7  C   UNL     1       4.264  40.873  44.899  1.00  0.00     0.114 C 
ATOM      8  O   UNL     1       2.386  40.269  46.259  1.00  0.00    -0.275 OA
ATOM      9  H   UNL     1       5.369  40.829  47.195  1.00  0.00     0.163 HD
ENDBRANCH   4   5
ENDBRANCH   3   4
ENDBRANCH   1   3
BRANCH   1  10
ATOM     10  C   UNL     1       3.511  42.466  51.493  1.00  0.00     0.226 A 
ATOM     11  N   UNL     1       4.363  43.457  51.166  1.00  0.00    -0.195 NA
ATOM     12  N   UNL     1       2.376  42.606  52.191  1.00  0.00    -0.193 NA
ATOM     13  C   UNL     1       4.125  44.725  51.589  1.00  0.00     0.147 A 
ATOM     14  C   UNL     1       2.151  43.871  52.572  1.00  0.00     0.165 A 
ATOM     15  C   UNL     1       2.955  44.963  52.312  1.00  0.00     0.082 A 
ATOM     16  N   UNL     1       1.089  44.348  53.290  1.00  0.00    -0.250 N 
ATOM     17  C   UNL     1       2.272  46.050  52.895  1.00  0.00     0.149 A 
ATOM     18  N   UNL     1       1.134  45.685  53.497  1.00  0.00    -0.179 NA
ATOM     19  C   UNL     1      -0.018  43.588  53.811  1.00  0.00     0.176 C 
BRANCH  13  20
ATOM     20  N   UNL     1       5.058  45.707  51.215  1.00  0.00    -0.339 N 
ATOM     21  H   UNL     1       5.325  45.498  50.255  1.00  0.00     0.168 HD
BRANCH  20  22
ATOM     22  C   UNL     1       6.190  46.131  51.951  1.00  0.00     0.043 A 
ATOM     23  C   UNL     1       6.068  46.654  53.248  1.00  0.00     0.027 A 
ATOM     24  C   UNL     1       7.479  45.913  51.421  1.00  0.00    -0.026 A 
ATOM     25  C   UNL     1       7.198  47.009  53.989  1.00  0.00     0.018 A 
ATOM     26  C   UNL     1       8.610  46.272  52.174  1.00  0.00     0.021 A 
ATOM     27  C   UNL     1       8.463  46.820  53.446  1.00  0.00     0.018 A 
ATOM     28  C   UNL     1       7.662  45.319  50.051  1.00  0.00     0.046 C 
ATOM     29  Br  UNL     1       9.995  47.297  54.445  1.00  0.00    -0.051 Br
ENDBRANCH  20  22
ENDBRANCH  13  20
ENDBRANCH   1  10
TORSDOF 6
ENDMDL
MODEL 11
REMARK VINA RESULT:    -8.051      1.423      2.272
REMARK INTER + INTRA:         -12.225
REMARK INTER:                 -11.359
REMARK INTRA:                  -0.865
REMARK UNBOUND:                -1.350
REMARK SMILES CC(=O)NCCNc1nc(Nc2ccc(Br)cc2C)c2cnn(C)c2n1
REMARK SMILES IDX 7 1 6 3 5 4 4 5 2 6 1 7 3 8 8 10 9 11 26 12 10 13 25 14
REMARK SMILES IDX 20 15 23 16 21 17 22 18 24 19 11 20 12 22 13 23 18 24 14 25
REMARK SMILES IDX 17 26 15 27 19 28 16 29
REMARK H PARENT 7 2 4 9 11 21
ROOT
ATOM      1  N   UNL     1       2.906  44.150  51.895  1.00  0.00    -0.352 N 
ATOM      2  H   UNL     1       2.548  43.234  51.648  1.00  0.00     0.163 HD
ENDROOT
BRANCH   1   3
ATOM      3  C   UNL     1       1.981  45.243  51.601  1.00  0.00     0.137 C 
BRANCH   3   4
ATOM      4  C   UNL     1       1.958  46.314  52.709  1.00  0.00     0.137 C 
BRANCH   4   5
ATOM      5  N   UNL     1       1.255  45.881  53.907  1.00  0.00    -0.355 N 
ATOM      6  C   UNL     1       1.918  45.277  54.948  1.00  0.00     0.216 C 
ATOM      7  C   UNL     1       1.027  44.827  56.073  1.00  0.00     0.114 C 
ATOM      8  O   UNL     1       3.132  45.098  54.961  1.00  0.00    -0.275 OA
ATOM      9  H   UNL     1       0.243  45.851  53.874  1.00  0.00     0.163 HD
ENDBRANCH   4   5
ENDBRANCH   3   4
ENDBRANCH   1   3
BRANCH   1  10
ATOM     10  C   UNL     1       4.175  44.256  51.349  1.00  0.00     0.226 A 
ATOM     11  N   UNL     1       4.843  45.371  51.703  1.00  0.00    -0.195 NA
ATOM     12  N   UNL     1       4.644  43.276  50.565  1.00  0.00    -0.193 NA
ATOM     13  C   UNL     1       6.091  45.598  51.220  1.00  0.00     0.147 A 
ATOM     14  C   UNL     1       5.888  43.512  50.124  1.00  0.00     0.165 A 
ATOM     15  C   UNL     1       6.663  44.619  50.404  1.00  0.00     0.082 A 
ATOM     16  N   UNL     1       6.650  42.714  49.314  1.00  0.00    -0.250 N 
ATOM     17  C   UNL     1       7.880  44.376  49.736  1.00  0.00     0.149 A 
ATOM     18  N   UNL     1       7.881  43.218  49.064  1.00  0.00    -0.179 NA
ATOM     19  C   UNL     1       6.273  41.448  48.741  1.00  0.00     0.176 C 
BRANCH  13  20
ATOM     20  N   UNL     1       6.726  46.783  51.626  1.00  0.00    -0.339 N 
ATOM     21  H   UNL     1       7.033  47.250  50.775  1.00  0.00     0.168 HD
BRANCH  20  22
ATOM     22  C   UNL     1       7.710  46.920  52.634  1.00  0.00     0.043 A 
ATOM     23  C   UNL     1       9.080  46.936  52.326  1.00  0.00     0.027 A 
ATOM     24  C   UNL     1       7.307  47.169  53.964  1.00  0.00    -0.026 A 
ATOM     25  C   UNL     1      10.038  47.137  53.322  1.00  0.00     0.018 A 
ATOM     26  C   UNL     1       8.278  47.371  54.958  1.00  0.00     0.021 A 
ATOM     27  C   UNL     1       9.633  47.349  54.634  1.00  0.00     0.018 A 
ATOM     28  C   UNL     1       5.849  47.200  54.337  1.00  0.00     0.046 C 
ATOM     29  Br  UNL     1      10.926  47.625  55.984  1.00  0.00    -0.051 Br
ENDBRANCH  20  22
ENDBRANCH  13  20
ENDBRANCH   1  10
TORSDOF 6
ENDMDL
MODEL 12
REMARK VINA RESULT:    -8.005      3.007      6.016
REMARK INTER + INTRA:         -12.163
REMARK INTER:                 -11.621
REMARK INTRA:                  -0.543
REMARK UNBOUND:                -1.350
REMARK SMILES CC(=O)NCCNc1nc(Nc2ccc(Br)cc2C)c2cnn(C)c2n1
REMARK SMILES IDX 7 1 6 3 5 4 4 5 2 6 1 7 3 8 8 10 9 11 26 12 10 13 25 14
REMARK SMILES IDX 20 15 23 16 21 17 22 18 24 19 11 20 12 22 13 23 18 24 14 25
REMARK SMILES IDX 17 26 15 27 19 28 16 29
REMARK H PARENT 7 2 4 9 11 21
ROOT
ATOM      1  N   UNL     1       8.030  46.467  50.763  1.00  0.00    -0.352 N 
ATOM      2  H   UNL     1       8.331  46.324  49.806  1.00  0.00     0.163 HD
ENDROOT
BRANCH   1   3
ATOM      3  C   UNL     1       9.101  46.324  51.747  1.00  0.00     0.137 C 
BRANCH   3   4
ATOM      4  C   UNL     1       9.078  47.434  52.816  1.00  0.00     0.137 C 
BRANCH   4   5
ATOM      5  N   UNL     1      10.009  47.194  53.908  1.00  0.00    -0.355 N 
ATOM      6  C   UNL     1       9.850  47.801  55.130  1.00  0.00     0.216 C 
ATOM      7  C   UNL     1      10.944  47.499  56.118  1.00  0.00     0.114 C 
ATOM      8  O   UNL     1       8.912  48.544  55.398  1.00  0.00    -0.275 OA
ATOM      9  H   UNL     1      10.883  46.731  53.689  1.00  0.00     0.163 HD
ENDBRANCH   4   5
ENDBRANCH   3   4
ENDBRANCH   1   3
BRANCH   1  10
ATOM     10  C   UNL     1       6.906  45.683  50.962  1.00  0.00     0.226 A 
ATOM     11  N   UNL     1       5.898  46.305  51.604  1.00  0.00    -0.195 NA
ATOM     12  N   UNL     1       6.883  44.426  50.499  1.00  0.00    -0.193 NA
ATOM     13  C   UNL     1       4.748  45.635  51.872  1.00  0.00     0.147 A 
ATOM     14  C   UNL     1       5.727  43.797  50.752  1.00  0.00     0.165 A 
ATOM     15  C   UNL     1       4.634  44.322  51.412  1.00  0.00     0.082 A 
ATOM     16  N   UNL     1       5.383  42.517  50.413  1.00  0.00    -0.250 N 
ATOM     17  C   UNL     1       3.680  43.284  51.394  1.00  0.00     0.149 A 
ATOM     18  N   UNL     1       4.128  42.177  50.789  1.00  0.00    -0.179 NA
ATOM     19  C   UNL     1       6.200  41.553  49.721  1.00  0.00     0.176 C 
BRANCH  13  20
ATOM     20  N   UNL     1       3.741  46.344  52.550  1.00  0.00    -0.339 N 
ATOM     21  H   UNL     1       4.213  46.916  53.247  1.00  0.00     0.168 HD
BRANCH  20  22
ATOM     22  C   UNL     1       2.543  45.817  53.088  1.00  0.00     0.043 A 
ATOM     23  C   UNL     1       1.375  45.713  52.315  1.00  0.00     0.027 A 
ATOM     24  C   UNL     1       2.550  45.272  54.389  1.00  0.00    -0.026 A 
ATOM     25  C   UNL     1       0.217  45.132  52.837  1.00  0.00     0.018 A 
ATOM     26  C   UNL     1       1.381  44.689  54.905  1.00  0.00     0.021 A 
ATOM     27  C   UNL     1       0.225  44.627  54.131  1.00  0.00     0.018 A 
ATOM     28  C   UNL     1       3.789  45.324  55.242  1.00  0.00     0.046 C 
ATOM     29  Br  UNL     1      -1.339  43.838  54.841  1.00  0.00    -0.051 Br
ENDBRANCH  20  22
ENDBRANCH  13  20
ENDBRANCH   1  10
TORSDOF 6
ENDMDL
MODEL 13
REMARK VINA RESULT:    -7.950      3.502      6.454
REMARK INTER + INTRA:         -12.089
REMARK INTER:                 -11.223
REMARK INTRA:                  -0.867
REMARK UNBOUND:                -1.350
REMARK SMILES CC(=O)NCCNc1nc(Nc2ccc(Br)cc2C)c2cnn(C)c2n1
REMARK SMILES IDX 7 1 6 3 5 4 4 5 2 6 1 7 3 8 8 10 9 11 26 12 10 13 25 14
REMARK SMILES IDX 20 15 23 16 21 17 22 18 24 19 11 20 12 22 13 23 18 24 14 25
REMARK SMILES IDX 17 26 15 27 19 28 16 29
REMARK H PARENT 7 2 4 9 11 21
ROOT
ATOM      1  N   UNL     1       5.506  46.705  52.330  1.00  0.00    -0.352 N 
ATOM      2  H   UNL     1       6.456  46.919  52.050  1.00  0.00     0.163 HD
ENDROOT
BRANCH   1   3
ATOM      3  C   UNL     1       5.207  47.053  53.718  1.00  0.00     0.137 C 
BRANCH   3   4
ATOM      4  C   UNL     1       6.397  46.796  54.663  1.00  0.00     0.137 C 
BRANCH   4   5
ATOM      5  N   UNL     1       7.658  46.619  53.959  1.00  0.00    -0.355 N 
ATOM      6  C   UNL     1       8.759  47.382  54.260  1.00  0.00     0.216 C 
ATOM      7  C   UNL     1       9.954  47.119  53.385  1.00  0.00     0.114 C 
ATOM      8  O   UNL     1       8.773  48.224  55.152  1.00  0.00    -0.275 OA
ATOM      9  H   UNL     1       7.650  46.064  53.111  1.00  0.00     0.163 HD
ENDBRANCH   4   5
ENDBRANCH   3   4
ENDBRANCH   1   3
BRANCH   1  10
ATOM     10  C   UNL     1       5.251  45.395  51.958  1.00  0.00     0.226 A 
ATOM     11  N   UNL     1       4.262  44.800  52.652  1.00  0.00    -0.195 NA
ATOM     12  N   UNL     1       5.952  44.841  50.960  1.00  0.00    -0.193 NA
ATOM     13  C   UNL     1       3.929  43.511  52.390  1.00  0.00     0.147 A 
ATOM     14  C   UNL     1       5.584  43.578  50.703  1.00  0.00     0.165 A 
ATOM     15  C   UNL     1       4.601  42.860  51.354  1.00  0.00     0.082 A 
ATOM     16  N   UNL     1       6.096  42.738  49.752  1.00  0.00    -0.250 N 
ATOM     17  C   UNL     1       4.585  41.611  50.700  1.00  0.00     0.149 A 
ATOM     18  N   UNL     1       5.496  41.525  49.723  1.00  0.00    -0.179 NA
ATOM     19  C   UNL     1       7.159  43.024  48.823  1.00  0.00     0.176 C 
BRANCH  13  20
ATOM     20  N   UNL     1       2.892  42.952  53.156  1.00  0.00    -0.339 N 
ATOM     21  H   UNL     1       3.039  41.945  53.146  1.00  0.00     0.168 HD
BRANCH  20  22
ATOM     22  C   UNL     1       1.510  43.240  53.058  1.00  0.00     0.043 A 
ATOM     23  C   UNL     1       0.717  42.694  52.036  1.00  0.00     0.027 A 
ATOM     24  C   UNL     1       0.887  43.993  54.077  1.00  0.00    -0.026 A 
ATOM     25  C   UNL     1      -0.658  42.934  51.987  1.00  0.00     0.018 A 
ATOM     26  C   UNL     1      -0.497  44.227  54.020  1.00  0.00     0.021 A 
ATOM     27  C   UNL     1      -1.258  43.703  52.978  1.00  0.00     0.018 A 
ATOM     28  C   UNL     1       1.687  44.566  55.215  1.00  0.00     0.046 C 
ATOM     29  Br  UNL     1      -3.119  44.027  52.917  1.00  0.00    -0.051 Br
ENDBRANCH  20  22
ENDBRANCH  13  20
ENDBRANCH   1  10
TORSDOF 6
ENDMDL
MODEL 14
REMARK VINA RESULT:    -7.950      3.749      7.015
REMARK INTER + INTRA:         -12.089
REMARK INTER:                 -11.338
REMARK INTRA:                  -0.751
REMARK UNBOUND:                -1.350
REMARK SMILES CC(=O)NCCNc1nc(Nc2ccc(Br)cc2C)c2cnn(C)c2n1
REMARK SMILES IDX 7 1 6 3 5 4 4 5 2 6 1 7 3 8 8 10 9 11 26 12 10 13 25 14
REMARK SMILES IDX 20 15 23 16 21 17 22 18 24 19 11 20 12 22 13 23 18 24 14 25
REMARK SMILES IDX 17 26 15 27 19 28 16 29
REMARK H PARENT 7 2 4 9 11 21
ROOT
ATOM      1  N   UNL     1       7.833  46.051  50.456  1.00  0.00    -0.352 N 
ATOM      2  H   UNL     1       8.096  45.840  49.500  1.00  0.00     0.163 HD
ENDROOT
BRANCH   1   3
ATOM      3  C   UNL     1       8.962  46.082  51.384  1.00  0.00     0.137 C 
BRANCH   3   4
ATOM      4  C   UNL     1       8.973  47.348  52.262  1.00  0.00     0.137 C 
BRANCH   4   5
ATOM      5  N   UNL     1       9.912  47.265  53.371  1.00  0.00    -0.355 N 
ATOM      6  C   UNL     1       9.526  47.555  54.658  1.00  0.00     0.216 C 
ATOM      7  C   UNL     1      10.640  47.490  55.668  1.00  0.00     0.114 C 
ATOM      8  O   UNL     1       8.379  47.860  54.966  1.00  0.00    -0.275 OA
ATOM      9  H   UNL     1      10.897  47.185  53.150  1.00  0.00     0.163 HD
ENDBRANCH   4   5
ENDBRANCH   3   4
ENDBRANCH   1   3
BRANCH   1  10
ATOM     10  C   UNL     1       6.786  45.207  50.790  1.00  0.00     0.226 A 
ATOM     11  N   UNL     1       6.804  44.018  50.157  1.00  0.00    -0.195 NA
ATOM     12  N   UNL     1       5.885  45.598  51.701  1.00  0.00    -0.193 NA
ATOM     13  C   UNL     1       5.822  43.111  50.389  1.00  0.00     0.147 A 
ATOM     14  C   UNL     1       4.943  44.672  51.932  1.00  0.00     0.165 A 
ATOM     15  C   UNL     1       4.846  43.431  51.336  1.00  0.00     0.082 A 
ATOM     16  N   UNL     1       3.888  44.756  52.799  1.00  0.00    -0.250 N 
ATOM     17  C   UNL     1       3.715  42.840  51.933  1.00  0.00     0.149 A 
ATOM     18  N   UNL     1       3.121  43.641  52.825  1.00  0.00    -0.179 NA
ATOM     19  C   UNL     1       3.547  45.870  53.646  1.00  0.00     0.176 C 
BRANCH  13  20
ATOM     20  N   UNL     1       5.900  41.895  49.690  1.00  0.00    -0.339 N 
ATOM     21  H   UNL     1       6.883  41.631  49.683  1.00  0.00     0.168 HD
BRANCH  20  22
ATOM     22  C   UNL     1       5.308  41.590  48.441  1.00  0.00     0.043 A 
ATOM     23  C   UNL     1       5.913  41.966  47.231  1.00  0.00     0.027 A 
ATOM     24  C   UNL     1       4.150  40.786  48.403  1.00  0.00    -0.026 A 
ATOM     25  C   UNL     1       5.353  41.604  46.004  1.00  0.00     0.018 A 
ATOM     26  C   UNL     1       3.594  40.424  47.164  1.00  0.00     0.021 A 
ATOM     27  C   UNL     1       4.194  40.838  45.977  1.00  0.00     0.018 A 
ATOM     28  C   UNL     1       3.487  40.324  49.673  1.00  0.00     0.046 C 
ATOM     29  Br  UNL     1       3.434  40.343  44.319  1.00  0.00    -0.051 Br
ENDBRANCH  20  22
ENDBRANCH  13  20
ENDBRANCH   1  10
TORSDOF 6
ENDMDL
MODEL 15
REMARK VINA RESULT:    -7.809      3.051      6.074
REMARK INTER + INTRA:         -11.899
REMARK INTER:                 -11.532
REMARK INTRA:                  -0.367
REMARK UNBOUND:                -1.350
REMARK SMILES CC(=O)NCCNc1nc(Nc2ccc(Br)cc2C)c2cnn(C)c2n1
REMARK SMILES IDX 7 1 6 3 5 4 4 5 2 6 1 7 3 8 8 10 9 11 26 12 10 13 25 14
REMARK SMILES IDX 20 15 23 16 21 17 22 18 24 19 11 20 12 22 13 23 18 24 14 25
REMARK SMILES IDX 17 26 15 27 19 28 16 29
REMARK H PARENT 7 2 4 9 11 21
ROOT
ATOM      1  N   UNL     1       5.057  46.816  52.481  1.00  0.00    -0.352 N 
ATOM      2  H   UNL     1       5.841  47.160  51.939  1.00  0.00     0.163 HD
ENDROOT
BRANCH   1   3
ATOM      3  C   UNL     1       5.163  47.096  53.912  1.00  0.00     0.137 C 
BRANCH   3   4
ATOM      4  C   UNL     1       6.347  46.364  54.574  1.00  0.00     0.137 C 
BRANCH   4   5
ATOM      5  N   UNL     1       7.548  46.364  53.752  1.00  0.00    -0.355 N 
ATOM      6  C   UNL     1       8.609  47.188  54.036  1.00  0.00     0.216 C 
ATOM      7  C   UNL     1       9.736  47.112  53.042  1.00  0.00     0.114 C 
ATOM      8  O   UNL     1       8.639  47.941  55.004  1.00  0.00    -0.275 OA
ATOM      9  H   UNL     1       7.506  45.892  52.857  1.00  0.00     0.163 HD
ENDBRANCH   4   5
ENDBRANCH   3   4
ENDBRANCH   1   3
BRANCH   1  10
ATOM     10  C   UNL     1       4.860  45.492  52.128  1.00  0.00     0.226 A 
ATOM     11  N   UNL     1       3.798  44.909  52.718  1.00  0.00    -0.195 NA
ATOM     12  N   UNL     1       5.680  44.912  51.242  1.00  0.00    -0.193 NA
ATOM     13  C   UNL     1       3.509  43.608  52.464  1.00  0.00     0.147 A 
ATOM     14  C   UNL     1       5.357  43.637  50.988  1.00  0.00     0.165 A 
ATOM     15  C   UNL     1       4.307  42.930  51.540  1.00  0.00     0.082 A 
ATOM     16  N   UNL     1       5.986  42.771  50.135  1.00  0.00    -0.250 N 
ATOM     17  C   UNL     1       4.381  41.659  50.934  1.00  0.00     0.149 A 
ATOM     18  N   UNL     1       5.404  41.551  50.077  1.00  0.00    -0.179 NA
ATOM     19  C   UNL     1       7.152  43.038  49.333  1.00  0.00     0.176 C 
BRANCH  13  20
ATOM     20  N   UNL     1       2.391  43.063  53.118  1.00  0.00    -0.339 N 
ATOM     21  H   UNL     1       1.840  42.595  52.401  1.00  0.00     0.168 HD
BRANCH  20  22
ATOM     22  C   UNL     1       1.536  43.720  54.034  1.00  0.00     0.043 A 
ATOM     23  C   UNL     1       2.040  44.594  55.011  1.00  0.00     0.027 A 
ATOM     24  C   UNL     1       0.139  43.592  53.889  1.00  0.00    -0.026 A 
ATOM     25  C   UNL     1       1.181  45.286  55.868  1.00  0.00     0.018 A 
ATOM     26  C   UNL     1      -0.718  44.293  54.754  1.00  0.00     0.021 A 
ATOM     27  C   UNL     1      -0.194  45.129  55.738  1.00  0.00     0.018 A 
ATOM     28  C   UNL     1      -0.450  42.698  52.831  1.00  0.00     0.046 C 
ATOM     29  Br  UNL     1      -1.360  46.065  56.893  1.00  0.00    -0.051 Br
ENDBRANCH  20  22
ENDBRANCH  13  20
ENDBRANCH   1  10
TORSDOF 6
ENDMDL
MODEL 16
REMARK VINA RESULT:    -7.773      2.877      5.530
REMARK INTER + INTRA:         -11.850
REMARK INTER:                 -10.800
REMARK INTRA:                  -1.050
REMARK UNBOUND:                -1.350
REMARK SMILES CC(=O)NCCNc1nc(Nc2ccc(Br)cc2C)c2cnn(C)c2n1
REMARK SMILES IDX 7 1 6 3 5 4 4 5 2 6 1 7 3 8 8 10 9 11 26 12 10 13 25 14
REMARK SMILES IDX 20 15 23 16 21 17 22 18 24 19 11 20 12 22 13 23 18 24 14 25
REMARK SMILES IDX 17 26 15 27 19 28 16 29
REMARK H PARENT 7 2 4 9 11 21
ROOT
ATOM      1  N   UNL     1       4.175  41.773  50.850  1.00  0.00    -0.352 N 
ATOM      2  H   UNL     1       4.174  41.044  51.554  1.00  0.00     0.163 HD
ENDROOT
BRANCH   1   3
ATOM      3  C   UNL     1       5.514  42.207  50.454  1.00  0.00     0.137 C 
BRANCH   3   4
ATOM      4  C   UNL     1       6.218  41.193  49.531  1.00  0.00     0.137 C 
BRANCH   4   5
ATOM      5  N   UNL     1       6.135  41.549  48.123  1.00  0.00    -0.355 N 
ATOM      6  C   UNL     1       5.047  41.201  47.360  1.00  0.00     0.216 C 
ATOM      7  C   UNL     1       5.159  41.583  45.909  1.00  0.00     0.114 C 
ATOM      8  O   UNL     1       4.069  40.610  47.808  1.00  0.00    -0.275 OA
ATOM      9  H   UNL     1       6.978  41.881  47.671  1.00  0.00     0.163 HD
ENDBRANCH   4   5
ENDBRANCH   3   4
ENDBRANCH   1   3
BRANCH   1  10
ATOM     10  C   UNL     1       3.312  42.766  51.283  1.00  0.00     0.226 A 
ATOM     11  N   UNL     1       3.913  43.788  51.923  1.00  0.00    -0.195 NA
ATOM     12  N   UNL     1       2.002  42.664  51.025  1.00  0.00    -0.193 NA
ATOM     13  C   UNL     1       3.172  44.815  52.408  1.00  0.00     0.147 A 
ATOM     14  C   UNL     1       1.296  43.705  51.491  1.00  0.00     0.165 A 
ATOM     15  C   UNL     1       1.795  44.797  52.172  1.00  0.00     0.082 A 
ATOM     16  N   UNL     1      -0.053  43.908  51.391  1.00  0.00    -0.250 N 
ATOM     17  C   UNL     1       0.668  45.608  52.412  1.00  0.00     0.149 A 
ATOM     18  N   UNL     1      -0.466  45.073  51.943  1.00  0.00    -0.179 NA
ATOM     19  C   UNL     1      -1.019  43.034  50.775  1.00  0.00     0.176 C 
BRANCH  13  20
ATOM     20  N   UNL     1       3.863  45.844  53.069  1.00  0.00    -0.339 N 
ATOM     21  H   UNL     1       3.373  46.709  52.845  1.00  0.00     0.168 HD
BRANCH  20  22
ATOM     22  C   UNL     1       5.261  46.068  53.071  1.00  0.00     0.043 A 
ATOM     23  C   UNL     1       5.890  46.788  52.042  1.00  0.00     0.027 A 
ATOM     24  C   UNL     1       6.023  45.666  54.188  1.00  0.00    -0.026 A 
ATOM     25  C   UNL     1       7.260  47.057  52.088  1.00  0.00     0.018 A 
ATOM     26  C   UNL     1       7.400  45.943  54.226  1.00  0.00     0.021 A 
ATOM     27  C   UNL     1       8.009  46.629  53.178  1.00  0.00     0.018 A 
ATOM     28  C   UNL     1       5.386  44.926  55.333  1.00  0.00     0.046 C 
ATOM     29  Br  UNL     1       9.862  46.994  53.245  1.00  0.00    -0.051 Br
ENDBRANCH  20  22
ENDBRANCH  13  20
ENDBRANCH   1  10
TORSDOF 6
ENDMDL
MODEL 17
REMARK VINA RESULT:    -7.748      3.247      6.665
REMARK INTER + INTRA:         -11.817
REMARK INTER:                 -11.048
REMARK INTRA:                  -0.769
REMARK UNBOUND:                -1.350
REMARK SMILES CC(=O)NCCNc1nc(Nc2ccc(Br)cc2C)c2cnn(C)c2n1
REMARK SMILES IDX 7 1 6 3 5 4 4 5 2 6 1 7 3 8 8 10 9 11 26 12 10 13 25 14
REMARK SMILES IDX 20 15 23 16 21 17 22 18 24 19 11 20 12 22 13 23 18 24 14 25
REMARK SMILES IDX 17 26 15 27 19 28 16 29
REMARK H PARENT 7 2 4 9 11 21
ROOT
ATOM      1  N   UNL     1       6.140  43.978  49.657  1.00  0.00    -0.352 N 
ATOM      2  H   UNL     1       5.142  43.862  49.789  1.00  0.00     0.163 HD
ENDROOT
BRANCH   1   3
ATOM      3  C   UNL     1       6.884  42.719  49.651  1.00  0.00     0.137 C 
BRANCH   3   4
ATOM      4  C   UNL     1       5.971  41.489  49.822  1.00  0.00     0.137 C 
BRANCH   4   5
ATOM      5  N   UNL     1       5.296  41.105  48.591  1.00  0.00    -0.355 N 
ATOM      6  C   UNL     1       4.042  40.544  48.607  1.00  0.00     0.216 C 
ATOM      7  C   UNL     1       3.526  40.140  47.253  1.00  0.00     0.114 C 
ATOM      8  O   UNL     1       3.396  40.367  49.635  1.00  0.00    -0.275 OA
ATOM      9  H   UNL     1       5.848  41.073  47.742  1.00  0.00     0.163 HD
ENDBRANCH   4   5
ENDBRANCH   3   4
ENDBRANCH   1   3
BRANCH   1  10
ATOM     10  C   UNL     1       6.566  44.937  50.561  1.00  0.00     0.226 A 
ATOM     11  N   UNL     1       5.573  45.545  51.239  1.00  0.00    -0.195 NA
ATOM     12  N   UNL     1       7.877  45.167  50.717  1.00  0.00    -0.193 NA
ATOM     13  C   UNL     1       5.862  46.515  52.143  1.00  0.00     0.147 A 
ATOM     14  C   UNL     1       8.135  46.109  51.634  1.00  0.00     0.165 A 
ATOM     15  C   UNL     1       7.207  46.809  52.378  1.00  0.00     0.082 A 
ATOM     16  N   UNL     1       9.361  46.572  52.030  1.00  0.00    -0.250 N 
ATOM     17  C   UNL     1       7.979  47.649  53.206  1.00  0.00     0.149 A 
ATOM     18  N   UNL     1       9.294  47.515  52.999  1.00  0.00    -0.179 NA
ATOM     19  C   UNL     1      10.647  46.159  51.531  1.00  0.00     0.176 C 
BRANCH  13  20
ATOM     20  N   UNL     1       4.777  47.110  52.808  1.00  0.00    -0.339 N 
ATOM     21  H   UNL     1       5.170  47.620  53.597  1.00  0.00     0.168 HD
BRANCH  20  22
ATOM     22  C   UNL     1       3.566  46.486  53.191  1.00  0.00     0.043 A 
ATOM     23  C   UNL     1       2.434  46.509  52.361  1.00  0.00     0.027 A 
ATOM     24  C   UNL     1       3.528  45.719  54.375  1.00  0.00    -0.026 A 
ATOM     25  C   UNL     1       1.264  45.836  52.721  1.00  0.00     0.018 A 
ATOM     26  C   UNL     1       2.348  45.043  54.729  1.00  0.00     0.021 A 
ATOM     27  C   UNL     1       1.226  45.109  53.905  1.00  0.00     0.018 A 
ATOM     28  C   UNL     1       4.728  45.631  55.279  1.00  0.00     0.046 C 
ATOM     29  Br  UNL     1      -0.353  44.193  54.395  1.00  0.00    -0.051 Br
ENDBRANCH  20  22
ENDBRANCH  13  20
ENDBRANCH   1  10
TORSDOF 6
ENDMDL
MODEL 18
REMARK VINA RESULT:    -7.747      3.141      6.434
REMARK INTER + INTRA:         -11.814
REMARK INTER:                 -10.747
REMARK INTRA:                  -1.068
REMARK UNBOUND:                -1.350
REMARK SMILES CC(=O)NCCNc1nc(Nc2ccc(Br)cc2C)c2cnn(C)c2n1
REMARK SMILES IDX 7 1 6 3 5 4 4 5 2 6 1 7 3 8 8 10 9 11 26 12 10 13 25 14
REMARK SMILES IDX 20 15 23 16 21 17 22 18 24 19 11 20 12 22 13 23 18 24 14 25
REMARK SMILES IDX 17 26 15 27 19 28 16 29
REMARK H PARENT 7 2 4 9 11 21
ROOT
ATOM      1  N   UNL     1       6.807  46.611  51.726  1.00  0.00    -0.352 N 
ATOM      2  H   UNL     1       6.515  47.459  51.254  1.00  0.00     0.163 HD
ENDROOT
BRANCH   1   3
ATOM      3  C   UNL     1       8.123  46.129  51.312  1.00  0.00     0.137 C 
BRANCH   3   4
ATOM      4  C   UNL     1       9.242  47.154  51.580  1.00  0.00     0.137 C 
BRANCH   4   5
ATOM      5  N   UNL     1       9.884  46.973  52.873  1.00  0.00    -0.355 N 
ATOM      6  C   UNL     1       9.423  47.615  53.997  1.00  0.00     0.216 C 
ATOM      7  C   UNL     1      10.248  47.373  55.231  1.00  0.00     0.114 C 
ATOM      8  O   UNL     1       8.435  48.342  54.001  1.00  0.00    -0.275 OA
ATOM      9  H   UNL     1      10.792  46.526  52.889  1.00  0.00     0.163 HD
ENDBRANCH   4   5
ENDBRANCH   3   4
ENDBRANCH   1   3
BRANCH   1  10
ATOM     10  C   UNL     1       5.763  45.706  51.627  1.00  0.00     0.226 A 
ATOM     11  N   UNL     1       4.561  46.199  51.984  1.00  0.00    -0.195 NA
ATOM     12  N   UNL     1       6.000  44.467  51.177  1.00  0.00    -0.193 NA
ATOM     13  C   UNL     1       3.462  45.404  51.945  1.00  0.00     0.147 A 
ATOM     14  C   UNL     1       4.893  43.711  51.122  1.00  0.00     0.165 A 
ATOM     15  C   UNL     1       3.616  44.098  51.474  1.00  0.00     0.082 A 
ATOM     16  N   UNL     1       4.792  42.411  50.708  1.00  0.00    -0.250 N 
ATOM     17  C   UNL     1       2.819  42.966  51.210  1.00  0.00     0.149 A 
ATOM     18  N   UNL     1       3.528  41.930  50.745  1.00  0.00    -0.179 NA
ATOM     19  C   UNL     1       5.861  41.559  50.253  1.00  0.00     0.176 C 
BRANCH  13  20
ATOM     20  N   UNL     1       2.243  45.982  52.336  1.00  0.00    -0.339 N 
ATOM     21  H   UNL     1       2.431  46.971  52.490  1.00  0.00     0.168 HD
BRANCH  20  22
ATOM     22  C   UNL     1       1.348  45.501  53.322  1.00  0.00     0.043 A 
ATOM     23  C   UNL     1       1.638  45.611  54.692  1.00  0.00     0.027 A 
ATOM     24  C   UNL     1       0.085  45.012  52.929  1.00  0.00    -0.026 A 
ATOM     25  C   UNL     1       0.719  45.191  55.657  1.00  0.00     0.018 A 
ATOM     26  C   UNL     1      -0.833  44.594  53.907  1.00  0.00     0.021 A 
ATOM     27  C   UNL     1      -0.510  44.681  55.259  1.00  0.00     0.018 A 
ATOM     28  C   UNL     1      -0.288  44.912  51.475  1.00  0.00     0.046 C 
ATOM     29  Br  UNL     1      -1.758  44.115  56.561  1.00  0.00    -0.051 Br
ENDBRANCH  20  22
ENDBRANCH  13  20
ENDBRANCH   1  10
TORSDOF 6
ENDMDL
MODEL 19
REMARK VINA RESULT:    -7.719      3.907      7.502
REMARK INTER + INTRA:         -11.776
REMARK INTER:                 -10.851
REMARK INTRA:                  -0.926
REMARK UNBOUND:                -1.350
REMARK SMILES CC(=O)NCCNc1nc(Nc2ccc(Br)cc2C)c2cnn(C)c2n1
REMARK SMILES IDX 7 1 6 3 5 4 4 5 2 6 1 7 3 8 8 10 9 11 26 12 10 13 25 14
REMARK SMILES IDX 20 15 23 16 21 17 22 18 24 19 11 20 12 22 13 23 18 24 14 25
REMARK SMILES IDX 17 26 15 27 19 28 16 29
REMARK H PARENT 7 2 4 9 11 21
ROOT
ATOM      1  N   UNL     1       6.666  43.248  49.432  1.00  0.00    -0.352 N 
ATOM      2  H   UNL     1       6.166  43.603  48.626  1.00  0.00     0.163 HD
ENDROOT
BRANCH   1   3
ATOM      3  C   UNL     1       6.447  41.824  49.682  1.00  0.00     0.137 C 
BRANCH   3   4
ATOM      4  C   UNL     1       5.462  41.190  48.680  1.00  0.00     0.137 C 
BRANCH   4   5
ATOM      5  N   UNL     1       5.730  41.567  47.301  1.00  0.00    -0.355 N 
ATOM      6  C   UNL     1       4.837  41.286  46.296  1.00  0.00     0.216 C 
ATOM      7  C   UNL     1       5.306  41.680  44.921  1.00  0.00     0.114 C 
ATOM      8  O   UNL     1       3.754  40.744  46.488  1.00  0.00    -0.275 OA
ATOM      9  H   UNL     1       6.671  41.859  47.066  1.00  0.00     0.163 HD
ENDBRANCH   4   5
ENDBRANCH   3   4
ENDBRANCH   1   3
BRANCH   1  10
ATOM     10  C   UNL     1       6.404  44.103  50.489  1.00  0.00     0.226 A 
ATOM     11  N   UNL     1       5.416  43.692  51.308  1.00  0.00    -0.195 NA
ATOM     12  N   UNL     1       7.134  45.216  50.639  1.00  0.00    -0.193 NA
ATOM     13  C   UNL     1       5.056  44.452  52.373  1.00  0.00     0.147 A 
ATOM     14  C   UNL     1       6.776  45.935  51.712  1.00  0.00     0.165 A 
ATOM     15  C   UNL     1       5.775  45.626  52.611  1.00  0.00     0.082 A 
ATOM     16  N   UNL     1       7.320  47.113  52.146  1.00  0.00    -0.250 N 
ATOM     17  C   UNL     1       5.818  46.668  53.559  1.00  0.00     0.149 A 
ATOM     18  N   UNL     1       6.755  47.583  53.282  1.00  0.00    -0.179 NA
ATOM     19  C   UNL     1       8.392  47.853  51.529  1.00  0.00     0.176 C 
BRANCH  13  20
ATOM     20  N   UNL     1       4.015  43.965  53.181  1.00  0.00    -0.339 N 
ATOM     21  H   UNL     1       4.165  42.962  53.267  1.00  0.00     0.168 HD
BRANCH  20  22
ATOM     22  C   UNL     1       2.633  44.238  53.047  1.00  0.00     0.043 A 
ATOM     23  C   UNL     1       1.906  43.812  51.923  1.00  0.00     0.027 A 
ATOM     24  C   UNL     1       1.941  44.843  54.118  1.00  0.00    -0.026 A 
ATOM     25  C   UNL     1       0.530  44.031  51.832  1.00  0.00     0.018 A 
ATOM     26  C   UNL     1       0.556  45.057  54.018  1.00  0.00     0.021 A 
ATOM     27  C   UNL     1      -0.138  44.656  52.879  1.00  0.00     0.018 A 
ATOM     28  C   UNL     1       2.669  45.281  55.360  1.00  0.00     0.046 C 
ATOM     29  Br  UNL     1      -2.001  44.951  52.761  1.00  0.00    -0.051 Br
ENDBRANCH  20  22
ENDBRANCH  13  20
ENDBRANCH   1  10
TORSDOF 6
ENDMDL
MODEL 20
REMARK VINA RESULT:    -7.496      2.766      5.428
REMARK INTER + INTRA:         -11.476
REMARK INTER:                 -10.546
REMARK INTRA:                  -0.930
REMARK UNBOUND:                -1.350
REMARK SMILES CC(=O)NCCNc1nc(Nc2ccc(Br)cc2C)c2cnn(C)c2n1
REMARK SMILES IDX 7 1 6 3 5 4 4 5 2 6 1 7 3 8 8 10 9 11 26 12 10 13 25 14
REMARK SMILES IDX 20 15 23 16 21 17 22 18 24 19 11 20 12 22 13 23 18 24 14 25
REMARK SMILES IDX 17 26 15 27 19 28 16 29
REMARK H PARENT 7 2 4 9 11 21
ROOT
ATOM      1  N   UNL     1       2.993  41.921  50.802  1.00  0.00    -0.352 N 
ATOM      2  H   UNL     1       2.417  41.127  50.548  1.00  0.00     0.163 HD
ENDROOT
BRANCH   1   3
ATOM      3  C   UNL     1       4.357  41.560  51.186  1.00  0.00     0.137 C 
BRANCH   3   4
ATOM      4  C   UNL     1       5.401  41.974  50.130  1.00  0.00     0.137 C 
BRANCH   4   5
ATOM      5  N   UNL     1       5.877  43.338  50.304  1.00  0.00    -0.355 N 
ATOM      6  C   UNL     1       7.054  43.763  49.735  1.00  0.00     0.216 C 
ATOM      7  C   UNL     1       7.432  45.178  50.078  1.00  0.00     0.114 C 
ATOM      8  O   UNL     1       7.754  43.052  49.023  1.00  0.00    -0.275 OA
ATOM      9  H   UNL     1       5.430  43.907  51.013  1.00  0.00     0.163 HD
ENDBRANCH   4   5
ENDBRANCH   3   4
ENDBRANCH   1   3
BRANCH   1  10
ATOM     10  C   UNL     1       2.277  42.675  51.717  1.00  0.00     0.226 A 
ATOM     11  N   UNL     1       3.039  43.381  52.575  1.00  0.00    -0.195 NA
ATOM     12  N   UNL     1       0.939  42.676  51.672  1.00  0.00    -0.193 NA
ATOM     13  C   UNL     1       2.453  44.148  53.530  1.00  0.00     0.147 A 
ATOM     14  C   UNL     1       0.387  43.462  52.608  1.00  0.00     0.165 A 
ATOM     15  C   UNL     1       1.059  44.217  53.547  1.00  0.00     0.082 A 
ATOM     16  N   UNL     1      -0.945  43.684  52.828  1.00  0.00    -0.250 N 
ATOM     17  C   UNL     1       0.040  44.875  54.266  1.00  0.00     0.149 A 
ATOM     18  N   UNL     1      -1.187  44.554  53.837  1.00  0.00    -0.179 NA
ATOM     19  C   UNL     1      -2.052  43.106  52.111  1.00  0.00     0.176 C 
BRANCH  13  20
ATOM     20  N   UNL     1       3.308  44.853  54.393  1.00  0.00    -0.339 N 
ATOM     21  H   UNL     1       2.713  45.465  54.948  1.00  0.00     0.168 HD
BRANCH  20  22
ATOM     22  C   UNL     1       4.504  45.525  54.048  1.00  0.00     0.043 A 
ATOM     23  C   UNL     1       5.760  45.038  54.444  1.00  0.00     0.027 A 
ATOM     24  C   UNL     1       4.446  46.640  53.185  1.00  0.00    -0.026 A 
ATOM     25  C   UNL     1       6.937  45.674  54.043  1.00  0.00     0.018 A 
ATOM     26  C   UNL     1       5.635  47.273  52.786  1.00  0.00     0.021 A 
ATOM     27  C   UNL     1       6.868  46.791  53.219  1.00  0.00     0.018 A 
ATOM     28  C   UNL     1       3.126  47.176  52.702  1.00  0.00     0.046 C 
ATOM     29  Br  UNL     1       8.458  47.654  52.671  1.00  0.00    -0.051 Br
ENDBRANCH  20  22
ENDBRANCH  13  20
ENDBRANCH   1  10
TORSDOF 6
ENDMDL
