MODEL 1
REMARK VINA RESULT:    -8.635      0.000      0.000
REMARK INTER + INTRA:         -12.291
REMARK INTER:                 -11.663
REMARK INTRA:                  -0.628
REMARK UNBOUND:                -0.628
REMARK SMILES CC(C)CCNc1nc(Nc2ccc(I)cc2)c2cnn(C)c2n1
REMARK SMILES IDX 6 1 5 3 4 4 2 5 1 6 3 7 7 8 8 9 24 10 9 11 23 12 18 13 21 14
REMARK SMILES IDX 19 15 20 16 22 17 10 18 11 20 12 21 17 22 13 23 16 24 14 25
REMARK SMILES IDX 15 26
REMARK H PARENT 6 2 10 19
ROOT
ATOM      1  N   UNL     1       6.004  46.998  52.555  1.00  0.00    -0.354 N 
ATOM      2  H   UNL     1       5.151  47.331  52.984  1.00  0.00     0.163 HD
ENDROOT
BRANCH   1   3
ATOM      3  C   UNL     1       7.239  47.223  53.288  1.00  0.00     0.116 C 
BRANCH   3   4
ATOM      4  C   UNL     1       8.370  47.783  52.416  1.00  0.00     0.024 C 
BRANCH   4   5
ATOM      5  C   UNL     1       9.787  47.309  52.804  1.00  0.00    -0.016 C 
ATOM      6  C   UNL     1      10.194  46.131  51.913  1.00  0.00     0.007 C 
ATOM      7  C   UNL     1       9.910  46.907  54.273  1.00  0.00     0.007 C 
ENDBRANCH   4   5
ENDBRANCH   3   4
ENDBRANCH   1   3
BRANCH   1   8
ATOM      8  C   UNL     1       5.758  45.716  52.091  1.00  0.00     0.226 A 
ATOM      9  N   UNL     1       4.777  44.982  52.647  1.00  0.00    -0.195 NA
ATOM     10  N   UNL     1       6.546  45.326  51.082  1.00  0.00    -0.193 NA
ATOM     11  C   UNL     1       4.507  43.724  52.209  1.00  0.00     0.147 A 
ATOM     12  C   UNL     1       6.268  44.086  50.658  1.00  0.00     0.165 A 
ATOM     13  C   UNL     1       5.290  43.245  51.152  1.00  0.00     0.082 A 
ATOM     14  N   UNL     1       6.888  43.396  49.652  1.00  0.00    -0.250 N 
ATOM     15  C   UNL     1       5.407  42.077  50.369  1.00  0.00     0.149 A 
ATOM     16  N   UNL     1       6.374  42.160  49.449  1.00  0.00    -0.179 NA
ATOM     17  C   UNL     1       7.984  43.851  48.834  1.00  0.00     0.176 C 
BRANCH  11  18
ATOM     18  N   UNL     1       3.472  42.952  52.760  1.00  0.00    -0.339 N 
ATOM     19  H   UNL     1       3.769  42.348  53.512  1.00  0.00     0.168 HD
BRANCH  18  20
ATOM     20  C   UNL     1       2.090  42.911  52.505  1.00  0.00     0.040 A 
ATOM     21  C   UNL     1       1.130  42.574  53.466  1.00  0.00     0.027 A 
ATOM     22  C   UNL     1       1.633  43.274  51.227  1.00  0.00     0.027 A 
ATOM     23  C   UNL     1      -0.238  42.582  53.163  1.00  0.00     0.017 A 
ATOM     24  C   UNL     1       0.269  43.287  50.914  1.00  0.00     0.017 A 
ATOM     25  C   UNL     1      -0.663  42.938  51.887  1.00  0.00     0.013 A 
ATOM     26  I   UNL     1      -2.690  42.954  51.436  1.00  0.00    -0.044 I 
ENDBRANCH  18  20
ENDBRANCH  11  18
ENDBRANCH   1   8
TORSDOF 6
ENDMDL
MODEL 2
REMARK VINA RESULT:    -8.632      0.427      1.289
REMARK INTER + INTRA:         -12.288
REMARK INTER:                 -11.523
REMARK INTRA:                  -0.765
REMARK UNBOUND:                -0.628
REMARK SMILES CC(C)CCNc1nc(Nc2ccc(I)cc2)c2cnn(C)c2n1
REMARK SMILES IDX 6 1 5 3 4 4 2 5 1 6 3 7 7 8 8 9 24 10 9 11 23 12 18 13 21 14
REMARK SMILES IDX 19 15 20 16 22 17 10 18 11 20 12 21 17 22 13 23 16 24 14 25
REMARK SMILES IDX 15 26
REMARK H PARENT 6 2 10 19
ROOT
ATOM      1  N   UNL     1       6.168  47.056  52.586  1.00  0.00    -0.354 N 
ATOM      2  H   UNL     1       6.011  47.049  53.585  1.00  0.00     0.163 HD
ENDROOT
BRANCH   1   3
ATOM      3  C   UNL     1       7.395  47.680  52.118  1.00  0.00     0.116 C 
BRANCH   3   4
ATOM      4  C   UNL     1       8.396  47.972  53.244  1.00  0.00     0.024 C 
BRANCH   4   5
ATOM      5  C   UNL     1       9.377  46.822  53.558  1.00  0.00    -0.016 C 
ATOM      6  C   UNL     1      10.248  47.207  54.758  1.00  0.00     0.007 C 
ATOM      7  C   UNL     1      10.270  46.447  52.377  1.00  0.00     0.007 C 
ENDBRANCH   4   5
ENDBRANCH   3   4
ENDBRANCH   1   3
BRANCH   1   8
ATOM      8  C   UNL     1       5.874  45.787  52.115  1.00  0.00     0.226 A 
ATOM      9  N   UNL     1       4.857  45.093  52.657  1.00  0.00    -0.195 NA
ATOM     10  N   UNL     1       6.656  45.367  51.114  1.00  0.00    -0.193 NA
ATOM     11  C   UNL     1       4.539  43.849  52.211  1.00  0.00     0.147 A 
ATOM     12  C   UNL     1       6.332  44.141  50.682  1.00  0.00     0.165 A 
ATOM     13  C   UNL     1       5.314  43.341  51.162  1.00  0.00     0.082 A 
ATOM     14  N   UNL     1       6.934  43.428  49.681  1.00  0.00    -0.250 N 
ATOM     15  C   UNL     1       5.390  42.171  50.376  1.00  0.00     0.149 A 
ATOM     16  N   UNL     1       6.371  42.216  49.468  1.00  0.00    -0.179 NA
ATOM     17  C   UNL     1       8.057  43.839  48.877  1.00  0.00     0.176 C 
BRANCH  11  18
ATOM     18  N   UNL     1       3.466  43.120  52.748  1.00  0.00    -0.339 N 
ATOM     19  H   UNL     1       3.715  42.553  53.545  1.00  0.00     0.168 HD
BRANCH  18  20
ATOM     20  C   UNL     1       2.098  43.081  52.424  1.00  0.00     0.040 A 
ATOM     21  C   UNL     1       1.584  43.435  51.172  1.00  0.00     0.027 A 
ATOM     22  C   UNL     1       1.194  42.613  53.392  1.00  0.00     0.027 A 
ATOM     23  C   UNL     1       0.213  43.343  50.896  1.00  0.00     0.017 A 
ATOM     24  C   UNL     1      -0.177  42.517  53.126  1.00  0.00     0.017 A 
ATOM     25  C   UNL     1      -0.663  42.885  51.875  1.00  0.00     0.013 A 
ATOM     26  I   UNL     1      -2.694  42.746  51.468  1.00  0.00    -0.044 I 
ENDBRANCH  18  20
ENDBRANCH  11  18
ENDBRANCH   1   8
TORSDOF 6
ENDMDL
MODEL 3
REMARK VINA RESULT:    -8.595      2.914      4.809
REMARK INTER + INTRA:         -12.238
REMARK INTER:                 -11.679
REMARK INTRA:                  -0.558
REMARK UNBOUND:                -0.628
REMARK SMILES CC(C)CCNc1nc(Nc2ccc(I)cc2)c2cnn(C)c2n1
REMARK SMILES IDX 6 1 5 3 4 4 2 5 1 6 3 7 7 8 8 9 24 10 9 11 23 12 18 13 21 14
REMARK SMILES IDX 19 15 20 16 22 17 10 18 11 20 12 21 17 22 13 23 16 24 14 25
REMARK SMILES IDX 15 26
REMARK H PARENT 6 2 10 19
ROOT
ATOM      1  N   UNL     1       7.454  46.126  50.994  1.00  0.00    -0.354 N 
ATOM      2  H   UNL     1       7.576  46.427  50.036  1.00  0.00     0.163 HD
ENDROOT
BRANCH   1   3
ATOM      3  C   UNL     1       7.228  47.164  51.986  1.00  0.00     0.116 C 
BRANCH   3   4
ATOM      4  C   UNL     1       8.524  47.723  52.587  1.00  0.00     0.024 C 
BRANCH   4   5
ATOM      5  C   UNL     1       9.497  46.660  53.141  1.00  0.00    -0.016 C 
ATOM      6  C   UNL     1      10.129  47.173  54.439  1.00  0.00     0.007 C 
ATOM      7  C   UNL     1      10.597  46.272  52.155  1.00  0.00     0.007 C 
ENDBRANCH   4   5
ENDBRANCH   3   4
ENDBRANCH   1   3
BRANCH   1   8
ATOM      8  C   UNL     1       6.578  45.052  50.978  1.00  0.00     0.226 A 
ATOM      9  N   UNL     1       6.755  44.059  50.089  1.00  0.00    -0.195 NA
ATOM     10  N   UNL     1       5.610  45.107  51.901  1.00  0.00    -0.193 NA
ATOM     11  C   UNL     1       5.918  42.989  50.054  1.00  0.00     0.147 A 
ATOM     12  C   UNL     1       4.793  44.047  51.858  1.00  0.00     0.165 A 
ATOM     13  C   UNL     1       4.878  42.975  50.992  1.00  0.00     0.082 A 
ATOM     14  N   UNL     1       3.710  43.802  52.657  1.00  0.00    -0.250 N 
ATOM     15  C   UNL     1       3.800  42.142  51.360  1.00  0.00     0.149 A 
ATOM     16  N   UNL     1       3.084  42.635  52.377  1.00  0.00    -0.179 NA
ATOM     17  C   UNL     1       3.206  44.640  53.717  1.00  0.00     0.176 C 
BRANCH  11  18
ATOM     18  N   UNL     1       6.101  41.931  49.150  1.00  0.00    -0.339 N 
ATOM     19  H   UNL     1       6.873  41.324  49.383  1.00  0.00     0.168 HD
BRANCH  18  20
ATOM     20  C   UNL     1       5.373  41.522  48.019  1.00  0.00     0.040 A 
ATOM     21  C   UNL     1       5.698  41.889  46.708  1.00  0.00     0.027 A 
ATOM     22  C   UNL     1       4.284  40.654  48.202  1.00  0.00     0.027 A 
ATOM     23  C   UNL     1       4.954  41.423  45.616  1.00  0.00     0.017 A 
ATOM     24  C   UNL     1       3.536  40.180  47.118  1.00  0.00     0.017 A 
ATOM     25  C   UNL     1       3.875  40.570  45.825  1.00  0.00     0.013 A 
ATOM     26  I   UNL     1       2.773  39.875  44.209  1.00  0.00    -0.044 I 
ENDBRANCH  18  20
ENDBRANCH  11  18
ENDBRANCH   1   8
TORSDOF 6
ENDMDL
MODEL 4
REMARK VINA RESULT:    -8.464      2.928      4.660
REMARK INTER + INTRA:         -12.061
REMARK INTER:                 -11.543
REMARK INTRA:                  -0.519
REMARK UNBOUND:                -0.628
REMARK SMILES CC(C)CCNc1nc(Nc2ccc(I)cc2)c2cnn(C)c2n1
REMARK SMILES IDX 6 1 5 3 4 4 2 5 1 6 3 7 7 8 8 9 24 10 9 11 23 12 18 13 21 14
REMARK SMILES IDX 19 15 20 16 22 17 10 18 11 20 12 21 17 22 13 23 16 24 14 25
REMARK SMILES IDX 15 26
REMARK H PARENT 6 2 10 19
ROOT
ATOM      1  N   UNL     1       7.335  45.984  50.835  1.00  0.00    -0.354 N 
ATOM      2  H   UNL     1       7.206  46.441  49.943  1.00  0.00     0.163 HD
ENDROOT
BRANCH   1   3
ATOM      3  C   UNL     1       7.421  46.841  52.006  1.00  0.00     0.116 C 
BRANCH   3   4
ATOM      4  C   UNL     1       8.642  47.770  51.992  1.00  0.00     0.024 C 
BRANCH   4   5
ATOM      5  C   UNL     1       9.902  47.201  52.680  1.00  0.00    -0.016 C 
ATOM      6  C   UNL     1      10.380  45.958  51.922  1.00  0.00     0.007 C 
ATOM      7  C   UNL     1       9.683  46.850  54.151  1.00  0.00     0.007 C 
ENDBRANCH   4   5
ENDBRANCH   3   4
ENDBRANCH   1   3
BRANCH   1   8
ATOM      8  C   UNL     1       6.450  44.919  50.883  1.00  0.00     0.226 A 
ATOM      9  N   UNL     1       6.608  43.881  50.042  1.00  0.00    -0.195 NA
ATOM     10  N   UNL     1       5.495  45.028  51.814  1.00  0.00    -0.193 NA
ATOM     11  C   UNL     1       5.761  42.819  50.070  1.00  0.00     0.147 A 
ATOM     12  C   UNL     1       4.667  43.975  51.833  1.00  0.00     0.165 A 
ATOM     13  C   UNL     1       4.733  42.860  51.020  1.00  0.00     0.082 A 
ATOM     14  N   UNL     1       3.592  43.779  52.657  1.00  0.00    -0.250 N 
ATOM     15  C   UNL     1       3.653  42.057  51.442  1.00  0.00     0.149 A 
ATOM     16  N   UNL     1       2.954  42.605  52.442  1.00  0.00    -0.179 NA
ATOM     17  C   UNL     1       3.110  44.672  53.680  1.00  0.00     0.176 C 
BRANCH  11  18
ATOM     18  N   UNL     1       5.923  41.717  49.216  1.00  0.00    -0.339 N 
ATOM     19  H   UNL     1       6.683  41.106  49.479  1.00  0.00     0.168 HD
BRANCH  18  20
ATOM     20  C   UNL     1       5.188  41.269  48.105  1.00  0.00     0.040 A 
ATOM     21  C   UNL     1       4.071  40.432  48.195  1.00  0.00     0.027 A 
ATOM     22  C   UNL     1       5.560  41.724  46.828  1.00  0.00     0.027 A 
ATOM     23  C   UNL     1       3.356  40.045  47.054  1.00  0.00     0.017 A 
ATOM     24  C   UNL     1       4.853  41.345  45.682  1.00  0.00     0.017 A 
ATOM     25  C   UNL     1       3.751  40.503  45.801  1.00  0.00     0.013 A 
ATOM     26  I   UNL     1       2.692  39.934  44.108  1.00  0.00    -0.044 I 
ENDBRANCH  18  20
ENDBRANCH  11  18
ENDBRANCH   1   8
TORSDOF 6
ENDMDL
MODEL 5
REMARK VINA RESULT:    -8.452      1.413      1.938
REMARK INTER + INTRA:         -12.044
REMARK INTER:                 -11.308
REMARK INTRA:                  -0.737
REMARK UNBOUND:                -0.628
REMARK SMILES CC(C)CCNc1nc(Nc2ccc(I)cc2)c2cnn(C)c2n1
REMARK SMILES IDX 6 1 5 3 4 4 2 5 1 6 3 7 7 8 8 9 24 10 9 11 23 12 18 13 21 14
REMARK SMILES IDX 19 15 20 16 22 17 10 18 11 20 12 21 17 22 13 23 16 24 14 25
REMARK SMILES IDX 15 26
REMARK H PARENT 6 2 10 19
ROOT
ATOM      1  N   UNL     1       6.828  46.323  51.274  1.00  0.00    -0.354 N 
ATOM      2  H   UNL     1       6.680  46.672  50.336  1.00  0.00     0.163 HD
ENDROOT
BRANCH   1   3
ATOM      3  C   UNL     1       6.904  47.311  52.338  1.00  0.00     0.116 C 
BRANCH   3   4
ATOM      4  C   UNL     1       8.333  47.796  52.615  1.00  0.00     0.024 C 
BRANCH   4   5
ATOM      5  C   UNL     1       9.315  46.699  53.081  1.00  0.00    -0.016 C 
ATOM      6  C   UNL     1      10.069  47.183  54.323  1.00  0.00     0.007 C 
ATOM      7  C   UNL     1      10.315  46.285  52.003  1.00  0.00     0.007 C 
ENDBRANCH   4   5
ENDBRANCH   3   4
ENDBRANCH   1   3
BRANCH   1   8
ATOM      8  C   UNL     1       5.968  45.252  51.454  1.00  0.00     0.226 A 
ATOM      9  N   UNL     1       4.983  45.333  52.367  1.00  0.00    -0.195 NA
ATOM     10  N   UNL     1       6.205  44.205  50.655  1.00  0.00    -0.193 NA
ATOM     11  C   UNL     1       4.120  44.302  52.562  1.00  0.00     0.147 A 
ATOM     12  C   UNL     1       5.346  43.196  50.855  1.00  0.00     0.165 A 
ATOM     13  C   UNL     1       4.304  43.168  51.761  1.00  0.00     0.082 A 
ATOM     14  N   UNL     1       5.318  41.991  50.209  1.00  0.00    -0.250 N 
ATOM     15  C   UNL     1       3.712  41.901  51.572  1.00  0.00     0.149 A 
ATOM     16  N   UNL     1       4.319  41.177  50.626  1.00  0.00    -0.179 NA
ATOM     17  C   UNL     1       6.215  41.539  49.175  1.00  0.00     0.176 C 
BRANCH  11  18
ATOM     18  N   UNL     1       3.072  44.377  53.493  1.00  0.00    -0.339 N 
ATOM     19  H   UNL     1       3.378  44.544  54.440  1.00  0.00     0.168 HD
BRANCH  18  20
ATOM     20  C   UNL     1       1.675  44.327  53.344  1.00  0.00     0.040 A 
ATOM     21  C   UNL     1       0.929  45.293  52.659  1.00  0.00     0.027 A 
ATOM     22  C   UNL     1       0.984  43.222  53.869  1.00  0.00     0.027 A 
ATOM     23  C   UNL     1      -0.459  45.174  52.514  1.00  0.00     0.017 A 
ATOM     24  C   UNL     1      -0.403  43.092  53.728  1.00  0.00     0.017 A 
ATOM     25  C   UNL     1      -1.120  44.073  53.050  1.00  0.00     0.013 A 
ATOM     26  I   UNL     1      -3.177  43.892  52.834  1.00  0.00    -0.044 I 
ENDBRANCH  18  20
ENDBRANCH  11  18
ENDBRANCH   1   8
TORSDOF 6
ENDMDL
MODEL 6
REMARK VINA RESULT:    -8.392      2.134      2.421
REMARK INTER + INTRA:         -11.963
REMARK INTER:                 -11.547
REMARK INTRA:                  -0.416
REMARK UNBOUND:                -0.628
REMARK SMILES CC(C)CCNc1nc(Nc2ccc(I)cc2)c2cnn(C)c2n1
REMARK SMILES IDX 6 1 5 3 4 4 2 5 1 6 3 7 7 8 8 9 24 10 9 11 23 12 18 13 21 14
REMARK SMILES IDX 19 15 20 16 22 17 10 18 11 20 12 21 17 22 13 23 16 24 14 25
REMARK SMILES IDX 15 26
REMARK H PARENT 6 2 10 19
ROOT
ATOM      1  N   UNL     1       5.753  46.928  52.571  1.00  0.00    -0.354 N 
ATOM      2  H   UNL     1       4.981  47.473  52.929  1.00  0.00     0.163 HD
ENDROOT
BRANCH   1   3
ATOM      3  C   UNL     1       7.012  47.019  53.291  1.00  0.00     0.116 C 
BRANCH   3   4
ATOM      4  C   UNL     1       8.072  47.855  52.561  1.00  0.00     0.024 C 
BRANCH   4   5
ATOM      5  C   UNL     1       9.532  47.431  52.825  1.00  0.00    -0.016 C 
ATOM      6  C   UNL     1       9.836  46.140  52.060  1.00  0.00     0.007 C 
ATOM      7  C   UNL     1       9.847  47.234  54.307  1.00  0.00     0.007 C 
ENDBRANCH   4   5
ENDBRANCH   3   4
ENDBRANCH   1   3
BRANCH   1   8
ATOM      8  C   UNL     1       5.266  45.662  52.289  1.00  0.00     0.226 A 
ATOM      9  N   UNL     1       4.177  45.206  52.935  1.00  0.00    -0.195 NA
ATOM     10  N   UNL     1       5.949  44.996  51.351  1.00  0.00    -0.193 NA
ATOM     11  C   UNL     1       3.671  43.972  52.676  1.00  0.00     0.147 A 
ATOM     12  C   UNL     1       5.439  43.782  51.102  1.00  0.00     0.165 A 
ATOM     13  C   UNL     1       4.333  43.214  51.702  1.00  0.00     0.082 A 
ATOM     14  N   UNL     1       5.902  42.856  50.207  1.00  0.00    -0.250 N 
ATOM     15  C   UNL     1       4.217  41.948  51.091  1.00  0.00     0.149 A 
ATOM     16  N   UNL     1       5.165  41.721  50.175  1.00  0.00    -0.179 NA
ATOM     17  C   UNL     1       7.047  42.983  49.342  1.00  0.00     0.176 C 
BRANCH  11  18
ATOM     18  N   UNL     1       2.522  43.490  53.322  1.00  0.00    -0.339 N 
ATOM     19  H   UNL     1       2.337  42.512  53.149  1.00  0.00     0.168 HD
BRANCH  18  20
ATOM     20  C   UNL     1       1.620  44.093  54.215  1.00  0.00     0.040 A 
ATOM     21  C   UNL     1       2.010  44.879  55.305  1.00  0.00     0.027 A 
ATOM     22  C   UNL     1       0.242  43.946  53.978  1.00  0.00     0.027 A 
ATOM     23  C   UNL     1       1.064  45.484  56.143  1.00  0.00     0.017 A 
ATOM     24  C   UNL     1      -0.711  44.547  54.807  1.00  0.00     0.017 A 
ATOM     25  C   UNL     1      -0.294  45.315  55.891  1.00  0.00     0.013 A 
ATOM     26  I   UNL     1      -1.698  46.213  57.128  1.00  0.00    -0.044 I 
ENDBRANCH  18  20
ENDBRANCH  11  18
ENDBRANCH   1   8
TORSDOF 6
ENDMDL
MODEL 7
REMARK VINA RESULT:    -8.164      3.709      6.566
REMARK INTER + INTRA:         -11.656
REMARK INTER:                 -10.449
REMARK INTRA:                  -1.207
REMARK UNBOUND:                -0.628
REMARK SMILES CC(C)CCNc1nc(Nc2ccc(I)cc2)c2cnn(C)c2n1
REMARK SMILES IDX 6 1 5 3 4 4 2 5 1 6 3 7 7 8 8 9 24 10 9 11 23 12 18 13 21 14
REMARK SMILES IDX 19 15 20 16 22 17 10 18 11 20 12 21 17 22 13 23 16 24 14 25
REMARK SMILES IDX 15 26
REMARK H PARENT 6 2 10 19
ROOT
ATOM      1  N   UNL     1       2.308  45.749  51.567  1.00  0.00    -0.354 N 
ATOM      2  H   UNL     1       1.567  45.092  51.361  1.00  0.00     0.163 HD
ENDROOT
BRANCH   1   3
ATOM      3  C   UNL     1       2.242  46.434  52.847  1.00  0.00     0.116 C 
BRANCH   3   4
ATOM      4  C   UNL     1       2.424  45.497  54.049  1.00  0.00     0.024 C 
BRANCH   4   5
ATOM      5  C   UNL     1       3.651  45.802  54.933  1.00  0.00    -0.016 C 
ATOM      6  C   UNL     1       4.203  47.188  54.582  1.00  0.00     0.007 C 
ATOM      7  C   UNL     1       4.764  44.762  54.806  1.00  0.00     0.007 C 
ENDBRANCH   4   5
ENDBRANCH   3   4
ENDBRANCH   1   3
BRANCH   1   8
ATOM      8  C   UNL     1       3.504  45.138  51.227  1.00  0.00     0.226 A 
ATOM      9  N   UNL     1       4.647  45.848  51.249  1.00  0.00    -0.195 NA
ATOM     10  N   UNL     1       3.400  43.842  50.911  1.00  0.00    -0.193 NA
ATOM     11  C   UNL     1       5.836  45.276  50.928  1.00  0.00     0.147 A 
ATOM     12  C   UNL     1       4.579  43.288  50.599  1.00  0.00     0.165 A 
ATOM     13  C   UNL     1       5.808  43.918  50.587  1.00  0.00     0.082 A 
ATOM     14  N   UNL     1       4.815  41.992  50.231  1.00  0.00    -0.250 N 
ATOM     15  C   UNL     1       6.714  42.907  50.202  1.00  0.00     0.149 A 
ATOM     16  N   UNL     1       6.120  41.728  49.986  1.00  0.00    -0.179 NA
ATOM     17  C   UNL     1       3.841  40.939  50.089  1.00  0.00     0.176 C 
BRANCH  11  18
ATOM     18  N   UNL     1       7.042  45.994  50.969  1.00  0.00    -0.339 N 
ATOM     19  H   UNL     1       7.323  46.371  50.076  1.00  0.00     0.168 HD
BRANCH  18  20
ATOM     20  C   UNL     1       7.895  46.342  52.031  1.00  0.00     0.040 A 
ATOM     21  C   UNL     1       9.290  46.376  51.930  1.00  0.00     0.027 A 
ATOM     22  C   UNL     1       7.321  46.725  53.255  1.00  0.00     0.027 A 
ATOM     23  C   UNL     1      10.090  46.764  53.013  1.00  0.00     0.017 A 
ATOM     24  C   UNL     1       8.110  47.115  54.343  1.00  0.00     0.017 A 
ATOM     25  C   UNL     1       9.496  47.131  54.217  1.00  0.00     0.013 A 
ATOM     26  I   UNL     1      10.677  47.708  55.823  1.00  0.00    -0.044 I 
ENDBRANCH  18  20
ENDBRANCH  11  18
ENDBRANCH   1   8
TORSDOF 6
ENDMDL
MODEL 8
REMARK VINA RESULT:    -8.162      3.883      7.603
REMARK INTER + INTRA:         -11.653
REMARK INTER:                 -10.420
REMARK INTRA:                  -1.233
REMARK UNBOUND:                -0.628
REMARK SMILES CC(C)CCNc1nc(Nc2ccc(I)cc2)c2cnn(C)c2n1
REMARK SMILES IDX 6 1 5 3 4 4 2 5 1 6 3 7 7 8 8 9 24 10 9 11 23 12 18 13 21 14
REMARK SMILES IDX 19 15 20 16 22 17 10 18 11 20 12 21 17 22 13 23 16 24 14 25
REMARK SMILES IDX 15 26
REMARK H PARENT 6 2 10 19
ROOT
ATOM      1  N   UNL     1       1.211  42.702  52.471  1.00  0.00    -0.354 N 
ATOM      2  H   UNL     1       0.258  42.436  52.265  1.00  0.00     0.163 HD
ENDROOT
BRANCH   1   3
ATOM      3  C   UNL     1       2.019  43.168  51.357  1.00  0.00     0.116 C 
BRANCH   3   4
ATOM      4  C   UNL     1       3.347  42.413  51.210  1.00  0.00     0.024 C 
BRANCH   4   5
ATOM      5  C   UNL     1       4.612  43.286  51.354  1.00  0.00    -0.016 C 
ATOM      6  C   UNL     1       4.245  44.758  51.140  1.00  0.00     0.007 C 
ATOM      7  C   UNL     1       5.732  42.893  50.392  1.00  0.00     0.007 C 
ENDBRANCH   4   5
ENDBRANCH   3   4
ENDBRANCH   1   3
BRANCH   1   8
ATOM      8  C   UNL     1       1.181  43.486  53.613  1.00  0.00     0.226 A 
ATOM      9  N   UNL     1       2.278  44.171  53.982  1.00  0.00    -0.195 NA
ATOM     10  N   UNL     1       0.006  43.494  54.254  1.00  0.00    -0.193 NA
ATOM     11  C   UNL     1       2.277  44.954  55.093  1.00  0.00     0.147 A 
ATOM     12  C   UNL     1       0.017  44.271  55.346  1.00  0.00     0.165 A 
ATOM     13  C   UNL     1       1.080  45.015  55.818  1.00  0.00     0.082 A 
ATOM     14  N   UNL     1      -1.015  44.492  56.216  1.00  0.00    -0.250 N 
ATOM     15  C   UNL     1       0.578  45.647  56.974  1.00  0.00     0.149 A 
ATOM     16  N   UNL     1      -0.700  45.339  57.224  1.00  0.00    -0.179 NA
ATOM     17  C   UNL     1      -2.340  43.928  56.153  1.00  0.00     0.176 C 
BRANCH  11  18
ATOM     18  N   UNL     1       3.405  45.695  55.480  1.00  0.00    -0.339 N 
ATOM     19  H   UNL     1       3.391  45.983  56.448  1.00  0.00     0.168 HD
BRANCH  18  20
ATOM     20  C   UNL     1       4.577  46.056  54.793  1.00  0.00     0.040 A 
ATOM     21  C   UNL     1       5.763  45.315  54.833  1.00  0.00     0.027 A 
ATOM     22  C   UNL     1       4.550  47.199  53.976  1.00  0.00     0.027 A 
ATOM     23  C   UNL     1       6.891  45.705  54.099  1.00  0.00     0.017 A 
ATOM     24  C   UNL     1       5.670  47.596  53.238  1.00  0.00     0.017 A 
ATOM     25  C   UNL     1       6.840  46.846  53.304  1.00  0.00     0.013 A 
ATOM     26  I   UNL     1       8.509  47.425  52.214  1.00  0.00    -0.044 I 
ENDBRANCH  18  20
ENDBRANCH  11  18
ENDBRANCH   1   8
TORSDOF 6
ENDMDL
MODEL 9
REMARK VINA RESULT:    -8.112      3.451      6.586
REMARK INTER + INTRA:         -11.586
REMARK INTER:                 -10.502
REMARK INTRA:                  -1.084
REMARK UNBOUND:                -0.628
REMARK SMILES CC(C)CCNc1nc(Nc2ccc(I)cc2)c2cnn(C)c2n1
REMARK SMILES IDX 6 1 5 3 4 4 2 5 1 6 3 7 7 8 8 9 24 10 9 11 23 12 18 13 21 14
REMARK SMILES IDX 19 15 20 16 22 17 10 18 11 20 12 21 17 22 13 23 16 24 14 25
REMARK SMILES IDX 15 26
REMARK H PARENT 6 2 10 19
ROOT
ATOM      1  N   UNL     1       3.397  41.471  50.558  1.00  0.00    -0.354 N 
ATOM      2  H   UNL     1       3.059  41.371  49.610  1.00  0.00     0.163 HD
ENDROOT
BRANCH   1   3
ATOM      3  C   UNL     1       4.839  41.474  50.745  1.00  0.00     0.116 C 
BRANCH   3   4
ATOM      4  C   UNL     1       5.599  42.171  49.609  1.00  0.00     0.024 C 
BRANCH   4   5
ATOM      5  C   UNL     1       6.687  43.165  50.067  1.00  0.00    -0.016 C 
ATOM      6  C   UNL     1       6.034  44.500  50.440  1.00  0.00     0.007 C 
ATOM      7  C   UNL     1       7.772  43.401  49.018  1.00  0.00     0.007 C 
ENDBRANCH   4   5
ENDBRANCH   3   4
ENDBRANCH   1   3
BRANCH   1   8
ATOM      8  C   UNL     1       2.672  42.495  51.146  1.00  0.00     0.226 A 
ATOM      9  N   UNL     1       3.265  43.303  52.043  1.00  0.00    -0.195 NA
ATOM     10  N   UNL     1       1.403  42.590  50.732  1.00  0.00    -0.193 NA
ATOM     11  C   UNL     1       2.583  44.320  52.632  1.00  0.00     0.147 A 
ATOM     12  C   UNL     1       0.741  43.598  51.318  1.00  0.00     0.165 A 
ATOM     13  C   UNL     1       1.246  44.485  52.248  1.00  0.00     0.082 A 
ATOM     14  N   UNL     1      -0.563  43.960  51.118  1.00  0.00    -0.250 N 
ATOM     15  C   UNL     1       0.162  45.340  52.538  1.00  0.00     0.149 A 
ATOM     16  N   UNL     1      -0.944  45.032  51.851  1.00  0.00    -0.179 NA
ATOM     17  C   UNL     1      -1.514  43.328  50.239  1.00  0.00     0.176 C 
BRANCH  11  18
ATOM     18  N   UNL     1       3.191  45.189  53.552  1.00  0.00    -0.339 N 
ATOM     19  H   UNL     1       2.575  45.499  54.288  1.00  0.00     0.168 HD
BRANCH  18  20
ATOM     20  C   UNL     1       4.512  45.654  53.676  1.00  0.00     0.040 A 
ATOM     21  C   UNL     1       5.495  45.014  54.438  1.00  0.00     0.027 A 
ATOM     22  C   UNL     1       4.888  46.802  52.957  1.00  0.00     0.027 A 
ATOM     23  C   UNL     1       6.805  45.507  54.498  1.00  0.00     0.017 A 
ATOM     24  C   UNL     1       6.195  47.301  53.008  1.00  0.00     0.017 A 
ATOM     25  C   UNL     1       7.150  46.649  53.783  1.00  0.00     0.013 A 
ATOM     26  I   UNL     1       9.091  47.380  53.867  1.00  0.00    -0.044 I 
ENDBRANCH  18  20
ENDBRANCH  11  18
ENDBRANCH   1   8
TORSDOF 6
ENDMDL
MODEL 10
REMARK VINA RESULT:    -8.105      1.737      2.441
REMARK INTER + INTRA:         -11.575
REMARK INTER:                 -10.943
REMARK INTRA:                  -0.633
REMARK UNBOUND:                -0.628
REMARK SMILES CC(C)CCNc1nc(Nc2ccc(I)cc2)c2cnn(C)c2n1
REMARK SMILES IDX 6 1 5 3 4 4 2 5 1 6 3 7 7 8 8 9 24 10 9 11 23 12 18 13 21 14
REMARK SMILES IDX 19 15 20 16 22 17 10 18 11 20 12 21 17 22 13 23 16 24 14 25
REMARK SMILES IDX 15 26
REMARK H PARENT 6 2 10 19
ROOT
ATOM      1  N   UNL     1       8.005  46.092  50.745  1.00  0.00    -0.354 N 
ATOM      2  H   UNL     1       8.011  46.203  49.740  1.00  0.00     0.163 HD
ENDROOT
BRANCH   1   3
ATOM      3  C   UNL     1       8.263  47.282  51.539  1.00  0.00     0.116 C 
BRANCH   3   4
ATOM      4  C   UNL     1       9.439  47.121  52.511  1.00  0.00     0.024 C 
BRANCH   4   5
ATOM      5  C   UNL     1       9.181  47.649  53.939  1.00  0.00    -0.016 C 
ATOM      6  C   UNL     1      10.328  47.219  54.858  1.00  0.00     0.007 C 
ATOM      7  C   UNL     1       7.851  47.180  54.527  1.00  0.00     0.007 C 
ENDBRANCH   4   5
ENDBRANCH   3   4
ENDBRANCH   1   3
BRANCH   1   8
ATOM      8  C   UNL     1       6.891  45.335  51.068  1.00  0.00     0.226 A 
ATOM      9  N   UNL     1       5.997  45.806  51.956  1.00  0.00    -0.195 NA
ATOM     10  N   UNL     1       6.804  44.165  50.423  1.00  0.00    -0.193 NA
ATOM     11  C   UNL     1       4.891  45.090  52.288  1.00  0.00     0.147 A 
ATOM     12  C   UNL     1       5.709  43.469  50.757  1.00  0.00     0.165 A 
ATOM     13  C   UNL     1       4.730  43.852  51.652  1.00  0.00     0.082 A 
ATOM     14  N   UNL     1       5.330  42.243  50.284  1.00  0.00    -0.250 N 
ATOM     15  C   UNL     1       3.808  42.785  51.639  1.00  0.00     0.149 A 
ATOM     16  N   UNL     1       4.161  41.800  50.805  1.00  0.00    -0.179 NA
ATOM     17  C   UNL     1       6.034  41.426  49.327  1.00  0.00     0.176 C 
BRANCH  11  18
ATOM     18  N   UNL     1       3.936  45.576  53.194  1.00  0.00    -0.339 N 
ATOM     19  H   UNL     1       4.302  46.249  53.851  1.00  0.00     0.168 HD
BRANCH  18  20
ATOM     20  C   UNL     1       2.554  45.350  53.317  1.00  0.00     0.040 A 
ATOM     21  C   UNL     1       1.615  45.714  52.344  1.00  0.00     0.027 A 
ATOM     22  C   UNL     1       2.083  44.677  54.457  1.00  0.00     0.027 A 
ATOM     23  C   UNL     1       0.252  45.433  52.506  1.00  0.00     0.017 A 
ATOM     24  C   UNL     1       0.724  44.389  54.627  1.00  0.00     0.017 A 
ATOM     25  C   UNL     1      -0.188  44.772  53.649  1.00  0.00     0.013 A 
ATOM     26  I   UNL     1      -2.207  44.352  53.890  1.00  0.00    -0.044 I 
ENDBRANCH  18  20
ENDBRANCH  11  18
ENDBRANCH   1   8
TORSDOF 6
ENDMDL
MODEL 11
REMARK VINA RESULT:    -8.030      3.772      7.765
REMARK INTER + INTRA:         -11.475
REMARK INTER:                 -10.834
REMARK INTRA:                  -0.641
REMARK UNBOUND:                -0.628
REMARK SMILES CC(C)CCNc1nc(Nc2ccc(I)cc2)c2cnn(C)c2n1
REMARK SMILES IDX 6 1 5 3 4 4 2 5 1 6 3 7 7 8 8 9 24 10 9 11 23 12 18 13 21 14
REMARK SMILES IDX 19 15 20 16 22 17 10 18 11 20 12 21 17 22 13 23 16 24 14 25
REMARK SMILES IDX 15 26
REMARK H PARENT 6 2 10 19
ROOT
ATOM      1  N   UNL     1       6.165  41.498  49.292  1.00  0.00    -0.354 N 
ATOM      2  H   UNL     1       6.373  40.737  49.925  1.00  0.00     0.163 HD
ENDROOT
BRANCH   1   3
ATOM      3  C   UNL     1       5.389  41.172  48.106  1.00  0.00     0.116 C 
BRANCH   3   4
ATOM      4  C   UNL     1       5.802  41.979  46.869  1.00  0.00     0.024 C 
BRANCH   4   5
ATOM      5  C   UNL     1       5.208  41.476  45.535  1.00  0.00    -0.016 C 
ATOM      6  C   UNL     1       5.134  42.637  44.539  1.00  0.00     0.007 C 
ATOM      7  C   UNL     1       3.826  40.844  45.688  1.00  0.00     0.007 C 
ENDBRANCH   4   5
ENDBRANCH   3   4
ENDBRANCH   1   3
BRANCH   1   8
ATOM      8  C   UNL     1       5.740  42.568  50.062  1.00  0.00     0.226 A 
ATOM      9  N   UNL     1       6.544  43.635  50.223  1.00  0.00    -0.195 NA
ATOM     10  N   UNL     1       4.513  42.433  50.579  1.00  0.00    -0.193 NA
ATOM     11  C   UNL     1       6.153  44.703  50.966  1.00  0.00     0.147 A 
ATOM     12  C   UNL     1       4.138  43.494  51.307  1.00  0.00     0.165 A 
ATOM     13  C   UNL     1       4.877  44.637  51.539  1.00  0.00     0.082 A 
ATOM     14  N   UNL     1       2.953  43.668  51.968  1.00  0.00    -0.250 N 
ATOM     15  C   UNL     1       4.040  45.434  52.348  1.00  0.00     0.149 A 
ATOM     16  N   UNL     1       2.863  44.856  52.611  1.00  0.00    -0.179 NA
ATOM     17  C   UNL     1       1.850  42.743  52.031  1.00  0.00     0.176 C 
BRANCH  11  18
ATOM     18  N   UNL     1       6.967  45.836  51.125  1.00  0.00    -0.339 N 
ATOM     19  H   UNL     1       6.879  46.510  50.379  1.00  0.00     0.168 HD
BRANCH  18  20
ATOM     20  C   UNL     1       7.832  46.236  52.158  1.00  0.00     0.040 A 
ATOM     21  C   UNL     1       9.222  46.321  52.022  1.00  0.00     0.027 A 
ATOM     22  C   UNL     1       7.273  46.623  53.388  1.00  0.00     0.027 A 
ATOM     23  C   UNL     1      10.032  46.759  53.078  1.00  0.00     0.017 A 
ATOM     24  C   UNL     1       8.073  47.064  54.448  1.00  0.00     0.017 A 
ATOM     25  C   UNL     1       9.454  47.129  54.288  1.00  0.00     0.013 A 
ATOM     26  I   UNL     1      10.651  47.781  55.854  1.00  0.00    -0.044 I 
ENDBRANCH  18  20
ENDBRANCH  11  18
ENDBRANCH   1   8
TORSDOF 6
ENDMDL
MODEL 12
REMARK VINA RESULT:    -7.967      1.807      4.739
REMARK INTER + INTRA:         -11.389
REMARK INTER:                 -10.369
REMARK INTRA:                  -1.020
REMARK UNBOUND:                -0.628
REMARK SMILES CC(C)CCNc1nc(Nc2ccc(I)cc2)c2cnn(C)c2n1
REMARK SMILES IDX 6 1 5 3 4 4 2 5 1 6 3 7 7 8 8 9 24 10 9 11 23 12 18 13 21 14
REMARK SMILES IDX 19 15 20 16 22 17 10 18 11 20 12 21 17 22 13 23 16 24 14 25
REMARK SMILES IDX 15 26
REMARK H PARENT 6 2 10 19
ROOT
ATOM      1  N   UNL     1       8.050  45.069  49.622  1.00  0.00    -0.354 N 
ATOM      2  H   UNL     1       8.928  45.529  49.420  1.00  0.00     0.163 HD
ENDROOT
BRANCH   1   3
ATOM      3  C   UNL     1       8.033  43.618  49.537  1.00  0.00     0.116 C 
BRANCH   3   4
ATOM      4  C   UNL     1       6.778  43.063  48.850  1.00  0.00     0.024 C 
BRANCH   4   5
ATOM      5  C   UNL     1       5.989  42.025  49.675  1.00  0.00    -0.016 C 
ATOM      6  C   UNL     1       5.181  41.129  48.731  1.00  0.00     0.007 C 
ATOM      7  C   UNL     1       5.055  42.655  50.707  1.00  0.00     0.007 C 
ENDBRANCH   4   5
ENDBRANCH   3   4
ENDBRANCH   1   3
BRANCH   1   8
ATOM      8  C   UNL     1       7.536  45.651  50.769  1.00  0.00     0.226 A 
ATOM      9  N   UNL     1       6.207  45.817  50.895  1.00  0.00    -0.195 NA
ATOM     10  N   UNL     1       8.453  45.990  51.683  1.00  0.00    -0.193 NA
ATOM     11  C   UNL     1       5.672  46.378  52.011  1.00  0.00     0.147 A 
ATOM     12  C   UNL     1       7.913  46.539  52.779  1.00  0.00     0.165 A 
ATOM     13  C   UNL     1       6.570  46.758  53.016  1.00  0.00     0.082 A 
ATOM     14  N   UNL     1       8.572  46.994  53.889  1.00  0.00    -0.250 N 
ATOM     15  C   UNL     1       6.533  47.345  54.298  1.00  0.00     0.149 A 
ATOM     16  N   UNL     1       7.747  47.489  54.841  1.00  0.00    -0.179 NA
ATOM     17  C   UNL     1       9.995  46.989  54.116  1.00  0.00     0.176 C 
BRANCH  11  18
ATOM     18  N   UNL     1       4.286  46.537  52.172  1.00  0.00    -0.339 N 
ATOM     19  H   UNL     1       3.976  47.496  52.114  1.00  0.00     0.168 HD
BRANCH  18  20
ATOM     20  C   UNL     1       3.244  45.608  52.332  1.00  0.00     0.040 A 
ATOM     21  C   UNL     1       2.969  44.945  53.533  1.00  0.00     0.027 A 
ATOM     22  C   UNL     1       2.392  45.361  51.242  1.00  0.00     0.027 A 
ATOM     23  C   UNL     1       1.894  44.054  53.644  1.00  0.00     0.017 A 
ATOM     24  C   UNL     1       1.315  44.474  51.341  1.00  0.00     0.017 A 
ATOM     25  C   UNL     1       1.071  43.821  52.546  1.00  0.00     0.013 A 
ATOM     26  I   UNL     1      -0.525  42.502  52.707  1.00  0.00    -0.044 I 
ENDBRANCH  18  20
ENDBRANCH  11  18
ENDBRANCH   1   8
TORSDOF 6
ENDMDL
MODEL 13
REMARK VINA RESULT:    -7.954      2.109      2.414
REMARK INTER + INTRA:         -11.373
REMARK INTER:                 -10.665
REMARK INTRA:                  -0.708
REMARK UNBOUND:                -0.628
REMARK SMILES CC(C)CCNc1nc(Nc2ccc(I)cc2)c2cnn(C)c2n1
REMARK SMILES IDX 6 1 5 3 4 4 2 5 1 6 3 7 7 8 8 9 24 10 9 11 23 12 18 13 21 14
REMARK SMILES IDX 19 15 20 16 22 17 10 18 11 20 12 21 17 22 13 23 16 24 14 25
REMARK SMILES IDX 15 26
REMARK H PARENT 6 2 10 19
ROOT
ATOM      1  N   UNL     1       6.858  46.448  51.224  1.00  0.00    -0.354 N 
ATOM      2  H   UNL     1       6.822  46.973  50.361  1.00  0.00     0.163 HD
ENDROOT
BRANCH   1   3
ATOM      3  C   UNL     1       6.997  47.212  52.453  1.00  0.00     0.116 C 
BRANCH   3   4
ATOM      4  C   UNL     1       7.994  46.595  53.443  1.00  0.00     0.024 C 
BRANCH   4   5
ATOM      5  C   UNL     1       9.419  47.184  53.384  1.00  0.00    -0.016 C 
ATOM      6  C   UNL     1      10.250  46.411  52.355  1.00  0.00     0.007 C 
ATOM      7  C   UNL     1      10.137  47.172  54.733  1.00  0.00     0.007 C 
ENDBRANCH   4   5
ENDBRANCH   3   4
ENDBRANCH   1   3
BRANCH   1   8
ATOM      8  C   UNL     1       5.851  45.498  51.170  1.00  0.00     0.226 A 
ATOM      9  N   UNL     1       4.584  45.851  51.451  1.00  0.00    -0.195 NA
ATOM     10  N   UNL     1       6.256  44.274  50.813  1.00  0.00    -0.193 NA
ATOM     11  C   UNL     1       3.573  44.945  51.399  1.00  0.00     0.147 A 
ATOM     12  C   UNL     1       5.251  43.389  50.763  1.00  0.00     0.165 A 
ATOM     13  C   UNL     1       3.919  43.639  51.030  1.00  0.00     0.082 A 
ATOM     14  N   UNL     1       5.329  42.062  50.437  1.00  0.00    -0.250 N 
ATOM     15  C   UNL     1       3.285  42.395  50.832  1.00  0.00     0.149 A 
ATOM     16  N   UNL     1       4.134  41.428  50.466  1.00  0.00    -0.179 NA
ATOM     17  C   UNL     1       6.515  41.324  50.085  1.00  0.00     0.176 C 
BRANCH  11  18
ATOM     18  N   UNL     1       2.241  45.300  51.665  1.00  0.00    -0.339 N 
ATOM     19  H   UNL     1       1.767  45.721  50.879  1.00  0.00     0.168 HD
BRANCH  18  20
ATOM     20  C   UNL     1       1.427  45.122  52.797  1.00  0.00     0.040 A 
ATOM     21  C   UNL     1       1.898  45.184  54.113  1.00  0.00     0.027 A 
ATOM     22  C   UNL     1       0.050  44.917  52.606  1.00  0.00     0.027 A 
ATOM     23  C   UNL     1       1.032  45.031  55.204  1.00  0.00     0.017 A 
ATOM     24  C   UNL     1      -0.824  44.766  53.688  1.00  0.00     0.017 A 
ATOM     25  C   UNL     1      -0.327  44.822  54.987  1.00  0.00     0.013 A 
ATOM     26  I   UNL     1      -1.612  44.598  56.602  1.00  0.00    -0.044 I 
ENDBRANCH  18  20
ENDBRANCH  11  18
ENDBRANCH   1   8
TORSDOF 6
ENDMDL
MODEL 14
REMARK VINA RESULT:    -7.818      1.882      4.969
REMARK INTER + INTRA:         -11.189
REMARK INTER:                 -10.082
REMARK INTRA:                  -1.106
REMARK UNBOUND:                -0.628
REMARK SMILES CC(C)CCNc1nc(Nc2ccc(I)cc2)c2cnn(C)c2n1
REMARK SMILES IDX 6 1 5 3 4 4 2 5 1 6 3 7 7 8 8 9 24 10 9 11 23 12 18 13 21 14
REMARK SMILES IDX 19 15 20 16 22 17 10 18 11 20 12 21 17 22 13 23 16 24 14 25
REMARK SMILES IDX 15 26
REMARK H PARENT 6 2 10 19
ROOT
ATOM      1  N   UNL     1       7.242  43.443  49.121  1.00  0.00    -0.354 N 
ATOM      2  H   UNL     1       8.161  43.033  49.223  1.00  0.00     0.163 HD
ENDROOT
BRANCH   1   3
ATOM      3  C   UNL     1       6.117  42.525  49.044  1.00  0.00     0.116 C 
BRANCH   3   4
ATOM      4  C   UNL     1       6.062  41.530  50.210  1.00  0.00     0.024 C 
BRANCH   4   5
ATOM      5  C   UNL     1       4.640  41.153  50.678  1.00  0.00    -0.016 C 
ATOM      6  C   UNL     1       3.758  40.873  49.457  1.00  0.00     0.007 C 
ATOM      7  C   UNL     1       3.984  42.225  51.548  1.00  0.00     0.007 C 
ENDBRANCH   4   5
ENDBRANCH   3   4
ENDBRANCH   1   3
BRANCH   1   8
ATOM      8  C   UNL     1       7.156  44.487  50.027  1.00  0.00     0.226 A 
ATOM      9  N   UNL     1       5.949  44.956  50.394  1.00  0.00    -0.195 NA
ATOM     10  N   UNL     1       8.334  44.936  50.477  1.00  0.00    -0.193 NA
ATOM     11  C   UNL     1       5.832  45.974  51.285  1.00  0.00     0.147 A 
ATOM     12  C   UNL     1       8.205  45.938  51.357  1.00  0.00     0.165 A 
ATOM     13  C   UNL     1       7.023  46.496  51.803  1.00  0.00     0.082 A 
ATOM     14  N   UNL     1       9.208  46.614  51.995  1.00  0.00    -0.250 N 
ATOM     15  C   UNL     1       7.431  47.497  52.710  1.00  0.00     0.149 A 
ATOM     16  N   UNL     1       8.761  47.574  52.839  1.00  0.00    -0.179 NA
ATOM     17  C   UNL     1      10.626  46.400  51.854  1.00  0.00     0.176 C 
BRANCH  11  18
ATOM     18  N   UNL     1       4.581  46.460  51.698  1.00  0.00    -0.339 N 
ATOM     19  H   UNL     1       4.507  47.466  51.678  1.00  0.00     0.168 HD
BRANCH  18  20
ATOM     20  C   UNL     1       3.394  45.806  52.072  1.00  0.00     0.040 A 
ATOM     21  C   UNL     1       2.374  45.469  51.174  1.00  0.00     0.027 A 
ATOM     22  C   UNL     1       3.234  45.421  53.414  1.00  0.00     0.027 A 
ATOM     23  C   UNL     1       1.227  44.787  51.598  1.00  0.00     0.017 A 
ATOM     24  C   UNL     1       2.092  44.738  53.848  1.00  0.00     0.017 A 
ATOM     25  C   UNL     1       1.089  44.424  52.935  1.00  0.00     0.013 A 
ATOM     26  I   UNL     1      -0.609  43.411  53.566  1.00  0.00    -0.044 I 
ENDBRANCH  18  20
ENDBRANCH  11  18
ENDBRANCH   1   8
TORSDOF 6
ENDMDL
MODEL 15
REMARK VINA RESULT:    -7.722      4.460      5.439
REMARK INTER + INTRA:         -11.059
REMARK INTER:                 -10.359
REMARK INTRA:                  -0.699
REMARK UNBOUND:                -0.628
REMARK SMILES CC(C)CCNc1nc(Nc2ccc(I)cc2)c2cnn(C)c2n1
REMARK SMILES IDX 6 1 5 3 4 4 2 5 1 6 3 7 7 8 8 9 24 10 9 11 23 12 18 13 21 14
REMARK SMILES IDX 19 15 20 16 22 17 10 18 11 20 12 21 17 22 13 23 16 24 14 25
REMARK SMILES IDX 15 26
REMARK H PARENT 6 2 10 19
ROOT
ATOM      1  N   UNL     1       6.161  45.885  55.035  1.00  0.00    -0.354 N 
ATOM      2  H   UNL     1       6.403  45.111  55.638  1.00  0.00     0.163 HD
ENDROOT
BRANCH   1   3
ATOM      3  C   UNL     1       7.067  46.168  53.934  1.00  0.00     0.116 C 
BRANCH   3   4
ATOM      4  C   UNL     1       8.140  47.209  54.282  1.00  0.00     0.024 C 
BRANCH   4   5
ATOM      5  C   UNL     1       9.092  47.575  53.123  1.00  0.00    -0.016 C 
ATOM      6  C   UNL     1       8.286  48.189  51.974  1.00  0.00     0.007 C 
ATOM      7  C   UNL     1       9.900  46.387  52.604  1.00  0.00     0.007 C 
ENDBRANCH   4   5
ENDBRANCH   3   4
ENDBRANCH   1   3
BRANCH   1   8
ATOM      8  C   UNL     1       4.812  45.772  54.742  1.00  0.00     0.226 A 
ATOM      9  N   UNL     1       3.933  45.514  55.728  1.00  0.00    -0.195 NA
ATOM     10  N   UNL     1       4.503  45.954  53.452  1.00  0.00    -0.193 NA
ATOM     11  C   UNL     1       2.603  45.405  55.473  1.00  0.00     0.147 A 
ATOM     12  C   UNL     1       3.189  45.846  53.214  1.00  0.00     0.165 A 
ATOM     13  C   UNL     1       2.201  45.585  54.144  1.00  0.00     0.082 A 
ATOM     14  N   UNL     1       2.551  45.974  52.010  1.00  0.00    -0.250 N 
ATOM     15  C   UNL     1       1.008  45.580  53.392  1.00  0.00     0.149 A 
ATOM     16  N   UNL     1       1.209  45.821  52.091  1.00  0.00    -0.179 NA
ATOM     17  C   UNL     1       3.158  46.243  50.731  1.00  0.00     0.176 C 
BRANCH  11  18
ATOM     18  N   UNL     1       1.669  45.160  56.492  1.00  0.00    -0.339 N 
ATOM     19  H   UNL     1       1.663  44.205  56.819  1.00  0.00     0.168 HD
BRANCH  18  20
ATOM     20  C   UNL     1       0.789  46.009  57.186  1.00  0.00     0.040 A 
ATOM     21  C   UNL     1      -0.555  46.189  56.839  1.00  0.00     0.027 A 
ATOM     22  C   UNL     1       1.264  46.681  58.325  1.00  0.00     0.027 A 
ATOM     23  C   UNL     1      -1.395  47.023  57.590  1.00  0.00     0.017 A 
ATOM     24  C   UNL     1       0.433  47.514  59.082  1.00  0.00     0.017 A 
ATOM     25  C   UNL     1      -0.897  47.683  58.708  1.00  0.00     0.013 A 
ATOM     26  I   UNL     1      -2.139  48.917  59.823  1.00  0.00    -0.044 I 
ENDBRANCH  18  20
ENDBRANCH  11  18
ENDBRANCH   1   8
TORSDOF 6
ENDMDL
MODEL 16
REMARK VINA RESULT:    -7.684      3.571      6.224
REMARK INTER + INTRA:         -11.008
REMARK INTER:                 -10.203
REMARK INTRA:                  -0.805
REMARK UNBOUND:                -0.628
REMARK SMILES CC(C)CCNc1nc(Nc2ccc(I)cc2)c2cnn(C)c2n1
REMARK SMILES IDX 6 1 5 3 4 4 2 5 1 6 3 7 7 8 8 9 24 10 9 11 23 12 18 13 21 14
REMARK SMILES IDX 19 15 20 16 22 17 10 18 11 20 12 21 17 22 13 23 16 24 14 25
REMARK SMILES IDX 15 26
REMARK H PARENT 6 2 10 19
ROOT
ATOM      1  N   UNL     1       2.248  45.597  55.627  1.00  0.00    -0.354 N 
ATOM      2  H   UNL     1       1.779  45.475  56.515  1.00  0.00     0.163 HD
ENDROOT
BRANCH   1   3
ATOM      3  C   UNL     1       3.701  45.639  55.652  1.00  0.00     0.116 C 
BRANCH   3   4
ATOM      4  C   UNL     1       4.291  46.788  54.824  1.00  0.00     0.024 C 
BRANCH   4   5
ATOM      5  C   UNL     1       5.746  46.574  54.355  1.00  0.00    -0.016 C 
ATOM      6  C   UNL     1       5.938  47.213  52.977  1.00  0.00     0.007 C 
ATOM      7  C   UNL     1       6.153  45.102  54.298  1.00  0.00     0.007 C 
ENDBRANCH   4   5
ENDBRANCH   3   4
ENDBRANCH   1   3
BRANCH   1   8
ATOM      8  C   UNL     1       1.646  44.738  54.723  1.00  0.00     0.226 A 
ATOM      9  N   UNL     1       2.405  44.025  53.872  1.00  0.00    -0.195 NA
ATOM     10  N   UNL     1       0.311  44.690  54.801  1.00  0.00    -0.193 NA
ATOM     11  C   UNL     1       1.845  43.169  52.978  1.00  0.00     0.147 A 
ATOM     12  C   UNL     1      -0.230  43.841  53.917  1.00  0.00     0.165 A 
ATOM     13  C   UNL     1       0.449  43.063  53.000  1.00  0.00     0.082 A 
ATOM     14  N   UNL     1      -1.558  43.565  53.737  1.00  0.00    -0.250 N 
ATOM     15  C   UNL     1      -0.567  42.355  52.323  1.00  0.00     0.149 A 
ATOM     16  N   UNL     1      -1.794  42.650  52.768  1.00  0.00    -0.179 NA
ATOM     17  C   UNL     1      -2.668  44.137  54.457  1.00  0.00     0.176 C 
BRANCH  11  18
ATOM     18  N   UNL     1       2.623  42.398  52.099  1.00  0.00    -0.339 N 
ATOM     19  H   UNL     1       2.203  41.514  51.851  1.00  0.00     0.168 HD
BRANCH  18  20
ATOM     20  C   UNL     1       3.843  42.655  51.450  1.00  0.00     0.040 A 
ATOM     21  C   UNL     1       4.617  41.668  50.829  1.00  0.00     0.027 A 
ATOM     22  C   UNL     1       4.294  43.983  51.372  1.00  0.00     0.027 A 
ATOM     23  C   UNL     1       5.810  41.988  50.167  1.00  0.00     0.017 A 
ATOM     24  C   UNL     1       5.483  44.314  50.711  1.00  0.00     0.017 A 
ATOM     25  C   UNL     1       6.239  43.311  50.111  1.00  0.00     0.013 A 
ATOM     26  I   UNL     1       8.004  43.789  49.129  1.00  0.00    -0.044 I 
ENDBRANCH  18  20
ENDBRANCH  11  18
ENDBRANCH   1   8
TORSDOF 6
ENDMDL
MODEL 17
REMARK VINA RESULT:    -7.634      1.834      2.609
REMARK INTER + INTRA:         -10.939
REMARK INTER:                  -9.924
REMARK INTRA:                  -1.016
REMARK UNBOUND:                -0.628
REMARK SMILES CC(C)CCNc1nc(Nc2ccc(I)cc2)c2cnn(C)c2n1
REMARK SMILES IDX 6 1 5 3 4 4 2 5 1 6 3 7 7 8 8 9 24 10 9 11 23 12 18 13 21 14
REMARK SMILES IDX 19 15 20 16 22 17 10 18 11 20 12 21 17 22 13 23 16 24 14 25
REMARK SMILES IDX 15 26
REMARK H PARENT 6 2 10 19
ROOT
ATOM      1  N   UNL     1       5.196  46.611  52.104  1.00  0.00    -0.354 N 
ATOM      2  H   UNL     1       4.335  47.068  51.836  1.00  0.00     0.163 HD
ENDROOT
BRANCH   1   3
ATOM      3  C   UNL     1       5.679  46.859  53.453  1.00  0.00     0.116 C 
BRANCH   3   4
ATOM      4  C   UNL     1       4.557  47.155  54.456  1.00  0.00     0.024 C 
BRANCH   4   5
ATOM      5  C   UNL     1       4.250  46.012  55.447  1.00  0.00    -0.016 C 
ATOM      6  C   UNL     1       5.368  44.966  55.382  1.00  0.00     0.007 C 
ATOM      7  C   UNL     1       2.902  45.338  55.196  1.00  0.00     0.007 C 
ENDBRANCH   4   5
ENDBRANCH   3   4
ENDBRANCH   1   3
BRANCH   1   8
ATOM      8  C   UNL     1       5.110  45.293  51.687  1.00  0.00     0.226 A 
ATOM      9  N   UNL     1       4.079  44.530  52.093  1.00  0.00    -0.195 NA
ATOM     10  N   UNL     1       6.096  44.898  50.873  1.00  0.00    -0.193 NA
ATOM     11  C   UNL     1       3.962  43.236  51.695  1.00  0.00     0.147 A 
ATOM     12  C   UNL     1       5.969  43.622  50.486  1.00  0.00     0.165 A 
ATOM     13  C   UNL     1       4.959  42.750  50.840  1.00  0.00     0.082 A 
ATOM     14  N   UNL     1       6.806  42.918  49.663  1.00  0.00    -0.250 N 
ATOM     15  C   UNL     1       5.283  41.551  50.171  1.00  0.00     0.149 A 
ATOM     16  N   UNL     1       6.405  41.643  49.447  1.00  0.00    -0.179 NA
ATOM     17  C   UNL     1       8.014  43.396  49.040  1.00  0.00     0.176 C 
BRANCH  11  18
ATOM     18  N   UNL     1       2.881  42.432  52.089  1.00  0.00    -0.339 N 
ATOM     19  H   UNL     1       3.142  41.487  52.330  1.00  0.00     0.168 HD
BRANCH  18  20
ATOM     20  C   UNL     1       1.516  42.713  52.273  1.00  0.00     0.040 A 
ATOM     21  C   UNL     1       0.867  42.647  53.511  1.00  0.00     0.027 A 
ATOM     22  C   UNL     1       0.763  43.133  51.163  1.00  0.00     0.027 A 
ATOM     23  C   UNL     1      -0.490  42.972  53.639  1.00  0.00     0.017 A 
ATOM     24  C   UNL     1      -0.592  43.461  51.281  1.00  0.00     0.017 A 
ATOM     25  C   UNL     1      -1.215  43.377  52.523  1.00  0.00     0.013 A 
ATOM     26  I   UNL     1      -3.225  43.861  52.711  1.00  0.00    -0.044 I 
ENDBRANCH  18  20
ENDBRANCH  11  18
ENDBRANCH   1   8
TORSDOF 6
ENDMDL
MODEL 18
REMARK VINA RESULT:    -7.591      1.886      4.900
REMARK INTER + INTRA:         -10.882
REMARK INTER:                 -10.077
REMARK INTRA:                  -0.805
REMARK UNBOUND:                -0.628
REMARK SMILES CC(C)CCNc1nc(Nc2ccc(I)cc2)c2cnn(C)c2n1
REMARK SMILES IDX 6 1 5 3 4 4 2 5 1 6 3 7 7 8 8 9 24 10 9 11 23 12 18 13 21 14
REMARK SMILES IDX 19 15 20 16 22 17 10 18 11 20 12 21 17 22 13 23 16 24 14 25
REMARK SMILES IDX 15 26
REMARK H PARENT 6 2 10 19
ROOT
ATOM      1  N   UNL     1       6.217  44.142  49.889  1.00  0.00    -0.354 N 
ATOM      2  H   UNL     1       6.291  44.920  49.246  1.00  0.00     0.163 HD
ENDROOT
BRANCH   1   3
ATOM      3  C   UNL     1       7.116  43.021  49.671  1.00  0.00     0.116 C 
BRANCH   3   4
ATOM      4  C   UNL     1       6.418  41.657  49.746  1.00  0.00     0.024 C 
BRANCH   4   5
ATOM      5  C   UNL     1       4.898  41.688  49.478  1.00  0.00    -0.016 C 
ATOM      6  C   UNL     1       4.148  41.240  50.736  1.00  0.00     0.007 C 
ATOM      7  C   UNL     1       4.474  40.821  48.293  1.00  0.00     0.007 C 
ENDBRANCH   4   5
ENDBRANCH   3   4
ENDBRANCH   1   3
BRANCH   1   8
ATOM      8  C   UNL     1       6.149  44.670  51.167  1.00  0.00     0.226 A 
ATOM      9  N   UNL     1       5.182  44.261  52.009  1.00  0.00    -0.195 NA
ATOM     10  N   UNL     1       7.104  45.563  51.455  1.00  0.00    -0.193 NA
ATOM     11  C   UNL     1       5.093  44.755  53.271  1.00  0.00     0.147 A 
ATOM     12  C   UNL     1       7.007  46.041  52.703  1.00  0.00     0.165 A 
ATOM     13  C   UNL     1       6.061  45.696  53.647  1.00  0.00     0.082 A 
ATOM     14  N   UNL     1       7.821  46.964  53.302  1.00  0.00    -0.250 N 
ATOM     15  C   UNL     1       6.400  46.467  54.779  1.00  0.00     0.149 A 
ATOM     16  N   UNL     1       7.474  47.240  54.581  1.00  0.00    -0.179 NA
ATOM     17  C   UNL     1       8.956  47.631  52.716  1.00  0.00     0.176 C 
BRANCH  11  18
ATOM     18  N   UNL     1       4.106  44.323  54.171  1.00  0.00    -0.339 N 
ATOM     19  H   UNL     1       4.476  43.942  55.029  1.00  0.00     0.168 HD
BRANCH  18  20
ATOM     20  C   UNL     1       2.703  44.381  54.128  1.00  0.00     0.040 A 
ATOM     21  C   UNL     1       1.924  43.719  53.172  1.00  0.00     0.027 A 
ATOM     22  C   UNL     1       2.031  45.103  55.129  1.00  0.00     0.027 A 
ATOM     23  C   UNL     1       0.525  43.786  53.200  1.00  0.00     0.017 A 
ATOM     24  C   UNL     1       0.634  45.175  55.166  1.00  0.00     0.017 A 
ATOM     25  C   UNL     1      -0.115  44.515  54.197  1.00  0.00     0.013 A 
ATOM     26  I   UNL     1      -2.188  44.614  54.241  1.00  0.00    -0.044 I 
ENDBRANCH  18  20
ENDBRANCH  11  18
ENDBRANCH   1   8
TORSDOF 6
ENDMDL
MODEL 19
REMARK VINA RESULT:    -7.514      1.492      3.218
REMARK INTER + INTRA:         -10.777
REMARK INTER:                 -10.132
REMARK INTRA:                  -0.645
REMARK UNBOUND:                -0.628
REMARK SMILES CC(C)CCNc1nc(Nc2ccc(I)cc2)c2cnn(C)c2n1
REMARK SMILES IDX 6 1 5 3 4 4 2 5 1 6 3 7 7 8 8 9 24 10 9 11 23 12 18 13 21 14
REMARK SMILES IDX 19 15 20 16 22 17 10 18 11 20 12 21 17 22 13 23 16 24 14 25
REMARK SMILES IDX 15 26
REMARK H PARENT 6 2 10 19
ROOT
ATOM      1  N   UNL     1       6.863  44.571  50.612  1.00  0.00    -0.354 N 
ATOM      2  H   UNL     1       6.447  44.186  49.774  1.00  0.00     0.163 HD
ENDROOT
BRANCH   1   3
ATOM      3  C   UNL     1       7.659  45.777  50.456  1.00  0.00     0.116 C 
BRANCH   3   4
ATOM      4  C   UNL     1       9.007  45.716  51.186  1.00  0.00     0.024 C 
BRANCH   4   5
ATOM      5  C   UNL     1       9.433  47.028  51.878  1.00  0.00    -0.016 C 
ATOM      6  C   UNL     1       9.862  46.731  53.318  1.00  0.00     0.007 C 
ATOM      7  C   UNL     1       8.340  48.095  51.879  1.00  0.00     0.007 C 
ENDBRANCH   4   5
ENDBRANCH   3   4
ENDBRANCH   1   3
BRANCH   1   8
ATOM      8  C   UNL     1       5.887  44.569  51.594  1.00  0.00     0.226 A 
ATOM      9  N   UNL     1       4.906  43.649  51.559  1.00  0.00    -0.195 NA
ATOM     10  N   UNL     1       6.032  45.516  52.528  1.00  0.00    -0.193 NA
ATOM     11  C   UNL     1       3.938  43.617  52.512  1.00  0.00     0.147 A 
ATOM     12  C   UNL     1       5.074  45.473  53.463  1.00  0.00     0.165 A 
ATOM     13  C   UNL     1       4.024  44.578  53.527  1.00  0.00     0.082 A 
ATOM     14  N   UNL     1       4.934  46.298  54.546  1.00  0.00    -0.250 N 
ATOM     15  C   UNL     1       3.316  44.953  54.689  1.00  0.00     0.149 A 
ATOM     16  N   UNL     1       3.865  45.997  55.320  1.00  0.00    -0.179 NA
ATOM     17  C   UNL     1       5.785  47.402  54.911  1.00  0.00     0.176 C 
BRANCH  11  18
ATOM     18  N   UNL     1       2.921  42.649  52.506  1.00  0.00    -0.339 N 
ATOM     19  H   UNL     1       3.256  41.705  52.627  1.00  0.00     0.168 HD
BRANCH  18  20
ATOM     20  C   UNL     1       1.521  42.754  52.429  1.00  0.00     0.040 A 
ATOM     21  C   UNL     1       0.666  42.591  53.525  1.00  0.00     0.027 A 
ATOM     22  C   UNL     1       0.942  43.092  51.195  1.00  0.00     0.027 A 
ATOM     23  C   UNL     1      -0.721  42.741  53.395  1.00  0.00     0.017 A 
ATOM     24  C   UNL     1      -0.442  43.246  51.054  1.00  0.00     0.017 A 
ATOM     25  C   UNL     1      -1.270  43.067  52.159  1.00  0.00     0.013 A 
ATOM     26  I   UNL     1      -3.324  43.293  51.964  1.00  0.00    -0.044 I 
ENDBRANCH  18  20
ENDBRANCH  11  18
ENDBRANCH   1   8
TORSDOF 6
ENDMDL
