MODEL 1
REMARK VINA RESULT:    -9.876      0.000      0.000
REMARK INTER + INTRA:         -14.050
REMARK INTER:                 -13.340
REMARK INTRA:                  -0.710
REMARK UNBOUND:                -0.710
REMARK SMILES CC(=O)c1cccc(Nc2nc(NC[C@@H]3CCCO3)c3ccccc3n2)c1
REMARK SMILES IDX 10 1 11 2 12 3 20 4 21 5 22 6 23 7 24 8 25 9 26 10 9 11 8 13
REMARK SMILES IDX 4 14 5 15 27 16 6 17 7 18 2 19 1 20 3 21 13 22 14 24 15 25
REMARK SMILES IDX 16 26 19 27 17 28 18 29
REMARK H PARENT 9 12 13 23
ROOT
ATOM      1  C   UNL     1       5.802  44.928  51.716  1.00  0.00     0.229 A 
ATOM      2  N   UNL     1       4.755  44.653  52.500  1.00  0.00    -0.195 NA
ATOM      3  C   UNL     1       4.006  43.579  52.225  1.00  0.00     0.139 A 
ATOM      4  C   UNL     1       4.303  42.731  51.147  1.00  0.00     0.043 A 
ATOM      5  C   UNL     1       3.551  41.589  50.769  1.00  0.00     0.014 A 
ATOM      6  C   UNL     1       3.938  40.806  49.684  1.00  0.00     0.001 A 
ATOM      7  C   UNL     1       5.073  41.155  48.965  1.00  0.00     0.002 A 
ATOM      8  C   UNL     1       5.805  42.288  49.332  1.00  0.00     0.029 A 
ATOM      9  C   UNL     1       5.436  43.085  50.409  1.00  0.00     0.078 A 
ATOM     10  N   UNL     1       6.173  44.160  50.690  1.00  0.00    -0.213 NA
ENDROOT
BRANCH   1  11
ATOM     11  N   UNL     1       6.479  46.098  52.051  1.00  0.00    -0.324 N 
ATOM     12  H   UNL     1       5.893  46.878  51.780  1.00  0.00     0.170 HD
BRANCH  11  13
ATOM     13  C   UNL     1       7.785  46.382  52.463  1.00  0.00     0.042 A 
ATOM     14  C   UNL     1       9.438  47.282  54.028  1.00  0.00     0.019 A 
ATOM     15  C   UNL     1      10.469  46.949  53.143  1.00  0.00     0.012 A 
ATOM     16  C   UNL     1       8.106  46.998  53.677  1.00  0.00     0.038 A 
ATOM     17  C   UNL     1      10.168  46.347  51.924  1.00  0.00     0.003 A 
ATOM     18  C   UNL     1       8.839  46.072  51.590  1.00  0.00     0.026 A 
BRANCH  14  19
ATOM     19  C   UNL     1       9.706  47.936  55.345  1.00  0.00     0.159 C 
ATOM     20  C   UNL     1      10.949  47.553  56.107  1.00  0.00     0.093 C 
ATOM     21  O   UNL     1       8.924  48.771  55.797  1.00  0.00    -0.295 OA
ENDBRANCH  14  19
ENDBRANCH  11  13
ENDBRANCH   1  11
BRANCH   3  22
ATOM     22  N   UNL     1       2.883  43.302  53.035  1.00  0.00    -0.367 N 
ATOM     23  H   UNL     1       3.184  43.380  54.004  1.00  0.00     0.162 HD
BRANCH  22  24
ATOM     24  C   UNL     1       1.672  44.104  52.795  1.00  0.00     0.146 C 
BRANCH  24  25
ATOM     25  C   UNL     1       1.268  45.036  53.955  1.00  0.00     0.137 C 
ATOM     26  C   UNL     1       2.072  44.894  55.242  1.00  0.00     0.036 C 
ATOM     27  O   UNL     1      -0.127  44.922  54.313  1.00  0.00    -0.376 OA
ATOM     28  C   UNL     1       1.094  45.400  56.274  1.00  0.00     0.031 C 
ATOM     29  C   UNL     1      -0.216  44.863  55.743  1.00  0.00     0.160 C 
ENDBRANCH  24  25
ENDBRANCH  22  24
ENDBRANCH   3  22
TORSDOF 6
ENDMDL
MODEL 2
REMARK VINA RESULT:    -9.669      2.286      7.436
REMARK INTER + INTRA:         -13.771
REMARK INTER:                 -13.082
REMARK INTRA:                  -0.688
REMARK UNBOUND:                -0.710
REMARK SMILES CC(=O)c1cccc(Nc2nc(NC[C@@H]3CCCO3)c3ccccc3n2)c1
REMARK SMILES IDX 10 1 11 2 12 3 20 4 21 5 22 6 23 7 24 8 25 9 26 10 9 11 8 13
REMARK SMILES IDX 4 14 5 15 27 16 6 17 7 18 2 19 1 20 3 21 13 22 14 24 15 25
REMARK SMILES IDX 16 26 19 27 17 28 18 29
REMARK H PARENT 9 12 13 23
ROOT
ATOM      1  C   UNL     1       5.528  46.773  54.137  1.00  0.00     0.229 A 
ATOM      2  N   UNL     1       5.442  46.358  52.870  1.00  0.00    -0.195 NA
ATOM      3  C   UNL     1       6.563  46.255  52.146  1.00  0.00     0.139 A 
ATOM      4  C   UNL     1       7.821  46.557  52.691  1.00  0.00     0.043 A 
ATOM      5  C   UNL     1       9.053  46.500  51.991  1.00  0.00     0.014 A 
ATOM      6  C   UNL     1      10.252  46.813  52.629  1.00  0.00     0.001 A 
ATOM      7  C   UNL     1      10.232  47.188  53.965  1.00  0.00     0.002 A 
ATOM      8  C   UNL     1       9.015  47.255  54.648  1.00  0.00     0.029 A 
ATOM      9  C   UNL     1       7.808  46.950  54.032  1.00  0.00     0.078 A 
ATOM     10  N   UNL     1       6.683  47.054  54.741  1.00  0.00    -0.213 NA
ENDROOT
BRANCH   1  11
ATOM     11  N   UNL     1       4.301  46.904  54.783  1.00  0.00    -0.324 N 
ATOM     12  H   UNL     1       4.421  47.572  55.534  1.00  0.00     0.170 HD
BRANCH  11  13
ATOM     13  C   UNL     1       3.095  46.199  54.731  1.00  0.00     0.042 A 
ATOM     14  C   UNL     1       1.132  45.305  53.573  1.00  0.00     0.019 A 
ATOM     15  C   UNL     1       0.639  44.801  54.782  1.00  0.00     0.012 A 
ATOM     16  C   UNL     1       2.352  46.002  53.561  1.00  0.00     0.038 A 
ATOM     17  C   UNL     1       1.356  44.999  55.959  1.00  0.00     0.003 A 
ATOM     18  C   UNL     1       2.568  45.693  55.930  1.00  0.00     0.026 A 
BRANCH  14  19
ATOM     19  C   UNL     1       0.397  45.127  52.284  1.00  0.00     0.159 C 
ATOM     20  C   UNL     1       1.012  44.267  51.209  1.00  0.00     0.093 C 
ATOM     21  O   UNL     1      -0.689  45.675  52.105  1.00  0.00    -0.295 OA
ENDBRANCH  14  19
ENDBRANCH  11  13
ENDBRANCH   1  11
BRANCH   3  22
ATOM     22  N   UNL     1       6.472  45.842  50.799  1.00  0.00    -0.367 N 
ATOM     23  H   UNL     1       7.376  45.452  50.542  1.00  0.00     0.162 HD
BRANCH  22  24
ATOM     24  C   UNL     1       5.383  44.912  50.457  1.00  0.00     0.146 C 
BRANCH  24  25
ATOM     25  C   UNL     1       5.724  43.418  50.632  1.00  0.00     0.137 C 
ATOM     26  C   UNL     1       6.504  42.770  49.494  1.00  0.00     0.036 C 
ATOM     27  O   UNL     1       4.560  42.596  50.868  1.00  0.00    -0.376 OA
ATOM     28  C   UNL     1       6.120  41.318  49.645  1.00  0.00     0.031 C 
ATOM     29  C   UNL     1       4.666  41.427  50.046  1.00  0.00     0.160 C 
ENDBRANCH  24  25
ENDBRANCH  22  24
ENDBRANCH   3  22
TORSDOF 6
ENDMDL
MODEL 3
REMARK VINA RESULT:    -9.530      1.627      7.593
REMARK INTER + INTRA:         -13.583
REMARK INTER:                 -12.770
REMARK INTRA:                  -0.812
REMARK UNBOUND:                -0.710
REMARK SMILES CC(=O)c1cccc(Nc2nc(NC[C@@H]3CCCO3)c3ccccc3n2)c1
REMARK SMILES IDX 10 1 11 2 12 3 20 4 21 5 22 6 23 7 24 8 25 9 26 10 9 11 8 13
REMARK SMILES IDX 4 14 5 15 27 16 6 17 7 18 2 19 1 20 3 21 13 22 14 24 15 25
REMARK SMILES IDX 16 26 19 27 17 28 18 29
REMARK H PARENT 9 12 13 23
ROOT
ATOM      1  C   UNL     1       4.020  43.356  52.095  1.00  0.00     0.229 A 
ATOM      2  N   UNL     1       4.314  44.586  52.524  1.00  0.00    -0.195 NA
ATOM      3  C   UNL     1       5.369  45.220  51.999  1.00  0.00     0.139 A 
ATOM      4  C   UNL     1       6.159  44.630  50.999  1.00  0.00     0.043 A 
ATOM      5  C   UNL     1       7.306  45.217  50.406  1.00  0.00     0.014 A 
ATOM      6  C   UNL     1       8.017  44.549  49.412  1.00  0.00     0.001 A 
ATOM      7  C   UNL     1       7.596  43.290  49.005  1.00  0.00     0.002 A 
ATOM      8  C   UNL     1       6.473  42.709  49.600  1.00  0.00     0.029 A 
ATOM      9  C   UNL     1       5.750  43.356  50.595  1.00  0.00     0.078 A 
ATOM     10  N   UNL     1       4.699  42.733  51.130  1.00  0.00    -0.213 NA
ENDROOT
BRANCH   1  11
ATOM     11  N   UNL     1       2.943  42.761  52.747  1.00  0.00    -0.324 N 
ATOM     12  H   UNL     1       3.273  41.895  53.154  1.00  0.00     0.170 HD
BRANCH  11  13
ATOM     13  C   UNL     1       1.566  43.005  52.772  1.00  0.00     0.042 A 
ATOM     14  C   UNL     1      -0.539  43.549  53.895  1.00  0.00     0.019 A 
ATOM     15  C   UNL     1      -1.229  43.415  52.686  1.00  0.00     0.012 A 
ATOM     16  C   UNL     1       0.851  43.339  53.926  1.00  0.00     0.038 A 
ATOM     17  C   UNL     1      -0.536  43.070  51.528  1.00  0.00     0.003 A 
ATOM     18  C   UNL     1       0.845  42.865  51.575  1.00  0.00     0.026 A 
BRANCH  14  19
ATOM     19  C   UNL     1      -1.236  43.910  55.168  1.00  0.00     0.159 C 
ATOM     20  C   UNL     1      -0.599  44.923  56.084  1.00  0.00     0.093 C 
ATOM     21  O   UNL     1      -2.310  43.386  55.460  1.00  0.00    -0.295 OA
ENDBRANCH  14  19
ENDBRANCH  11  13
ENDBRANCH   1  11
BRANCH   3  22
ATOM     22  N   UNL     1       5.698  46.510  52.471  1.00  0.00    -0.367 N 
ATOM     23  H   UNL     1       4.829  47.031  52.553  1.00  0.00     0.162 HD
BRANCH  22  24
ATOM     24  C   UNL     1       6.477  46.585  53.718  1.00  0.00     0.146 C 
BRANCH  24  25
ATOM     25  C   UNL     1       7.856  47.262  53.584  1.00  0.00     0.137 C 
ATOM     26  C   UNL     1       8.999  46.369  53.115  1.00  0.00     0.036 C 
ATOM     27  O   UNL     1       8.294  47.902  54.803  1.00  0.00    -0.376 OA
ATOM     28  C   UNL     1      10.201  47.083  53.684  1.00  0.00     0.031 C 
ATOM     29  C   UNL     1       9.670  47.562  55.016  1.00  0.00     0.160 C 
ENDBRANCH  24  25
ENDBRANCH  22  24
ENDBRANCH   3  22
TORSDOF 6
ENDMDL
MODEL 4
REMARK VINA RESULT:    -9.530      2.061      4.918
REMARK INTER + INTRA:         -13.582
REMARK INTER:                 -12.786
REMARK INTRA:                  -0.796
REMARK UNBOUND:                -0.710
REMARK SMILES CC(=O)c1cccc(Nc2nc(NC[C@@H]3CCCO3)c3ccccc3n2)c1
REMARK SMILES IDX 10 1 11 2 12 3 20 4 21 5 22 6 23 7 24 8 25 9 26 10 9 11 8 13
REMARK SMILES IDX 4 14 5 15 27 16 6 17 7 18 2 19 1 20 3 21 13 22 14 24 15 25
REMARK SMILES IDX 16 26 19 27 17 28 18 29
REMARK H PARENT 9 12 13 23
ROOT
ATOM      1  C   UNL     1       5.230  45.522  51.827  1.00  0.00     0.229 A 
ATOM      2  N   UNL     1       5.318  44.380  51.138  1.00  0.00    -0.195 NA
ATOM      3  C   UNL     1       4.397  43.431  51.338  1.00  0.00     0.139 A 
ATOM      4  C   UNL     1       3.335  43.614  52.239  1.00  0.00     0.043 A 
ATOM      5  C   UNL     1       2.331  42.655  52.530  1.00  0.00     0.014 A 
ATOM      6  C   UNL     1       1.313  42.940  53.437  1.00  0.00     0.001 A 
ATOM      7  C   UNL     1       1.288  44.179  54.063  1.00  0.00     0.002 A 
ATOM      8  C   UNL     1       2.286  45.117  53.783  1.00  0.00     0.029 A 
ATOM      9  C   UNL     1       3.312  44.853  52.884  1.00  0.00     0.078 A 
ATOM     10  N   UNL     1       4.240  45.790  52.680  1.00  0.00    -0.213 NA
ENDROOT
BRANCH   1  11
ATOM     11  N   UNL     1       6.269  46.417  51.591  1.00  0.00    -0.324 N 
ATOM     12  H   UNL     1       6.008  46.985  50.794  1.00  0.00     0.170 HD
BRANCH  11  13
ATOM     13  C   UNL     1       7.578  46.537  52.070  1.00  0.00     0.042 A 
ATOM     14  C   UNL     1       9.250  47.236  53.715  1.00  0.00     0.019 A 
ATOM     15  C   UNL     1      10.274  46.763  52.887  1.00  0.00     0.012 A 
ATOM     16  C   UNL     1       7.913  47.121  53.296  1.00  0.00     0.038 A 
ATOM     17  C   UNL     1       9.961  46.190  51.657  1.00  0.00     0.003 A 
ATOM     18  C   UNL     1       8.627  46.083  51.255  1.00  0.00     0.026 A 
BRANCH  14  19
ATOM     19  C   UNL     1       9.532  47.866  55.041  1.00  0.00     0.159 C 
ATOM     20  C   UNL     1      10.809  47.509  55.758  1.00  0.00     0.093 C 
ATOM     21  O   UNL     1       8.735  48.660  55.536  1.00  0.00    -0.295 OA
ENDBRANCH  14  19
ENDBRANCH  11  13
ENDBRANCH   1  11
BRANCH   3  22
ATOM     22  N   UNL     1       4.504  42.212  50.632  1.00  0.00    -0.367 N 
ATOM     23  H   UNL     1       3.691  42.145  50.024  1.00  0.00     0.162 HD
BRANCH  22  24
ATOM     24  C   UNL     1       5.747  41.985  49.877  1.00  0.00     0.146 C 
BRANCH  24  25
ATOM     25  C   UNL     1       5.575  41.194  48.564  1.00  0.00     0.137 C 
ATOM     26  C   UNL     1       5.788  41.979  47.275  1.00  0.00     0.036 C 
ATOM     27  O   UNL     1       4.287  40.548  48.457  1.00  0.00    -0.376 OA
ATOM     28  C   UNL     1       4.969  41.182  46.290  1.00  0.00     0.031 C 
ATOM     29  C   UNL     1       3.782  40.778  47.136  1.00  0.00     0.160 C 
ENDBRANCH  24  25
ENDBRANCH  22  24
ENDBRANCH   3  22
TORSDOF 6
ENDMDL
MODEL 5
REMARK VINA RESULT:    -9.474      1.426      7.175
REMARK INTER + INTRA:         -13.507
REMARK INTER:                 -12.808
REMARK INTRA:                  -0.699
REMARK UNBOUND:                -0.710
REMARK SMILES CC(=O)c1cccc(Nc2nc(NC[C@@H]3CCCO3)c3ccccc3n2)c1
REMARK SMILES IDX 10 1 11 2 12 3 20 4 21 5 22 6 23 7 24 8 25 9 26 10 9 11 8 13
REMARK SMILES IDX 4 14 5 15 27 16 6 17 7 18 2 19 1 20 3 21 13 22 14 24 15 25
REMARK SMILES IDX 16 26 19 27 17 28 18 29
REMARK H PARENT 9 12 13 23
ROOT
ATOM      1  C   UNL     1       4.106  44.139  53.049  1.00  0.00     0.229 A 
ATOM      2  N   UNL     1       4.841  45.205  52.720  1.00  0.00    -0.195 NA
ATOM      3  C   UNL     1       5.633  45.138  51.644  1.00  0.00     0.139 A 
ATOM      4  C   UNL     1       5.697  43.983  50.848  1.00  0.00     0.043 A 
ATOM      5  C   UNL     1       6.525  43.816  49.709  1.00  0.00     0.014 A 
ATOM      6  C   UNL     1       6.507  42.628  48.981  1.00  0.00     0.001 A 
ATOM      7  C   UNL     1       5.668  41.598  49.383  1.00  0.00     0.002 A 
ATOM      8  C   UNL     1       4.862  41.761  50.513  1.00  0.00     0.029 A 
ATOM      9  C   UNL     1       4.866  42.935  51.256  1.00  0.00     0.078 A 
ATOM     10  N   UNL     1       4.084  43.013  52.333  1.00  0.00    -0.213 NA
ENDROOT
BRANCH   1  11
ATOM     11  N   UNL     1       3.363  44.291  54.217  1.00  0.00    -0.324 N 
ATOM     12  H   UNL     1       3.977  44.091  54.997  1.00  0.00     0.170 HD
BRANCH  11  13
ATOM     13  C   UNL     1       2.001  44.450  54.489  1.00  0.00     0.042 A 
ATOM     14  C   UNL     1       0.117  45.250  55.832  1.00  0.00     0.019 A 
ATOM     15  C   UNL     1      -0.781  44.644  54.947  1.00  0.00     0.012 A 
ATOM     16  C   UNL     1       1.499  45.143  55.595  1.00  0.00     0.038 A 
ATOM     17  C   UNL     1      -0.301  43.938  53.847  1.00  0.00     0.003 A 
ATOM     18  C   UNL     1       1.075  43.841  53.626  1.00  0.00     0.026 A 
BRANCH  14  19
ATOM     19  C   UNL     1      -0.346  46.013  57.031  1.00  0.00     0.159 C 
ATOM     20  C   UNL     1      -1.753  46.553  57.050  1.00  0.00     0.093 C 
ATOM     21  O   UNL     1       0.410  46.195  57.984  1.00  0.00    -0.295 OA
ENDBRANCH  14  19
ENDBRANCH  11  13
ENDBRANCH   1  11
BRANCH   3  22
ATOM     22  N   UNL     1       6.432  46.254  51.310  1.00  0.00    -0.367 N 
ATOM     23  H   UNL     1       6.020  46.682  50.484  1.00  0.00     0.162 HD
BRANCH  22  24
ATOM     24  C   UNL     1       6.654  47.255  52.366  1.00  0.00     0.146 C 
BRANCH  24  25
ATOM     25  C   UNL     1       8.134  47.599  52.635  1.00  0.00     0.137 C 
ATOM     26  C   UNL     1       9.127  46.452  52.487  1.00  0.00     0.036 C 
ATOM     27  O   UNL     1       8.351  48.180  53.940  1.00  0.00    -0.376 OA
ATOM     28  C   UNL     1      10.254  46.903  53.383  1.00  0.00     0.031 C 
ATOM     29  C   UNL     1       9.499  47.550  54.522  1.00  0.00     0.160 C 
ENDBRANCH  24  25
ENDBRANCH  22  24
ENDBRANCH   3  22
TORSDOF 6
ENDMDL
MODEL 6
REMARK VINA RESULT:    -9.376      2.352      6.606
REMARK INTER + INTRA:         -13.375
REMARK INTER:                 -12.390
REMARK INTRA:                  -0.984
REMARK UNBOUND:                -0.710
REMARK SMILES CC(=O)c1cccc(Nc2nc(NC[C@@H]3CCCO3)c3ccccc3n2)c1
REMARK SMILES IDX 10 1 11 2 12 3 20 4 21 5 22 6 23 7 24 8 25 9 26 10 9 11 8 13
REMARK SMILES IDX 4 14 5 15 27 16 6 17 7 18 2 19 1 20 3 21 13 22 14 24 15 25
REMARK SMILES IDX 16 26 19 27 17 28 18 29
REMARK H PARENT 9 12 13 23
ROOT
ATOM      1  C   UNL     1       2.542  44.314  52.855  1.00  0.00     0.229 A 
ATOM      2  N   UNL     1       3.507  44.832  53.622  1.00  0.00    -0.195 NA
ATOM      3  C   UNL     1       3.198  45.252  54.854  1.00  0.00     0.139 A 
ATOM      4  C   UNL     1       1.894  45.147  55.362  1.00  0.00     0.043 A 
ATOM      5  C   UNL     1       1.474  45.588  56.644  1.00  0.00     0.014 A 
ATOM      6  C   UNL     1       0.153  45.428  57.056  1.00  0.00     0.001 A 
ATOM      7  C   UNL     1      -0.760  44.833  56.197  1.00  0.00     0.002 A 
ATOM      8  C   UNL     1      -0.346  44.410  54.930  1.00  0.00     0.029 A 
ATOM      9  C   UNL     1       0.966  44.562  54.497  1.00  0.00     0.078 A 
ATOM     10  N   UNL     1       1.284  44.151  53.268  1.00  0.00    -0.213 NA
ENDROOT
BRANCH   1  11
ATOM     11  N   UNL     1       2.953  43.964  51.572  1.00  0.00    -0.324 N 
ATOM     12  H   UNL     1       2.169  44.112  50.949  1.00  0.00     0.170 HD
BRANCH  11  13
ATOM     13  C   UNL     1       4.075  43.310  51.055  1.00  0.00     0.042 A 
ATOM     14  C   UNL     1       6.336  43.252  50.118  1.00  0.00     0.019 A 
ATOM     15  C   UNL     1       6.249  41.864  49.972  1.00  0.00     0.012 A 
ATOM     16  C   UNL     1       5.247  43.961  50.654  1.00  0.00     0.038 A 
ATOM     17  C   UNL     1       5.086  41.199  50.352  1.00  0.00     0.003 A 
ATOM     18  C   UNL     1       4.012  41.918  50.884  1.00  0.00     0.026 A 
BRANCH  14  19
ATOM     19  C   UNL     1       7.558  44.015  49.718  1.00  0.00     0.159 C 
ATOM     20  C   UNL     1       7.712  45.439  50.186  1.00  0.00     0.093 C 
ATOM     21  O   UNL     1       8.421  43.487  49.019  1.00  0.00    -0.295 OA
ENDBRANCH  14  19
ENDBRANCH  11  13
ENDBRANCH   1  11
BRANCH   3  22
ATOM     22  N   UNL     1       4.210  45.824  55.656  1.00  0.00    -0.367 N 
ATOM     23  H   UNL     1       4.088  45.460  56.598  1.00  0.00     0.162 HD
BRANCH  22  24
ATOM     24  C   UNL     1       5.600  45.652  55.201  1.00  0.00     0.146 C 
BRANCH  24  25
ATOM     25  C   UNL     1       6.232  46.902  54.556  1.00  0.00     0.137 C 
ATOM     26  C   UNL     1       6.185  46.968  53.034  1.00  0.00     0.036 C 
ATOM     27  O   UNL     1       7.609  47.104  54.944  1.00  0.00    -0.376 OA
ATOM     28  C   UNL     1       7.356  47.869  52.728  1.00  0.00     0.031 C 
ATOM     29  C   UNL     1       8.361  47.427  53.768  1.00  0.00     0.160 C 
ENDBRANCH  24  25
ENDBRANCH  22  24
ENDBRANCH   3  22
TORSDOF 6
ENDMDL
MODEL 7
REMARK VINA RESULT:    -9.360      2.170      5.274
REMARK INTER + INTRA:         -13.353
REMARK INTER:                 -12.721
REMARK INTRA:                  -0.632
REMARK UNBOUND:                -0.710
REMARK SMILES CC(=O)c1cccc(Nc2nc(NC[C@@H]3CCCO3)c3ccccc3n2)c1
REMARK SMILES IDX 10 1 11 2 12 3 20 4 21 5 22 6 23 7 24 8 25 9 26 10 9 11 8 13
REMARK SMILES IDX 4 14 5 15 27 16 6 17 7 18 2 19 1 20 3 21 13 22 14 24 15 25
REMARK SMILES IDX 16 26 19 27 17 28 18 29
REMARK H PARENT 9 12 13 23
ROOT
ATOM      1  C   UNL     1       3.679  45.061  54.041  1.00  0.00     0.229 A 
ATOM      2  N   UNL     1       3.569  44.034  53.193  1.00  0.00    -0.195 NA
ATOM      3  C   UNL     1       2.401  43.388  53.109  1.00  0.00     0.139 A 
ATOM      4  C   UNL     1       1.290  43.772  53.875  1.00  0.00     0.043 A 
ATOM      5  C   UNL     1       0.025  43.129  53.868  1.00  0.00     0.014 A 
ATOM      6  C   UNL     1      -1.018  43.597  54.664  1.00  0.00     0.001 A 
ATOM      7  C   UNL     1      -0.810  44.704  55.475  1.00  0.00     0.002 A 
ATOM      8  C   UNL     1       0.441  45.327  55.490  1.00  0.00     0.029 A 
ATOM      9  C   UNL     1       1.497  44.876  54.706  1.00  0.00     0.078 A 
ATOM     10  N   UNL     1       2.667  45.510  54.786  1.00  0.00    -0.213 NA
ENDROOT
BRANCH   1  11
ATOM     11  N   UNL     1       4.951  45.627  54.098  1.00  0.00    -0.324 N 
ATOM     12  H   UNL     1       5.032  46.105  54.986  1.00  0.00     0.170 HD
BRANCH  11  13
ATOM     13  C   UNL     1       5.972  45.819  53.162  1.00  0.00     0.042 A 
ATOM     14  C   UNL     1       8.275  46.334  52.513  1.00  0.00     0.019 A 
ATOM     15  C   UNL     1       7.924  46.238  51.162  1.00  0.00     0.012 A 
ATOM     16  C   UNL     1       7.294  46.128  53.498  1.00  0.00     0.038 A 
ATOM     17  C   UNL     1       6.609  45.945  50.807  1.00  0.00     0.003 A 
ATOM     18  C   UNL     1       5.647  45.742  51.799  1.00  0.00     0.026 A 
BRANCH  14  19
ATOM     19  C   UNL     1       9.669  46.654  52.947  1.00  0.00     0.159 C 
ATOM     20  C   UNL     1       9.890  47.216  54.328  1.00  0.00     0.093 C 
ATOM     21  O   UNL     1      10.617  46.463  52.187  1.00  0.00    -0.295 OA
ENDBRANCH  14  19
ENDBRANCH  11  13
ENDBRANCH   1  11
BRANCH   3  22
ATOM     22  N   UNL     1       2.291  42.285  52.233  1.00  0.00    -0.367 N 
ATOM     23  H   UNL     1       1.307  42.031  52.193  1.00  0.00     0.162 HD
BRANCH  22  24
ATOM     24  C   UNL     1       2.847  42.448  50.880  1.00  0.00     0.146 C 
BRANCH  24  25
ATOM     25  C   UNL     1       4.118  41.622  50.595  1.00  0.00     0.137 C 
ATOM     26  C   UNL     1       5.438  42.381  50.648  1.00  0.00     0.036 C 
ATOM     27  O   UNL     1       4.075  40.939  49.322  1.00  0.00    -0.376 OA
ATOM     28  C   UNL     1       6.314  41.539  49.754  1.00  0.00     0.031 C 
ATOM     29  C   UNL     1       5.340  41.124  48.675  1.00  0.00     0.160 C 
ENDBRANCH  24  25
ENDBRANCH  22  24
ENDBRANCH   3  22
TORSDOF 6
ENDMDL
MODEL 8
REMARK VINA RESULT:    -9.356      1.473      7.728
REMARK INTER + INTRA:         -13.348
REMARK INTER:                 -12.600
REMARK INTRA:                  -0.748
REMARK UNBOUND:                -0.710
REMARK SMILES CC(=O)c1cccc(Nc2nc(NC[C@@H]3CCCO3)c3ccccc3n2)c1
REMARK SMILES IDX 10 1 11 2 12 3 20 4 21 5 22 6 23 7 24 8 25 9 26 10 9 11 8 13
REMARK SMILES IDX 4 14 5 15 27 16 6 17 7 18 2 19 1 20 3 21 13 22 14 24 15 25
REMARK SMILES IDX 16 26 19 27 17 28 18 29
REMARK H PARENT 9 12 13 23
ROOT
ATOM      1  C   UNL     1       3.777  44.318  53.354  1.00  0.00     0.229 A 
ATOM      2  N   UNL     1       4.554  45.350  53.012  1.00  0.00    -0.195 NA
ATOM      3  C   UNL     1       5.359  45.229  51.951  1.00  0.00     0.139 A 
ATOM      4  C   UNL     1       5.393  44.055  51.182  1.00  0.00     0.043 A 
ATOM      5  C   UNL     1       6.231  43.833  50.059  1.00  0.00     0.014 A 
ATOM      6  C   UNL     1       6.181  42.630  49.358  1.00  0.00     0.001 A 
ATOM      7  C   UNL     1       5.301  41.639  49.771  1.00  0.00     0.002 A 
ATOM      8  C   UNL     1       4.485  41.857  50.885  1.00  0.00     0.029 A 
ATOM      9  C   UNL     1       4.520  43.047  51.601  1.00  0.00     0.078 A 
ATOM     10  N   UNL     1       3.726  43.177  52.664  1.00  0.00    -0.213 NA
ENDROOT
BRANCH   1  11
ATOM     11  N   UNL     1       3.023  44.523  54.507  1.00  0.00    -0.324 N 
ATOM     12  H   UNL     1       3.664  44.542  55.291  1.00  0.00     0.170 HD
BRANCH  11  13
ATOM     13  C   UNL     1       1.654  44.502  54.790  1.00  0.00     0.042 A 
ATOM     14  C   UNL     1      -0.680  43.984  54.267  1.00  0.00     0.019 A 
ATOM     15  C   UNL     1      -1.089  44.581  55.464  1.00  0.00     0.012 A 
ATOM     16  C   UNL     1       0.687  43.954  53.941  1.00  0.00     0.038 A 
ATOM     17  C   UNL     1      -0.143  45.144  56.316  1.00  0.00     0.003 A 
ATOM     18  C   UNL     1       1.212  45.106  55.978  1.00  0.00     0.026 A 
BRANCH  14  19
ATOM     19  C   UNL     1      -1.657  43.372  53.314  1.00  0.00     0.159 C 
ATOM     20  C   UNL     1      -1.141  42.762  52.037  1.00  0.00     0.093 C 
ATOM     21  O   UNL     1      -2.859  43.370  53.571  1.00  0.00    -0.295 OA
ENDBRANCH  14  19
ENDBRANCH  11  13
ENDBRANCH   1  11
BRANCH   3  22
ATOM     22  N   UNL     1       6.201  46.309  51.603  1.00  0.00    -0.367 N 
ATOM     23  H   UNL     1       5.767  46.789  50.819  1.00  0.00     0.162 HD
BRANCH  22  24
ATOM     24  C   UNL     1       6.546  47.258  52.675  1.00  0.00     0.146 C 
BRANCH  24  25
ATOM     25  C   UNL     1       8.051  47.565  52.812  1.00  0.00     0.137 C 
ATOM     26  C   UNL     1       9.005  46.456  52.383  1.00  0.00     0.036 C 
ATOM     27  O   UNL     1       8.430  47.954  54.151  1.00  0.00    -0.376 OA
ATOM     28  C   UNL     1      10.237  46.779  53.193  1.00  0.00     0.031 C 
ATOM     29  C   UNL     1       9.631  47.252  54.495  1.00  0.00     0.160 C 
ENDBRANCH  24  25
ENDBRANCH  22  24
ENDBRANCH   3  22
TORSDOF 6
ENDMDL
MODEL 9
REMARK VINA RESULT:    -9.334      2.353      7.349
REMARK INTER + INTRA:         -13.318
REMARK INTER:                 -12.970
REMARK INTRA:                  -0.348
REMARK UNBOUND:                -0.710
REMARK SMILES CC(=O)c1cccc(Nc2nc(NC[C@@H]3CCCO3)c3ccccc3n2)c1
REMARK SMILES IDX 10 1 11 2 12 3 20 4 21 5 22 6 23 7 24 8 25 9 26 10 9 11 8 13
REMARK SMILES IDX 4 14 5 15 27 16 6 17 7 18 2 19 1 20 3 21 13 22 14 24 15 25
REMARK SMILES IDX 16 26 19 27 17 28 18 29
REMARK H PARENT 9 12 13 23
ROOT
ATOM      1  C   UNL     1       5.573  46.638  54.193  1.00  0.00     0.229 A 
ATOM      2  N   UNL     1       5.483  46.237  52.921  1.00  0.00    -0.195 NA
ATOM      3  C   UNL     1       6.596  46.179  52.182  1.00  0.00     0.139 A 
ATOM      4  C   UNL     1       7.852  46.511  52.714  1.00  0.00     0.043 A 
ATOM      5  C   UNL     1       9.076  46.501  51.998  1.00  0.00     0.014 A 
ATOM      6  C   UNL     1      10.273  46.841  52.625  1.00  0.00     0.001 A 
ATOM      7  C   UNL     1      10.260  47.197  53.966  1.00  0.00     0.002 A 
ATOM      8  C   UNL     1       9.051  47.217  54.666  1.00  0.00     0.029 A 
ATOM      9  C   UNL     1       7.845  46.885  54.061  1.00  0.00     0.078 A 
ATOM     10  N   UNL     1       6.727  46.944  54.787  1.00  0.00    -0.213 NA
ENDROOT
BRANCH   1  11
ATOM     11  N   UNL     1       4.351  46.722  54.857  1.00  0.00    -0.324 N 
ATOM     12  H   UNL     1       4.437  47.442  55.564  1.00  0.00     0.170 HD
BRANCH  11  13
ATOM     13  C   UNL     1       3.197  45.934  54.874  1.00  0.00     0.042 A 
ATOM     14  C   UNL     1       1.091  45.158  55.851  1.00  0.00     0.019 A 
ATOM     15  C   UNL     1       0.938  44.237  54.810  1.00  0.00     0.012 A 
ATOM     16  C   UNL     1       2.222  45.994  55.874  1.00  0.00     0.038 A 
ATOM     17  C   UNL     1       1.905  44.153  53.811  1.00  0.00     0.003 A 
ATOM     18  C   UNL     1       3.022  44.991  53.848  1.00  0.00     0.026 A 
BRANCH  14  19
ATOM     19  C   UNL     1       0.087  45.282  56.951  1.00  0.00     0.159 C 
ATOM     20  C   UNL     1      -1.221  44.543  56.829  1.00  0.00     0.093 C 
ATOM     21  O   UNL     1       0.326  45.978  57.937  1.00  0.00    -0.295 OA
ENDBRANCH  14  19
ENDBRANCH  11  13
ENDBRANCH   1  11
BRANCH   3  22
ATOM     22  N   UNL     1       6.500  45.782  50.830  1.00  0.00    -0.367 N 
ATOM     23  H   UNL     1       7.405  45.402  50.563  1.00  0.00     0.162 HD
BRANCH  22  24
ATOM     24  C   UNL     1       5.415  44.850  50.483  1.00  0.00     0.146 C 
BRANCH  24  25
ATOM     25  C   UNL     1       5.752  43.357  50.679  1.00  0.00     0.137 C 
ATOM     26  C   UNL     1       6.586  42.708  49.580  1.00  0.00     0.036 C 
ATOM     27  O   UNL     1       4.581  42.532  50.863  1.00  0.00    -0.376 OA
ATOM     28  C   UNL     1       6.200  41.256  49.719  1.00  0.00     0.031 C 
ATOM     29  C   UNL     1       4.729  41.360  50.051  1.00  0.00     0.160 C 
ENDBRANCH  24  25
ENDBRANCH  22  24
ENDBRANCH   3  22
TORSDOF 6
ENDMDL
MODEL 10
REMARK VINA RESULT:    -9.280      2.097      7.969
REMARK INTER + INTRA:         -13.246
REMARK INTER:                 -12.396
REMARK INTRA:                  -0.849
REMARK UNBOUND:                -0.710
REMARK SMILES CC(=O)c1cccc(Nc2nc(NC[C@@H]3CCCO3)c3ccccc3n2)c1
REMARK SMILES IDX 10 1 11 2 12 3 20 4 21 5 22 6 23 7 24 8 25 9 26 10 9 11 8 13
REMARK SMILES IDX 4 14 5 15 27 16 6 17 7 18 2 19 1 20 3 21 13 22 14 24 15 25
REMARK SMILES IDX 16 26 19 27 17 28 18 29
REMARK H PARENT 9 12 13 23
ROOT
ATOM      1  C   UNL     1       4.045  43.435  52.183  1.00  0.00     0.229 A 
ATOM      2  N   UNL     1       4.361  44.667  52.594  1.00  0.00    -0.195 NA
ATOM      3  C   UNL     1       5.408  45.285  52.037  1.00  0.00     0.139 A 
ATOM      4  C   UNL     1       6.168  44.679  51.024  1.00  0.00     0.043 A 
ATOM      5  C   UNL     1       7.305  45.250  50.397  1.00  0.00     0.014 A 
ATOM      6  C   UNL     1       7.986  44.566  49.393  1.00  0.00     0.001 A 
ATOM      7  C   UNL     1       7.543  43.308  49.008  1.00  0.00     0.002 A 
ATOM      8  C   UNL     1       6.430  42.743  49.636  1.00  0.00     0.029 A 
ATOM      9  C   UNL     1       5.737  43.406  50.642  1.00  0.00     0.078 A 
ATOM     10  N   UNL     1       4.695  42.797  51.208  1.00  0.00    -0.213 NA
ENDROOT
BRANCH   1  11
ATOM     11  N   UNL     1       2.979  42.856  52.867  1.00  0.00    -0.324 N 
ATOM     12  H   UNL     1       3.284  41.950  53.199  1.00  0.00     0.170 HD
BRANCH  11  13
ATOM     13  C   UNL     1       1.622  43.169  52.996  1.00  0.00     0.042 A 
ATOM     14  C   UNL     1      -0.687  43.266  52.190  1.00  0.00     0.019 A 
ATOM     15  C   UNL     1      -1.080  43.908  53.369  1.00  0.00     0.012 A 
ATOM     16  C   UNL     1       0.661  42.907  52.014  1.00  0.00     0.038 A 
ATOM     17  C   UNL     1      -0.136  44.189  54.353  1.00  0.00     0.003 A 
ATOM     18  C   UNL     1       1.200  43.825  54.163  1.00  0.00     0.026 A 
BRANCH  14  19
ATOM     19  C   UNL     1      -1.660  42.948  51.100  1.00  0.00     0.159 C 
ATOM     20  C   UNL     1      -3.094  42.665  51.465  1.00  0.00     0.093 C 
ATOM     21  O   UNL     1      -1.292  42.919  49.926  1.00  0.00    -0.295 OA
ENDBRANCH  14  19
ENDBRANCH  11  13
ENDBRANCH   1  11
BRANCH   3  22
ATOM     22  N   UNL     1       5.761  46.576  52.489  1.00  0.00    -0.367 N 
ATOM     23  H   UNL     1       4.903  47.120  52.545  1.00  0.00     0.162 HD
BRANCH  22  24
ATOM     24  C   UNL     1       6.519  46.659  53.748  1.00  0.00     0.146 C 
BRANCH  24  25
ATOM     25  C   UNL     1       7.909  47.317  53.628  1.00  0.00     0.137 C 
ATOM     26  C   UNL     1       9.033  46.423  53.119  1.00  0.00     0.036 C 
ATOM     27  O   UNL     1       8.365  47.905  54.866  1.00  0.00    -0.376 OA
ATOM     28  C   UNL     1      10.251  47.095  53.705  1.00  0.00     0.031 C 
ATOM     29  C   UNL     1       9.736  47.535  55.057  1.00  0.00     0.160 C 
ENDBRANCH  24  25
ENDBRANCH  22  24
ENDBRANCH   3  22
TORSDOF 6
ENDMDL
MODEL 11
REMARK VINA RESULT:    -9.276      2.384      7.392
REMARK INTER + INTRA:         -13.239
REMARK INTER:                 -12.398
REMARK INTRA:                  -0.841
REMARK UNBOUND:                -0.710
REMARK SMILES CC(=O)c1cccc(Nc2nc(NC[C@@H]3CCCO3)c3ccccc3n2)c1
REMARK SMILES IDX 10 1 11 2 12 3 20 4 21 5 22 6 23 7 24 8 25 9 26 10 9 11 8 13
REMARK SMILES IDX 4 14 5 15 27 16 6 17 7 18 2 19 1 20 3 21 13 22 14 24 15 25
REMARK SMILES IDX 16 26 19 27 17 28 18 29
REMARK H PARENT 9 12 13 23
ROOT
ATOM      1  C   UNL     1       5.356  46.799  52.517  1.00  0.00     0.229 A 
ATOM      2  N   UNL     1       5.781  46.168  51.419  1.00  0.00    -0.195 NA
ATOM      3  C   UNL     1       7.095  45.987  51.245  1.00  0.00     0.139 A 
ATOM      4  C   UNL     1       8.031  46.428  52.194  1.00  0.00     0.043 A 
ATOM      5  C   UNL     1       9.439  46.301  52.079  1.00  0.00     0.014 A 
ATOM      6  C   UNL     1      10.282  46.766  53.086  1.00  0.00     0.001 A 
ATOM      7  C   UNL     1       9.731  47.365  54.210  1.00  0.00     0.002 A 
ATOM      8  C   UNL     1       8.344  47.500  54.315  1.00  0.00     0.029 A 
ATOM      9  C   UNL     1       7.484  47.046  53.322  1.00  0.00     0.078 A 
ATOM     10  N   UNL     1       6.173  47.225  53.482  1.00  0.00    -0.213 NA
ENDROOT
BRANCH   1  11
ATOM     11  N   UNL     1       3.977  46.990  52.573  1.00  0.00    -0.324 N 
ATOM     12  H   UNL     1       3.813  47.959  52.815  1.00  0.00     0.170 HD
BRANCH  11  13
ATOM     13  C   UNL     1       2.875  46.129  52.564  1.00  0.00     0.042 A 
ATOM     14  C   UNL     1       1.040  44.914  53.635  1.00  0.00     0.019 A 
ATOM     15  C   UNL     1       0.704  44.327  52.411  1.00  0.00     0.012 A 
ATOM     16  C   UNL     1       2.125  45.806  53.700  1.00  0.00     0.038 A 
ATOM     17  C   UNL     1       1.447  44.626  51.271  1.00  0.00     0.003 A 
ATOM     18  C   UNL     1       2.522  45.515  51.353  1.00  0.00     0.026 A 
BRANCH  14  19
ATOM     19  C   UNL     1       0.279  44.621  54.888  1.00  0.00     0.159 C 
ATOM     20  C   UNL     1       0.804  45.150  56.198  1.00  0.00     0.093 C 
ATOM     21  O   UNL     1      -0.756  43.958  54.848  1.00  0.00    -0.295 OA
ENDBRANCH  14  19
ENDBRANCH  11  13
ENDBRANCH   1  11
BRANCH   3  22
ATOM     22  N   UNL     1       7.549  45.345  50.072  1.00  0.00    -0.367 N 
ATOM     23  H   UNL     1       8.493  45.679  49.892  1.00  0.00     0.162 HD
BRANCH  22  24
ATOM     24  C   UNL     1       7.499  43.873  50.054  1.00  0.00     0.146 C 
BRANCH  24  25
ATOM     25  C   UNL     1       6.123  43.273  49.703  1.00  0.00     0.137 C 
ATOM     26  C   UNL     1       5.370  42.603  50.847  1.00  0.00     0.036 C 
ATOM     27  O   UNL     1       6.182  42.318  48.620  1.00  0.00    -0.376 OA
ATOM     28  C   UNL     1       4.483  41.633  50.106  1.00  0.00     0.031 C 
ATOM     29  C   UNL     1       5.394  41.179  48.988  1.00  0.00     0.160 C 
ENDBRANCH  24  25
ENDBRANCH  22  24
ENDBRANCH   3  22
TORSDOF 6
ENDMDL
MODEL 12
REMARK VINA RESULT:    -8.961      3.081      8.258
REMARK INTER + INTRA:         -12.815
REMARK INTER:                 -11.842
REMARK INTRA:                  -0.972
REMARK UNBOUND:                -0.710
REMARK SMILES CC(=O)c1cccc(Nc2nc(NC[C@@H]3CCCO3)c3ccccc3n2)c1
REMARK SMILES IDX 10 1 11 2 12 3 20 4 21 5 22 6 23 7 24 8 25 9 26 10 9 11 8 13
REMARK SMILES IDX 4 14 5 15 27 16 6 17 7 18 2 19 1 20 3 21 13 22 14 24 15 25
REMARK SMILES IDX 16 26 19 27 17 28 18 29
REMARK H PARENT 9 12 13 23
ROOT
ATOM      1  C   UNL     1       5.926  43.133  50.403  1.00  0.00     0.229 A 
ATOM      2  N   UNL     1       6.821  44.105  50.203  1.00  0.00    -0.195 NA
ATOM      3  C   UNL     1       6.727  45.229  50.921  1.00  0.00     0.139 A 
ATOM      4  C   UNL     1       5.723  45.403  51.888  1.00  0.00     0.043 A 
ATOM      5  C   UNL     1       5.534  46.568  52.675  1.00  0.00     0.014 A 
ATOM      6  C   UNL     1       4.509  46.636  53.616  1.00  0.00     0.001 A 
ATOM      7  C   UNL     1       3.662  45.547  53.776  1.00  0.00     0.002 A 
ATOM      8  C   UNL     1       3.843  44.406  52.991  1.00  0.00     0.029 A 
ATOM      9  C   UNL     1       4.857  44.317  52.045  1.00  0.00     0.078 A 
ATOM     10  N   UNL     1       4.959  43.203  51.319  1.00  0.00    -0.213 NA
ENDROOT
BRANCH   1  11
ATOM     11  N   UNL     1       6.075  42.032  49.564  1.00  0.00    -0.324 N 
ATOM     12  H   UNL     1       6.988  41.633  49.743  1.00  0.00     0.170 HD
BRANCH  11  13
ATOM     13  C   UNL     1       5.356  41.537  48.471  1.00  0.00     0.042 A 
ATOM     14  C   UNL     1       4.864  41.346  46.081  1.00  0.00     0.019 A 
ATOM     15  C   UNL     1       3.780  40.508  46.363  1.00  0.00     0.012 A 
ATOM     16  C   UNL     1       5.638  41.855  47.139  1.00  0.00     0.038 A 
ATOM     17  C   UNL     1       3.475  40.191  47.684  1.00  0.00     0.003 A 
ATOM     18  C   UNL     1       4.254  40.704  48.724  1.00  0.00     0.026 A 
BRANCH  14  19
ATOM     19  C   UNL     1       5.230  41.723  44.681  1.00  0.00     0.159 C 
ATOM     20  C   UNL     1       5.535  40.630  43.690  1.00  0.00     0.093 C 
ATOM     21  O   UNL     1       5.281  42.906  44.348  1.00  0.00    -0.295 OA
ENDBRANCH  14  19
ENDBRANCH  11  13
ENDBRANCH   1  11
BRANCH   3  22
ATOM     22  N   UNL     1       7.655  46.269  50.693  1.00  0.00    -0.367 N 
ATOM     23  H   UNL     1       7.317  47.089  51.190  1.00  0.00     0.162 HD
BRANCH  22  24
ATOM     24  C   UNL     1       9.062  45.993  51.028  1.00  0.00     0.146 C 
BRANCH  24  25
ATOM     25  C   UNL     1       9.647  46.874  52.151  1.00  0.00     0.137 C 
ATOM     26  C   UNL     1       9.960  46.167  53.465  1.00  0.00     0.036 C 
ATOM     27  O   UNL     1       8.814  48.010  52.472  1.00  0.00    -0.376 OA
ATOM     28  C   UNL     1       9.879  47.304  54.454  1.00  0.00     0.031 C 
ATOM     29  C   UNL     1       8.727  48.110  53.899  1.00  0.00     0.160 C 
ENDBRANCH  24  25
ENDBRANCH  22  24
ENDBRANCH   3  22
TORSDOF 6
ENDMDL
MODEL 13
REMARK VINA RESULT:    -8.951      2.978      8.565
REMARK INTER + INTRA:         -12.800
REMARK INTER:                 -11.898
REMARK INTRA:                  -0.902
REMARK UNBOUND:                -0.710
REMARK SMILES CC(=O)c1cccc(Nc2nc(NC[C@@H]3CCCO3)c3ccccc3n2)c1
REMARK SMILES IDX 10 1 11 2 12 3 20 4 21 5 22 6 23 7 24 8 25 9 26 10 9 11 8 13
REMARK SMILES IDX 4 14 5 15 27 16 6 17 7 18 2 19 1 20 3 21 13 22 14 24 15 25
REMARK SMILES IDX 16 26 19 27 17 28 18 29
REMARK H PARENT 9 12 13 23
ROOT
ATOM      1  C   UNL     1       5.576  42.653  50.174  1.00  0.00     0.229 A 
ATOM      2  N   UNL     1       6.516  43.560  49.894  1.00  0.00    -0.195 NA
ATOM      3  C   UNL     1       6.553  44.693  50.604  1.00  0.00     0.139 A 
ATOM      4  C   UNL     1       5.642  44.941  51.643  1.00  0.00     0.043 A 
ATOM      5  C   UNL     1       5.593  46.121  52.428  1.00  0.00     0.014 A 
ATOM      6  C   UNL     1       4.650  46.265  53.445  1.00  0.00     0.001 A 
ATOM      7  C   UNL     1       3.748  45.237  53.683  1.00  0.00     0.002 A 
ATOM      8  C   UNL     1       3.791  44.081  52.900  1.00  0.00     0.029 A 
ATOM      9  C   UNL     1       4.720  43.917  51.880  1.00  0.00     0.078 A 
ATOM     10  N   UNL     1       4.690  42.794  51.161  1.00  0.00    -0.213 NA
ENDROOT
BRANCH   1  11
ATOM     11  N   UNL     1       5.586  41.538  49.339  1.00  0.00    -0.324 N 
ATOM     12  H   UNL     1       6.243  40.873  49.726  1.00  0.00     0.170 HD
BRANCH  11  13
ATOM     13  C   UNL     1       5.064  41.269  48.071  1.00  0.00     0.042 A 
ATOM     14  C   UNL     1       3.523  40.153  46.530  1.00  0.00     0.019 A 
ATOM     15  C   UNL     1       4.147  40.774  45.443  1.00  0.00     0.012 A 
ATOM     16  C   UNL     1       3.991  40.404  47.832  1.00  0.00     0.038 A 
ATOM     17  C   UNL     1       5.226  41.628  45.659  1.00  0.00     0.003 A 
ATOM     18  C   UNL     1       5.678  41.868  46.959  1.00  0.00     0.026 A 
BRANCH  14  19
ATOM     19  C   UNL     1       2.367  39.221  46.353  1.00  0.00     0.159 C 
ATOM     20  C   UNL     1       2.458  37.832  46.930  1.00  0.00     0.093 C 
ATOM     21  O   UNL     1       1.362  39.585  45.745  1.00  0.00    -0.295 OA
ENDBRANCH  14  19
ENDBRANCH  11  13
ENDBRANCH   1  11
BRANCH   3  22
ATOM     22  N   UNL     1       7.528  45.666  50.292  1.00  0.00    -0.367 N 
ATOM     23  H   UNL     1       7.202  46.551  50.673  1.00  0.00     0.162 HD
BRANCH  22  24
ATOM     24  C   UNL     1       8.909  45.387  50.717  1.00  0.00     0.146 C 
BRANCH  24  25
ATOM     25  C   UNL     1       9.534  46.454  51.640  1.00  0.00     0.137 C 
ATOM     26  C   UNL     1       9.855  46.008  53.061  1.00  0.00     0.036 C 
ATOM     27  O   UNL     1       8.733  47.652  51.744  1.00  0.00    -0.376 OA
ATOM     28  C   UNL     1       9.817  47.316  53.811  1.00  0.00     0.031 C 
ATOM     29  C   UNL     1       8.674  48.029  53.125  1.00  0.00     0.160 C 
ENDBRANCH  24  25
ENDBRANCH  22  24
ENDBRANCH   3  22
TORSDOF 6
ENDMDL
MODEL 14
REMARK VINA RESULT:    -8.945      3.070      7.390
REMARK INTER + INTRA:         -12.792
REMARK INTER:                 -11.729
REMARK INTRA:                  -1.063
REMARK UNBOUND:                -0.710
REMARK SMILES CC(=O)c1cccc(Nc2nc(NC[C@@H]3CCCO3)c3ccccc3n2)c1
REMARK SMILES IDX 10 1 11 2 12 3 20 4 21 5 22 6 23 7 24 8 25 9 26 10 9 11 8 13
REMARK SMILES IDX 4 14 5 15 27 16 6 17 7 18 2 19 1 20 3 21 13 22 14 24 15 25
REMARK SMILES IDX 16 26 19 27 17 28 18 29
REMARK H PARENT 9 12 13 23
ROOT
ATOM      1  C   UNL     1       7.235  44.109  49.818  1.00  0.00     0.229 A 
ATOM      2  N   UNL     1       6.053  44.663  50.108  1.00  0.00    -0.195 NA
ATOM      3  C   UNL     1       6.017  45.713  50.936  1.00  0.00     0.139 A 
ATOM      4  C   UNL     1       7.188  46.254  51.490  1.00  0.00     0.043 A 
ATOM      5  C   UNL     1       7.240  47.346  52.393  1.00  0.00     0.014 A 
ATOM      6  C   UNL     1       8.460  47.813  52.880  1.00  0.00     0.001 A 
ATOM      7  C   UNL     1       9.634  47.193  52.476  1.00  0.00     0.002 A 
ATOM      8  C   UNL     1       9.579  46.109  51.596  1.00  0.00     0.029 A 
ATOM      9  C   UNL     1       8.374  45.626  51.099  1.00  0.00     0.078 A 
ATOM     10  N   UNL     1       8.397  44.576  50.277  1.00  0.00    -0.213 NA
ENDROOT
BRANCH   1  11
ATOM     11  N   UNL     1       7.157  42.986  48.998  1.00  0.00    -0.324 N 
ATOM     12  H   UNL     1       8.054  42.881  48.540  1.00  0.00     0.170 HD
BRANCH  11  13
ATOM     13  C   UNL     1       6.109  42.169  48.564  1.00  0.00     0.042 A 
ATOM     14  C   UNL     1       4.691  41.158  46.844  1.00  0.00     0.019 A 
ATOM     15  C   UNL     1       3.925  40.531  47.833  1.00  0.00     0.012 A 
ATOM     16  C   UNL     1       5.772  41.974  47.220  1.00  0.00     0.038 A 
ATOM     17  C   UNL     1       4.236  40.724  49.176  1.00  0.00     0.003 A 
ATOM     18  C   UNL     1       5.315  41.537  49.534  1.00  0.00     0.026 A 
BRANCH  14  19
ATOM     19  C   UNL     1       4.394  40.991  45.389  1.00  0.00     0.159 C 
ATOM     20  C   UNL     1       5.257  41.709  44.383  1.00  0.00     0.093 C 
ATOM     21  O   UNL     1       3.460  40.280  45.021  1.00  0.00    -0.295 OA
ENDBRANCH  14  19
ENDBRANCH  11  13
ENDBRANCH   1  11
BRANCH   3  22
ATOM     22  N   UNL     1       4.768  46.283  51.266  1.00  0.00    -0.367 N 
ATOM     23  H   UNL     1       4.419  46.746  50.430  1.00  0.00     0.162 HD
BRANCH  22  24
ATOM     24  C   UNL     1       3.751  45.380  51.831  1.00  0.00     0.146 C 
BRANCH  24  25
ATOM     25  C   UNL     1       3.912  45.080  53.335  1.00  0.00     0.137 C 
ATOM     26  C   UNL     1       4.114  46.287  54.243  1.00  0.00     0.036 C 
ATOM     27  O   UNL     1       4.986  44.155  53.616  1.00  0.00    -0.376 OA
ATOM     28  C   UNL     1       4.840  45.673  55.415  1.00  0.00     0.031 C 
ATOM     29  C   UNL     1       5.733  44.665  54.728  1.00  0.00     0.160 C 
ENDBRANCH  24  25
ENDBRANCH  22  24
ENDBRANCH   3  22
TORSDOF 6
ENDMDL
MODEL 15
REMARK VINA RESULT:    -8.944      2.974      7.418
REMARK INTER + INTRA:         -12.792
REMARK INTER:                 -11.891
REMARK INTRA:                  -0.901
REMARK UNBOUND:                -0.710
REMARK SMILES CC(=O)c1cccc(Nc2nc(NC[C@@H]3CCCO3)c3ccccc3n2)c1
REMARK SMILES IDX 10 1 11 2 12 3 20 4 21 5 22 6 23 7 24 8 25 9 26 10 9 11 8 13
REMARK SMILES IDX 4 14 5 15 27 16 6 17 7 18 2 19 1 20 3 21 13 22 14 24 15 25
REMARK SMILES IDX 16 26 19 27 17 28 18 29
REMARK H PARENT 9 12 13 23
ROOT
ATOM      1  C   UNL     1       7.500  44.094  49.705  1.00  0.00     0.229 A 
ATOM      2  N   UNL     1       6.375  44.673  50.134  1.00  0.00    -0.195 NA
ATOM      3  C   UNL     1       6.456  45.642  51.053  1.00  0.00     0.139 A 
ATOM      4  C   UNL     1       7.692  46.073  51.560  1.00  0.00     0.043 A 
ATOM      5  C   UNL     1       7.869  47.073  52.550  1.00  0.00     0.014 A 
ATOM      6  C   UNL     1       9.145  47.435  52.981  1.00  0.00     0.001 A 
ATOM      7  C   UNL     1      10.251  46.801  52.432  1.00  0.00     0.002 A 
ATOM      8  C   UNL     1      10.073  45.807  51.465  1.00  0.00     0.029 A 
ATOM      9  C   UNL     1       8.811  45.429  51.024  1.00  0.00     0.078 A 
ATOM     10  N   UNL     1       8.716  44.461  50.112  1.00  0.00    -0.213 NA
ENDROOT
BRANCH   1  11
ATOM     11  N   UNL     1       7.303  43.057  48.796  1.00  0.00    -0.324 N 
ATOM     12  H   UNL     1       8.097  43.046  48.168  1.00  0.00     0.170 HD
BRANCH  11  13
ATOM     13  C   UNL     1       6.218  42.233  48.481  1.00  0.00     0.042 A 
ATOM     14  C   UNL     1       4.647  41.184  46.925  1.00  0.00     0.019 A 
ATOM     15  C   UNL     1       3.973  40.586  47.995  1.00  0.00     0.012 A 
ATOM     16  C   UNL     1       5.759  42.004  47.179  1.00  0.00     0.038 A 
ATOM     17  C   UNL     1       4.405  40.813  49.299  1.00  0.00     0.003 A 
ATOM     18  C   UNL     1       5.514  41.631  49.536  1.00  0.00     0.026 A 
BRANCH  14  19
ATOM     19  C   UNL     1       4.218  40.980  45.507  1.00  0.00     0.159 C 
ATOM     20  C   UNL     1       5.266  40.973  44.425  1.00  0.00     0.093 C 
ATOM     21  O   UNL     1       3.030  40.822  45.232  1.00  0.00    -0.295 OA
ENDBRANCH  14  19
ENDBRANCH  11  13
ENDBRANCH   1  11
BRANCH   3  22
ATOM     22  N   UNL     1       5.267  46.236  51.529  1.00  0.00    -0.367 N 
ATOM     23  H   UNL     1       5.409  47.243  51.518  1.00  0.00     0.162 HD
BRANCH  22  24
ATOM     24  C   UNL     1       4.018  45.874  50.840  1.00  0.00     0.146 C 
BRANCH  24  25
ATOM     25  C   UNL     1       3.081  44.943  51.636  1.00  0.00     0.137 C 
ATOM     26  C   UNL     1       3.712  43.668  52.187  1.00  0.00     0.036 C 
ATOM     27  O   UNL     1       1.909  44.546  50.891  1.00  0.00    -0.376 OA
ATOM     28  C   UNL     1       2.514  42.759  52.306  1.00  0.00     0.031 C 
ATOM     29  C   UNL     1       1.718  43.138  51.078  1.00  0.00     0.160 C 
ENDBRANCH  24  25
ENDBRANCH  22  24
ENDBRANCH   3  22
TORSDOF 6
ENDMDL
MODEL 16
REMARK VINA RESULT:    -8.886      2.831      6.188
REMARK INTER + INTRA:         -12.713
REMARK INTER:                 -11.639
REMARK INTRA:                  -1.074
REMARK UNBOUND:                -0.710
REMARK SMILES CC(=O)c1cccc(Nc2nc(NC[C@@H]3CCCO3)c3ccccc3n2)c1
REMARK SMILES IDX 10 1 11 2 12 3 20 4 21 5 22 6 23 7 24 8 25 9 26 10 9 11 8 13
REMARK SMILES IDX 4 14 5 15 27 16 6 17 7 18 2 19 1 20 3 21 13 22 14 24 15 25
REMARK SMILES IDX 16 26 19 27 17 28 18 29
REMARK H PARENT 9 12 13 23
ROOT
ATOM      1  C   UNL     1       1.465  42.896  52.605  1.00  0.00     0.229 A 
ATOM      2  N   UNL     1       2.160  43.400  53.629  1.00  0.00    -0.195 NA
ATOM      3  C   UNL     1       1.505  44.051  54.597  1.00  0.00     0.139 A 
ATOM      4  C   UNL     1       0.110  44.201  54.569  1.00  0.00     0.043 A 
ATOM      5  C   UNL     1      -0.660  44.895  55.537  1.00  0.00     0.014 A 
ATOM      6  C   UNL     1      -2.046  44.979  55.421  1.00  0.00     0.001 A 
ATOM      7  C   UNL     1      -2.674  44.377  54.339  1.00  0.00     0.002 A 
ATOM      8  C   UNL     1      -1.911  43.705  53.380  1.00  0.00     0.029 A 
ATOM      9  C   UNL     1      -0.528  43.611  53.475  1.00  0.00     0.078 A 
ATOM     10  N   UNL     1       0.136  42.969  52.513  1.00  0.00    -0.213 NA
ENDROOT
BRANCH   1  11
ATOM     11  N   UNL     1       2.245  42.292  51.622  1.00  0.00    -0.324 N 
ATOM     12  H   UNL     1       1.773  41.443  51.337  1.00  0.00     0.170 HD
BRANCH  11  13
ATOM     13  C   UNL     1       3.541  42.504  51.142  1.00  0.00     0.042 A 
ATOM     14  C   UNL     1       5.495  43.898  50.663  1.00  0.00     0.019 A 
ATOM     15  C   UNL     1       6.144  42.803  50.082  1.00  0.00     0.012 A 
ATOM     16  C   UNL     1       4.199  43.738  51.183  1.00  0.00     0.038 A 
ATOM     17  C   UNL     1       5.500  41.569  50.020  1.00  0.00     0.003 A 
ATOM     18  C   UNL     1       4.212  41.427  50.542  1.00  0.00     0.026 A 
BRANCH  14  19
ATOM     19  C   UNL     1       6.139  45.244  50.747  1.00  0.00     0.159 C 
ATOM     20  C   UNL     1       7.581  45.388  50.333  1.00  0.00     0.093 C 
ATOM     21  O   UNL     1       5.501  46.215  51.149  1.00  0.00    -0.295 OA
ENDBRANCH  14  19
ENDBRANCH  11  13
ENDBRANCH   1  11
BRANCH   3  22
ATOM     22  N   UNL     1       2.241  44.608  55.666  1.00  0.00    -0.367 N 
ATOM     23  H   UNL     1       2.898  43.898  55.981  1.00  0.00     0.162 HD
BRANCH  22  24
ATOM     24  C   UNL     1       2.928  45.884  55.410  1.00  0.00     0.146 C 
BRANCH  24  25
ATOM     25  C   UNL     1       4.203  45.776  54.549  1.00  0.00     0.137 C 
ATOM     26  C   UNL     1       5.229  44.741  54.997  1.00  0.00     0.036 C 
ATOM     27  O   UNL     1       4.903  47.032  54.413  1.00  0.00    -0.376 OA
ATOM     28  C   UNL     1       6.505  45.301  54.418  1.00  0.00     0.031 C 
ATOM     29  C   UNL     1       6.301  46.787  54.611  1.00  0.00     0.160 C 
ENDBRANCH  24  25
ENDBRANCH  22  24
ENDBRANCH   3  22
TORSDOF 6
ENDMDL
MODEL 17
REMARK VINA RESULT:    -8.870      2.404      5.313
REMARK INTER + INTRA:         -12.691
REMARK INTER:                 -12.257
REMARK INTRA:                  -0.434
REMARK UNBOUND:                -0.710
REMARK SMILES CC(=O)c1cccc(Nc2nc(NC[C@@H]3CCCO3)c3ccccc3n2)c1
REMARK SMILES IDX 10 1 11 2 12 3 20 4 21 5 22 6 23 7 24 8 25 9 26 10 9 11 8 13
REMARK SMILES IDX 4 14 5 15 27 16 6 17 7 18 2 19 1 20 3 21 13 22 14 24 15 25
REMARK SMILES IDX 16 26 19 27 17 28 18 29
REMARK H PARENT 9 12 13 23
ROOT
ATOM      1  C   UNL     1       4.967  46.545  53.123  1.00  0.00     0.229 A 
ATOM      2  N   UNL     1       4.556  45.756  52.126  1.00  0.00    -0.195 NA
ATOM      3  C   UNL     1       3.488  44.974  52.318  1.00  0.00     0.139 A 
ATOM      4  C   UNL     1       2.783  44.977  53.532  1.00  0.00     0.043 A 
ATOM      5  C   UNL     1       1.658  44.165  53.830  1.00  0.00     0.014 A 
ATOM      6  C   UNL     1       1.023  44.251  55.067  1.00  0.00     0.001 A 
ATOM      7  C   UNL     1       1.504  45.142  56.017  1.00  0.00     0.002 A 
ATOM      8  C   UNL     1       2.620  45.931  55.725  1.00  0.00     0.029 A 
ATOM      9  C   UNL     1       3.270  45.860  54.499  1.00  0.00     0.078 A 
ATOM     10  N   UNL     1       4.340  46.631  54.297  1.00  0.00    -0.213 NA
ENDROOT
BRANCH   1  11
ATOM     11  N   UNL     1       6.121  47.272  52.843  1.00  0.00    -0.324 N 
ATOM     12  H   UNL     1       5.846  48.234  52.686  1.00  0.00     0.170 HD
BRANCH  11  13
ATOM     13  C   UNL     1       7.445  46.923  52.558  1.00  0.00     0.042 A 
ATOM     14  C   UNL     1       9.165  45.667  51.351  1.00  0.00     0.019 A 
ATOM     15  C   UNL     1      10.161  46.271  52.126  1.00  0.00     0.012 A 
ATOM     16  C   UNL     1       7.817  45.997  51.578  1.00  0.00     0.038 A 
ATOM     17  C   UNL     1       9.809  47.185  53.116  1.00  0.00     0.003 A 
ATOM     18  C   UNL     1       8.465  47.503  53.328  1.00  0.00     0.026 A 
BRANCH  14  19
ATOM     19  C   UNL     1       9.488  44.673  50.282  1.00  0.00     0.159 C 
ATOM     20  C   UNL     1       8.451  44.375  49.230  1.00  0.00     0.093 C 
ATOM     21  O   UNL     1      10.581  44.110  50.265  1.00  0.00    -0.295 OA
ENDBRANCH  14  19
ENDBRANCH  11  13
ENDBRANCH   1  11
BRANCH   3  22
ATOM     22  N   UNL     1       3.068  44.119  51.276  1.00  0.00    -0.367 N 
ATOM     23  H   UNL     1       3.664  44.307  50.473  1.00  0.00     0.162 HD
BRANCH  22  24
ATOM     24  C   UNL     1       3.025  42.677  51.571  1.00  0.00     0.146 C 
BRANCH  24  25
ATOM     25  C   UNL     1       4.244  41.874  51.072  1.00  0.00     0.137 C 
ATOM     26  C   UNL     1       5.368  42.684  50.437  1.00  0.00     0.036 C 
ATOM     27  O   UNL     1       3.890  40.835  50.133  1.00  0.00    -0.376 OA
ATOM     28  C   UNL     1       6.019  41.659  49.542  1.00  0.00     0.031 C 
ATOM     29  C   UNL     1       4.821  40.882  49.044  1.00  0.00     0.160 C 
ENDBRANCH  24  25
ENDBRANCH  22  24
ENDBRANCH   3  22
TORSDOF 6
ENDMDL
MODEL 18
REMARK VINA RESULT:    -8.800      1.991      6.485
REMARK INTER + INTRA:         -12.597
REMARK INTER:                 -11.658
REMARK INTRA:                  -0.939
REMARK UNBOUND:                -0.710
REMARK SMILES CC(=O)c1cccc(Nc2nc(NC[C@@H]3CCCO3)c3ccccc3n2)c1
REMARK SMILES IDX 10 1 11 2 12 3 20 4 21 5 22 6 23 7 24 8 25 9 26 10 9 11 8 13
REMARK SMILES IDX 4 14 5 15 27 16 6 17 7 18 2 19 1 20 3 21 13 22 14 24 15 25
REMARK SMILES IDX 16 26 19 27 17 28 18 29
REMARK H PARENT 9 12 13 23
ROOT
ATOM      1  C   UNL     1       6.822  45.444  51.423  1.00  0.00     0.229 A 
ATOM      2  N   UNL     1       5.893  46.103  52.123  1.00  0.00    -0.195 NA
ATOM      3  C   UNL     1       6.281  46.873  53.145  1.00  0.00     0.139 A 
ATOM      4  C   UNL     1       7.634  47.018  53.487  1.00  0.00     0.043 A 
ATOM      5  C   UNL     1       8.131  47.792  54.567  1.00  0.00     0.014 A 
ATOM      6  C   UNL     1       9.499  47.876  54.816  1.00  0.00     0.001 A 
ATOM      7  C   UNL     1      10.382  47.188  53.995  1.00  0.00     0.002 A 
ATOM      8  C   UNL     1       9.889  46.416  52.939  1.00  0.00     0.029 A 
ATOM      9  C   UNL     1       8.529  46.316  52.674  1.00  0.00     0.078 A 
ATOM     10  N   UNL     1       8.130  45.546  51.660  1.00  0.00    -0.213 NA
ENDROOT
BRANCH   1  11
ATOM     11  N   UNL     1       6.311  44.624  50.420  1.00  0.00    -0.324 N 
ATOM     12  H   UNL     1       6.578  45.026  49.530  1.00  0.00     0.170 HD
BRANCH  11  13
ATOM     13  C   UNL     1       5.405  43.559  50.402  1.00  0.00     0.042 A 
ATOM     14  C   UNL     1       3.283  42.481  50.976  1.00  0.00     0.019 A 
ATOM     15  C   UNL     1       3.697  41.308  50.337  1.00  0.00     0.012 A 
ATOM     16  C   UNL     1       4.144  43.593  51.006  1.00  0.00     0.038 A 
ATOM     17  C   UNL     1       4.955  41.250  49.742  1.00  0.00     0.003 A 
ATOM     18  C   UNL     1       5.798  42.363  49.779  1.00  0.00     0.026 A 
BRANCH  14  19
ATOM     19  C   UNL     1       1.947  42.593  51.637  1.00  0.00     0.159 C 
ATOM     20  C   UNL     1       0.775  43.084  50.827  1.00  0.00     0.093 C 
ATOM     21  O   UNL     1       1.810  42.291  52.821  1.00  0.00    -0.295 OA
ENDBRANCH  14  19
ENDBRANCH  11  13
ENDBRANCH   1  11
BRANCH   3  22
ATOM     22  N   UNL     1       5.299  47.549  53.905  1.00  0.00    -0.367 N 
ATOM     23  H   UNL     1       4.652  47.977  53.247  1.00  0.00     0.162 HD
BRANCH  22  24
ATOM     24  C   UNL     1       4.576  46.759  54.914  1.00  0.00     0.146 C 
BRANCH  24  25
ATOM     25  C   UNL     1       3.472  45.839  54.353  1.00  0.00     0.137 C 
ATOM     26  C   UNL     1       2.557  46.454  53.301  1.00  0.00     0.036 C 
ATOM     27  O   UNL     1       2.622  45.283  55.380  1.00  0.00    -0.376 OA
ATOM     28  C   UNL     1       1.312  45.614  53.447  1.00  0.00     0.031 C 
ATOM     29  C   UNL     1       1.262  45.399  54.943  1.00  0.00     0.160 C 
ENDBRANCH  24  25
ENDBRANCH  22  24
ENDBRANCH   3  22
TORSDOF 6
ENDMDL
MODEL 19
REMARK VINA RESULT:    -8.763      2.307      3.065
REMARK INTER + INTRA:         -12.546
REMARK INTER:                 -11.649
REMARK INTRA:                  -0.897
REMARK UNBOUND:                -0.710
REMARK SMILES CC(=O)c1cccc(Nc2nc(NC[C@@H]3CCCO3)c3ccccc3n2)c1
REMARK SMILES IDX 10 1 11 2 12 3 20 4 21 5 22 6 23 7 24 8 25 9 26 10 9 11 8 13
REMARK SMILES IDX 4 14 5 15 27 16 6 17 7 18 2 19 1 20 3 21 13 22 14 24 15 25
REMARK SMILES IDX 16 26 19 27 17 28 18 29
REMARK H PARENT 9 12 13 23
ROOT
ATOM      1  C   UNL     1       3.875  45.804  52.779  1.00  0.00     0.229 A 
ATOM      2  N   UNL     1       3.586  45.642  54.074  1.00  0.00    -0.195 NA
ATOM      3  C   UNL     1       2.605  44.799  54.417  1.00  0.00     0.139 A 
ATOM      4  C   UNL     1       1.888  44.073  53.453  1.00  0.00     0.043 A 
ATOM      5  C   UNL     1       0.820  43.180  53.725  1.00  0.00     0.014 A 
ATOM      6  C   UNL     1       0.177  42.500  52.692  1.00  0.00     0.001 A 
ATOM      7  C   UNL     1       0.590  42.706  51.383  1.00  0.00     0.002 A 
ATOM      8  C   UNL     1       1.634  43.596  51.118  1.00  0.00     0.029 A 
ATOM      9  C   UNL     1       2.288  44.287  52.131  1.00  0.00     0.078 A 
ATOM     10  N   UNL     1       3.264  45.134  51.801  1.00  0.00    -0.213 NA
ENDROOT
BRANCH   1  11
ATOM     11  N   UNL     1       4.869  46.746  52.525  1.00  0.00    -0.324 N 
ATOM     12  H   UNL     1       4.425  47.550  52.099  1.00  0.00     0.170 HD
BRANCH  11  13
ATOM     13  C   UNL     1       6.266  46.717  52.554  1.00  0.00     0.042 A 
ATOM     14  C   UNL     1       8.444  47.197  53.564  1.00  0.00     0.019 A 
ATOM     15  C   UNL     1       9.090  46.643  52.453  1.00  0.00     0.012 A 
ATOM     16  C   UNL     1       7.039  47.232  53.601  1.00  0.00     0.038 A 
ATOM     17  C   UNL     1       8.338  46.138  51.395  1.00  0.00     0.003 A 
ATOM     18  C   UNL     1       6.942  46.180  51.447  1.00  0.00     0.026 A 
BRANCH  14  19
ATOM     19  C   UNL     1       9.204  47.759  54.721  1.00  0.00     0.159 C 
ATOM     20  C   UNL     1      10.552  47.175  55.059  1.00  0.00     0.093 C 
ATOM     21  O   UNL     1       8.735  48.682  55.386  1.00  0.00    -0.295 OA
ENDBRANCH  14  19
ENDBRANCH  11  13
ENDBRANCH   1  11
BRANCH   3  22
ATOM     22  N   UNL     1       2.279  44.647  55.783  1.00  0.00    -0.367 N 
ATOM     23  H   UNL     1       3.138  44.407  56.272  1.00  0.00     0.162 HD
BRANCH  22  24
ATOM     24  C   UNL     1       1.600  45.777  56.437  1.00  0.00     0.146 C 
BRANCH  24  25
ATOM     25  C   UNL     1       0.197  45.459  56.994  1.00  0.00     0.137 C 
ATOM     26  C   UNL     1      -0.913  45.290  55.963  1.00  0.00     0.036 C 
ATOM     27  O   UNL     1      -0.264  46.434  57.955  1.00  0.00    -0.376 OA
ATOM     28  C   UNL     1      -2.140  45.630  56.772  1.00  0.00     0.031 C 
ATOM     29  C   UNL     1      -1.628  46.752  57.648  1.00  0.00     0.160 C 
ENDBRANCH  24  25
ENDBRANCH  22  24
ENDBRANCH   3  22
TORSDOF 6
ENDMDL
MODEL 20
REMARK VINA RESULT:    -8.748      2.712      6.651
REMARK INTER + INTRA:         -12.526
REMARK INTER:                 -11.725
REMARK INTRA:                  -0.801
REMARK UNBOUND:                -0.710
REMARK SMILES CC(=O)c1cccc(Nc2nc(NC[C@@H]3CCCO3)c3ccccc3n2)c1
REMARK SMILES IDX 10 1 11 2 12 3 20 4 21 5 22 6 23 7 24 8 25 9 26 10 9 11 8 13
REMARK SMILES IDX 4 14 5 15 27 16 6 17 7 18 2 19 1 20 3 21 13 22 14 24 15 25
REMARK SMILES IDX 16 26 19 27 17 28 18 29
REMARK H PARENT 9 12 13 23
ROOT
ATOM      1  C   UNL     1       3.138  42.882  52.257  1.00  0.00     0.229 A 
ATOM      2  N   UNL     1       3.340  44.202  52.203  1.00  0.00    -0.195 NA
ATOM      3  C   UNL     1       4.375  44.669  51.496  1.00  0.00     0.139 A 
ATOM      4  C   UNL     1       5.239  43.810  50.800  1.00  0.00     0.043 A 
ATOM      5  C   UNL     1       6.372  44.216  50.048  1.00  0.00     0.014 A 
ATOM      6  C   UNL     1       7.163  43.279  49.386  1.00  0.00     0.001 A 
ATOM      7  C   UNL     1       6.835  41.933  49.470  1.00  0.00     0.002 A 
ATOM      8  C   UNL     1       5.726  41.535  50.221  1.00  0.00     0.029 A 
ATOM      9  C   UNL     1       4.925  42.451  50.892  1.00  0.00     0.078 A 
ATOM     10  N   UNL     1       3.893  41.996  51.605  1.00  0.00    -0.213 NA
ENDROOT
BRANCH   1  11
ATOM     11  N   UNL     1       2.073  42.496  53.067  1.00  0.00    -0.324 N 
ATOM     12  H   UNL     1       2.158  41.500  53.229  1.00  0.00     0.170 HD
BRANCH  11  13
ATOM     13  C   UNL     1       0.899  43.123  53.494  1.00  0.00     0.042 A 
ATOM     14  C   UNL     1      -0.394  44.552  55.003  1.00  0.00     0.019 A 
ATOM     15  C   UNL     1      -1.558  44.279  54.276  1.00  0.00     0.012 A 
ATOM     16  C   UNL     1       0.821  43.967  54.606  1.00  0.00     0.038 A 
ATOM     17  C   UNL     1      -1.504  43.430  53.174  1.00  0.00     0.003 A 
ATOM     18  C   UNL     1      -0.288  42.858  52.792  1.00  0.00     0.026 A 
BRANCH  14  19
ATOM     19  C   UNL     1      -0.400  45.450  56.198  1.00  0.00     0.159 C 
ATOM     20  C   UNL     1       0.861  45.583  57.013  1.00  0.00     0.093 C 
ATOM     21  O   UNL     1      -1.417  46.066  56.509  1.00  0.00    -0.295 OA
ENDBRANCH  14  19
ENDBRANCH  11  13
ENDBRANCH   1  11
BRANCH   3  22
ATOM     22  N   UNL     1       4.606  46.062  51.459  1.00  0.00    -0.367 N 
ATOM     23  H   UNL     1       3.770  46.515  51.818  1.00  0.00     0.162 HD
BRANCH  22  24
ATOM     24  C   UNL     1       5.810  46.557  52.148  1.00  0.00     0.146 C 
BRANCH  24  25
ATOM     25  C   UNL     1       5.779  46.428  53.685  1.00  0.00     0.137 C 
ATOM     26  C   UNL     1       6.210  45.081  54.254  1.00  0.00     0.036 C 
ATOM     27  O   UNL     1       4.486  46.732  54.253  1.00  0.00    -0.376 OA
ATOM     28  C   UNL     1       5.493  45.064  55.582  1.00  0.00     0.031 C 
ATOM     29  C   UNL     1       4.181  45.728  55.229  1.00  0.00     0.160 C 
ENDBRANCH  24  25
ENDBRANCH  22  24
ENDBRANCH   3  22
TORSDOF 6
ENDMDL
