MODEL 1
REMARK VINA RESULT:    -8.336      0.000      0.000
REMARK INTER + INTRA:         -12.847
REMARK INTER:                 -11.747
REMARK INTRA:                  -1.100
REMARK UNBOUND:                -1.100
REMARK SMILES COCCCNc1nc(Nc2ccc(F)cc2Cl)c2cnn(C)c2n1
REMARK SMILES IDX 5 1 4 2 3 3 2 4 1 5 6 6 7 8 8 9 25 10 9 11 24 12 19 13 22 14
REMARK SMILES IDX 20 15 21 16 23 17 10 18 11 20 12 21 17 22 13 23 16 24 14 25
REMARK SMILES IDX 18 26 15 27
REMARK H PARENT 6 7 10 19
ROOT
ATOM      1  C   UNL     1       4.116  45.577  55.310  1.00  0.00     0.118 C 
ENDROOT
BRANCH   1   2
ATOM      2  C   UNL     1       2.597  45.765  55.267  1.00  0.00     0.050 C 
BRANCH   2   3
ATOM      3  C   UNL     1       2.004  45.699  53.861  1.00  0.00     0.161 C 
BRANCH   3   4
ATOM      4  O   UNL     1       2.373  46.820  53.060  1.00  0.00    -0.385 OA
ATOM      5  C   UNL     1       2.710  46.469  51.725  1.00  0.00     0.194 C 
ENDBRANCH   3   4
ENDBRANCH   2   3
ENDBRANCH   1   2
BRANCH   1   6
ATOM      6  N   UNL     1       4.790  46.836  55.028  1.00  0.00    -0.354 N 
ATOM      7  H   UNL     1       5.108  47.330  55.856  1.00  0.00     0.163 HD
BRANCH   6   8
ATOM      8  C   UNL     1       5.944  46.702  54.258  1.00  0.00     0.226 A 
ATOM      9  N   UNL     1       5.746  46.132  53.056  1.00  0.00    -0.195 NA
ATOM     10  N   UNL     1       7.122  47.122  54.738  1.00  0.00    -0.193 NA
ATOM     11  C   UNL     1       6.780  45.926  52.199  1.00  0.00     0.147 A 
ATOM     12  C   UNL     1       8.133  46.911  53.884  1.00  0.00     0.165 A 
ATOM     13  C   UNL     1       8.046  46.337  52.632  1.00  0.00     0.082 A 
ATOM     14  N   UNL     1       9.454  47.215  54.071  1.00  0.00    -0.250 N 
ATOM     15  C   UNL     1       9.373  46.350  52.150  1.00  0.00     0.149 A 
ATOM     16  N   UNL     1      10.239  46.886  53.018  1.00  0.00    -0.179 NA
ATOM     17  C   UNL     1      10.047  47.825  55.235  1.00  0.00     0.176 C 
BRANCH  11  18
ATOM     18  N   UNL     1       6.596  45.340  50.940  1.00  0.00    -0.338 N 
ATOM     19  H   UNL     1       6.873  45.932  50.164  1.00  0.00     0.168 HD
BRANCH  18  20
ATOM     20  C   UNL     1       6.091  44.093  50.518  1.00  0.00     0.059 A 
ATOM     21  C   UNL     1       4.910  43.532  51.018  1.00  0.00     0.031 A 
ATOM     22  C   UNL     1       6.794  43.358  49.532  1.00  0.00     0.067 A 
ATOM     23  C   UNL     1       4.446  42.294  50.559  1.00  0.00     0.041 A 
ATOM     24  C   UNL     1       6.337  42.123  49.070  1.00  0.00     0.062 A 
ATOM     25  C   UNL     1       5.164  41.603  49.592  1.00  0.00     0.124 A 
ATOM     26  Cl  UNL     1       8.266  43.981  48.861  1.00  0.00    -0.082 Cl
ATOM     27  F   UNL     1       4.716  40.419  49.157  1.00  0.00    -0.207 F 
ENDBRANCH  18  20
ENDBRANCH  11  18
ENDBRANCH   6   8
ENDBRANCH   1   6
TORSDOF 7
ENDMDL
MODEL 2
REMARK VINA RESULT:    -8.301      3.267      5.792
REMARK INTER + INTRA:         -12.797
REMARK INTER:                 -11.643
REMARK INTRA:                  -1.154
REMARK UNBOUND:                -1.100
REMARK SMILES COCCCNc1nc(Nc2ccc(F)cc2Cl)c2cnn(C)c2n1
REMARK SMILES IDX 5 1 4 2 3 3 2 4 1 5 6 6 7 8 8 9 25 10 9 11 24 12 19 13 22 14
REMARK SMILES IDX 20 15 21 16 23 17 10 18 11 20 12 21 17 22 13 23 16 24 14 25
REMARK SMILES IDX 18 26 15 27
REMARK H PARENT 6 7 10 19
ROOT
ATOM      1  C   UNL     1       2.034  43.070  52.477  1.00  0.00     0.118 C 
ENDROOT
BRANCH   1   2
ATOM      2  C   UNL     1       0.978  44.024  53.041  1.00  0.00     0.050 C 
BRANCH   2   3
ATOM      3  C   UNL     1       1.082  45.451  52.505  1.00  0.00     0.161 C 
BRANCH   3   4
ATOM      4  O   UNL     1       2.051  46.228  53.206  1.00  0.00    -0.385 OA
ATOM      5  C   UNL     1       2.762  47.127  52.367  1.00  0.00     0.194 C 
ENDBRANCH   3   4
ENDBRANCH   2   3
ENDBRANCH   1   2
BRANCH   1   6
ATOM      6  N   UNL     1       3.329  43.328  53.090  1.00  0.00    -0.354 N 
ATOM      7  H   UNL     1       3.678  42.563  53.659  1.00  0.00     0.163 HD
BRANCH   6   8
ATOM      8  C   UNL     1       4.355  43.558  52.176  1.00  0.00     0.226 A 
ATOM      9  N   UNL     1       5.043  44.694  52.388  1.00  0.00    -0.195 NA
ATOM     10  N   UNL     1       4.580  42.682  51.187  1.00  0.00    -0.193 NA
ATOM     11  C   UNL     1       6.066  45.057  51.570  1.00  0.00     0.147 A 
ATOM     12  C   UNL     1       5.590  43.053  50.387  1.00  0.00     0.165 A 
ATOM     13  C   UNL     1       6.360  44.192  50.509  1.00  0.00     0.082 A 
ATOM     14  N   UNL     1       6.064  42.389  49.290  1.00  0.00    -0.250 N 
ATOM     15  C   UNL     1       7.273  44.110  49.436  1.00  0.00     0.149 A 
ATOM     16  N   UNL     1       7.104  43.014  48.688  1.00  0.00    -0.179 NA
ATOM     17  C   UNL     1       5.575  41.145  48.750  1.00  0.00     0.176 C 
BRANCH  11  18
ATOM     18  N   UNL     1       6.801  46.232  51.775  1.00  0.00    -0.338 N 
ATOM     19  H   UNL     1       6.516  47.006  51.186  1.00  0.00     0.168 HD
BRANCH  18  20
ATOM     20  C   UNL     1       7.873  46.565  52.627  1.00  0.00     0.059 A 
ATOM     21  C   UNL     1       9.218  46.475  52.246  1.00  0.00     0.031 A 
ATOM     22  C   UNL     1       7.600  47.025  53.939  1.00  0.00     0.067 A 
ATOM     23  C   UNL     1      10.246  46.826  53.128  1.00  0.00     0.041 A 
ATOM     24  C   UNL     1       8.621  47.377  54.823  1.00  0.00     0.062 A 
ATOM     25  C   UNL     1       9.937  47.272  54.405  1.00  0.00     0.124 A 
ATOM     26  Cl  UNL     1       5.963  47.165  54.493  1.00  0.00    -0.082 Cl
ATOM     27  F   UNL     1      10.925  47.606  55.245  1.00  0.00    -0.207 F 
ENDBRANCH  18  20
ENDBRANCH  11  18
ENDBRANCH   6   8
ENDBRANCH   1   6
TORSDOF 7
ENDMDL
MODEL 3
REMARK VINA RESULT:    -8.138      0.998      1.173
REMARK INTER + INTRA:         -12.568
REMARK INTER:                 -11.798
REMARK INTRA:                  -0.770
REMARK UNBOUND:                -1.100
REMARK SMILES COCCCNc1nc(Nc2ccc(F)cc2Cl)c2cnn(C)c2n1
REMARK SMILES IDX 5 1 4 2 3 3 2 4 1 5 6 6 7 8 8 9 25 10 9 11 24 12 19 13 22 14
REMARK SMILES IDX 20 15 21 16 23 17 10 18 11 20 12 21 17 22 13 23 16 24 14 25
REMARK SMILES IDX 18 26 15 27
REMARK H PARENT 6 7 10 19
ROOT
ATOM      1  C   UNL     1       3.450  46.412  54.386  1.00  0.00     0.118 C 
ENDROOT
BRANCH   1   2
ATOM      2  C   UNL     1       2.948  45.310  55.323  1.00  0.00     0.050 C 
BRANCH   2   3
ATOM      3  C   UNL     1       1.708  44.580  54.812  1.00  0.00     0.161 C 
BRANCH   3   4
ATOM      4  O   UNL     1       1.928  43.944  53.555  1.00  0.00    -0.385 OA
ATOM      5  C   UNL     1       1.217  42.722  53.413  1.00  0.00     0.194 C 
ENDBRANCH   3   4
ENDBRANCH   2   3
ENDBRANCH   1   2
BRANCH   1   6
ATOM      6  N   UNL     1       4.614  47.073  54.959  1.00  0.00    -0.354 N 
ATOM      7  H   UNL     1       4.833  46.779  55.906  1.00  0.00     0.163 HD
BRANCH   6   8
ATOM      8  C   UNL     1       5.797  46.847  54.258  1.00  0.00     0.226 A 
ATOM      9  N   UNL     1       5.637  46.189  53.096  1.00  0.00    -0.195 NA
ATOM     10  N   UNL     1       6.964  47.272  54.760  1.00  0.00    -0.193 NA
ATOM     11  C   UNL     1       6.703  45.887  52.310  1.00  0.00     0.147 A 
ATOM     12  C   UNL     1       8.007  46.967  53.975  1.00  0.00     0.165 A 
ATOM     13  C   UNL     1       7.960  46.297  52.769  1.00  0.00     0.082 A 
ATOM     14  N   UNL     1       9.326  47.249  54.202  1.00  0.00    -0.250 N 
ATOM     15  C   UNL     1       9.308  46.235  52.354  1.00  0.00     0.149 A 
ATOM     16  N   UNL     1      10.148  46.816  53.217  1.00  0.00    -0.179 NA
ATOM     17  C   UNL     1       9.883  47.934  55.341  1.00  0.00     0.176 C 
BRANCH  11  18
ATOM     18  N   UNL     1       6.560  45.207  51.093  1.00  0.00    -0.338 N 
ATOM     19  H   UNL     1       6.972  45.687  50.300  1.00  0.00     0.168 HD
BRANCH  18  20
ATOM     20  C   UNL     1       5.948  43.990  50.732  1.00  0.00     0.059 A 
ATOM     21  C   UNL     1       4.747  43.536  51.291  1.00  0.00     0.031 A 
ATOM     22  C   UNL     1       6.556  43.172  49.748  1.00  0.00     0.067 A 
ATOM     23  C   UNL     1       4.175  42.323  50.891  1.00  0.00     0.041 A 
ATOM     24  C   UNL     1       5.991  41.961  49.345  1.00  0.00     0.062 A 
ATOM     25  C   UNL     1       4.802  41.549  49.924  1.00  0.00     0.124 A 
ATOM     26  Cl  UNL     1       8.046  43.659  49.006  1.00  0.00    -0.082 Cl
ATOM     27  F   UNL     1       4.251  40.389  49.546  1.00  0.00    -0.207 F 
ENDBRANCH  18  20
ENDBRANCH  11  18
ENDBRANCH   6   8
ENDBRANCH   1   6
TORSDOF 7
ENDMDL
MODEL 4
REMARK VINA RESULT:    -8.102      3.273      5.760
REMARK INTER + INTRA:         -12.517
REMARK INTER:                 -11.392
REMARK INTRA:                  -1.125
REMARK UNBOUND:                -1.100
REMARK SMILES COCCCNc1nc(Nc2ccc(F)cc2Cl)c2cnn(C)c2n1
REMARK SMILES IDX 5 1 4 2 3 3 2 4 1 5 6 6 7 8 8 9 25 10 9 11 24 12 19 13 22 14
REMARK SMILES IDX 20 15 21 16 23 17 10 18 11 20 12 21 17 22 13 23 16 24 14 25
REMARK SMILES IDX 18 26 15 27
REMARK H PARENT 6 7 10 19
ROOT
ATOM      1  C   UNL     1       2.582  44.596  53.899  1.00  0.00     0.118 C 
ENDROOT
BRANCH   1   2
ATOM      2  C   UNL     1       1.281  44.353  54.669  1.00  0.00     0.050 C 
BRANCH   2   3
ATOM      3  C   UNL     1       0.021  44.718  53.885  1.00  0.00     0.161 C 
BRANCH   3   4
ATOM      4  O   UNL     1       0.311  45.157  52.560  1.00  0.00    -0.385 OA
ATOM      5  C   UNL     1      -0.562  44.607  51.583  1.00  0.00     0.194 C 
ENDBRANCH   3   4
ENDBRANCH   2   3
ENDBRANCH   1   2
BRANCH   1   6
ATOM      6  N   UNL     1       2.891  43.452  53.053  1.00  0.00    -0.354 N 
ATOM      7  H   UNL     1       2.141  43.190  52.421  1.00  0.00     0.163 HD
BRANCH   6   8
ATOM      8  C   UNL     1       3.983  43.648  52.210  1.00  0.00     0.226 A 
ATOM      9  N   UNL     1       4.654  44.794  52.427  1.00  0.00    -0.195 NA
ATOM     10  N   UNL     1       4.281  42.735  51.276  1.00  0.00    -0.193 NA
ATOM     11  C   UNL     1       5.734  45.127  51.674  1.00  0.00     0.147 A 
ATOM     12  C   UNL     1       5.348  43.076  50.540  1.00  0.00     0.165 A 
ATOM     13  C   UNL     1       6.107  44.221  50.674  1.00  0.00     0.082 A 
ATOM     14  N   UNL     1       5.903  42.371  49.508  1.00  0.00    -0.250 N 
ATOM     15  C   UNL     1       7.098  44.100  49.676  1.00  0.00     0.149 A 
ATOM     16  N   UNL     1       6.985  42.974  48.962  1.00  0.00    -0.179 NA
ATOM     17  C   UNL     1       5.456  41.105  48.983  1.00  0.00     0.176 C 
BRANCH  11  18
ATOM     18  N   UNL     1       6.452  46.311  51.887  1.00  0.00    -0.338 N 
ATOM     19  H   UNL     1       6.075  47.117  51.400  1.00  0.00     0.168 HD
BRANCH  18  20
ATOM     20  C   UNL     1       7.609  46.620  52.632  1.00  0.00     0.059 A 
ATOM     21  C   UNL     1       8.905  46.546  52.109  1.00  0.00     0.031 A 
ATOM     22  C   UNL     1       7.475  47.038  53.979  1.00  0.00     0.067 A 
ATOM     23  C   UNL     1      10.020  46.872  52.889  1.00  0.00     0.041 A 
ATOM     24  C   UNL     1       8.583  47.365  54.762  1.00  0.00     0.062 A 
ATOM     25  C   UNL     1       9.848  47.277  54.205  1.00  0.00     0.124 A 
ATOM     26  Cl  UNL     1       5.905  47.156  54.706  1.00  0.00    -0.082 Cl
ATOM     27  F   UNL     1      10.918  47.587  54.947  1.00  0.00    -0.207 F 
ENDBRANCH  18  20
ENDBRANCH  11  18
ENDBRANCH   6   8
ENDBRANCH   1   6
TORSDOF 7
ENDMDL
MODEL 5
REMARK VINA RESULT:    -8.023      2.996      5.595
REMARK INTER + INTRA:         -12.406
REMARK INTER:                 -11.122
REMARK INTRA:                  -1.284
REMARK UNBOUND:                -1.100
REMARK SMILES COCCCNc1nc(Nc2ccc(F)cc2Cl)c2cnn(C)c2n1
REMARK SMILES IDX 5 1 4 2 3 3 2 4 1 5 6 6 7 8 8 9 25 10 9 11 24 12 19 13 22 14
REMARK SMILES IDX 20 15 21 16 23 17 10 18 11 20 12 21 17 22 13 23 16 24 14 25
REMARK SMILES IDX 18 26 15 27
REMARK H PARENT 6 7 10 19
ROOT
ATOM      1  C   UNL     1       2.505  46.412  53.035  1.00  0.00     0.118 C 
ENDROOT
BRANCH   1   2
ATOM      2  C   UNL     1       2.557  45.382  54.167  1.00  0.00     0.050 C 
BRANCH   2   3
ATOM      3  C   UNL     1       3.544  45.734  55.279  1.00  0.00     0.161 C 
BRANCH   3   4
ATOM      4  O   UNL     1       4.877  45.889  54.796  1.00  0.00    -0.385 OA
ATOM      5  C   UNL     1       5.617  44.676  54.793  1.00  0.00     0.194 C 
ENDBRANCH   3   4
ENDBRANCH   2   3
ENDBRANCH   1   2
BRANCH   1   6
ATOM      6  N   UNL     1       2.337  45.746  51.752  1.00  0.00    -0.354 N 
ATOM      7  H   UNL     1       2.129  46.375  50.982  1.00  0.00     0.163 HD
BRANCH   6   8
ATOM      8  C   UNL     1       3.465  45.053  51.319  1.00  0.00     0.226 A 
ATOM      9  N   UNL     1       4.588  45.794  51.274  1.00  0.00    -0.195 NA
ATOM     10  N   UNL     1       3.371  43.760  50.984  1.00  0.00    -0.193 NA
ATOM     11  C   UNL     1       5.765  45.257  50.861  1.00  0.00     0.147 A 
ATOM     12  C   UNL     1       4.539  43.244  50.576  1.00  0.00     0.165 A 
ATOM     13  C   UNL     1       5.746  43.907  50.491  1.00  0.00     0.082 A 
ATOM     14  N   UNL     1       4.779  41.963  50.161  1.00  0.00    -0.250 N 
ATOM     15  C   UNL     1       6.647  42.930  50.018  1.00  0.00     0.149 A 
ATOM     16  N   UNL     1       6.070  41.740  49.817  1.00  0.00    -0.179 NA
ATOM     17  C   UNL     1       3.824  40.888  50.065  1.00  0.00     0.176 C 
BRANCH  11  18
ATOM     18  N   UNL     1       6.948  46.007  50.813  1.00  0.00    -0.338 N 
ATOM     19  H   UNL     1       7.210  46.307  49.880  1.00  0.00     0.168 HD
BRANCH  18  20
ATOM     20  C   UNL     1       7.867  46.427  51.796  1.00  0.00     0.059 A 
ATOM     21  C   UNL     1       7.525  47.269  52.861  1.00  0.00     0.031 A 
ATOM     22  C   UNL     1       9.209  45.979  51.727  1.00  0.00     0.067 A 
ATOM     23  C   UNL     1       8.474  47.650  53.816  1.00  0.00     0.041 A 
ATOM     24  C   UNL     1      10.161  46.355  52.677  1.00  0.00     0.062 A 
ATOM     25  C   UNL     1       9.780  47.190  53.714  1.00  0.00     0.124 A 
ATOM     26  Cl  UNL     1       9.717  44.934  50.440  1.00  0.00    -0.082 Cl
ATOM     27  F   UNL     1      10.684  47.558  54.630  1.00  0.00    -0.207 F 
ENDBRANCH  18  20
ENDBRANCH  11  18
ENDBRANCH   6   8
ENDBRANCH   1   6
TORSDOF 7
ENDMDL
MODEL 6
REMARK VINA RESULT:    -7.988      3.524      6.740
REMARK INTER + INTRA:         -12.356
REMARK INTER:                 -11.160
REMARK INTRA:                  -1.196
REMARK UNBOUND:                -1.100
REMARK SMILES COCCCNc1nc(Nc2ccc(F)cc2Cl)c2cnn(C)c2n1
REMARK SMILES IDX 5 1 4 2 3 3 2 4 1 5 6 6 7 8 8 9 25 10 9 11 24 12 19 13 22 14
REMARK SMILES IDX 20 15 21 16 23 17 10 18 11 20 12 21 17 22 13 23 16 24 14 25
REMARK SMILES IDX 18 26 15 27
REMARK H PARENT 6 7 10 19
ROOT
ATOM      1  C   UNL     1       3.788  41.148  50.030  1.00  0.00     0.118 C 
ENDROOT
BRANCH   1   2
ATOM      2  C   UNL     1       4.714  41.074  48.812  1.00  0.00     0.050 C 
BRANCH   2   3
ATOM      3  C   UNL     1       6.159  41.468  49.108  1.00  0.00     0.161 C 
BRANCH   3   4
ATOM      4  O   UNL     1       6.405  42.854  48.880  1.00  0.00    -0.385 OA
ATOM      5  C   UNL     1       7.717  43.259  49.246  1.00  0.00     0.194 C 
ENDBRANCH   3   4
ENDBRANCH   2   3
ENDBRANCH   1   2
BRANCH   1   6
ATOM      6  N   UNL     1       4.526  41.602  51.200  1.00  0.00    -0.354 N 
ATOM      7  H   UNL     1       5.503  41.813  51.017  1.00  0.00     0.163 HD
BRANCH   6   8
ATOM      8  C   UNL     1       4.031  42.776  51.763  1.00  0.00     0.226 A 
ATOM      9  N   UNL     1       4.848  43.838  51.639  1.00  0.00    -0.195 NA
ATOM     10  N   UNL     1       2.836  42.778  52.368  1.00  0.00    -0.193 NA
ATOM     11  C   UNL     1       4.505  45.049  52.149  1.00  0.00     0.147 A 
ATOM     12  C   UNL     1       2.511  43.978  52.867  1.00  0.00     0.165 A 
ATOM     13  C   UNL     1       3.268  45.130  52.800  1.00  0.00     0.082 A 
ATOM     14  N   UNL     1       1.371  44.312  53.546  1.00  0.00    -0.250 N 
ATOM     15  C   UNL     1       2.486  46.099  53.465  1.00  0.00     0.149 A 
ATOM     16  N   UNL     1       1.327  45.612  53.921  1.00  0.00    -0.179 NA
ATOM     17  C   UNL     1       0.271  43.440  53.877  1.00  0.00     0.176 C 
BRANCH  11  18
ATOM     18  N   UNL     1       5.336  46.171  52.027  1.00  0.00    -0.338 N 
ATOM     19  H   UNL     1       4.885  46.977  51.610  1.00  0.00     0.168 HD
BRANCH  18  20
ATOM     20  C   UNL     1       6.686  46.413  52.353  1.00  0.00     0.059 A 
ATOM     21  C   UNL     1       7.726  46.362  51.417  1.00  0.00     0.031 A 
ATOM     22  C   UNL     1       7.030  46.735  53.689  1.00  0.00     0.067 A 
ATOM     23  C   UNL     1       9.050  46.619  51.791  1.00  0.00     0.041 A 
ATOM     24  C   UNL     1       8.348  46.993  54.068  1.00  0.00     0.062 A 
ATOM     25  C   UNL     1       9.346  46.931  53.110  1.00  0.00     0.124 A 
ATOM     26  Cl  UNL     1       5.803  46.818  54.912  1.00  0.00    -0.082 Cl
ATOM     27  F   UNL     1      10.615  47.176  53.462  1.00  0.00    -0.207 F 
ENDBRANCH  18  20
ENDBRANCH  11  18
ENDBRANCH   6   8
ENDBRANCH   1   6
TORSDOF 7
ENDMDL
MODEL 7
REMARK VINA RESULT:    -7.849      3.156      5.703
REMARK INTER + INTRA:         -12.161
REMARK INTER:                 -11.024
REMARK INTRA:                  -1.137
REMARK UNBOUND:                -1.100
REMARK SMILES COCCCNc1nc(Nc2ccc(F)cc2Cl)c2cnn(C)c2n1
REMARK SMILES IDX 5 1 4 2 3 3 2 4 1 5 6 6 7 8 8 9 25 10 9 11 24 12 19 13 22 14
REMARK SMILES IDX 20 15 21 16 23 17 10 18 11 20 12 21 17 22 13 23 16 24 14 25
REMARK SMILES IDX 18 26 15 27
REMARK H PARENT 6 7 10 19
ROOT
ATOM      1  C   UNL     1       2.101  45.437  53.565  1.00  0.00     0.118 C 
ENDROOT
BRANCH   1   2
ATOM      2  C   UNL     1       0.642  45.108  53.233  1.00  0.00     0.050 C 
BRANCH   2   3
ATOM      3  C   UNL     1       0.036  44.021  54.118  1.00  0.00     0.161 C 
BRANCH   3   4
ATOM      4  O   UNL     1       0.451  42.711  53.734  1.00  0.00    -0.385 OA
ATOM      5  C   UNL     1      -0.237  42.218  52.593  1.00  0.00     0.194 C 
ENDBRANCH   3   4
ENDBRANCH   2   3
ENDBRANCH   1   2
BRANCH   1   6
ATOM      6  N   UNL     1       2.879  44.214  53.692  1.00  0.00    -0.354 N 
ATOM      7  H   UNL     1       2.324  43.364  53.661  1.00  0.00     0.163 HD
BRANCH   6   8
ATOM      8  C   UNL     1       3.821  44.032  52.682  1.00  0.00     0.226 A 
ATOM      9  N   UNL     1       4.750  45.002  52.607  1.00  0.00    -0.195 NA
ATOM     10  N   UNL     1       3.746  42.961  51.881  1.00  0.00    -0.193 NA
ATOM     11  C   UNL     1       5.727  44.967  51.664  1.00  0.00     0.147 A 
ATOM     12  C   UNL     1       4.715  42.939  50.954  1.00  0.00     0.165 A 
ATOM     13  C   UNL     1       5.714  43.876  50.786  1.00  0.00     0.082 A 
ATOM     14  N   UNL     1       4.914  41.994  49.986  1.00  0.00    -0.250 N 
ATOM     15  C   UNL     1       6.463  43.393  49.691  1.00  0.00     0.149 A 
ATOM     16  N   UNL     1       5.987  42.245  49.198  1.00  0.00    -0.179 NA
ATOM     17  C   UNL     1       4.120  40.814  49.748  1.00  0.00     0.176 C 
BRANCH  11  18
ATOM     18  N   UNL     1       6.708  45.962  51.572  1.00  0.00    -0.338 N 
ATOM     19  H   UNL     1       6.688  46.484  50.702  1.00  0.00     0.168 HD
BRANCH  18  20
ATOM     20  C   UNL     1       7.738  46.388  52.436  1.00  0.00     0.059 A 
ATOM     21  C   UNL     1       7.503  47.076  53.633  1.00  0.00     0.031 A 
ATOM     22  C   UNL     1       9.085  46.108  52.100  1.00  0.00     0.067 A 
ATOM     23  C   UNL     1       8.561  47.469  54.461  1.00  0.00     0.041 A 
ATOM     24  C   UNL     1      10.144  46.498  52.921  1.00  0.00     0.062 A 
ATOM     25  C   UNL     1       9.868  47.177  54.096  1.00  0.00     0.124 A 
ATOM     26  Cl  UNL     1       9.464  45.262  50.635  1.00  0.00    -0.082 Cl
ATOM     27  F   UNL     1      10.876  47.556  54.892  1.00  0.00    -0.207 F 
ENDBRANCH  18  20
ENDBRANCH  11  18
ENDBRANCH   6   8
ENDBRANCH   1   6
TORSDOF 7
ENDMDL
MODEL 8
REMARK VINA RESULT:    -7.831      3.473      6.627
REMARK INTER + INTRA:         -12.135
REMARK INTER:                 -11.279
REMARK INTRA:                  -0.857
REMARK UNBOUND:                -1.100
REMARK SMILES COCCCNc1nc(Nc2ccc(F)cc2Cl)c2cnn(C)c2n1
REMARK SMILES IDX 5 1 4 2 3 3 2 4 1 5 6 6 7 8 8 9 25 10 9 11 24 12 19 13 22 14
REMARK SMILES IDX 20 15 21 16 23 17 10 18 11 20 12 21 17 22 13 23 16 24 14 25
REMARK SMILES IDX 18 26 15 27
REMARK H PARENT 6 7 10 19
ROOT
ATOM      1  C   UNL     1       5.524  41.591  50.097  1.00  0.00     0.118 C 
ENDROOT
BRANCH   1   2
ATOM      2  C   UNL     1       5.080  41.132  48.706  1.00  0.00     0.050 C 
BRANCH   2   3
ATOM      3  C   UNL     1       3.757  40.367  48.699  1.00  0.00     0.161 C 
BRANCH   3   4
ATOM      4  O   UNL     1       3.134  40.365  47.416  1.00  0.00    -0.385 OA
ATOM      5  C   UNL     1       3.025  39.066  46.849  1.00  0.00     0.194 C 
ENDBRANCH   3   4
ENDBRANCH   2   3
ENDBRANCH   1   2
BRANCH   1   6
ATOM      6  N   UNL     1       4.417  41.501  51.038  1.00  0.00    -0.354 N 
ATOM      7  H   UNL     1       4.592  40.884  51.825  1.00  0.00     0.163 HD
BRANCH   6   8
ATOM      8  C   UNL     1       4.079  42.714  51.635  1.00  0.00     0.226 A 
ATOM      9  N   UNL     1       4.944  43.714  51.388  1.00  0.00    -0.195 NA
ATOM     10  N   UNL     1       2.972  42.806  52.384  1.00  0.00    -0.193 NA
ATOM     11  C   UNL     1       4.752  44.952  51.913  1.00  0.00     0.147 A 
ATOM     12  C   UNL     1       2.796  44.032  52.897  1.00  0.00     0.165 A 
ATOM     13  C   UNL     1       3.615  45.127  52.712  1.00  0.00     0.082 A 
ATOM     14  N   UNL     1       1.776  44.453  53.706  1.00  0.00    -0.250 N 
ATOM     15  C   UNL     1       2.992  46.156  53.450  1.00  0.00     0.149 A 
ATOM     16  N   UNL     1       1.869  45.758  54.057  1.00  0.00    -0.179 NA
ATOM     17  C   UNL     1       0.670  43.665  54.189  1.00  0.00     0.176 C 
BRANCH  11  18
ATOM     18  N   UNL     1       5.636  46.010  51.666  1.00  0.00    -0.338 N 
ATOM     19  H   UNL     1       5.316  46.660  50.956  1.00  0.00     0.168 HD
BRANCH  18  20
ATOM     20  C   UNL     1       6.897  46.359  52.191  1.00  0.00     0.059 A 
ATOM     21  C   UNL     1       7.064  47.055  53.395  1.00  0.00     0.031 A 
ATOM     22  C   UNL     1       8.069  45.990  51.486  1.00  0.00     0.067 A 
ATOM     23  C   UNL     1       8.339  47.371  53.877  1.00  0.00     0.041 A 
ATOM     24  C   UNL     1       9.343  46.301  51.962  1.00  0.00     0.062 A 
ATOM     25  C   UNL     1       9.464  46.991  53.157  1.00  0.00     0.124 A 
ATOM     26  Cl  UNL     1       7.951  45.127  49.986  1.00  0.00    -0.082 Cl
ATOM     27  F   UNL     1      10.681  47.296  53.623  1.00  0.00    -0.207 F 
ENDBRANCH  18  20
ENDBRANCH  11  18
ENDBRANCH   6   8
ENDBRANCH   1   6
TORSDOF 7
ENDMDL
MODEL 9
REMARK VINA RESULT:    -7.774      3.536      6.560
REMARK INTER + INTRA:         -12.055
REMARK INTER:                 -11.220
REMARK INTRA:                  -0.835
REMARK UNBOUND:                -1.100
REMARK SMILES COCCCNc1nc(Nc2ccc(F)cc2Cl)c2cnn(C)c2n1
REMARK SMILES IDX 5 1 4 2 3 3 2 4 1 5 6 6 7 8 8 9 25 10 9 11 24 12 19 13 22 14
REMARK SMILES IDX 20 15 21 16 23 17 10 18 11 20 12 21 17 22 13 23 16 24 14 25
REMARK SMILES IDX 18 26 15 27
REMARK H PARENT 6 7 10 19
ROOT
ATOM      1  C   UNL     1       5.504  41.473  49.925  1.00  0.00     0.118 C 
ENDROOT
BRANCH   1   2
ATOM      2  C   UNL     1       4.859  41.085  48.592  1.00  0.00     0.050 C 
BRANCH   2   3
ATOM      3  C   UNL     1       3.538  40.331  48.740  1.00  0.00     0.161 C 
BRANCH   3   4
ATOM      4  O   UNL     1       3.007  39.910  47.485  1.00  0.00    -0.385 OA
ATOM      5  C   UNL     1       3.617  40.553  46.374  1.00  0.00     0.194 C 
ENDBRANCH   3   4
ENDBRANCH   2   3
ENDBRANCH   1   2
BRANCH   1   6
ATOM      6  N   UNL     1       4.480  41.748  50.923  1.00  0.00    -0.354 N 
ATOM      7  H   UNL     1       4.654  41.315  51.825  1.00  0.00     0.163 HD
BRANCH   6   8
ATOM      8  C   UNL     1       4.331  43.100  51.225  1.00  0.00     0.226 A 
ATOM      9  N   UNL     1       5.450  43.830  51.069  1.00  0.00    -0.195 NA
ATOM     10  N   UNL     1       3.146  43.567  51.639  1.00  0.00    -0.193 NA
ATOM     11  C   UNL     1       5.461  45.162  51.338  1.00  0.00     0.147 A 
ATOM     12  C   UNL     1       3.171  44.882  51.901  1.00  0.00     0.165 A 
ATOM     13  C   UNL     1       4.257  45.725  51.778  1.00  0.00     0.082 A 
ATOM     14  N   UNL     1       2.136  45.658  52.345  1.00  0.00    -0.250 N 
ATOM     15  C   UNL     1       3.762  46.988  52.168  1.00  0.00     0.149 A 
ATOM     16  N   UNL     1       2.470  46.960  52.512  1.00  0.00    -0.179 NA
ATOM     17  C   UNL     1       0.791  45.228  52.633  1.00  0.00     0.176 C 
BRANCH  11  18
ATOM     18  N   UNL     1       6.612  45.944  51.176  1.00  0.00    -0.338 N 
ATOM     19  H   UNL     1       6.753  46.284  50.231  1.00  0.00     0.168 HD
BRANCH  18  20
ATOM     20  C   UNL     1       7.635  46.352  52.057  1.00  0.00     0.059 A 
ATOM     21  C   UNL     1       7.402  47.117  53.206  1.00  0.00     0.031 A 
ATOM     22  C   UNL     1       8.973  45.971  51.790  1.00  0.00     0.067 A 
ATOM     23  C   UNL     1       8.452  47.489  54.053  1.00  0.00     0.041 A 
ATOM     24  C   UNL     1      10.025  46.339  52.631  1.00  0.00     0.062 A 
ATOM     25  C   UNL     1       9.750  47.097  53.756  1.00  0.00     0.124 A 
ATOM     26  Cl  UNL     1       9.349  45.024  50.387  1.00  0.00    -0.082 Cl
ATOM     27  F   UNL     1      10.751  47.456  54.570  1.00  0.00    -0.207 F 
ENDBRANCH  18  20
ENDBRANCH  11  18
ENDBRANCH   6   8
ENDBRANCH   1   6
TORSDOF 7
ENDMDL
MODEL 10
REMARK VINA RESULT:    -7.769      3.155      6.181
REMARK INTER + INTRA:         -12.048
REMARK INTER:                 -11.439
REMARK INTRA:                  -0.609
REMARK UNBOUND:                -1.100
REMARK SMILES COCCCNc1nc(Nc2ccc(F)cc2Cl)c2cnn(C)c2n1
REMARK SMILES IDX 5 1 4 2 3 3 2 4 1 5 6 6 7 8 8 9 25 10 9 11 24 12 19 13 22 14
REMARK SMILES IDX 20 15 21 16 23 17 10 18 11 20 12 21 17 22 13 23 16 24 14 25
REMARK SMILES IDX 18 26 15 27
REMARK H PARENT 6 7 10 19
ROOT
ATOM      1  C   UNL     1       9.819  46.812  52.061  1.00  0.00     0.118 C 
ENDROOT
BRANCH   1   2
ATOM      2  C   UNL     1       9.992  46.829  53.582  1.00  0.00     0.050 C 
BRANCH   2   3
ATOM      3  C   UNL     1       9.178  47.912  54.286  1.00  0.00     0.161 C 
BRANCH   3   4
ATOM      4  O   UNL     1       9.609  48.135  55.627  1.00  0.00    -0.385 OA
ATOM      5  C   UNL     1      10.843  47.499  55.932  1.00  0.00     0.194 C 
ENDBRANCH   3   4
ENDBRANCH   2   3
ENDBRANCH   1   2
BRANCH   1   6
ATOM      6  N   UNL     1       8.589  47.493  51.683  1.00  0.00    -0.354 N 
ATOM      7  H   UNL     1       8.631  47.954  50.779  1.00  0.00     0.163 HD
BRANCH   6   8
ATOM      8  C   UNL     1       7.484  46.652  51.577  1.00  0.00     0.226 A 
ATOM      9  N   UNL     1       6.400  47.070  52.255  1.00  0.00    -0.195 NA
ATOM     10  N   UNL     1       7.563  45.531  50.847  1.00  0.00    -0.193 NA
ATOM     11  C   UNL     1       5.251  46.346  52.254  1.00  0.00     0.147 A 
ATOM     12  C   UNL     1       6.423  44.826  50.856  1.00  0.00     0.165 A 
ATOM     13  C   UNL     1       5.256  45.158  51.514  1.00  0.00     0.082 A 
ATOM     14  N   UNL     1       6.177  43.640  50.222  1.00  0.00    -0.250 N 
ATOM     15  C   UNL     1       4.370  44.104  51.204  1.00  0.00     0.149 A 
ATOM     16  N   UNL     1       4.920  43.175  50.414  1.00  0.00    -0.179 NA
ATOM     17  C   UNL     1       7.096  42.884  49.409  1.00  0.00     0.176 C 
BRANCH  11  18
ATOM     18  N   UNL     1       4.108  46.765  52.948  1.00  0.00    -0.338 N 
ATOM     19  H   UNL     1       4.075  47.763  53.129  1.00  0.00     0.168 HD
BRANCH  18  20
ATOM     20  C   UNL     1       2.988  46.083  53.467  1.00  0.00     0.059 A 
ATOM     21  C   UNL     1       1.746  46.038  52.820  1.00  0.00     0.031 A 
ATOM     22  C   UNL     1       3.104  45.395  54.699  1.00  0.00     0.067 A 
ATOM     23  C   UNL     1       0.667  45.340  53.373  1.00  0.00     0.041 A 
ATOM     24  C   UNL     1       2.031  44.697  55.256  1.00  0.00     0.062 A 
ATOM     25  C   UNL     1       0.821  44.678  54.584  1.00  0.00     0.124 A 
ATOM     26  Cl  UNL     1       4.605  45.402  55.567  1.00  0.00    -0.082 Cl
ATOM     27  F   UNL     1      -0.215  44.012  55.108  1.00  0.00    -0.207 F 
ENDBRANCH  18  20
ENDBRANCH  11  18
ENDBRANCH   6   8
ENDBRANCH   1   6
TORSDOF 7
ENDMDL
MODEL 11
REMARK VINA RESULT:    -7.714      3.736      6.852
REMARK INTER + INTRA:         -11.971
REMARK INTER:                 -11.364
REMARK INTRA:                  -0.606
REMARK UNBOUND:                -1.100
REMARK SMILES COCCCNc1nc(Nc2ccc(F)cc2Cl)c2cnn(C)c2n1
REMARK SMILES IDX 5 1 4 2 3 3 2 4 1 5 6 6 7 8 8 9 25 10 9 11 24 12 19 13 22 14
REMARK SMILES IDX 20 15 21 16 23 17 10 18 11 20 12 21 17 22 13 23 16 24 14 25
REMARK SMILES IDX 18 26 15 27
REMARK H PARENT 6 7 10 19
ROOT
ATOM      1  C   UNL     1       5.775  41.570  49.928  1.00  0.00     0.118 C 
ENDROOT
BRANCH   1   2
ATOM      2  C   UNL     1       5.097  41.188  48.609  1.00  0.00     0.050 C 
BRANCH   2   3
ATOM      3  C   UNL     1       3.751  40.488  48.785  1.00  0.00     0.161 C 
BRANCH   3   4
ATOM      4  O   UNL     1       3.066  40.302  47.548  1.00  0.00    -0.385 OA
ATOM      5  C   UNL     1       3.031  38.946  47.125  1.00  0.00     0.194 C 
ENDBRANCH   3   4
ENDBRANCH   2   3
ENDBRANCH   1   2
BRANCH   1   6
ATOM      6  N   UNL     1       4.786  41.695  50.988  1.00  0.00    -0.354 N 
ATOM      7  H   UNL     1       5.105  41.363  51.894  1.00  0.00     0.163 HD
BRANCH   6   8
ATOM      8  C   UNL     1       4.384  43.005  51.237  1.00  0.00     0.226 A 
ATOM      9  N   UNL     1       5.371  43.915  51.151  1.00  0.00    -0.195 NA
ATOM     10  N   UNL     1       3.105  43.268  51.539  1.00  0.00    -0.193 NA
ATOM     11  C   UNL     1       5.132  45.233  51.380  1.00  0.00     0.147 A 
ATOM     12  C   UNL     1       2.883  44.571  51.763  1.00  0.00     0.165 A 
ATOM     13  C   UNL     1       3.816  45.586  51.704  1.00  0.00     0.082 A 
ATOM     14  N   UNL     1       1.697  45.164  52.098  1.00  0.00    -0.250 N 
ATOM     15  C   UNL     1       3.082  46.751  52.015  1.00  0.00     0.149 A 
ATOM     16  N   UNL     1       1.789  46.506  52.253  1.00  0.00    -0.179 NA
ATOM     17  C   UNL     1       0.425  44.513  52.289  1.00  0.00     0.176 C 
BRANCH  11  18
ATOM     18  N   UNL     1       6.142  46.199  51.289  1.00  0.00    -0.338 N 
ATOM     19  H   UNL     1       5.998  46.882  50.554  1.00  0.00     0.168 HD
BRANCH  18  20
ATOM     20  C   UNL     1       7.338  46.417  52.004  1.00  0.00     0.059 A 
ATOM     21  C   UNL     1       8.611  46.211  51.458  1.00  0.00     0.031 A 
ATOM     22  C   UNL     1       7.272  46.876  53.342  1.00  0.00     0.067 A 
ATOM     23  C   UNL     1       9.768  46.450  52.207  1.00  0.00     0.041 A 
ATOM     24  C   UNL     1       8.422  47.117  54.096  1.00  0.00     0.062 A 
ATOM     25  C   UNL     1       9.661  46.900  53.516  1.00  0.00     0.124 A 
ATOM     26  Cl  UNL     1       5.736  47.155  54.096  1.00  0.00    -0.082 Cl
ATOM     27  F   UNL     1      10.772  47.127  54.229  1.00  0.00    -0.207 F 
ENDBRANCH  18  20
ENDBRANCH  11  18
ENDBRANCH   6   8
ENDBRANCH   1   6
TORSDOF 7
ENDMDL
MODEL 12
REMARK VINA RESULT:    -7.697      3.165      5.854
REMARK INTER + INTRA:         -11.946
REMARK INTER:                 -11.354
REMARK INTRA:                  -0.592
REMARK UNBOUND:                -1.100
REMARK SMILES COCCCNc1nc(Nc2ccc(F)cc2Cl)c2cnn(C)c2n1
REMARK SMILES IDX 5 1 4 2 3 3 2 4 1 5 6 6 7 8 8 9 25 10 9 11 24 12 19 13 22 14
REMARK SMILES IDX 20 15 21 16 23 17 10 18 11 20 12 21 17 22 13 23 16 24 14 25
REMARK SMILES IDX 18 26 15 27
REMARK H PARENT 6 7 10 19
ROOT
ATOM      1  C   UNL     1       5.566  45.446  55.302  1.00  0.00     0.118 C 
ENDROOT
BRANCH   1   2
ATOM      2  C   UNL     1       6.039  46.822  54.824  1.00  0.00     0.050 C 
BRANCH   2   3
ATOM      3  C   UNL     1       7.442  46.818  54.219  1.00  0.00     0.161 C 
BRANCH   3   4
ATOM      4  O   UNL     1       8.349  47.652  54.939  1.00  0.00    -0.385 OA
ATOM      5  C   UNL     1       9.702  47.487  54.536  1.00  0.00     0.194 C 
ENDBRANCH   3   4
ENDBRANCH   2   3
ENDBRANCH   1   2
BRANCH   1   6
ATOM      6  N   UNL     1       4.159  45.495  55.672  1.00  0.00    -0.354 N 
ATOM      7  H   UNL     1       3.791  46.436  55.778  1.00  0.00     0.163 HD
BRANCH   6   8
ATOM      8  C   UNL     1       3.306  44.907  54.741  1.00  0.00     0.226 A 
ATOM      9  N   UNL     1       3.896  44.579  53.577  1.00  0.00    -0.195 NA
ATOM     10  N   UNL     1       2.014  44.719  55.041  1.00  0.00    -0.193 NA
ATOM     11  C   UNL     1       3.187  44.008  52.569  1.00  0.00     0.147 A 
ATOM     12  C   UNL     1       1.327  44.156  54.037  1.00  0.00     0.165 A 
ATOM     13  C   UNL     1       1.826  43.781  52.806  1.00  0.00     0.082 A 
ATOM     14  N   UNL     1      -0.004  43.840  54.019  1.00  0.00    -0.250 N 
ATOM     15  C   UNL     1       0.711  43.245  52.127  1.00  0.00     0.149 A 
ATOM     16  N   UNL     1      -0.409  43.272  52.858  1.00  0.00    -0.179 NA
ATOM     17  C   UNL     1      -0.960  44.049  55.077  1.00  0.00     0.176 C 
BRANCH  11  18
ATOM     18  N   UNL     1       3.782  43.652  51.351  1.00  0.00    -0.338 N 
ATOM     19  H   UNL     1       3.171  43.133  50.728  1.00  0.00     0.168 HD
BRANCH  18  20
ATOM     20  C   UNL     1       5.067  43.853  50.807  1.00  0.00     0.059 A 
ATOM     21  C   UNL     1       5.754  45.071  50.885  1.00  0.00     0.031 A 
ATOM     22  C   UNL     1       5.718  42.780  50.151  1.00  0.00     0.067 A 
ATOM     23  C   UNL     1       7.033  45.216  50.336  1.00  0.00     0.041 A 
ATOM     24  C   UNL     1       6.993  42.919  49.601  1.00  0.00     0.062 A 
ATOM     25  C   UNL     1       7.638  44.141  49.700  1.00  0.00     0.124 A 
ATOM     26  Cl  UNL     1       4.936  41.239  50.008  1.00  0.00    -0.082 Cl
ATOM     27  F   UNL     1       8.861  44.286  49.176  1.00  0.00    -0.207 F 
ENDBRANCH  18  20
ENDBRANCH  11  18
ENDBRANCH   6   8
ENDBRANCH   1   6
TORSDOF 7
ENDMDL
MODEL 13
REMARK VINA RESULT:    -7.576      1.355      1.677
REMARK INTER + INTRA:         -11.776
REMARK INTER:                 -10.989
REMARK INTRA:                  -0.787
REMARK UNBOUND:                -1.100
REMARK SMILES COCCCNc1nc(Nc2ccc(F)cc2Cl)c2cnn(C)c2n1
REMARK SMILES IDX 5 1 4 2 3 3 2 4 1 5 6 6 7 8 8 9 25 10 9 11 24 12 19 13 22 14
REMARK SMILES IDX 20 15 21 16 23 17 10 18 11 20 12 21 17 22 13 23 16 24 14 25
REMARK SMILES IDX 18 26 15 27
REMARK H PARENT 6 7 10 19
ROOT
ATOM      1  C   UNL     1       3.690  46.661  54.692  1.00  0.00     0.118 C 
ENDROOT
BRANCH   1   2
ATOM      2  C   UNL     1       3.281  45.321  55.312  1.00  0.00     0.050 C 
BRANCH   2   3
ATOM      3  C   UNL     1       1.929  44.802  54.829  1.00  0.00     0.161 C 
BRANCH   3   4
ATOM      4  O   UNL     1       1.235  45.753  54.023  1.00  0.00    -0.385 OA
ATOM      5  C   UNL     1       0.714  45.196  52.823  1.00  0.00     0.194 C 
ENDBRANCH   3   4
ENDBRANCH   2   3
ENDBRANCH   1   2
BRANCH   1   6
ATOM      6  N   UNL     1       4.947  47.121  55.263  1.00  0.00    -0.354 N 
ATOM      7  H   UNL     1       5.210  46.647  56.122  1.00  0.00     0.163 HD
BRANCH   6   8
ATOM      8  C   UNL     1       6.049  46.937  54.431  1.00  0.00     0.226 A 
ATOM      9  N   UNL     1       5.747  46.490  53.199  1.00  0.00    -0.195 NA
ATOM     10  N   UNL     1       7.282  47.198  54.886  1.00  0.00    -0.193 NA
ATOM     11  C   UNL     1       6.719  46.253  52.281  1.00  0.00     0.147 A 
ATOM     12  C   UNL     1       8.232  46.958  53.970  1.00  0.00     0.165 A 
ATOM     13  C   UNL     1       8.038  46.499  52.683  1.00  0.00     0.082 A 
ATOM     14  N   UNL     1       9.583  47.114  54.118  1.00  0.00    -0.250 N 
ATOM     15  C   UNL     1       9.339  46.420  52.142  1.00  0.00     0.149 A 
ATOM     16  N   UNL     1      10.288  46.795  53.006  1.00  0.00    -0.179 NA
ATOM     17  C   UNL     1      10.281  47.565  55.296  1.00  0.00     0.176 C 
BRANCH  11  18
ATOM     18  N   UNL     1       6.428  45.793  50.990  1.00  0.00    -0.338 N 
ATOM     19  H   UNL     1       6.227  46.530  50.324  1.00  0.00     0.168 HD
BRANCH  18  20
ATOM     20  C   UNL     1       6.340  44.507  50.419  1.00  0.00     0.059 A 
ATOM     21  C   UNL     1       7.304  43.984  49.548  1.00  0.00     0.031 A 
ATOM     22  C   UNL     1       5.234  43.681  50.736  1.00  0.00     0.067 A 
ATOM     23  C   UNL     1       7.174  42.697  49.014  1.00  0.00     0.041 A 
ATOM     24  C   UNL     1       5.099  42.396  50.207  1.00  0.00     0.062 A 
ATOM     25  C   UNL     1       6.075  41.918  49.349  1.00  0.00     0.124 A 
ATOM     26  Cl  UNL     1       3.994  44.252  51.806  1.00  0.00    -0.082 Cl
ATOM     27  F   UNL     1       5.956  40.687  48.835  1.00  0.00    -0.207 F 
ENDBRANCH  18  20
ENDBRANCH  11  18
ENDBRANCH   6   8
ENDBRANCH   1   6
TORSDOF 7
ENDMDL
MODEL 14
REMARK VINA RESULT:    -7.496      3.201      6.075
REMARK INTER + INTRA:         -11.663
REMARK INTER:                 -11.023
REMARK INTRA:                  -0.640
REMARK UNBOUND:                -1.100
REMARK SMILES COCCCNc1nc(Nc2ccc(F)cc2Cl)c2cnn(C)c2n1
REMARK SMILES IDX 5 1 4 2 3 3 2 4 1 5 6 6 7 8 8 9 25 10 9 11 24 12 19 13 22 14
REMARK SMILES IDX 20 15 21 16 23 17 10 18 11 20 12 21 17 22 13 23 16 24 14 25
REMARK SMILES IDX 18 26 15 27
REMARK H PARENT 6 7 10 19
ROOT
ATOM      1  C   UNL     1       4.967  45.597  55.333  1.00  0.00     0.118 C 
ENDROOT
BRANCH   1   2
ATOM      2  C   UNL     1       5.574  46.831  54.661  1.00  0.00     0.050 C 
BRANCH   2   3
ATOM      3  C   UNL     1       7.023  46.643  54.215  1.00  0.00     0.161 C 
BRANCH   3   4
ATOM      4  O   UNL     1       7.925  47.499  54.914  1.00  0.00    -0.385 OA
ATOM      5  C   UNL     1       9.135  47.736  54.207  1.00  0.00     0.194 C 
ENDBRANCH   3   4
ENDBRANCH   2   3
ENDBRANCH   1   2
BRANCH   1   6
ATOM      6  N   UNL     1       3.602  45.872  55.758  1.00  0.00    -0.354 N 
ATOM      7  H   UNL     1       3.328  46.845  55.667  1.00  0.00     0.163 HD
BRANCH   6   8
ATOM      8  C   UNL     1       2.632  45.184  55.031  1.00  0.00     0.226 A 
ATOM      9  N   UNL     1       3.036  44.773  53.816  1.00  0.00    -0.195 NA
ATOM     10  N   UNL     1       1.415  44.988  55.557  1.00  0.00    -0.193 NA
ATOM     11  C   UNL     1       2.195  44.100  52.988  1.00  0.00     0.147 A 
ATOM     12  C   UNL     1       0.595  44.324  54.730  1.00  0.00     0.165 A 
ATOM     13  C   UNL     1       0.901  43.858  53.467  1.00  0.00     0.082 A 
ATOM     14  N   UNL     1      -0.706  43.973  54.959  1.00  0.00    -0.250 N 
ATOM     15  C   UNL     1      -0.288  43.237  53.028  1.00  0.00     0.149 A 
ATOM     16  N   UNL     1      -1.273  43.297  53.930  1.00  0.00    -0.179 NA
ATOM     17  C   UNL     1      -1.484  44.247  56.141  1.00  0.00     0.176 C 
BRANCH  11  18
ATOM     18  N   UNL     1       2.595  43.657  51.721  1.00  0.00    -0.338 N 
ATOM     19  H   UNL     1       1.839  43.588  51.048  1.00  0.00     0.168 HD
BRANCH  18  20
ATOM     20  C   UNL     1       3.839  43.271  51.180  1.00  0.00     0.059 A 
ATOM     21  C   UNL     1       4.221  41.935  51.005  1.00  0.00     0.031 A 
ATOM     22  C   UNL     1       4.760  44.269  50.777  1.00  0.00     0.067 A 
ATOM     23  C   UNL     1       5.465  41.605  50.456  1.00  0.00     0.041 A 
ATOM     24  C   UNL     1       6.002  43.945  50.228  1.00  0.00     0.062 A 
ATOM     25  C   UNL     1       6.341  42.612  50.074  1.00  0.00     0.124 A 
ATOM     26  Cl  UNL     1       4.366  45.948  50.960  1.00  0.00    -0.082 Cl
ATOM     27  F   UNL     1       7.529  42.289  49.549  1.00  0.00    -0.207 F 
ENDBRANCH  18  20
ENDBRANCH  11  18
ENDBRANCH   6   8
ENDBRANCH   1   6
TORSDOF 7
ENDMDL
MODEL 15
REMARK VINA RESULT:    -7.400      3.112      5.424
REMARK INTER + INTRA:         -11.527
REMARK INTER:                 -10.447
REMARK INTRA:                  -1.080
REMARK UNBOUND:                -1.100
REMARK SMILES COCCCNc1nc(Nc2ccc(F)cc2Cl)c2cnn(C)c2n1
REMARK SMILES IDX 5 1 4 2 3 3 2 4 1 5 6 6 7 8 8 9 25 10 9 11 24 12 19 13 22 14
REMARK SMILES IDX 20 15 21 16 23 17 10 18 11 20 12 21 17 22 13 23 16 24 14 25
REMARK SMILES IDX 18 26 15 27
REMARK H PARENT 6 7 10 19
ROOT
ATOM      1  C   UNL     1       6.531  41.942  49.759  1.00  0.00     0.118 C 
ENDROOT
BRANCH   1   2
ATOM      2  C   UNL     1       5.377  41.234  49.044  1.00  0.00     0.050 C 
BRANCH   2   3
ATOM      3  C   UNL     1       4.113  41.098  49.891  1.00  0.00     0.161 C 
BRANCH   3   4
ATOM      4  O   UNL     1       4.375  41.228  51.287  1.00  0.00    -0.385 OA
ATOM      5  C   UNL     1       3.633  42.273  51.902  1.00  0.00     0.194 C 
ENDBRANCH   3   4
ENDBRANCH   2   3
ENDBRANCH   1   2
BRANCH   1   6
ATOM      6  N   UNL     1       6.804  43.226  49.130  1.00  0.00    -0.354 N 
ATOM      7  H   UNL     1       6.092  43.524  48.469  1.00  0.00     0.163 HD
BRANCH   6   8
ATOM      8  C   UNL     1       6.892  44.290  50.026  1.00  0.00     0.226 A 
ATOM      9  N   UNL     1       5.705  44.739  50.472  1.00  0.00    -0.195 NA
ATOM     10  N   UNL     1       8.090  44.781  50.368  1.00  0.00    -0.193 NA
ATOM     11  C   UNL     1       5.631  45.780  51.342  1.00  0.00     0.147 A 
ATOM     12  C   UNL     1       8.003  45.808  51.225  1.00  0.00     0.165 A 
ATOM     13  C   UNL     1       6.845  46.350  51.745  1.00  0.00     0.082 A 
ATOM     14  N   UNL     1       9.034  46.531  51.759  1.00  0.00    -0.250 N 
ATOM     15  C   UNL     1       7.295  47.391  52.586  1.00  0.00     0.149 A 
ATOM     16  N   UNL     1       8.627  47.508  52.605  1.00  0.00    -0.179 NA
ATOM     17  C   UNL     1      10.442  46.349  51.511  1.00  0.00     0.176 C 
BRANCH  11  18
ATOM     18  N   UNL     1       4.407  46.261  51.825  1.00  0.00    -0.338 N 
ATOM     19  H   UNL     1       3.962  46.942  51.219  1.00  0.00     0.168 HD
BRANCH  18  20
ATOM     20  C   UNL     1       3.661  46.005  52.993  1.00  0.00     0.059 A 
ATOM     21  C   UNL     1       4.163  46.200  54.286  1.00  0.00     0.031 A 
ATOM     22  C   UNL     1       2.330  45.535  52.877  1.00  0.00     0.067 A 
ATOM     23  C   UNL     1       3.378  45.939  55.414  1.00  0.00     0.041 A 
ATOM     24  C   UNL     1       1.542  45.272  53.999  1.00  0.00     0.062 A 
ATOM     25  C   UNL     1       2.078  45.478  55.259  1.00  0.00     0.124 A 
ATOM     26  Cl  UNL     1       1.631  45.265  51.313  1.00  0.00    -0.082 Cl
ATOM     27  F   UNL     1       1.331  45.230  56.342  1.00  0.00    -0.207 F 
ENDBRANCH  18  20
ENDBRANCH  11  18
ENDBRANCH   6   8
ENDBRANCH   1   6
TORSDOF 7
ENDMDL
MODEL 16
REMARK VINA RESULT:    -7.356      2.874      4.908
REMARK INTER + INTRA:         -11.466
REMARK INTER:                 -10.517
REMARK INTRA:                  -0.949
REMARK UNBOUND:                -1.100
REMARK SMILES COCCCNc1nc(Nc2ccc(F)cc2Cl)c2cnn(C)c2n1
REMARK SMILES IDX 5 1 4 2 3 3 2 4 1 5 6 6 7 8 8 9 25 10 9 11 24 12 19 13 22 14
REMARK SMILES IDX 20 15 21 16 23 17 10 18 11 20 12 21 17 22 13 23 16 24 14 25
REMARK SMILES IDX 18 26 15 27
REMARK H PARENT 6 7 10 19
ROOT
ATOM      1  C   UNL     1       8.039  43.766  49.535  1.00  0.00     0.118 C 
ENDROOT
BRANCH   1   2
ATOM      2  C   UNL     1       6.862  42.979  48.952  1.00  0.00     0.050 C 
BRANCH   2   3
ATOM      3  C   UNL     1       5.964  42.335  50.006  1.00  0.00     0.161 C 
BRANCH   3   4
ATOM      4  O   UNL     1       5.202  41.249  49.485  1.00  0.00    -0.385 OA
ATOM      5  C   UNL     1       3.930  41.108  50.103  1.00  0.00     0.194 C 
ENDBRANCH   3   4
ENDBRANCH   2   3
ENDBRANCH   1   2
BRANCH   1   6
ATOM      6  N   UNL     1       7.740  45.190  49.548  1.00  0.00    -0.354 N 
ATOM      7  H   UNL     1       6.976  45.458  48.935  1.00  0.00     0.163 HD
BRANCH   6   8
ATOM      8  C   UNL     1       7.352  45.678  50.795  1.00  0.00     0.226 A 
ATOM      9  N   UNL     1       6.021  45.716  50.986  1.00  0.00    -0.195 NA
ATOM     10  N   UNL     1       8.279  46.065  51.681  1.00  0.00    -0.193 NA
ATOM     11  C   UNL     1       5.493  46.179  52.149  1.00  0.00     0.147 A 
ATOM     12  C   UNL     1       7.745  46.520  52.823  1.00  0.00     0.165 A 
ATOM     13  C   UNL     1       6.401  46.605  53.126  1.00  0.00     0.082 A 
ATOM     14  N   UNL     1       8.412  46.995  53.918  1.00  0.00    -0.250 N 
ATOM     15  C   UNL     1       6.373  47.140  54.432  1.00  0.00     0.149 A 
ATOM     16  N   UNL     1       7.592  47.378  54.926  1.00  0.00    -0.179 NA
ATOM     17  C   UNL     1       9.839  47.115  54.080  1.00  0.00     0.176 C 
BRANCH  11  18
ATOM     18  N   UNL     1       4.111  46.222  52.373  1.00  0.00    -0.338 N 
ATOM     19  H   UNL     1       3.759  47.143  52.610  1.00  0.00     0.168 HD
BRANCH  18  20
ATOM     20  C   UNL     1       3.097  45.242  52.353  1.00  0.00     0.059 A 
ATOM     21  C   UNL     1       2.521  44.755  51.173  1.00  0.00     0.031 A 
ATOM     22  C   UNL     1       2.628  44.703  53.576  1.00  0.00     0.067 A 
ATOM     23  C   UNL     1       1.522  43.775  51.207  1.00  0.00     0.041 A 
ATOM     24  C   UNL     1       1.633  43.726  53.616  1.00  0.00     0.062 A 
ATOM     25  C   UNL     1       1.089  43.272  52.426  1.00  0.00     0.124 A 
ATOM     26  Cl  UNL     1       3.287  45.252  55.083  1.00  0.00    -0.082 Cl
ATOM     27  F   UNL     1       0.133  42.335  52.452  1.00  0.00    -0.207 F 
ENDBRANCH  18  20
ENDBRANCH  11  18
ENDBRANCH   6   8
ENDBRANCH   1   6
TORSDOF 7
ENDMDL
MODEL 17
REMARK VINA RESULT:    -7.353      3.398      6.511
REMARK INTER + INTRA:         -11.461
REMARK INTER:                 -10.221
REMARK INTRA:                  -1.240
REMARK UNBOUND:                -1.100
REMARK SMILES COCCCNc1nc(Nc2ccc(F)cc2Cl)c2cnn(C)c2n1
REMARK SMILES IDX 5 1 4 2 3 3 2 4 1 5 6 6 7 8 8 9 25 10 9 11 24 12 19 13 22 14
REMARK SMILES IDX 20 15 21 16 23 17 10 18 11 20 12 21 17 22 13 23 16 24 14 25
REMARK SMILES IDX 18 26 15 27
REMARK H PARENT 6 7 10 19
ROOT
ATOM      1  C   UNL     1       8.679  46.047  51.275  1.00  0.00     0.118 C 
ENDROOT
BRANCH   1   2
ATOM      2  C   UNL     1       9.557  47.060  52.015  1.00  0.00     0.050 C 
BRANCH   2   3
ATOM      3  C   UNL     1       9.191  47.238  53.487  1.00  0.00     0.161 C 
BRANCH   3   4
ATOM      4  O   UNL     1       7.843  47.665  53.666  1.00  0.00    -0.385 OA
ATOM      5  C   UNL     1       7.108  46.842  54.563  1.00  0.00     0.194 C 
ENDBRANCH   3   4
ENDBRANCH   2   3
ENDBRANCH   1   2
BRANCH   1   6
ATOM      6  N   UNL     1       7.355  46.603  51.037  1.00  0.00    -0.354 N 
ATOM      7  H   UNL     1       7.244  47.030  50.122  1.00  0.00     0.163 HD
BRANCH   6   8
ATOM      8  C   UNL     1       6.327  45.665  51.092  1.00  0.00     0.226 A 
ATOM      9  N   UNL     1       5.166  46.141  51.578  1.00  0.00    -0.195 NA
ATOM     10  N   UNL     1       6.544  44.407  50.687  1.00  0.00    -0.193 NA
ATOM     11  C   UNL     1       4.077  45.340  51.703  1.00  0.00     0.147 A 
ATOM     12  C   UNL     1       5.462  43.627  50.816  1.00  0.00     0.165 A 
ATOM     13  C   UNL     1       4.227  44.007  51.300  1.00  0.00     0.082 A 
ATOM     14  N   UNL     1       5.354  42.300  50.502  1.00  0.00    -0.250 N 
ATOM     15  C   UNL     1       3.448  42.832  51.228  1.00  0.00     0.149 A 
ATOM     16  N   UNL     1       4.124  41.787  50.739  1.00  0.00    -0.179 NA
ATOM     17  C   UNL     1       6.387  41.448  49.966  1.00  0.00     0.176 C 
BRANCH  11  18
ATOM     18  N   UNL     1       2.856  45.816  52.199  1.00  0.00    -0.338 N 
ATOM     19  H   UNL     1       2.424  46.528  51.622  1.00  0.00     0.168 HD
BRANCH  18  20
ATOM     20  C   UNL     1       2.101  45.520  53.352  1.00  0.00     0.059 A 
ATOM     21  C   UNL     1       2.594  45.664  54.655  1.00  0.00     0.031 A 
ATOM     22  C   UNL     1       0.768  45.061  53.210  1.00  0.00     0.067 A 
ATOM     23  C   UNL     1       1.800  45.364  55.767  1.00  0.00     0.041 A 
ATOM     24  C   UNL     1      -0.030  44.761  54.315  1.00  0.00     0.062 A 
ATOM     25  C   UNL     1       0.498  44.917  55.586  1.00  0.00     0.124 A 
ATOM     26  Cl  UNL     1       0.079  44.854  51.632  1.00  0.00    -0.082 Cl
ATOM     27  F   UNL     1      -0.257  44.631  56.654  1.00  0.00    -0.207 F 
ENDBRANCH  18  20
ENDBRANCH  11  18
ENDBRANCH   6   8
ENDBRANCH   1   6
TORSDOF 7
ENDMDL
MODEL 18
REMARK VINA RESULT:    -7.231      3.593      6.123
REMARK INTER + INTRA:         -11.289
REMARK INTER:                 -10.116
REMARK INTRA:                  -1.173
REMARK UNBOUND:                -1.100
REMARK SMILES COCCCNc1nc(Nc2ccc(F)cc2Cl)c2cnn(C)c2n1
REMARK SMILES IDX 5 1 4 2 3 3 2 4 1 5 6 6 7 8 8 9 25 10 9 11 24 12 19 13 22 14
REMARK SMILES IDX 20 15 21 16 23 17 10 18 11 20 12 21 17 22 13 23 16 24 14 25
REMARK SMILES IDX 18 26 15 27
REMARK H PARENT 6 7 10 19
ROOT
ATOM      1  C   UNL     1       6.870  46.746  54.184  1.00  0.00     0.118 C 
ENDROOT
BRANCH   1   2
ATOM      2  C   UNL     1       8.370  47.034  54.071  1.00  0.00     0.050 C 
BRANCH   2   3
ATOM      3  C   UNL     1       8.742  47.928  52.890  1.00  0.00     0.161 C 
BRANCH   3   4
ATOM      4  O   UNL     1       9.132  47.180  51.741  1.00  0.00    -0.385 OA
ATOM      5  C   UNL     1      10.156  46.232  52.010  1.00  0.00     0.194 C 
ENDBRANCH   3   4
ENDBRANCH   2   3
ENDBRANCH   1   2
BRANCH   1   6
ATOM      6  N   UNL     1       6.236  46.847  52.878  1.00  0.00    -0.354 N 
ATOM      7  H   UNL     1       6.847  47.199  52.146  1.00  0.00     0.163 HD
BRANCH   6   8
ATOM      8  C   UNL     1       5.779  45.631  52.373  1.00  0.00     0.226 A 
ATOM      9  N   UNL     1       4.747  45.100  53.053  1.00  0.00    -0.195 NA
ATOM     10  N   UNL     1       6.368  45.088  51.299  1.00  0.00    -0.193 NA
ATOM     11  C   UNL     1       4.203  43.911  52.685  1.00  0.00     0.147 A 
ATOM     12  C   UNL     1       5.822  43.915  50.947  1.00  0.00     0.165 A 
ATOM     13  C   UNL     1       4.767  43.279  51.570  1.00  0.00     0.082 A 
ATOM     14  N   UNL     1       6.193  43.106  49.909  1.00  0.00    -0.250 N 
ATOM     15  C   UNL     1       4.581  42.098  50.820  1.00  0.00     0.149 A 
ATOM     16  N   UNL     1       5.442  41.984  49.803  1.00  0.00    -0.179 NA
ATOM     17  C   UNL     1       7.259  43.338  48.967  1.00  0.00     0.176 C 
BRANCH  11  18
ATOM     18  N   UNL     1       3.124  43.342  53.374  1.00  0.00    -0.338 N 
ATOM     19  H   UNL     1       3.394  42.772  54.168  1.00  0.00     0.168 HD
BRANCH  18  20
ATOM     20  C   UNL     1       1.727  43.384  53.187  1.00  0.00     0.059 A 
ATOM     21  C   UNL     1       1.085  42.871  52.053  1.00  0.00     0.031 A 
ATOM     22  C   UNL     1       0.910  43.962  54.190  1.00  0.00     0.067 A 
ATOM     23  C   UNL     1      -0.306  42.930  51.920  1.00  0.00     0.041 A 
ATOM     24  C   UNL     1      -0.479  44.024  54.063  1.00  0.00     0.062 A 
ATOM     25  C   UNL     1      -1.072  43.505  52.924  1.00  0.00     0.124 A 
ATOM     26  Cl  UNL     1       1.623  44.622  55.626  1.00  0.00    -0.082 Cl
ATOM     27  F   UNL     1      -2.404  43.559  52.791  1.00  0.00    -0.207 F 
ENDBRANCH  18  20
ENDBRANCH  11  18
ENDBRANCH   6   8
ENDBRANCH   1   6
TORSDOF 7
ENDMDL
MODEL 19
REMARK VINA RESULT:    -7.187      3.662      6.283
REMARK INTER + INTRA:         -11.228
REMARK INTER:                 -10.230
REMARK INTRA:                  -0.998
REMARK UNBOUND:                -1.100
REMARK SMILES COCCCNc1nc(Nc2ccc(F)cc2Cl)c2cnn(C)c2n1
REMARK SMILES IDX 5 1 4 2 3 3 2 4 1 5 6 6 7 8 8 9 25 10 9 11 24 12 19 13 22 14
REMARK SMILES IDX 20 15 21 16 23 17 10 18 11 20 12 21 17 22 13 23 16 24 14 25
REMARK SMILES IDX 18 26 15 27
REMARK H PARENT 6 7 10 19
ROOT
ATOM      1  C   UNL     1       0.390  45.182  57.226  1.00  0.00     0.118 C 
ENDROOT
BRANCH   1   2
ATOM      2  C   UNL     1      -0.729  46.194  56.966  1.00  0.00     0.050 C 
BRANCH   2   3
ATOM      3  C   UNL     1      -0.768  47.346  57.969  1.00  0.00     0.161 C 
BRANCH   3   4
ATOM      4  O   UNL     1       0.440  47.456  58.720  1.00  0.00    -0.385 OA
ATOM      5  C   UNL     1       0.243  47.993  60.021  1.00  0.00     0.194 C 
ENDBRANCH   3   4
ENDBRANCH   2   3
ENDBRANCH   1   2
BRANCH   1   6
ATOM      6  N   UNL     1       1.659  45.690  56.725  1.00  0.00    -0.354 N 
ATOM      7  H   UNL     1       2.467  45.388  57.262  1.00  0.00     0.163 HD
BRANCH   6   8
ATOM      8  C   UNL     1       1.957  45.291  55.424  1.00  0.00     0.226 A 
ATOM      9  N   UNL     1       2.920  46.017  54.828  1.00  0.00    -0.195 NA
ATOM     10  N   UNL     1       1.297  44.266  54.870  1.00  0.00    -0.193 NA
ATOM     11  C   UNL     1       3.309  45.752  53.553  1.00  0.00     0.147 A 
ATOM     12  C   UNL     1       1.690  44.016  53.612  1.00  0.00     0.165 A 
ATOM     13  C   UNL     1       2.662  44.694  52.905  1.00  0.00     0.082 A 
ATOM     14  N   UNL     1       1.213  43.049  52.772  1.00  0.00    -0.250 N 
ATOM     15  C   UNL     1       2.693  44.047  51.651  1.00  0.00     0.149 A 
ATOM     16  N   UNL     1       1.817  43.041  51.559  1.00  0.00    -0.179 NA
ATOM     17  C   UNL     1       0.176  42.088  53.054  1.00  0.00     0.176 C 
BRANCH  11  18
ATOM     18  N   UNL     1       4.314  46.491  52.914  1.00  0.00    -0.338 N 
ATOM     19  H   UNL     1       3.969  47.140  52.215  1.00  0.00     0.168 HD
BRANCH  18  20
ATOM     20  C   UNL     1       5.719  46.513  53.029  1.00  0.00     0.059 A 
ATOM     21  C   UNL     1       6.391  46.926  54.187  1.00  0.00     0.031 A 
ATOM     22  C   UNL     1       6.511  46.091  51.934  1.00  0.00     0.067 A 
ATOM     23  C   UNL     1       7.788  46.921  54.253  1.00  0.00     0.041 A 
ATOM     24  C   UNL     1       7.906  46.084  51.993  1.00  0.00     0.062 A 
ATOM     25  C   UNL     1       8.530  46.501  53.157  1.00  0.00     0.124 A 
ATOM     26  Cl  UNL     1       5.759  45.565  50.462  1.00  0.00    -0.082 Cl
ATOM     27  F   UNL     1       9.867  46.499  53.226  1.00  0.00    -0.207 F 
ENDBRANCH  18  20
ENDBRANCH  11  18
ENDBRANCH   6   8
ENDBRANCH   1   6
TORSDOF 7
ENDMDL
