MODEL 1
REMARK VINA RESULT:    -7.940      0.000      0.000
REMARK INTER + INTRA:         -12.767
REMARK INTER:                 -11.654
REMARK INTRA:                  -1.114
REMARK UNBOUND:                -1.114
REMARK SMILES CCOCCCNc1cc(C(C)C)nc2nc(-c3cccnc3)nn12
REMARK SMILES IDX 5 1 4 2 3 3 2 4 1 5 6 6 7 7 8 9 9 10 25 11 10 12 24 13 15 14
REMARK SMILES IDX 14 15 17 16 16 17 11 18 12 19 13 20 18 21 19 22 23 23 20 24
REMARK SMILES IDX 22 25 21 26
REMARK H PARENT 7 8
ROOT
ATOM      1  C   UNL     1       6.625  46.512  54.371  1.00  0.00     0.050 C 
ENDROOT
BRANCH   1   2
ATOM      2  C   UNL     1       8.035  47.068  54.206  1.00  0.00     0.162 C 
BRANCH   2   3
ATOM      3  O   UNL     1       8.063  47.985  53.113  1.00  0.00    -0.382 OA
BRANCH   3   4
ATOM      4  C   UNL     1       8.935  47.544  52.075  1.00  0.00     0.156 C 
ATOM      5  C   UNL     1       9.971  46.619  52.682  1.00  0.00     0.035 C 
ENDBRANCH   3   4
ENDBRANCH   2   3
ENDBRANCH   1   2
BRANCH   1   6
ATOM      6  C   UNL     1       5.569  47.297  53.596  1.00  0.00     0.117 C 
BRANCH   6   7
ATOM      7  N   UNL     1       5.405  46.799  52.239  1.00  0.00    -0.370 N 
ATOM      8  H   UNL     1       5.396  47.528  51.530  1.00  0.00     0.162 HD
BRANCH   7   9
ATOM      9  C   UNL     1       5.114  45.507  51.798  1.00  0.00     0.133 A 
ATOM     10  C   UNL     1       5.939  44.880  50.937  1.00  0.00     0.071 A 
ATOM     11  N   UNL     1       3.958  44.795  52.224  1.00  0.00    -0.180 N 
ATOM     12  C   UNL     1       5.579  43.496  50.498  1.00  0.00     0.051 A 
ATOM     13  N   UNL     1       2.960  45.166  53.072  1.00  0.00    -0.143 NA
ATOM     14  C   UNL     1       3.694  43.498  51.758  1.00  0.00     0.254 A 
ATOM     15  N   UNL     1       4.519  42.852  50.888  1.00  0.00    -0.216 NA
ATOM     16  C   UNL     1       2.155  44.098  53.082  1.00  0.00     0.185 A 
ATOM     17  N   UNL     1       2.573  43.065  52.290  1.00  0.00    -0.189 NA
BRANCH  12  18
ATOM     18  C   UNL     1       6.515  42.780  49.521  1.00  0.00     0.032 C 
ATOM     19  C   UNL     1       7.789  43.585  49.284  1.00  0.00     0.014 C 
ATOM     20  C   UNL     1       6.820  41.360  49.988  1.00  0.00     0.014 C 
ENDBRANCH  12  18
BRANCH  16  21
ATOM     21  C   UNL     1       0.929  44.022  53.861  1.00  0.00     0.039 A 
ATOM     22  C   UNL     1       0.727  44.801  55.005  1.00  0.00     0.015 A 
ATOM     23  C   UNL     1      -0.100  43.161  53.492  1.00  0.00     0.123 A 
ATOM     24  C   UNL     1      -0.466  44.693  55.718  1.00  0.00     0.021 A 
ATOM     25  N   UNL     1      -1.272  43.034  54.164  1.00  0.00    -0.264 NA
ATOM     26  C   UNL     1      -1.426  43.804  55.262  1.00  0.00     0.111 A 
ENDBRANCH  16  21
ENDBRANCH   7   9
ENDBRANCH   6   7
ENDBRANCH   1   6
TORSDOF 8
ENDMDL
MODEL 2
REMARK VINA RESULT:    -7.907      2.091      4.876
REMARK INTER + INTRA:         -12.718
REMARK INTER:                 -11.583
REMARK INTRA:                  -1.135
REMARK UNBOUND:                -1.114
REMARK SMILES CCOCCCNc1cc(C(C)C)nc2nc(-c3cccnc3)nn12
REMARK SMILES IDX 5 1 4 2 3 3 2 4 1 5 6 6 7 7 8 9 9 10 25 11 10 12 24 13 15 14
REMARK SMILES IDX 14 15 17 16 16 17 11 18 12 19 13 20 18 21 19 22 23 23 20 24
REMARK SMILES IDX 22 25 21 26
REMARK H PARENT 7 8
ROOT
ATOM      1  C   UNL     1       6.524  42.671  48.971  1.00  0.00     0.050 C 
ENDROOT
BRANCH   1   2
ATOM      2  C   UNL     1       6.101  41.553  49.918  1.00  0.00     0.162 C 
BRANCH   2   3
ATOM      3  O   UNL     1       5.041  42.012  50.756  1.00  0.00    -0.382 OA
BRANCH   3   4
ATOM      4  C   UNL     1       3.787  41.450  50.377  1.00  0.00     0.156 C 
ATOM      5  C   UNL     1       2.682  42.290  50.988  1.00  0.00     0.035 C 
ENDBRANCH   3   4
ENDBRANCH   2   3
ENDBRANCH   1   2
BRANCH   1   6
ATOM      6  C   UNL     1       7.166  43.860  49.684  1.00  0.00     0.117 C 
BRANCH   6   7
ATOM      7  N   UNL     1       6.193  44.631  50.443  1.00  0.00    -0.370 N 
ATOM      8  H   UNL     1       5.275  44.678  50.008  1.00  0.00     0.162 HD
BRANCH   7   9
ATOM      9  C   UNL     1       6.379  45.424  51.577  1.00  0.00     0.133 A 
ATOM     10  C   UNL     1       7.549  46.059  51.778  1.00  0.00     0.071 A 
ATOM     11  N   UNL     1       5.365  45.604  52.559  1.00  0.00    -0.180 N 
ATOM     12  C   UNL     1       7.693  46.896  53.010  1.00  0.00     0.051 A 
ATOM     13  N   UNL     1       4.104  45.094  52.624  1.00  0.00    -0.143 NA
ATOM     14  C   UNL     1       5.586  46.406  53.689  1.00  0.00     0.254 A 
ATOM     15  N   UNL     1       6.764  47.054  53.906  1.00  0.00    -0.216 NA
ATOM     16  C   UNL     1       3.628  45.603  53.766  1.00  0.00     0.185 A 
ATOM     17  N   UNL     1       4.508  46.404  54.441  1.00  0.00    -0.189 NA
BRANCH  12  18
ATOM     18  C   UNL     1       9.021  47.621  53.242  1.00  0.00     0.032 C 
ATOM     19  C   UNL     1       9.253  47.892  54.726  1.00  0.00     0.014 C 
ATOM     20  C   UNL     1      10.184  46.857  52.617  1.00  0.00     0.014 C 
ENDBRANCH  12  18
BRANCH  16  21
ATOM     21  C   UNL     1       2.291  45.335  54.271  1.00  0.00     0.039 A 
ATOM     22  C   UNL     1       2.015  45.264  55.640  1.00  0.00     0.015 A 
ATOM     23  C   UNL     1       1.224  45.138  53.399  1.00  0.00     0.123 A 
ATOM     24  C   UNL     1       0.717  45.006  56.075  1.00  0.00     0.021 A 
ATOM     25  N   UNL     1      -0.051  44.886  53.792  1.00  0.00    -0.264 NA
ATOM     26  C   UNL     1      -0.273  44.826  55.122  1.00  0.00     0.111 A 
ENDBRANCH  16  21
ENDBRANCH   7   9
ENDBRANCH   6   7
ENDBRANCH   1   6
TORSDOF 8
ENDMDL
MODEL 3
REMARK VINA RESULT:    -7.901      1.537      1.994
REMARK INTER + INTRA:         -12.710
REMARK INTER:                 -11.935
REMARK INTRA:                  -0.775
REMARK UNBOUND:                -1.114
REMARK SMILES CCOCCCNc1cc(C(C)C)nc2nc(-c3cccnc3)nn12
REMARK SMILES IDX 5 1 4 2 3 3 2 4 1 5 6 6 7 7 8 9 9 10 25 11 10 12 24 13 15 14
REMARK SMILES IDX 14 15 17 16 16 17 11 18 12 19 13 20 18 21 19 22 23 23 20 24
REMARK SMILES IDX 22 25 21 26
REMARK H PARENT 7 8
ROOT
ATOM      1  C   UNL     1       8.717  47.944  52.870  1.00  0.00     0.050 C 
ENDROOT
BRANCH   1   2
ATOM      2  C   UNL     1       9.755  46.827  52.868  1.00  0.00     0.162 C 
BRANCH   2   3
ATOM      3  O   UNL     1      10.086  46.481  54.213  1.00  0.00    -0.382 OA
BRANCH   3   4
ATOM      4  C   UNL     1       9.890  47.576  55.104  1.00  0.00     0.156 C 
ATOM      5  C   UNL     1      11.020  47.580  56.114  1.00  0.00     0.035 C 
ENDBRANCH   3   4
ENDBRANCH   2   3
ENDBRANCH   1   2
BRANCH   1   6
ATOM      6  C   UNL     1       7.524  47.665  51.958  1.00  0.00     0.117 C 
BRANCH   6   7
ATOM      7  N   UNL     1       6.545  46.795  52.591  1.00  0.00    -0.370 N 
ATOM      8  H   UNL     1       6.368  47.015  53.568  1.00  0.00     0.162 HD
BRANCH   7   9
ATOM      9  C   UNL     1       5.942  45.634  52.103  1.00  0.00     0.133 A 
ATOM     10  C   UNL     1       6.517  44.939  51.103  1.00  0.00     0.071 A 
ATOM     11  N   UNL     1       4.718  45.129  52.625  1.00  0.00    -0.180 N 
ATOM     12  C   UNL     1       5.828  43.701  50.620  1.00  0.00     0.051 A 
ATOM     13  N   UNL     1       3.921  45.612  53.617  1.00  0.00    -0.143 NA
ATOM     14  C   UNL     1       4.138  43.961  52.109  1.00  0.00     0.254 A 
ATOM     15  N   UNL     1       4.708  43.247  51.097  1.00  0.00    -0.216 NA
ATOM     16  C   UNL     1       2.917  44.729  53.658  1.00  0.00     0.185 A 
ATOM     17  N   UNL     1       3.018  43.712  52.749  1.00  0.00    -0.189 NA
BRANCH  12  18
ATOM     18  C   UNL     1       6.479  42.907  49.484  1.00  0.00     0.032 C 
ATOM     19  C   UNL     1       7.865  43.452  49.151  1.00  0.00     0.014 C 
ATOM     20  C   UNL     1       6.517  41.416  49.802  1.00  0.00     0.014 C 
ENDBRANCH  12  18
BRANCH  16  21
ATOM     21  C   UNL     1       1.797  44.826  54.580  1.00  0.00     0.039 A 
ATOM     22  C   UNL     1       0.508  44.411  54.229  1.00  0.00     0.015 A 
ATOM     23  C   UNL     1       1.969  45.340  55.861  1.00  0.00     0.123 A 
ATOM     24  C   UNL     1      -0.533  44.522  55.148  1.00  0.00     0.021 A 
ATOM     25  N   UNL     1       0.976  45.461  56.779  1.00  0.00    -0.264 NA
ATOM     26  C   UNL     1      -0.252  45.049  56.399  1.00  0.00     0.111 A 
ENDBRANCH  16  21
ENDBRANCH   7   9
ENDBRANCH   6   7
ENDBRANCH   1   6
TORSDOF 8
ENDMDL
MODEL 4
REMARK VINA RESULT:    -7.701      1.139      1.397
REMARK INTER + INTRA:         -12.417
REMARK INTER:                 -11.496
REMARK INTRA:                  -0.921
REMARK UNBOUND:                -1.114
REMARK SMILES CCOCCCNc1cc(C(C)C)nc2nc(-c3cccnc3)nn12
REMARK SMILES IDX 5 1 4 2 3 3 2 4 1 5 6 6 7 7 8 9 9 10 25 11 10 12 24 13 15 14
REMARK SMILES IDX 14 15 17 16 16 17 11 18 12 19 13 20 18 21 19 22 23 23 20 24
REMARK SMILES IDX 22 25 21 26
REMARK H PARENT 7 8
ROOT
ATOM      1  C   UNL     1       7.872  46.775  54.208  1.00  0.00     0.050 C 
ENDROOT
BRANCH   1   2
ATOM      2  C   UNL     1       8.967  47.784  53.880  1.00  0.00     0.162 C 
BRANCH   2   3
ATOM      3  O   UNL     1      10.023  47.132  53.175  1.00  0.00    -0.382 OA
BRANCH   3   4
ATOM      4  C   UNL     1       9.569  46.568  51.947  1.00  0.00     0.156 C 
ATOM      5  C   UNL     1      10.551  45.495  51.520  1.00  0.00     0.035 C 
ENDBRANCH   3   4
ENDBRANCH   2   3
ENDBRANCH   1   2
BRANCH   1   6
ATOM      6  C   UNL     1       6.467  47.276  53.881  1.00  0.00     0.117 C 
BRANCH   6   7
ATOM      7  N   UNL     1       6.048  46.891  52.542  1.00  0.00    -0.370 N 
ATOM      8  H   UNL     1       6.010  47.665  51.883  1.00  0.00     0.162 HD
BRANCH   7   9
ATOM      9  C   UNL     1       5.558  45.668  52.083  1.00  0.00     0.133 A 
ATOM     10  C   UNL     1       6.210  44.993  51.117  1.00  0.00     0.071 A 
ATOM     11  N   UNL     1       4.371  45.076  52.600  1.00  0.00    -0.180 N 
ATOM     12  C   UNL     1       5.640  43.686  50.664  1.00  0.00     0.051 A 
ATOM     13  N   UNL     1       3.515  45.520  53.561  1.00  0.00    -0.143 NA
ATOM     14  C   UNL     1       3.904  43.846  52.114  1.00  0.00     0.254 A 
ATOM     15  N   UNL     1       4.553  43.152  51.137  1.00  0.00    -0.216 NA
ATOM     16  C   UNL     1       2.589  44.555  53.614  1.00  0.00     0.185 A 
ATOM     17  N   UNL     1       2.796  43.522  52.742  1.00  0.00    -0.189 NA
BRANCH  12  18
ATOM     18  C   UNL     1       6.380  42.915  49.567  1.00  0.00     0.032 C 
ATOM     19  C   UNL     1       7.741  43.539  49.273  1.00  0.00     0.014 C 
ATOM     20  C   UNL     1       6.497  41.435  49.914  1.00  0.00     0.014 C 
ENDBRANCH  12  18
BRANCH  16  21
ATOM     21  C   UNL     1       1.447  44.584  54.513  1.00  0.00     0.039 A 
ATOM     22  C   UNL     1       0.196  44.080  54.140  1.00  0.00     0.015 A 
ATOM     23  C   UNL     1       1.557  45.121  55.792  1.00  0.00     0.123 A 
ATOM     24  C   UNL     1      -0.869  44.130  55.037  1.00  0.00     0.021 A 
ATOM     25  N   UNL     1       0.540  45.183  56.688  1.00  0.00    -0.264 NA
ATOM     26  C   UNL     1      -0.650  44.685  56.288  1.00  0.00     0.111 A 
ENDBRANCH  16  21
ENDBRANCH   7   9
ENDBRANCH   6   7
ENDBRANCH   1   6
TORSDOF 8
ENDMDL
MODEL 5
REMARK VINA RESULT:    -7.683      2.117      6.769
REMARK INTER + INTRA:         -12.389
REMARK INTER:                 -11.391
REMARK INTRA:                  -0.998
REMARK UNBOUND:                -1.114
REMARK SMILES CCOCCCNc1cc(C(C)C)nc2nc(-c3cccnc3)nn12
REMARK SMILES IDX 5 1 4 2 3 3 2 4 1 5 6 6 7 7 8 9 9 10 25 11 10 12 24 13 15 14
REMARK SMILES IDX 14 15 17 16 16 17 11 18 12 19 13 20 18 21 19 22 23 23 20 24
REMARK SMILES IDX 22 25 21 26
REMARK H PARENT 7 8
ROOT
ATOM      1  C   UNL     1       5.400  41.598  50.375  1.00  0.00     0.050 C 
ENDROOT
BRANCH   1   2
ATOM      2  C   UNL     1       5.707  41.509  48.884  1.00  0.00     0.162 C 
BRANCH   2   3
ATOM      3  O   UNL     1       6.477  42.643  48.487  1.00  0.00    -0.382 OA
BRANCH   3   4
ATOM      4  C   UNL     1       6.946  43.384  49.611  1.00  0.00     0.156 C 
ATOM      5  C   UNL     1       8.257  44.045  49.237  1.00  0.00     0.035 C 
ENDBRANCH   3   4
ENDBRANCH   2   3
ENDBRANCH   1   2
BRANCH   1   6
ATOM      6  C   UNL     1       3.906  41.547  50.691  1.00  0.00     0.117 C 
BRANCH   6   7
ATOM      7  N   UNL     1       3.619  42.004  52.042  1.00  0.00    -0.370 N 
ATOM      8  H   UNL     1       3.734  41.287  52.754  1.00  0.00     0.162 HD
BRANCH   7   9
ATOM      9  C   UNL     1       3.073  43.215  52.471  1.00  0.00     0.133 A 
ATOM     10  C   UNL     1       1.741  43.343  52.629  1.00  0.00     0.071 A 
ATOM     11  N   UNL     1       3.874  44.354  52.764  1.00  0.00    -0.180 N 
ATOM     12  C   UNL     1       1.212  44.663  53.093  1.00  0.00     0.051 A 
ATOM     13  N   UNL     1       5.223  44.521  52.695  1.00  0.00    -0.143 NA
ATOM     14  C   UNL     1       3.292  45.558  53.191  1.00  0.00     0.254 A 
ATOM     15  N   UNL     1       1.948  45.702  53.354  1.00  0.00    -0.216 NA
ATOM     16  C   UNL     1       5.394  45.791  53.079  1.00  0.00     0.185 A 
ATOM     17  N   UNL     1       4.236  46.452  53.385  1.00  0.00    -0.189 NA
BRANCH  12  18
ATOM     18  C   UNL     1      -0.302  44.812  53.274  1.00  0.00     0.032 C 
ATOM     19  C   UNL     1      -1.021  44.834  51.928  1.00  0.00     0.014 C 
ATOM     20  C   UNL     1      -0.857  43.732  54.196  1.00  0.00     0.014 C 
ENDBRANCH  12  18
BRANCH  16  21
ATOM     21  C   UNL     1       6.693  46.438  53.166  1.00  0.00     0.039 A 
ATOM     22  C   UNL     1       7.495  46.648  52.040  1.00  0.00     0.015 A 
ATOM     23  C   UNL     1       7.192  46.879  54.388  1.00  0.00     0.123 A 
ATOM     24  C   UNL     1       8.733  47.274  52.173  1.00  0.00     0.021 A 
ATOM     25  N   UNL     1       8.392  47.492  54.551  1.00  0.00    -0.264 NA
ATOM     26  C   UNL     1       9.134  47.674  53.438  1.00  0.00     0.111 A 
ENDBRANCH  16  21
ENDBRANCH   7   9
ENDBRANCH   6   7
ENDBRANCH   1   6
TORSDOF 8
ENDMDL
MODEL 6
REMARK VINA RESULT:    -7.658      2.394      5.075
REMARK INTER + INTRA:         -12.354
REMARK INTER:                 -11.354
REMARK INTRA:                  -1.000
REMARK UNBOUND:                -1.114
REMARK SMILES CCOCCCNc1cc(C(C)C)nc2nc(-c3cccnc3)nn12
REMARK SMILES IDX 5 1 4 2 3 3 2 4 1 5 6 6 7 7 8 9 9 10 25 11 10 12 24 13 15 14
REMARK SMILES IDX 14 15 17 16 16 17 11 18 12 19 13 20 18 21 19 22 23 23 20 24
REMARK SMILES IDX 22 25 21 26
REMARK H PARENT 7 8
ROOT
ATOM      1  C   UNL     1       6.963  42.412  49.712  1.00  0.00     0.050 C 
ENDROOT
BRANCH   1   2
ATOM      2  C   UNL     1       5.762  41.545  49.352  1.00  0.00     0.162 C 
BRANCH   2   3
ATOM      3  O   UNL     1       4.900  41.430  50.484  1.00  0.00    -0.382 OA
BRANCH   3   4
ATOM      4  C   UNL     1       3.571  41.082  50.102  1.00  0.00     0.156 C 
ATOM      5  C   UNL     1       3.626  40.380  48.760  1.00  0.00     0.035 C 
ENDBRANCH   3   4
ENDBRANCH   2   3
ENDBRANCH   1   2
BRANCH   1   6
ATOM      6  C   UNL     1       6.654  43.908  49.715  1.00  0.00     0.117 C 
BRANCH   6   7
ATOM      7  N   UNL     1       5.811  44.288  50.839  1.00  0.00    -0.370 N 
ATOM      8  H   UNL     1       4.864  43.920  50.787  1.00  0.00     0.162 HD
BRANCH   7   9
ATOM      9  C   UNL     1       6.066  45.188  51.874  1.00  0.00     0.133 A 
ATOM     10  C   UNL     1       7.241  45.844  51.931  1.00  0.00     0.071 A 
ATOM     11  N   UNL     1       5.120  45.461  52.902  1.00  0.00    -0.180 N 
ATOM     12  C   UNL     1       7.459  46.799  53.062  1.00  0.00     0.051 A 
ATOM     13  N   UNL     1       3.872  44.956  53.104  1.00  0.00    -0.143 NA
ATOM     14  C   UNL     1       5.409  46.370  53.930  1.00  0.00     0.254 A 
ATOM     15  N   UNL     1       6.593  47.041  54.001  1.00  0.00    -0.216 NA
ATOM     16  C   UNL     1       3.470  45.573  54.221  1.00  0.00     0.185 A 
ATOM     17  N   UNL     1       4.386  46.439  54.751  1.00  0.00    -0.189 NA
BRANCH  12  18
ATOM     18  C   UNL     1       8.794  47.547  53.130  1.00  0.00     0.032 C 
ATOM     19  C   UNL     1       9.167  47.884  54.570  1.00  0.00     0.014 C 
ATOM     20  C   UNL     1       9.900  46.770  52.424  1.00  0.00     0.014 C 
ENDBRANCH  12  18
BRANCH  16  21
ATOM     21  C   UNL     1       2.173  45.351  54.841  1.00  0.00     0.039 A 
ATOM     22  C   UNL     1       1.098  44.802  54.135  1.00  0.00     0.015 A 
ATOM     23  C   UNL     1       1.953  45.682  56.174  1.00  0.00     0.123 A 
ATOM     24  C   UNL     1      -0.126  44.608  54.773  1.00  0.00     0.021 A 
ATOM     25  N   UNL     1       0.774  45.504  56.824  1.00  0.00    -0.264 NA
ATOM     26  C   UNL     1      -0.238  44.972  56.106  1.00  0.00     0.111 A 
ENDBRANCH  16  21
ENDBRANCH   7   9
ENDBRANCH   6   7
ENDBRANCH   1   6
TORSDOF 8
ENDMDL
MODEL 7
REMARK VINA RESULT:    -7.646      1.415      5.775
REMARK INTER + INTRA:         -12.336
REMARK INTER:                 -11.591
REMARK INTRA:                  -0.745
REMARK UNBOUND:                -1.114
REMARK SMILES CCOCCCNc1cc(C(C)C)nc2nc(-c3cccnc3)nn12
REMARK SMILES IDX 5 1 4 2 3 3 2 4 1 5 6 6 7 7 8 9 9 10 25 11 10 12 24 13 15 14
REMARK SMILES IDX 14 15 17 16 16 17 11 18 12 19 13 20 18 21 19 22 23 23 20 24
REMARK SMILES IDX 22 25 21 26
REMARK H PARENT 7 8
ROOT
ATOM      1  C   UNL     1       5.828  47.173  53.672  1.00  0.00     0.050 C 
ENDROOT
BRANCH   1   2
ATOM      2  C   UNL     1       6.990  46.549  54.435  1.00  0.00     0.162 C 
BRANCH   2   3
ATOM      3  O   UNL     1       7.967  47.550  54.721  1.00  0.00    -0.382 OA
BRANCH   3   4
ATOM      4  C   UNL     1       8.740  47.878  53.569  1.00  0.00     0.156 C 
ATOM      5  C   UNL     1       9.898  46.905  53.476  1.00  0.00     0.035 C 
ENDBRANCH   3   4
ENDBRANCH   2   3
ENDBRANCH   1   2
BRANCH   1   6
ATOM      6  C   UNL     1       4.638  47.529  54.561  1.00  0.00     0.117 C 
BRANCH   6   7
ATOM      7  N   UNL     1       4.120  46.368  55.269  1.00  0.00    -0.370 N 
ATOM      8  H   UNL     1       4.678  46.091  56.073  1.00  0.00     0.162 HD
BRANCH   7   9
ATOM      9  C   UNL     1       3.076  45.509  54.920  1.00  0.00     0.133 A 
ATOM     10  C   UNL     1       1.919  45.532  55.609  1.00  0.00     0.071 A 
ATOM     11  N   UNL     1       3.172  44.587  53.841  1.00  0.00    -0.180 N 
ATOM     12  C   UNL     1       0.833  44.591  55.190  1.00  0.00     0.051 A 
ATOM     13  N   UNL     1       4.200  44.341  52.983  1.00  0.00    -0.143 NA
ATOM     14  C   UNL     1       2.104  43.736  53.519  1.00  0.00     0.254 A 
ATOM     15  N   UNL     1       0.928  43.746  54.206  1.00  0.00    -0.216 NA
ATOM     16  C   UNL     1       3.717  43.374  52.196  1.00  0.00     0.185 A 
ATOM     17  N   UNL     1       2.442  42.981  52.498  1.00  0.00    -0.189 NA
BRANCH  12  18
ATOM     18  C   UNL     1      -0.485  44.614  55.970  1.00  0.00     0.032 C 
ATOM     19  C   UNL     1      -0.652  45.923  56.735  1.00  0.00     0.014 C 
ATOM     20  C   UNL     1      -1.673  44.336  55.055  1.00  0.00     0.014 C 
ENDBRANCH  12  18
BRANCH  16  21
ATOM     21  C   UNL     1       4.468  42.773  51.105  1.00  0.00     0.039 A 
ATOM     22  C   UNL     1       5.648  43.342  50.615  1.00  0.00     0.015 A 
ATOM     23  C   UNL     1       4.035  41.596  50.502  1.00  0.00     0.123 A 
ATOM     24  C   UNL     1       6.334  42.728  49.569  1.00  0.00     0.021 A 
ATOM     25  N   UNL     1       4.680  40.974  49.483  1.00  0.00    -0.264 NA
ATOM     26  C   UNL     1       5.815  41.557  49.041  1.00  0.00     0.111 A 
ENDBRANCH  16  21
ENDBRANCH   7   9
ENDBRANCH   6   7
ENDBRANCH   1   6
TORSDOF 8
ENDMDL
MODEL 8
REMARK VINA RESULT:    -7.533      2.615      5.259
REMARK INTER + INTRA:         -12.170
REMARK INTER:                 -11.232
REMARK INTRA:                  -0.938
REMARK UNBOUND:                -1.114
REMARK SMILES CCOCCCNc1cc(C(C)C)nc2nc(-c3cccnc3)nn12
REMARK SMILES IDX 5 1 4 2 3 3 2 4 1 5 6 6 7 7 8 9 9 10 25 11 10 12 24 13 15 14
REMARK SMILES IDX 14 15 17 16 16 17 11 18 12 19 13 20 18 21 19 22 23 23 20 24
REMARK SMILES IDX 22 25 21 26
REMARK H PARENT 7 8
ROOT
ATOM      1  C   UNL     1       5.666  41.426  49.421  1.00  0.00     0.050 C 
ENDROOT
BRANCH   1   2
ATOM      2  C   UNL     1       5.018  41.164  48.065  1.00  0.00     0.162 C 
BRANCH   2   3
ATOM      3  O   UNL     1       5.714  41.892  47.054  1.00  0.00    -0.382 OA
BRANCH   3   4
ATOM      4  C   UNL     1       5.344  41.464  45.746  1.00  0.00     0.156 C 
ATOM      5  C   UNL     1       5.271  42.682  44.846  1.00  0.00     0.035 C 
ENDBRANCH   3   4
ENDBRANCH   2   3
ENDBRANCH   1   2
BRANCH   1   6
ATOM      6  C   UNL     1       6.887  42.340  49.343  1.00  0.00     0.117 C 
BRANCH   6   7
ATOM      7  N   UNL     1       6.524  43.746  49.436  1.00  0.00    -0.370 N 
ATOM      8  H   UNL     1       6.262  44.164  48.546  1.00  0.00     0.162 HD
BRANCH   7   9
ATOM      9  C   UNL     1       6.627  44.619  50.520  1.00  0.00     0.133 A 
ATOM     10  C   UNL     1       7.727  45.382  50.675  1.00  0.00     0.071 A 
ATOM     11  N   UNL     1       5.601  44.754  51.496  1.00  0.00    -0.180 N 
ATOM     12  C   UNL     1       7.784  46.302  51.854  1.00  0.00     0.051 A 
ATOM     13  N   UNL     1       4.399  44.123  51.599  1.00  0.00    -0.143 NA
ATOM     14  C   UNL     1       5.738  45.640  52.575  1.00  0.00     0.254 A 
ATOM     15  N   UNL     1       6.845  46.417  52.746  1.00  0.00    -0.216 NA
ATOM     16  C   UNL     1       3.874  44.647  52.712  1.00  0.00     0.185 A 
ATOM     17  N   UNL     1       4.667  45.573  53.332  1.00  0.00    -0.189 NA
BRANCH  12  18
ATOM     18  C   UNL     1       9.031  47.171  52.034  1.00  0.00     0.032 C 
ATOM     19  C   UNL     1       9.006  47.906  53.371  1.00  0.00     0.014 C 
ATOM     20  C   UNL     1      10.306  46.352  51.862  1.00  0.00     0.014 C 
ENDBRANCH  12  18
BRANCH  16  21
ATOM     21  C   UNL     1       2.571  44.275  53.241  1.00  0.00     0.039 A 
ATOM     22  C   UNL     1       2.008  43.016  53.008  1.00  0.00     0.015 A 
ATOM     23  C   UNL     1       1.828  45.169  54.006  1.00  0.00     0.123 A 
ATOM     24  C   UNL     1       0.757  42.705  53.537  1.00  0.00     0.021 A 
ATOM     25  N   UNL     1       0.608  44.896  54.535  1.00  0.00    -0.264 NA
ATOM     26  C   UNL     1       0.102  43.669  54.286  1.00  0.00     0.111 A 
ENDBRANCH  16  21
ENDBRANCH   7   9
ENDBRANCH   6   7
ENDBRANCH   1   6
TORSDOF 8
ENDMDL
MODEL 9
REMARK VINA RESULT:    -7.513      2.530      5.815
REMARK INTER + INTRA:         -12.140
REMARK INTER:                 -10.975
REMARK INTRA:                  -1.164
REMARK UNBOUND:                -1.114
REMARK SMILES CCOCCCNc1cc(C(C)C)nc2nc(-c3cccnc3)nn12
REMARK SMILES IDX 5 1 4 2 3 3 2 4 1 5 6 6 7 7 8 9 9 10 25 11 10 12 24 13 15 14
REMARK SMILES IDX 14 15 17 16 16 17 11 18 12 19 13 20 18 21 19 22 23 23 20 24
REMARK SMILES IDX 22 25 21 26
REMARK H PARENT 7 8
ROOT
ATOM      1  C   UNL     1       2.342  44.824  55.443  1.00  0.00     0.050 C 
ENDROOT
BRANCH   1   2
ATOM      2  C   UNL     1       1.451  45.137  54.246  1.00  0.00     0.162 C 
BRANCH   2   3
ATOM      3  O   UNL     1       2.251  45.235  53.068  1.00  0.00    -0.382 OA
BRANCH   3   4
ATOM      4  C   UNL     1       2.319  46.575  52.586  1.00  0.00     0.156 C 
ATOM      5  C   UNL     1       3.069  46.573  51.269  1.00  0.00     0.035 C 
ENDBRANCH   3   4
ENDBRANCH   2   3
ENDBRANCH   1   2
BRANCH   1   6
ATOM      6  C   UNL     1       3.651  45.610  55.448  1.00  0.00     0.117 C 
BRANCH   6   7
ATOM      7  N   UNL     1       4.741  44.858  54.846  1.00  0.00    -0.370 N 
ATOM      8  H   UNL     1       4.953  43.985  55.322  1.00  0.00     0.162 HD
BRANCH   7   9
ATOM      9  C   UNL     1       5.616  45.229  53.823  1.00  0.00     0.133 A 
ATOM     10  C   UNL     1       6.468  46.257  53.997  1.00  0.00     0.071 A 
ATOM     11  N   UNL     1       5.659  44.555  52.571  1.00  0.00    -0.180 N 
ATOM     12  C   UNL     1       7.385  46.610  52.868  1.00  0.00     0.051 A 
ATOM     13  N   UNL     1       4.929  43.501  52.114  1.00  0.00    -0.143 NA
ATOM     14  C   UNL     1       6.550  44.955  51.563  1.00  0.00     0.254 A 
ATOM     15  N   UNL     1       7.417  45.994  51.724  1.00  0.00    -0.216 NA
ATOM     16  C   UNL     1       5.403  43.313  50.878  1.00  0.00     0.185 A 
ATOM     17  N   UNL     1       6.390  44.186  50.510  1.00  0.00    -0.189 NA
BRANCH  12  18
ATOM     18  C   UNL     1       8.356  47.778  53.063  1.00  0.00     0.032 C 
ATOM     19  C   UNL     1       9.760  47.282  53.391  1.00  0.00     0.014 C 
ATOM     20  C   UNL     1       8.351  48.708  51.854  1.00  0.00     0.014 C 
ENDBRANCH  12  18
BRANCH  16  21
ATOM     21  C   UNL     1       4.920  42.277  49.979  1.00  0.00     0.039 A 
ATOM     22  C   UNL     1       5.558  41.988  48.768  1.00  0.00     0.015 A 
ATOM     23  C   UNL     1       3.792  41.526  50.295  1.00  0.00     0.123 A 
ATOM     24  C   UNL     1       5.057  40.985  47.940  1.00  0.00     0.021 A 
ATOM     25  N   UNL     1       3.281  40.542  49.510  1.00  0.00    -0.264 NA
ATOM     26  C   UNL     1       3.927  40.297  48.351  1.00  0.00     0.111 A 
ENDBRANCH  16  21
ENDBRANCH   7   9
ENDBRANCH   6   7
ENDBRANCH   1   6
TORSDOF 8
ENDMDL
MODEL 10
REMARK VINA RESULT:    -7.504      2.454      5.038
REMARK INTER + INTRA:         -12.127
REMARK INTER:                 -11.140
REMARK INTRA:                  -0.986
REMARK UNBOUND:                -1.114
REMARK SMILES CCOCCCNc1cc(C(C)C)nc2nc(-c3cccnc3)nn12
REMARK SMILES IDX 5 1 4 2 3 3 2 4 1 5 6 6 7 7 8 9 9 10 25 11 10 12 24 13 15 14
REMARK SMILES IDX 14 15 17 16 16 17 11 18 12 19 13 20 18 21 19 22 23 23 20 24
REMARK SMILES IDX 22 25 21 26
REMARK H PARENT 7 8
ROOT
ATOM      1  C   UNL     1       4.835  42.509  50.978  1.00  0.00     0.050 C 
ENDROOT
BRANCH   1   2
ATOM      2  C   UNL     1       4.111  41.565  50.024  1.00  0.00     0.162 C 
BRANCH   2   3
ATOM      3  O   UNL     1       2.714  41.572  50.314  1.00  0.00    -0.382 OA
BRANCH   3   4
ATOM      4  C   UNL     1       2.369  42.610  51.228  1.00  0.00     0.156 C 
ATOM      5  C   UNL     1       1.165  43.351  50.681  1.00  0.00     0.035 C 
ENDBRANCH   3   4
ENDBRANCH   2   3
ENDBRANCH   1   2
BRANCH   1   6
ATOM      6  C   UNL     1       5.911  43.353  50.297  1.00  0.00     0.117 C 
BRANCH   6   7
ATOM      7  N   UNL     1       5.740  44.773  50.564  1.00  0.00    -0.370 N 
ATOM      8  H   UNL     1       5.421  45.310  49.761  1.00  0.00     0.162 HD
BRANCH   7   9
ATOM      9  C   UNL     1       6.088  45.511  51.697  1.00  0.00     0.133 A 
ATOM     10  C   UNL     1       7.310  46.071  51.794  1.00  0.00     0.071 A 
ATOM     11  N   UNL     1       5.193  45.712  52.785  1.00  0.00    -0.180 N 
ATOM     12  C   UNL     1       7.629  46.852  53.030  1.00  0.00     0.051 A 
ATOM     13  N   UNL     1       3.917  45.273  52.966  1.00  0.00    -0.143 NA
ATOM     14  C   UNL     1       5.577  46.458  53.910  1.00  0.00     0.254 A 
ATOM     15  N   UNL     1       6.809  47.029  54.023  1.00  0.00    -0.216 NA
ATOM     16  C   UNL     1       3.593  45.765  54.167  1.00  0.00     0.185 A 
ATOM     17  N   UNL     1       4.584  46.490  54.770  1.00  0.00    -0.189 NA
BRANCH  12  18
ATOM     18  C   UNL     1       9.016  47.491  53.144  1.00  0.00     0.032 C 
ATOM     19  C   UNL     1       9.463  47.588  54.599  1.00  0.00     0.014 C 
ATOM     20  C   UNL     1      10.037  46.752  52.285  1.00  0.00     0.014 C 
ENDBRANCH  12  18
BRANCH  16  21
ATOM     21  C   UNL     1       2.301  45.556  54.800  1.00  0.00     0.039 A 
ATOM     22  C   UNL     1       2.111  45.730  56.175  1.00  0.00     0.015 A 
ATOM     23  C   UNL     1       1.192  45.170  54.052  1.00  0.00     0.123 A 
ATOM     24  C   UNL     1       0.853  45.518  56.736  1.00  0.00     0.021 A 
ATOM     25  N   UNL     1      -0.045  44.957  54.568  1.00  0.00    -0.264 NA
ATOM     26  C   UNL     1      -0.183  45.137  55.899  1.00  0.00     0.111 A 
ENDBRANCH  16  21
ENDBRANCH   7   9
ENDBRANCH   6   7
ENDBRANCH   1   6
TORSDOF 8
ENDMDL
MODEL 11
REMARK VINA RESULT:    -7.495      1.999      4.248
REMARK INTER + INTRA:         -12.114
REMARK INTER:                 -11.003
REMARK INTRA:                  -1.112
REMARK UNBOUND:                -1.114
REMARK SMILES CCOCCCNc1cc(C(C)C)nc2nc(-c3cccnc3)nn12
REMARK SMILES IDX 5 1 4 2 3 3 2 4 1 5 6 6 7 7 8 9 9 10 25 11 10 12 24 13 15 14
REMARK SMILES IDX 14 15 17 16 16 17 11 18 12 19 13 20 18 21 19 22 23 23 20 24
REMARK SMILES IDX 22 25 21 26
REMARK H PARENT 7 8
ROOT
ATOM      1  C   UNL     1       5.642  41.959  50.343  1.00  0.00     0.050 C 
ENDROOT
BRANCH   1   2
ATOM      2  C   UNL     1       6.402  42.670  49.228  1.00  0.00     0.162 C 
BRANCH   2   3
ATOM      3  O   UNL     1       7.749  42.901  49.640  1.00  0.00    -0.382 OA
BRANCH   3   4
ATOM      4  C   UNL     1       8.244  44.146  49.152  1.00  0.00     0.156 C 
ATOM      5  C   UNL     1       9.470  44.523  49.959  1.00  0.00     0.035 C 
ENDBRANCH   3   4
ENDBRANCH   2   3
ENDBRANCH   1   2
BRANCH   1   6
ATOM      6  C   UNL     1       4.687  42.875  51.106  1.00  0.00     0.117 C 
BRANCH   6   7
ATOM      7  N   UNL     1       5.078  44.273  51.009  1.00  0.00    -0.370 N 
ATOM      8  H   UNL     1       5.251  44.588  50.057  1.00  0.00     0.162 HD
BRANCH   7   9
ATOM      9  C   UNL     1       5.391  45.180  52.023  1.00  0.00     0.133 A 
ATOM     10  C   UNL     1       6.558  45.851  51.999  1.00  0.00     0.071 A 
ATOM     11  N   UNL     1       4.513  45.443  53.112  1.00  0.00    -0.180 N 
ATOM     12  C   UNL     1       6.840  46.812  53.111  1.00  0.00     0.051 A 
ATOM     13  N   UNL     1       3.288  44.922  53.398  1.00  0.00    -0.143 NA
ATOM     14  C   UNL     1       4.859  46.359  54.116  1.00  0.00     0.254 A 
ATOM     15  N   UNL     1       6.036  47.045  54.106  1.00  0.00    -0.216 NA
ATOM     16  C   UNL     1       2.955  45.537  54.539  1.00  0.00     0.185 A 
ATOM     17  N   UNL     1       3.893  46.417  55.005  1.00  0.00    -0.189 NA
BRANCH  12  18
ATOM     18  C   UNL     1       8.166  47.578  53.087  1.00  0.00     0.032 C 
ATOM     19  C   UNL     1       9.345  46.653  53.374  1.00  0.00     0.014 C 
ATOM     20  C   UNL     1       8.344  48.333  51.774  1.00  0.00     0.014 C 
ENDBRANCH  12  18
BRANCH  16  21
ATOM     21  C   UNL     1       1.706  45.301  55.245  1.00  0.00     0.039 A 
ATOM     22  C   UNL     1       0.598  44.719  54.620  1.00  0.00     0.015 A 
ATOM     23  C   UNL     1       1.566  45.648  56.585  1.00  0.00     0.123 A 
ATOM     24  C   UNL     1      -0.577  44.512  55.339  1.00  0.00     0.021 A 
ATOM     25  N   UNL     1       0.435  45.459  57.313  1.00  0.00    -0.264 NA
ATOM     26  C   UNL     1      -0.610  44.895  56.670  1.00  0.00     0.111 A 
ENDBRANCH  16  21
ENDBRANCH   7   9
ENDBRANCH   6   7
ENDBRANCH   1   6
TORSDOF 8
ENDMDL
MODEL 12
REMARK VINA RESULT:    -7.408      2.238      7.129
REMARK INTER + INTRA:         -11.986
REMARK INTER:                 -10.977
REMARK INTRA:                  -1.008
REMARK UNBOUND:                -1.114
REMARK SMILES CCOCCCNc1cc(C(C)C)nc2nc(-c3cccnc3)nn12
REMARK SMILES IDX 5 1 4 2 3 3 2 4 1 5 6 6 7 7 8 9 9 10 25 11 10 12 24 13 15 14
REMARK SMILES IDX 14 15 17 16 16 17 11 18 12 19 13 20 18 21 19 22 23 23 20 24
REMARK SMILES IDX 22 25 21 26
REMARK H PARENT 7 8
ROOT
ATOM      1  C   UNL     1       4.309  41.633  50.958  1.00  0.00     0.050 C 
ENDROOT
BRANCH   1   2
ATOM      2  C   UNL     1       4.767  41.189  49.573  1.00  0.00     0.162 C 
BRANCH   2   3
ATOM      3  O   UNL     1       6.107  41.627  49.350  1.00  0.00    -0.382 OA
BRANCH   3   4
ATOM      4  C   UNL     1       6.260  43.018  49.622  1.00  0.00     0.156 C 
ATOM      5  C   UNL     1       7.690  43.413  49.309  1.00  0.00     0.035 C 
ENDBRANCH   3   4
ENDBRANCH   2   3
ENDBRANCH   1   2
BRANCH   1   6
ATOM      6  C   UNL     1       2.887  42.192  50.976  1.00  0.00     0.117 C 
BRANCH   6   7
ATOM      7  N   UNL     1       2.860  43.598  51.350  1.00  0.00    -0.370 N 
ATOM      8  H   UNL     1       2.894  44.237  50.559  1.00  0.00     0.162 HD
BRANCH   7   9
ATOM      9  C   UNL     1       2.944  44.181  52.616  1.00  0.00     0.133 A 
ATOM     10  C   UNL     1       1.895  44.128  53.460  1.00  0.00     0.071 A 
ATOM     11  N   UNL     1       4.115  44.846  53.076  1.00  0.00    -0.180 N 
ATOM     12  C   UNL     1       2.042  44.768  54.804  1.00  0.00     0.051 A 
ATOM     13  N   UNL     1       5.308  45.056  52.455  1.00  0.00    -0.143 NA
ATOM     14  C   UNL     1       4.165  45.423  54.354  1.00  0.00     0.254 A 
ATOM     15  N   UNL     1       3.113  45.378  55.218  1.00  0.00    -0.216 NA
ATOM     16  C   UNL     1       6.012  45.735  53.367  1.00  0.00     0.185 A 
ATOM     17  N   UNL     1       5.342  45.978  54.535  1.00  0.00    -0.189 NA
BRANCH  12  18
ATOM     18  C   UNL     1       0.853  44.709  55.767  1.00  0.00     0.032 C 
ATOM     19  C   UNL     1       1.027  45.688  56.924  1.00  0.00     0.014 C 
ATOM     20  C   UNL     1      -0.466  44.928  55.033  1.00  0.00     0.014 C 
ENDBRANCH  12  18
BRANCH  16  21
ATOM     21  C   UNL     1       7.376  46.192  53.155  1.00  0.00     0.039 A 
ATOM     22  C   UNL     1       8.147  46.733  54.189  1.00  0.00     0.015 A 
ATOM     23  C   UNL     1       7.971  46.105  51.900  1.00  0.00     0.123 A 
ATOM     24  C   UNL     1       9.450  47.156  53.936  1.00  0.00     0.021 A 
ATOM     25  N   UNL     1       9.238  46.508  51.622  1.00  0.00    -0.264 NA
ATOM     26  C   UNL     1       9.946  47.024  52.649  1.00  0.00     0.111 A 
ENDBRANCH  16  21
ENDBRANCH   7   9
ENDBRANCH   6   7
ENDBRANCH   1   6
TORSDOF 8
ENDMDL
MODEL 13
REMARK VINA RESULT:    -7.286      2.509      6.031
REMARK INTER + INTRA:         -11.806
REMARK INTER:                 -10.555
REMARK INTRA:                  -1.252
REMARK UNBOUND:                -1.114
REMARK SMILES CCOCCCNc1cc(C(C)C)nc2nc(-c3cccnc3)nn12
REMARK SMILES IDX 5 1 4 2 3 3 2 4 1 5 6 6 7 7 8 9 9 10 25 11 10 12 24 13 15 14
REMARK SMILES IDX 14 15 17 16 16 17 11 18 12 19 13 20 18 21 19 22 23 23 20 24
REMARK SMILES IDX 22 25 21 26
REMARK H PARENT 7 8
ROOT
ATOM      1  C   UNL     1       1.369  43.698  51.653  1.00  0.00     0.050 C 
ENDROOT
BRANCH   1   2
ATOM      2  C   UNL     1       1.453  45.219  51.588  1.00  0.00     0.162 C 
BRANCH   2   3
ATOM      3  O   UNL     1       2.252  45.701  52.668  1.00  0.00    -0.382 OA
BRANCH   3   4
ATOM      4  C   UNL     1       2.966  46.882  52.312  1.00  0.00     0.156 C 
ATOM      5  C   UNL     1       3.473  46.725  50.892  1.00  0.00     0.035 C 
ENDBRANCH   3   4
ENDBRANCH   2   3
ENDBRANCH   1   2
BRANCH   1   6
ATOM      6  C   UNL     1       2.024  43.107  52.900  1.00  0.00     0.117 C 
BRANCH   6   7
ATOM      7  N   UNL     1       3.192  42.303  52.574  1.00  0.00    -0.370 N 
ATOM      8  H   UNL     1       3.420  41.603  53.275  1.00  0.00     0.162 HD
BRANCH   7   9
ATOM      9  C   UNL     1       4.110  42.454  51.533  1.00  0.00     0.133 A 
ATOM     10  C   UNL     1       4.054  41.648  50.455  1.00  0.00     0.071 A 
ATOM     11  N   UNL     1       5.130  43.446  51.550  1.00  0.00    -0.180 N 
ATOM     12  C   UNL     1       5.062  41.856  49.369  1.00  0.00     0.051 A 
ATOM     13  N   UNL     1       5.428  44.384  52.491  1.00  0.00    -0.143 NA
ATOM     14  C   UNL     1       6.039  43.569  50.488  1.00  0.00     0.254 A 
ATOM     15  N   UNL     1       5.995  42.761  49.392  1.00  0.00    -0.216 NA
ATOM     16  C   UNL     1       6.481  45.020  51.965  1.00  0.00     0.185 A 
ATOM     17  N   UNL     1       6.880  44.545  50.746  1.00  0.00    -0.189 NA
BRANCH  12  18
ATOM     18  C   UNL     1       5.002  40.943  48.141  1.00  0.00     0.032 C 
ATOM     19  C   UNL     1       3.608  40.347  47.963  1.00  0.00     0.014 C 
ATOM     20  C   UNL     1       5.471  41.672  46.886  1.00  0.00     0.014 C 
ENDBRANCH  12  18
BRANCH  16  21
ATOM     21  C   UNL     1       7.163  46.125  52.620  1.00  0.00     0.039 A 
ATOM     22  C   UNL     1       7.927  47.053  51.905  1.00  0.00     0.015 A 
ATOM     23  C   UNL     1       7.079  46.301  53.997  1.00  0.00     0.123 A 
ATOM     24  C   UNL     1       8.562  48.096  52.577  1.00  0.00     0.021 A 
ATOM     25  N   UNL     1       7.684  47.306  54.680  1.00  0.00    -0.264 NA
ATOM     26  C   UNL     1       8.412  48.179  53.952  1.00  0.00     0.111 A 
ENDBRANCH  16  21
ENDBRANCH   7   9
ENDBRANCH   6   7
ENDBRANCH   1   6
TORSDOF 8
ENDMDL
MODEL 14
REMARK VINA RESULT:    -7.238      2.534      7.143
REMARK INTER + INTRA:         -11.737
REMARK INTER:                 -10.813
REMARK INTRA:                  -0.924
REMARK UNBOUND:                -1.114
REMARK SMILES CCOCCCNc1cc(C(C)C)nc2nc(-c3cccnc3)nn12
REMARK SMILES IDX 5 1 4 2 3 3 2 4 1 5 6 6 7 7 8 9 9 10 25 11 10 12 24 13 15 14
REMARK SMILES IDX 14 15 17 16 16 17 11 18 12 19 13 20 18 21 19 22 23 23 20 24
REMARK SMILES IDX 22 25 21 26
REMARK H PARENT 7 8
ROOT
ATOM      1  C   UNL     1       6.330  41.552  49.911  1.00  0.00     0.050 C 
ENDROOT
BRANCH   1   2
ATOM      2  C   UNL     1       6.182  42.349  48.620  1.00  0.00     0.162 C 
BRANCH   2   3
ATOM      3  O   UNL     1       5.315  41.654  47.725  1.00  0.00    -0.382 OA
BRANCH   3   4
ATOM      4  C   UNL     1       5.642  41.916  46.362  1.00  0.00     0.156 C 
ATOM      5  C   UNL     1       4.662  41.167  45.482  1.00  0.00     0.035 C 
ENDBRANCH   3   4
ENDBRANCH   2   3
ENDBRANCH   1   2
BRANCH   1   6
ATOM      6  C   UNL     1       4.998  41.255  50.597  1.00  0.00     0.117 C 
BRANCH   6   7
ATOM      7  N   UNL     1       4.119  42.414  50.606  1.00  0.00    -0.370 N 
ATOM      8  H   UNL     1       3.943  42.806  49.684  1.00  0.00     0.162 HD
BRANCH   7   9
ATOM      9  C   UNL     1       3.617  43.139  51.689  1.00  0.00     0.133 A 
ATOM     10  C   UNL     1       2.362  42.923  52.128  1.00  0.00     0.071 A 
ATOM     11  N   UNL     1       4.386  44.120  52.375  1.00  0.00    -0.180 N 
ATOM     12  C   UNL     1       1.877  43.727  53.293  1.00  0.00     0.051 A 
ATOM     13  N   UNL     1       5.660  44.547  52.159  1.00  0.00    -0.143 NA
ATOM     14  C   UNL     1       3.850  44.832  53.459  1.00  0.00     0.254 A 
ATOM     15  N   UNL     1       2.582  44.626  53.914  1.00  0.00    -0.216 NA
ATOM     16  C   UNL     1       5.834  45.478  53.104  1.00  0.00     0.185 A 
ATOM     17  N   UNL     1       4.748  45.678  53.911  1.00  0.00    -0.189 NA
BRANCH  12  18
ATOM     18  C   UNL     1       0.451  43.484  53.796  1.00  0.00     0.032 C 
ATOM     19  C   UNL     1      -0.507  44.555  53.283  1.00  0.00     0.014 C 
ATOM     20  C   UNL     1      -0.028  42.080  53.444  1.00  0.00     0.014 C 
ENDBRANCH  12  18
BRANCH  16  21
ATOM     21  C   UNL     1       7.067  46.231  53.275  1.00  0.00     0.039 A 
ATOM     22  C   UNL     1       8.009  46.354  52.249  1.00  0.00     0.015 A 
ATOM     23  C   UNL     1       7.356  46.865  54.479  1.00  0.00     0.123 A 
ATOM     24  C   UNL     1       9.175  47.087  52.460  1.00  0.00     0.021 A 
ATOM     25  N   UNL     1       8.482  47.586  54.716  1.00  0.00    -0.264 NA
ATOM     26  C   UNL     1       9.364  47.679  53.699  1.00  0.00     0.111 A 
ENDBRANCH  16  21
ENDBRANCH   7   9
ENDBRANCH   6   7
ENDBRANCH   1   6
TORSDOF 8
ENDMDL
MODEL 15
REMARK VINA RESULT:    -7.226      2.674      6.144
REMARK INTER + INTRA:         -11.719
REMARK INTER:                 -10.383
REMARK INTRA:                  -1.336
REMARK UNBOUND:                -1.114
REMARK SMILES CCOCCCNc1cc(C(C)C)nc2nc(-c3cccnc3)nn12
REMARK SMILES IDX 5 1 4 2 3 3 2 4 1 5 6 6 7 7 8 9 9 10 25 11 10 12 24 13 15 14
REMARK SMILES IDX 14 15 17 16 16 17 11 18 12 19 13 20 18 21 19 22 23 23 20 24
REMARK SMILES IDX 22 25 21 26
REMARK H PARENT 7 8
ROOT
ATOM      1  C   UNL     1       2.593  45.996  53.914  1.00  0.00     0.050 C 
ENDROOT
BRANCH   1   2
ATOM      2  C   UNL     1       1.465  45.115  53.387  1.00  0.00     0.162 C 
BRANCH   2   3
ATOM      3  O   UNL     1       1.549  43.822  53.986  1.00  0.00    -0.382 OA
BRANCH   3   4
ATOM      4  C   UNL     1       1.522  42.785  53.008  1.00  0.00     0.156 C 
ATOM      5  C   UNL     1       1.004  43.366  51.707  1.00  0.00     0.035 C 
ENDBRANCH   3   4
ENDBRANCH   2   3
ENDBRANCH   1   2
BRANCH   1   6
ATOM      6  C   UNL     1       3.270  45.433  55.162  1.00  0.00     0.117 C 
BRANCH   6   7
ATOM      7  N   UNL     1       4.590  44.894  54.871  1.00  0.00    -0.370 N 
ATOM      8  H   UNL     1       4.932  44.239  55.569  1.00  0.00     0.162 HD
BRANCH   7   9
ATOM      9  C   UNL     1       5.495  45.256  53.871  1.00  0.00     0.133 A 
ATOM     10  C   UNL     1       6.339  46.289  54.061  1.00  0.00     0.071 A 
ATOM     11  N   UNL     1       5.577  44.570  52.628  1.00  0.00    -0.180 N 
ATOM     12  C   UNL     1       7.289  46.632  52.957  1.00  0.00     0.051 A 
ATOM     13  N   UNL     1       4.863  43.510  52.160  1.00  0.00    -0.143 NA
ATOM     14  C   UNL     1       6.497  44.962  51.644  1.00  0.00     0.254 A 
ATOM     15  N   UNL     1       7.357  46.004  51.820  1.00  0.00    -0.216 NA
ATOM     16  C   UNL     1       5.374  43.311  50.940  1.00  0.00     0.185 A 
ATOM     17  N   UNL     1       6.371  44.182  50.594  1.00  0.00    -0.189 NA
BRANCH  12  18
ATOM     18  C   UNL     1       8.252  47.804  53.169  1.00  0.00     0.032 C 
ATOM     19  C   UNL     1       9.633  47.316  53.597  1.00  0.00     0.014 C 
ATOM     20  C   UNL     1       8.323  48.692  51.931  1.00  0.00     0.014 C 
ENDBRANCH  12  18
BRANCH  16  21
ATOM     21  C   UNL     1       4.921  42.265  50.038  1.00  0.00     0.039 A 
ATOM     22  C   UNL     1       3.837  41.436  50.347  1.00  0.00     0.015 A 
ATOM     23  C   UNL     1       5.556  42.047  48.819  1.00  0.00     0.123 A 
ATOM     24  C   UNL     1       3.439  40.448  49.449  1.00  0.00     0.021 A 
ATOM     25  N   UNL     1       5.191  41.094  47.923  1.00  0.00    -0.264 NA
ATOM     26  C   UNL     1       4.141  40.317  48.262  1.00  0.00     0.111 A 
ENDBRANCH  16  21
ENDBRANCH   7   9
ENDBRANCH   6   7
ENDBRANCH   1   6
TORSDOF 8
ENDMDL
MODEL 16
REMARK VINA RESULT:    -7.164      2.421      7.281
REMARK INTER + INTRA:         -11.628
REMARK INTER:                 -10.591
REMARK INTRA:                  -1.036
REMARK UNBOUND:                -1.114
REMARK SMILES CCOCCCNc1cc(C(C)C)nc2nc(-c3cccnc3)nn12
REMARK SMILES IDX 5 1 4 2 3 3 2 4 1 5 6 6 7 7 8 9 9 10 25 11 10 12 24 13 15 14
REMARK SMILES IDX 14 15 17 16 16 17 11 18 12 19 13 20 18 21 19 22 23 23 20 24
REMARK SMILES IDX 22 25 21 26
REMARK H PARENT 7 8
ROOT
ATOM      1  C   UNL     1       2.106  42.983  51.637  1.00  0.00     0.050 C 
ENDROOT
BRANCH   1   2
ATOM      2  C   UNL     1       3.586  42.617  51.670  1.00  0.00     0.162 C 
BRANCH   2   3
ATOM      3  O   UNL     1       3.841  41.575  50.729  1.00  0.00    -0.382 OA
BRANCH   3   4
ATOM      4  C   UNL     1       5.205  41.562  50.313  1.00  0.00     0.156 C 
ATOM      5  C   UNL     1       5.741  42.978  50.381  1.00  0.00     0.035 C 
ENDBRANCH   3   4
ENDBRANCH   2   3
ENDBRANCH   1   2
BRANCH   1   6
ATOM      6  C   UNL     1       1.832  44.345  51.003  1.00  0.00     0.117 C 
BRANCH   6   7
ATOM      7  N   UNL     1       1.550  45.365  52.002  1.00  0.00    -0.370 N 
ATOM      8  H   UNL     1       1.002  46.147  51.650  1.00  0.00     0.162 HD
BRANCH   7   9
ATOM      9  C   UNL     1       2.041  45.494  53.302  1.00  0.00     0.133 A 
ATOM     10  C   UNL     1       1.221  45.333  54.358  1.00  0.00     0.071 A 
ATOM     11  N   UNL     1       3.405  45.791  53.579  1.00  0.00    -0.180 N 
ATOM     12  C   UNL     1       1.802  45.480  55.729  1.00  0.00     0.051 A 
ATOM     13  N   UNL     1       4.448  46.005  52.730  1.00  0.00    -0.143 NA
ATOM     14  C   UNL     1       3.866  45.915  54.898  1.00  0.00     0.254 A 
ATOM     15  N   UNL     1       3.048  45.756  55.976  1.00  0.00    -0.216 NA
ATOM     16  C   UNL     1       5.471  46.242  53.558  1.00  0.00     0.185 A 
ATOM     17  N   UNL     1       5.149  46.198  54.886  1.00  0.00    -0.189 NA
BRANCH  12  18
ATOM     18  C   UNL     1       0.872  45.297  56.932  1.00  0.00     0.032 C 
ATOM     19  C   UNL     1       0.942  46.496  57.873  1.00  0.00     0.014 C 
ATOM     20  C   UNL     1      -0.558  45.008  56.487  1.00  0.00     0.014 C 
ENDBRANCH  12  18
BRANCH  16  21
ATOM     21  C   UNL     1       6.823  46.531  53.105  1.00  0.00     0.039 A 
ATOM     22  C   UNL     1       7.783  47.097  53.949  1.00  0.00     0.015 A 
ATOM     23  C   UNL     1       7.214  46.250  51.800  1.00  0.00     0.123 A 
ATOM     24  C   UNL     1       9.066  47.354  53.469  1.00  0.00     0.021 A 
ATOM     25  N   UNL     1       8.455  46.488  51.303  1.00  0.00    -0.264 NA
ATOM     26  C   UNL     1       9.351  47.035  52.151  1.00  0.00     0.111 A 
ENDBRANCH  16  21
ENDBRANCH   7   9
ENDBRANCH   6   7
ENDBRANCH   1   6
TORSDOF 8
ENDMDL
MODEL 17
REMARK VINA RESULT:    -7.131      1.376      1.838
REMARK INTER + INTRA:         -11.580
REMARK INTER:                 -10.830
REMARK INTRA:                  -0.750
REMARK UNBOUND:                -1.114
REMARK SMILES CCOCCCNc1cc(C(C)C)nc2nc(-c3cccnc3)nn12
REMARK SMILES IDX 5 1 4 2 3 3 2 4 1 5 6 6 7 7 8 9 9 10 25 11 10 12 24 13 15 14
REMARK SMILES IDX 14 15 17 16 16 17 11 18 12 19 13 20 18 21 19 22 23 23 20 24
REMARK SMILES IDX 22 25 21 26
REMARK H PARENT 7 8
ROOT
ATOM      1  C   UNL     1       5.667  46.520  54.410  1.00  0.00     0.050 C 
ENDROOT
BRANCH   1   2
ATOM      2  C   UNL     1       7.181  46.507  54.225  1.00  0.00     0.162 C 
BRANCH   2   3
ATOM      3  O   UNL     1       7.584  47.672  53.506  1.00  0.00    -0.382 OA
BRANCH   3   4
ATOM      4  C   UNL     1       8.641  47.390  52.592  1.00  0.00     0.156 C 
ATOM      5  C   UNL     1       9.920  47.200  53.384  1.00  0.00     0.035 C 
ENDBRANCH   3   4
ENDBRANCH   2   3
ENDBRANCH   1   2
BRANCH   1   6
ATOM      6  C   UNL     1       4.919  47.181  53.254  1.00  0.00     0.117 C 
BRANCH   6   7
ATOM      7  N   UNL     1       4.793  46.293  52.108  1.00  0.00    -0.370 N 
ATOM      8  H   UNL     1       4.963  46.747  51.214  1.00  0.00     0.162 HD
BRANCH   7   9
ATOM      9  C   UNL     1       4.334  44.976  52.052  1.00  0.00     0.133 A 
ATOM     10  C   UNL     1       4.950  44.074  51.264  1.00  0.00     0.071 A 
ATOM     11  N   UNL     1       3.218  44.522  52.810  1.00  0.00    -0.180 N 
ATOM     12  C   UNL     1       4.416  42.676  51.244  1.00  0.00     0.051 A 
ATOM     13  N   UNL     1       2.411  45.194  53.675  1.00  0.00    -0.143 NA
ATOM     14  C   UNL     1       2.781  43.191  52.728  1.00  0.00     0.254 A 
ATOM     15  N   UNL     1       3.393  42.268  51.935  1.00  0.00    -0.216 NA
ATOM     16  C   UNL     1       1.542  44.259  54.072  1.00  0.00     0.185 A 
ATOM     17  N   UNL     1       1.738  43.027  53.511  1.00  0.00    -0.189 NA
BRANCH  12  18
ATOM     18  C   UNL     1       5.114  41.648  50.350  1.00  0.00     0.032 C 
ATOM     19  C   UNL     1       4.109  40.892  49.486  1.00  0.00     0.014 C 
ATOM     20  C   UNL     1       6.209  42.297  49.510  1.00  0.00     0.014 C 
ENDBRANCH  12  18
BRANCH  16  21
ATOM     21  C   UNL     1       0.465  44.509  55.018  1.00  0.00     0.039 A 
ATOM     22  C   UNL     1      -0.873  44.255  54.702  1.00  0.00     0.015 A 
ATOM     23  C   UNL     1       0.732  45.015  56.286  1.00  0.00     0.123 A 
ATOM     24  C   UNL     1      -1.870  44.510  55.642  1.00  0.00     0.021 A 
ATOM     25  N   UNL     1      -0.216  45.273  57.223  1.00  0.00    -0.264 NA
ATOM     26  C   UNL     1      -1.495  45.014  56.877  1.00  0.00     0.111 A 
ENDBRANCH  16  21
ENDBRANCH   7   9
ENDBRANCH   6   7
ENDBRANCH   1   6
TORSDOF 8
ENDMDL
MODEL 18
REMARK VINA RESULT:    -7.013      1.330      5.942
REMARK INTER + INTRA:         -11.407
REMARK INTER:                 -10.738
REMARK INTRA:                  -0.668
REMARK UNBOUND:                -1.114
REMARK SMILES CCOCCCNc1cc(C(C)C)nc2nc(-c3cccnc3)nn12
REMARK SMILES IDX 5 1 4 2 3 3 2 4 1 5 6 6 7 7 8 9 9 10 25 11 10 12 24 13 15 14
REMARK SMILES IDX 14 15 17 16 16 17 11 18 12 19 13 20 18 21 19 22 23 23 20 24
REMARK SMILES IDX 22 25 21 26
REMARK H PARENT 7 8
ROOT
ATOM      1  C   UNL     1       5.327  47.203  54.597  1.00  0.00     0.050 C 
ENDROOT
BRANCH   1   2
ATOM      2  C   UNL     1       6.770  46.711  54.559  1.00  0.00     0.162 C 
BRANCH   2   3
ATOM      3  O   UNL     1       7.593  47.694  53.932  1.00  0.00    -0.382 OA
BRANCH   3   4
ATOM      4  C   UNL     1       8.976  47.474  54.201  1.00  0.00     0.156 C 
ATOM      5  C   UNL     1       9.656  47.063  52.910  1.00  0.00     0.035 C 
ENDBRANCH   3   4
ENDBRANCH   2   3
ENDBRANCH   1   2
BRANCH   1   6
ATOM      6  C   UNL     1       4.385  46.263  55.347  1.00  0.00     0.117 C 
BRANCH   6   7
ATOM      7  N   UNL     1       3.132  46.064  54.634  1.00  0.00    -0.370 N 
ATOM      8  H   UNL     1       2.436  46.784  54.812  1.00  0.00     0.162 HD
BRANCH   7   9
ATOM      9  C   UNL     1       2.706  44.970  53.879  1.00  0.00     0.133 A 
ATOM     10  C   UNL     1       1.528  44.375  54.149  1.00  0.00     0.071 A 
ATOM     11  N   UNL     1       3.471  44.436  52.805  1.00  0.00    -0.180 N 
ATOM     12  C   UNL     1       1.120  43.208  53.306  1.00  0.00     0.051 A 
ATOM     13  N   UNL     1       4.681  44.821  52.312  1.00  0.00    -0.143 NA
ATOM     14  C   UNL     1       3.014  43.334  52.067  1.00  0.00     0.254 A 
ATOM     15  N   UNL     1       1.825  42.722  52.329  1.00  0.00    -0.216 NA
ATOM     16  C   UNL     1       4.894  43.953  51.317  1.00  0.00     0.185 A 
ATOM     17  N   UNL     1       3.898  43.031  51.144  1.00  0.00    -0.189 NA
BRANCH  12  18
ATOM     18  C   UNL     1      -0.219  42.530  53.609  1.00  0.00     0.032 C 
ATOM     19  C   UNL     1      -1.183  43.490  54.301  1.00  0.00     0.014 C 
ATOM     20  C   UNL     1      -0.830  41.924  52.350  1.00  0.00     0.014 C 
ENDBRANCH  12  18
BRANCH  16  21
ATOM     21  C   UNL     1       6.083  43.966  50.479  1.00  0.00     0.039 A 
ATOM     22  C   UNL     1       6.362  42.939  49.571  1.00  0.00     0.015 A 
ATOM     23  C   UNL     1       6.996  45.013  50.550  1.00  0.00     0.123 A 
ATOM     24  C   UNL     1       7.513  42.997  48.788  1.00  0.00     0.021 A 
ATOM     25  N   UNL     1       8.126  45.098  49.801  1.00  0.00    -0.264 NA
ATOM     26  C   UNL     1       8.356  44.086  48.938  1.00  0.00     0.111 A 
ENDBRANCH  16  21
ENDBRANCH   7   9
ENDBRANCH   6   7
ENDBRANCH   1   6
TORSDOF 8
ENDMDL
MODEL 19
REMARK VINA RESULT:    -6.924      2.330      4.585
REMARK INTER + INTRA:         -11.275
REMARK INTER:                 -10.220
REMARK INTRA:                  -1.055
REMARK UNBOUND:                -1.114
REMARK SMILES CCOCCCNc1cc(C(C)C)nc2nc(-c3cccnc3)nn12
REMARK SMILES IDX 5 1 4 2 3 3 2 4 1 5 6 6 7 7 8 9 9 10 25 11 10 12 24 13 15 14
REMARK SMILES IDX 14 15 17 16 16 17 11 18 12 19 13 20 18 21 19 22 23 23 20 24
REMARK SMILES IDX 22 25 21 26
REMARK H PARENT 7 8
ROOT
ATOM      1  C   UNL     1       3.502  40.869  49.844  1.00  0.00     0.050 C 
ENDROOT
BRANCH   1   2
ATOM      2  C   UNL     1       4.889  41.164  49.284  1.00  0.00     0.162 C 
BRANCH   2   3
ATOM      3  O   UNL     1       5.818  41.308  50.358  1.00  0.00    -0.382 OA
BRANCH   3   4
ATOM      4  C   UNL     1       7.131  41.601  49.885  1.00  0.00     0.156 C 
ATOM      5  C   UNL     1       7.110  42.966  49.227  1.00  0.00     0.035 C 
ENDBRANCH   3   4
ENDBRANCH   2   3
ENDBRANCH   1   2
BRANCH   1   6
ATOM      6  C   UNL     1       2.876  42.058  50.570  1.00  0.00     0.117 C 
BRANCH   6   7
ATOM      7  N   UNL     1       3.470  42.271  51.881  1.00  0.00    -0.370 N 
ATOM      8  H   UNL     1       3.493  41.438  52.464  1.00  0.00     0.162 HD
BRANCH   7   9
ATOM      9  C   UNL     1       3.864  43.462  52.493  1.00  0.00     0.133 A 
ATOM     10  C   UNL     1       5.058  44.013  52.202  1.00  0.00     0.071 A 
ATOM     11  N   UNL     1       3.045  44.147  53.434  1.00  0.00    -0.180 N 
ATOM     12  C   UNL     1       5.429  45.291  52.887  1.00  0.00     0.051 A 
ATOM     13  N   UNL     1       1.811  43.833  53.917  1.00  0.00    -0.143 NA
ATOM     14  C   UNL     1       3.473  45.341  54.033  1.00  0.00     0.254 A 
ATOM     15  N   UNL     1       4.678  45.910  53.750  1.00  0.00    -0.216 NA
ATOM     16  C   UNL     1       1.553  44.834  54.767  1.00  0.00     0.185 A 
ATOM     17  N   UNL     1       2.548  45.768  54.863  1.00  0.00    -0.189 NA
BRANCH  12  18
ATOM     18  C   UNL     1       6.785  45.921  52.558  1.00  0.00     0.032 C 
ATOM     19  C   UNL     1       7.100  45.811  51.070  1.00  0.00     0.014 C 
ATOM     20  C   UNL     1       6.858  47.364  53.048  1.00  0.00     0.014 C 
ENDBRANCH  12  18
BRANCH  16  21
ATOM     21  C   UNL     1       0.326  44.937  55.540  1.00  0.00     0.039 A 
ATOM     22  C   UNL     1      -0.893  44.441  55.066  1.00  0.00     0.015 A 
ATOM     23  C   UNL     1       0.319  45.539  56.794  1.00  0.00     0.123 A 
ATOM     24  C   UNL     1      -2.043  44.563  55.844  1.00  0.00     0.021 A 
ATOM     25  N   UNL     1      -0.783  45.673  57.575  1.00  0.00    -0.264 NA
ATOM     26  C   UNL     1      -1.938  45.180  57.080  1.00  0.00     0.111 A 
ENDBRANCH  16  21
ENDBRANCH   7   9
ENDBRANCH   6   7
ENDBRANCH   1   6
TORSDOF 8
ENDMDL
