MODEL 1
REMARK VINA RESULT:    -8.162      0.000      0.000
REMARK INTER + INTRA:         -13.405
REMARK INTER:                 -11.741
REMARK INTRA:                  -1.664
REMARK UNBOUND:                -1.664
REMARK SMILES COCCCNc1nc(Nc2ccc(C)cc2O)c2cnn(C)c2n1
REMARK SMILES IDX 6 1 5 3 4 4 3 5 2 6 1 7 7 8 8 9 25 10 9 11 24 12 19 13 22 14
REMARK SMILES IDX 20 15 21 16 23 17 10 18 11 20 12 21 17 22 13 23 16 24 14 25
REMARK SMILES IDX 15 26 18 27
REMARK H PARENT 6 2 10 19 18 28
ROOT
ATOM      1  N   UNL     1       2.999  44.565  52.257  1.00  0.00    -0.354 N 
ATOM      2  H   UNL     1       2.345  44.093  51.640  1.00  0.00     0.163 HD
ENDROOT
BRANCH   1   3
ATOM      3  C   UNL     1       2.577  45.869  52.737  1.00  0.00     0.118 C 
BRANCH   3   4
ATOM      4  C   UNL     1       1.845  45.705  54.067  1.00  0.00     0.050 C 
BRANCH   4   5
ATOM      5  C   UNL     1       2.790  45.216  55.158  1.00  0.00     0.161 C 
BRANCH   5   6
ATOM      6  O   UNL     1       4.086  45.800  55.028  1.00  0.00    -0.385 OA
ATOM      7  C   UNL     1       5.143  44.901  55.334  1.00  0.00     0.194 C 
ENDBRANCH   5   6
ENDBRANCH   4   5
ENDBRANCH   3   4
ENDBRANCH   1   3
BRANCH   1   8
ATOM      8  C   UNL     1       4.223  44.551  51.598  1.00  0.00     0.226 A 
ATOM      9  N   UNL     1       5.071  45.588  51.749  1.00  0.00    -0.195 NA
ATOM     10  N   UNL     1       4.442  43.464  50.846  1.00  0.00    -0.193 NA
ATOM     11  C   UNL     1       6.268  45.585  51.115  1.00  0.00     0.147 A 
ATOM     12  C   UNL     1       5.641  43.479  50.246  1.00  0.00     0.165 A 
ATOM     13  C   UNL     1       6.590  44.477  50.330  1.00  0.00     0.082 A 
ATOM     14  N   UNL     1       6.180  42.516  49.437  1.00  0.00    -0.250 N 
ATOM     15  C   UNL     1       7.664  44.012  49.543  1.00  0.00     0.149 A 
ATOM     16  N   UNL     1       7.419  42.821  48.984  1.00  0.00    -0.179 NA
ATOM     17  C   UNL     1       5.573  41.267  49.051  1.00  0.00     0.176 C 
BRANCH  11  18
ATOM     18  N   UNL     1       7.110  46.690  51.338  1.00  0.00    -0.336 N 
ATOM     19  H   UNL     1       7.600  46.832  50.452  1.00  0.00     0.168 HD
BRANCH  18  20
ATOM     20  C   UNL     1       8.028  46.828  52.408  1.00  0.00     0.082 A 
ATOM     21  C   UNL     1       9.399  46.602  52.265  1.00  0.00     0.030 A 
ATOM     22  C   UNL     1       7.569  47.357  53.622  1.00  0.00     0.139 A 
ATOM     23  C   UNL     1      10.273  46.844  53.332  1.00  0.00     0.006 A 
ATOM     24  C   UNL     1       8.428  47.610  54.686  1.00  0.00     0.051 A 
ATOM     25  C   UNL     1       9.792  47.336  54.554  1.00  0.00    -0.047 A 
ATOM     26  C   UNL     1      10.737  47.629  55.681  1.00  0.00     0.044 C 
BRANCH  22  27
ATOM     27  O   UNL     1       6.235  47.622  53.791  1.00  0.00    -0.506 OA
ATOM     28  H   UNL     1       5.846  46.787  54.113  1.00  0.00     0.293 HD
ENDBRANCH  22  27
ENDBRANCH  18  20
ENDBRANCH  11  18
ENDBRANCH   1   8
TORSDOF 8
ENDMDL
MODEL 2
REMARK VINA RESULT:    -8.093      1.209      1.472
REMARK INTER + INTRA:         -13.305
REMARK INTER:                 -11.987
REMARK INTRA:                  -1.318
REMARK UNBOUND:                -1.664
REMARK SMILES COCCCNc1nc(Nc2ccc(C)cc2O)c2cnn(C)c2n1
REMARK SMILES IDX 6 1 5 3 4 4 3 5 2 6 1 7 7 8 8 9 25 10 9 11 24 12 19 13 22 14
REMARK SMILES IDX 20 15 21 16 23 17 10 18 11 20 12 21 17 22 13 23 16 24 14 25
REMARK SMILES IDX 15 26 18 27
REMARK H PARENT 6 2 10 19 18 28
ROOT
ATOM      1  N   UNL     1       3.452  43.608  53.031  1.00  0.00    -0.354 N 
ATOM      2  H   UNL     1       3.800  42.899  53.669  1.00  0.00     0.163 HD
ENDROOT
BRANCH   1   3
ATOM      3  C   UNL     1       2.183  43.306  52.393  1.00  0.00     0.118 C 
BRANCH   3   4
ATOM      4  C   UNL     1       1.638  44.569  51.730  1.00  0.00     0.050 C 
BRANCH   4   5
ATOM      5  C   UNL     1       1.098  45.546  52.769  1.00  0.00     0.161 C 
BRANCH   5   6
ATOM      6  O   UNL     1       2.139  46.356  53.314  1.00  0.00    -0.385 OA
ATOM      7  C   UNL     1       2.771  47.186  52.349  1.00  0.00     0.194 C 
ENDBRANCH   5   6
ENDBRANCH   4   5
ENDBRANCH   3   4
ENDBRANCH   1   3
BRANCH   1   8
ATOM      8  C   UNL     1       4.498  43.881  52.157  1.00  0.00     0.226 A 
ATOM      9  N   UNL     1       5.209  45.016  52.304  1.00  0.00    -0.195 NA
ATOM     10  N   UNL     1       4.698  42.948  51.216  1.00  0.00    -0.193 NA
ATOM     11  C   UNL     1       6.232  45.292  51.460  1.00  0.00     0.147 A 
ATOM     12  C   UNL     1       5.729  43.236  50.408  1.00  0.00     0.165 A 
ATOM     13  C   UNL     1       6.528  44.360  50.465  1.00  0.00     0.082 A 
ATOM     14  N   UNL     1       6.210  42.486  49.370  1.00  0.00    -0.250 N 
ATOM     15  C   UNL     1       7.463  44.182  49.424  1.00  0.00     0.149 A 
ATOM     16  N   UNL     1       7.270  43.047  48.742  1.00  0.00    -0.179 NA
ATOM     17  C   UNL     1       5.711  41.211  48.916  1.00  0.00     0.176 C 
BRANCH  11  18
ATOM     18  N   UNL     1       6.942  46.484  51.689  1.00  0.00    -0.336 N 
ATOM     19  H   UNL     1       7.319  46.747  50.776  1.00  0.00     0.168 HD
BRANCH  18  20
ATOM     20  C   UNL     1       7.938  46.677  52.678  1.00  0.00     0.082 A 
ATOM     21  C   UNL     1       9.303  46.520  52.422  1.00  0.00     0.030 A 
ATOM     22  C   UNL     1       7.555  47.192  53.924  1.00  0.00     0.139 A 
ATOM     23  C   UNL     1      10.249  46.815  53.411  1.00  0.00     0.006 A 
ATOM     24  C   UNL     1       8.486  47.496  54.912  1.00  0.00     0.051 A 
ATOM     25  C   UNL     1       9.847  47.291  54.667  1.00  0.00    -0.047 A 
ATOM     26  C   UNL     1      10.866  47.641  55.710  1.00  0.00     0.044 C 
BRANCH  22  27
ATOM     27  O   UNL     1       6.228  47.389  54.203  1.00  0.00    -0.506 OA
ATOM     28  H   UNL     1       5.846  47.764  53.387  1.00  0.00     0.293 HD
ENDBRANCH  22  27
ENDBRANCH  18  20
ENDBRANCH  11  18
ENDBRANCH   1   8
TORSDOF 8
ENDMDL
MODEL 3
REMARK VINA RESULT:    -7.958      1.283      1.511
REMARK INTER + INTRA:         -13.112
REMARK INTER:                 -11.953
REMARK INTRA:                  -1.159
REMARK UNBOUND:                -1.664
REMARK SMILES COCCCNc1nc(Nc2ccc(C)cc2O)c2cnn(C)c2n1
REMARK SMILES IDX 6 1 5 3 4 4 3 5 2 6 1 7 7 8 8 9 25 10 9 11 24 12 19 13 22 14
REMARK SMILES IDX 20 15 21 16 23 17 10 18 11 20 12 21 17 22 13 23 16 24 14 25
REMARK SMILES IDX 15 26 18 27
REMARK H PARENT 6 2 10 19 18 28
ROOT
ATOM      1  N   UNL     1       3.394  43.611  53.048  1.00  0.00    -0.354 N 
ATOM      2  H   UNL     1       3.791  43.055  53.799  1.00  0.00     0.163 HD
ENDROOT
BRANCH   1   3
ATOM      3  C   UNL     1       2.213  43.055  52.414  1.00  0.00     0.118 C 
BRANCH   3   4
ATOM      4  C   UNL     1       1.195  42.675  53.486  1.00  0.00     0.050 C 
BRANCH   4   5
ATOM      5  C   UNL     1       0.597  43.916  54.140  1.00  0.00     0.161 C 
BRANCH   5   6
ATOM      6  O   UNL     1       1.544  44.568  54.987  1.00  0.00    -0.385 OA
ATOM      7  C   UNL     1       0.969  45.091  56.176  1.00  0.00     0.194 C 
ENDBRANCH   5   6
ENDBRANCH   4   5
ENDBRANCH   3   4
ENDBRANCH   1   3
BRANCH   1   8
ATOM      8  C   UNL     1       4.448  43.888  52.183  1.00  0.00     0.226 A 
ATOM      9  N   UNL     1       5.151  45.028  52.337  1.00  0.00    -0.195 NA
ATOM     10  N   UNL     1       4.661  42.956  51.245  1.00  0.00    -0.193 NA
ATOM     11  C   UNL     1       6.182  45.307  51.503  1.00  0.00     0.147 A 
ATOM     12  C   UNL     1       5.699  43.249  50.446  1.00  0.00     0.165 A 
ATOM     13  C   UNL     1       6.492  44.377  50.510  1.00  0.00     0.082 A 
ATOM     14  N   UNL     1       6.193  42.500  49.414  1.00  0.00    -0.250 N 
ATOM     15  C   UNL     1       7.438  44.203  49.479  1.00  0.00     0.149 A 
ATOM     16  N   UNL     1       7.257  43.066  48.796  1.00  0.00    -0.179 NA
ATOM     17  C   UNL     1       5.705  41.223  48.956  1.00  0.00     0.176 C 
BRANCH  11  18
ATOM     18  N   UNL     1       6.884  46.503  51.737  1.00  0.00    -0.336 N 
ATOM     19  H   UNL     1       7.233  46.789  50.820  1.00  0.00     0.168 HD
BRANCH  18  20
ATOM     20  C   UNL     1       7.903  46.687  52.704  1.00  0.00     0.082 A 
ATOM     21  C   UNL     1       9.263  46.551  52.410  1.00  0.00     0.030 A 
ATOM     22  C   UNL     1       7.547  47.173  53.970  1.00  0.00     0.139 A 
ATOM     23  C   UNL     1      10.231  46.838  53.380  1.00  0.00     0.006 A 
ATOM     24  C   UNL     1       8.500  47.468  54.939  1.00  0.00     0.051 A 
ATOM     25  C   UNL     1       9.856  47.284  54.655  1.00  0.00    -0.047 A 
ATOM     26  C   UNL     1      10.899  47.624  55.678  1.00  0.00     0.044 C 
BRANCH  22  27
ATOM     27  O   UNL     1       6.226  47.350  54.287  1.00  0.00    -0.506 OA
ATOM     28  H   UNL     1       6.204  48.131  54.872  1.00  0.00     0.293 HD
ENDBRANCH  22  27
ENDBRANCH  18  20
ENDBRANCH  11  18
ENDBRANCH   1   8
TORSDOF 8
ENDMDL
MODEL 4
REMARK VINA RESULT:    -7.956      1.203      1.730
REMARK INTER + INTRA:         -13.108
REMARK INTER:                 -11.759
REMARK INTRA:                  -1.349
REMARK UNBOUND:                -1.664
REMARK SMILES COCCCNc1nc(Nc2ccc(C)cc2O)c2cnn(C)c2n1
REMARK SMILES IDX 6 1 5 3 4 4 3 5 2 6 1 7 7 8 8 9 25 10 9 11 24 12 19 13 22 14
REMARK SMILES IDX 20 15 21 16 23 17 10 18 11 20 12 21 17 22 13 23 16 24 14 25
REMARK SMILES IDX 15 26 18 27
REMARK H PARENT 6 2 10 19 18 28
ROOT
ATOM      1  N   UNL     1       3.487  43.654  53.088  1.00  0.00    -0.354 N 
ATOM      2  H   UNL     1       2.695  43.354  52.528  1.00  0.00     0.163 HD
ENDROOT
BRANCH   1   3
ATOM      3  C   UNL     1       3.218  44.730  54.025  1.00  0.00     0.118 C 
BRANCH   3   4
ATOM      4  C   UNL     1       1.754  45.147  53.911  1.00  0.00     0.050 C 
BRANCH   4   5
ATOM      5  C   UNL     1       1.532  46.049  52.701  1.00  0.00     0.161 C 
BRANCH   5   6
ATOM      6  O   UNL     1       1.536  45.302  51.485  1.00  0.00    -0.385 OA
ATOM      7  C   UNL     1       0.415  44.440  51.349  1.00  0.00     0.194 C 
ENDBRANCH   5   6
ENDBRANCH   4   5
ENDBRANCH   3   4
ENDBRANCH   1   3
BRANCH   1   8
ATOM      8  C   UNL     1       4.518  43.902  52.189  1.00  0.00     0.226 A 
ATOM      9  N   UNL     1       5.252  45.026  52.314  1.00  0.00    -0.195 NA
ATOM     10  N   UNL     1       4.680  42.961  51.250  1.00  0.00    -0.193 NA
ATOM     11  C   UNL     1       6.261  45.277  51.446  1.00  0.00     0.147 A 
ATOM     12  C   UNL     1       5.697  43.226  50.417  1.00  0.00     0.165 A 
ATOM     13  C   UNL     1       6.518  44.335  50.449  1.00  0.00     0.082 A 
ATOM     14  N   UNL     1       6.141  42.461  49.373  1.00  0.00    -0.250 N 
ATOM     15  C   UNL     1       7.426  44.134  49.389  1.00  0.00     0.149 A 
ATOM     16  N   UNL     1       7.197  42.999  48.719  1.00  0.00    -0.179 NA
ATOM     17  C   UNL     1       5.609  41.193  48.939  1.00  0.00     0.176 C 
BRANCH  11  18
ATOM     18  N   UNL     1       6.998  46.458  51.651  1.00  0.00    -0.336 N 
ATOM     19  H   UNL     1       7.389  46.688  50.735  1.00  0.00     0.168 HD
BRANCH  18  20
ATOM     20  C   UNL     1       7.988  46.652  52.645  1.00  0.00     0.082 A 
ATOM     21  C   UNL     1       9.354  46.487  52.399  1.00  0.00     0.030 A 
ATOM     22  C   UNL     1       7.600  47.177  53.885  1.00  0.00     0.139 A 
ATOM     23  C   UNL     1      10.295  46.784  53.392  1.00  0.00     0.006 A 
ATOM     24  C   UNL     1       8.526  47.483  54.878  1.00  0.00     0.051 A 
ATOM     25  C   UNL     1       9.887  47.270  54.642  1.00  0.00    -0.047 A 
ATOM     26  C   UNL     1      10.902  47.621  55.690  1.00  0.00     0.044 C 
BRANCH  22  27
ATOM     27  O   UNL     1       6.273  47.383  54.155  1.00  0.00    -0.506 OA
ATOM     28  H   UNL     1       6.171  47.195  55.107  1.00  0.00     0.293 HD
ENDBRANCH  22  27
ENDBRANCH  18  20
ENDBRANCH  11  18
ENDBRANCH   1   8
TORSDOF 8
ENDMDL
MODEL 5
REMARK VINA RESULT:    -7.701      1.026      1.405
REMARK INTER + INTRA:         -12.742
REMARK INTER:                 -11.409
REMARK INTRA:                  -1.333
REMARK UNBOUND:                -1.664
REMARK SMILES COCCCNc1nc(Nc2ccc(C)cc2O)c2cnn(C)c2n1
REMARK SMILES IDX 6 1 5 3 4 4 3 5 2 6 1 7 7 8 8 9 25 10 9 11 24 12 19 13 22 14
REMARK SMILES IDX 20 15 21 16 23 17 10 18 11 20 12 21 17 22 13 23 16 24 14 25
REMARK SMILES IDX 15 26 18 27
REMARK H PARENT 6 2 10 19 18 28
ROOT
ATOM      1  N   UNL     1       3.411  44.509  52.440  1.00  0.00    -0.354 N 
ATOM      2  H   UNL     1       2.745  43.939  51.928  1.00  0.00     0.163 HD
ENDROOT
BRANCH   1   3
ATOM      3  C   UNL     1       2.935  45.822  52.838  1.00  0.00     0.118 C 
BRANCH   3   4
ATOM      4  C   UNL     1       2.200  45.711  54.171  1.00  0.00     0.050 C 
BRANCH   4   5
ATOM      5  C   UNL     1       3.178  45.513  55.324  1.00  0.00     0.161 C 
BRANCH   5   6
ATOM      6  O   UNL     1       4.498  45.922  54.965  1.00  0.00    -0.385 OA
ATOM      7  C   UNL     1       5.502  44.998  55.364  1.00  0.00     0.194 C 
ENDBRANCH   5   6
ENDBRANCH   4   5
ENDBRANCH   3   4
ENDBRANCH   1   3
BRANCH   1   8
ATOM      8  C   UNL     1       4.575  44.513  51.679  1.00  0.00     0.226 A 
ATOM      9  N   UNL     1       5.417  45.562  51.758  1.00  0.00    -0.195 NA
ATOM     10  N   UNL     1       4.744  43.429  50.911  1.00  0.00    -0.193 NA
ATOM     11  C   UNL     1       6.555  45.576  51.024  1.00  0.00     0.147 A 
ATOM     12  C   UNL     1       5.888  43.460  50.211  1.00  0.00     0.165 A 
ATOM     13  C   UNL     1       6.826  44.473  50.214  1.00  0.00     0.082 A 
ATOM     14  N   UNL     1       6.370  42.504  49.358  1.00  0.00    -0.250 N 
ATOM     15  C   UNL     1       7.835  44.023  49.338  1.00  0.00     0.149 A 
ATOM     16  N   UNL     1       7.561  42.827  48.802  1.00  0.00    -0.179 NA
ATOM     17  C   UNL     1       5.750  41.246  49.025  1.00  0.00     0.176 C 
BRANCH  11  18
ATOM     18  N   UNL     1       7.397  46.693  51.174  1.00  0.00    -0.336 N 
ATOM     19  H   UNL     1       7.985  46.696  50.339  1.00  0.00     0.168 HD
BRANCH  18  20
ATOM     20  C   UNL     1       8.194  46.981  52.309  1.00  0.00     0.082 A 
ATOM     21  C   UNL     1       7.674  47.534  53.483  1.00  0.00     0.030 A 
ATOM     22  C   UNL     1       9.530  46.557  52.315  1.00  0.00     0.139 A 
ATOM     23  C   UNL     1       8.490  47.710  54.607  1.00  0.00     0.006 A 
ATOM     24  C   UNL     1      10.349  46.719  53.428  1.00  0.00     0.051 A 
ATOM     25  C   UNL     1       9.836  47.317  54.583  1.00  0.00    -0.047 A 
ATOM     26  C   UNL     1      10.695  47.474  55.802  1.00  0.00     0.044 C 
BRANCH  22  27
ATOM     27  O   UNL     1      10.069  45.982  51.194  1.00  0.00    -0.506 OA
ATOM     28  H   UNL     1       9.612  45.125  51.099  1.00  0.00     0.293 HD
ENDBRANCH  22  27
ENDBRANCH  18  20
ENDBRANCH  11  18
ENDBRANCH   1   8
TORSDOF 8
ENDMDL
MODEL 6
REMARK VINA RESULT:    -7.573      1.599      2.132
REMARK INTER + INTRA:         -12.557
REMARK INTER:                 -11.698
REMARK INTRA:                  -0.859
REMARK UNBOUND:                -1.664
REMARK SMILES COCCCNc1nc(Nc2ccc(C)cc2O)c2cnn(C)c2n1
REMARK SMILES IDX 6 1 5 3 4 4 3 5 2 6 1 7 7 8 8 9 25 10 9 11 24 12 19 13 22 14
REMARK SMILES IDX 20 15 21 16 23 17 10 18 11 20 12 21 17 22 13 23 16 24 14 25
REMARK SMILES IDX 15 26 18 27
REMARK H PARENT 6 2 10 19 18 28
ROOT
ATOM      1  N   UNL     1       2.912  45.597  52.403  1.00  0.00    -0.354 N 
ATOM      2  H   UNL     1       2.372  46.085  51.694  1.00  0.00     0.163 HD
ENDROOT
BRANCH   1   3
ATOM      3  C   UNL     1       3.278  46.386  53.565  1.00  0.00     0.118 C 
BRANCH   3   4
ATOM      4  C   UNL     1       3.244  45.502  54.808  1.00  0.00     0.050 C 
BRANCH   4   5
ATOM      5  C   UNL     1       1.832  44.998  55.086  1.00  0.00     0.161 C 
BRANCH   5   6
ATOM      6  O   UNL     1       1.512  43.867  54.277  1.00  0.00    -0.385 OA
ATOM      7  C   UNL     1       0.120  43.732  54.023  1.00  0.00     0.194 C 
ENDBRANCH   5   6
ENDBRANCH   4   5
ENDBRANCH   3   4
ENDBRANCH   1   3
BRANCH   1   8
ATOM      8  C   UNL     1       3.980  45.012  51.732  1.00  0.00     0.226 A 
ATOM      9  N   UNL     1       5.131  45.699  51.586  1.00  0.00    -0.195 NA
ATOM     10  N   UNL     1       3.744  43.774  51.276  1.00  0.00    -0.193 NA
ATOM     11  C   UNL     1       6.179  45.138  50.937  1.00  0.00     0.147 A 
ATOM     12  C   UNL     1       4.805  43.236  50.655  1.00  0.00     0.165 A 
ATOM     13  C   UNL     1       6.030  43.838  50.452  1.00  0.00     0.082 A 
ATOM     14  N   UNL     1       4.903  41.988  50.103  1.00  0.00    -0.250 N 
ATOM     15  C   UNL     1       6.795  42.865  49.777  1.00  0.00     0.149 A 
ATOM     16  N   UNL     1       6.112  41.736  49.549  1.00  0.00    -0.179 NA
ATOM     17  C   UNL     1       3.882  40.971  50.069  1.00  0.00     0.176 C 
BRANCH  11  18
ATOM     18  N   UNL     1       7.354  45.906  50.843  1.00  0.00    -0.336 N 
ATOM     19  H   UNL     1       7.966  45.378  50.218  1.00  0.00     0.168 HD
BRANCH  18  20
ATOM     20  C   UNL     1       8.112  46.394  51.936  1.00  0.00     0.082 A 
ATOM     21  C   UNL     1       7.532  47.005  53.051  1.00  0.00     0.030 A 
ATOM     22  C   UNL     1       9.486  46.120  51.975  1.00  0.00     0.139 A 
ATOM     23  C   UNL     1       8.320  47.383  54.144  1.00  0.00     0.006 A 
ATOM     24  C   UNL     1      10.279  46.484  53.059  1.00  0.00     0.051 A 
ATOM     25  C   UNL     1       9.701  47.138  54.150  1.00  0.00    -0.047 A 
ATOM     26  C   UNL     1      10.534  47.512  55.339  1.00  0.00     0.044 C 
BRANCH  22  27
ATOM     27  O   UNL     1      10.088  45.494  50.915  1.00  0.00    -0.506 OA
ATOM     28  H   UNL     1      11.047  45.619  51.053  1.00  0.00     0.293 HD
ENDBRANCH  22  27
ENDBRANCH  18  20
ENDBRANCH  11  18
ENDBRANCH   1   8
TORSDOF 8
ENDMDL
MODEL 7
REMARK VINA RESULT:    -7.538      2.813      5.185
REMARK INTER + INTRA:         -12.507
REMARK INTER:                 -11.825
REMARK INTRA:                  -0.682
REMARK UNBOUND:                -1.664
REMARK SMILES COCCCNc1nc(Nc2ccc(C)cc2O)c2cnn(C)c2n1
REMARK SMILES IDX 6 1 5 3 4 4 3 5 2 6 1 7 7 8 8 9 25 10 9 11 24 12 19 13 22 14
REMARK SMILES IDX 20 15 21 16 23 17 10 18 11 20 12 21 17 22 13 23 16 24 14 25
REMARK SMILES IDX 15 26 18 27
REMARK H PARENT 6 2 10 19 18 28
ROOT
ATOM      1  N   UNL     1       6.491  41.796  48.942  1.00  0.00    -0.354 N 
ATOM      2  H   UNL     1       7.365  42.087  48.517  1.00  0.00     0.163 HD
ENDROOT
BRANCH   1   3
ATOM      3  C   UNL     1       5.447  41.397  48.015  1.00  0.00     0.118 C 
BRANCH   3   4
ATOM      4  C   UNL     1       5.777  41.930  46.622  1.00  0.00     0.050 C 
BRANCH   4   5
ATOM      5  C   UNL     1       4.748  41.464  45.598  1.00  0.00     0.161 C 
BRANCH   5   6
ATOM      6  O   UNL     1       3.863  40.490  46.151  1.00  0.00    -0.385 OA
ATOM      7  C   UNL     1       2.528  40.610  45.680  1.00  0.00     0.194 C 
ENDBRANCH   5   6
ENDBRANCH   4   5
ENDBRANCH   3   4
ENDBRANCH   1   3
BRANCH   1   8
ATOM      8  C   UNL     1       6.136  42.812  49.821  1.00  0.00     0.226 A 
ATOM      9  N   UNL     1       6.902  43.919  49.901  1.00  0.00    -0.195 NA
ATOM     10  N   UNL     1       5.026  42.575  50.533  1.00  0.00    -0.193 NA
ATOM     11  C   UNL     1       6.565  44.918  50.752  1.00  0.00     0.147 A 
ATOM     12  C   UNL     1       4.706  43.588  51.352  1.00  0.00     0.165 A 
ATOM     13  C   UNL     1       5.406  44.766  51.514  1.00  0.00     0.082 A 
ATOM     14  N   UNL     1       3.626  43.675  52.188  1.00  0.00    -0.250 N 
ATOM     15  C   UNL     1       4.658  45.494  52.462  1.00  0.00     0.149 A 
ATOM     16  N   UNL     1       3.576  44.832  52.888  1.00  0.00    -0.179 NA
ATOM     17  C   UNL     1       2.589  42.690  52.371  1.00  0.00     0.176 C 
BRANCH  11  18
ATOM     18  N   UNL     1       7.398  46.052  50.764  1.00  0.00    -0.336 N 
ATOM     19  H   UNL     1       8.017  45.934  49.960  1.00  0.00     0.168 HD
BRANCH  18  20
ATOM     20  C   UNL     1       8.153  46.511  51.872  1.00  0.00     0.082 A 
ATOM     21  C   UNL     1       7.586  47.215  52.938  1.00  0.00     0.030 A 
ATOM     22  C   UNL     1       9.493  46.116  51.981  1.00  0.00     0.139 A 
ATOM     23  C   UNL     1       8.361  47.562  54.051  1.00  0.00     0.006 A 
ATOM     24  C   UNL     1      10.271  46.448  53.085  1.00  0.00     0.051 A 
ATOM     25  C   UNL     1       9.711  47.194  54.126  1.00  0.00    -0.047 A 
ATOM     26  C   UNL     1      10.527  47.537  55.337  1.00  0.00     0.044 C 
BRANCH  22  27
ATOM     27  O   UNL     1      10.077  45.398  50.971  1.00  0.00    -0.506 OA
ATOM     28  H   UNL     1      10.189  46.031  50.236  1.00  0.00     0.293 HD
ENDBRANCH  22  27
ENDBRANCH  18  20
ENDBRANCH  11  18
ENDBRANCH   1   8
TORSDOF 8
ENDMDL
MODEL 8
REMARK VINA RESULT:    -7.468      2.481      4.904
REMARK INTER + INTRA:         -12.406
REMARK INTER:                 -11.612
REMARK INTRA:                  -0.794
REMARK UNBOUND:                -1.664
REMARK SMILES COCCCNc1nc(Nc2ccc(C)cc2O)c2cnn(C)c2n1
REMARK SMILES IDX 6 1 5 3 4 4 3 5 2 6 1 7 7 8 8 9 25 10 9 11 24 12 19 13 22 14
REMARK SMILES IDX 20 15 21 16 23 17 10 18 11 20 12 21 17 22 13 23 16 24 14 25
REMARK SMILES IDX 15 26 18 27
REMARK H PARENT 6 2 10 19 18 28
ROOT
ATOM      1  N   UNL     1       4.791  41.873  50.931  1.00  0.00    -0.354 N 
ATOM      2  H   UNL     1       4.925  41.388  51.813  1.00  0.00     0.163 HD
ENDROOT
BRANCH   1   3
ATOM      3  C   UNL     1       5.777  41.587  49.904  1.00  0.00     0.118 C 
BRANCH   3   4
ATOM      4  C   UNL     1       5.066  41.114  48.639  1.00  0.00     0.050 C 
BRANCH   4   5
ATOM      5  C   UNL     1       3.685  40.554  48.961  1.00  0.00     0.161 C 
BRANCH   5   6
ATOM      6  O   UNL     1       3.144  39.830  47.856  1.00  0.00    -0.385 OA
ATOM      7  C   UNL     1       3.520  40.365  46.594  1.00  0.00     0.194 C 
ENDBRANCH   5   6
ENDBRANCH   4   5
ENDBRANCH   3   4
ENDBRANCH   1   3
BRANCH   1   8
ATOM      8  C   UNL     1       4.653  43.218  51.253  1.00  0.00     0.226 A 
ATOM      9  N   UNL     1       5.706  44.047  51.112  1.00  0.00    -0.195 NA
ATOM     10  N   UNL     1       3.436  43.566  51.694  1.00  0.00    -0.193 NA
ATOM     11  C   UNL     1       5.583  45.360  51.420  1.00  0.00     0.147 A 
ATOM     12  C   UNL     1       3.338  44.875  51.972  1.00  0.00     0.165 A 
ATOM     13  C   UNL     1       4.341  45.816  51.862  1.00  0.00     0.082 A 
ATOM     14  N   UNL     1       2.233  45.552  52.413  1.00  0.00    -0.250 N 
ATOM     15  C   UNL     1       3.733  47.027  52.251  1.00  0.00     0.149 A 
ATOM     16  N   UNL     1       2.450  46.875  52.601  1.00  0.00    -0.179 NA
ATOM     17  C   UNL     1       0.926  45.004  52.675  1.00  0.00     0.176 C 
BRANCH  11  18
ATOM     18  N   UNL     1       6.718  46.169  51.226  1.00  0.00    -0.336 N 
ATOM     19  H   UNL     1       7.232  45.725  50.462  1.00  0.00     0.168 HD
BRANCH  18  20
ATOM     20  C   UNL     1       7.630  46.569  52.233  1.00  0.00     0.082 A 
ATOM     21  C   UNL     1       7.225  47.160  53.433  1.00  0.00     0.030 A 
ATOM     22  C   UNL     1       8.981  46.224  52.091  1.00  0.00     0.139 A 
ATOM     23  C   UNL     1       8.162  47.449  54.433  1.00  0.00     0.006 A 
ATOM     24  C   UNL     1       9.920  46.499  53.080  1.00  0.00     0.051 A 
ATOM     25  C   UNL     1       9.516  47.134  54.258  1.00  0.00    -0.047 A 
ATOM     26  C   UNL     1      10.509  47.412  55.348  1.00  0.00     0.044 C 
BRANCH  22  27
ATOM     27  O   UNL     1       9.413  45.615  50.942  1.00  0.00    -0.506 OA
ATOM     28  H   UNL     1       9.736  46.340  50.372  1.00  0.00     0.293 HD
ENDBRANCH  22  27
ENDBRANCH  18  20
ENDBRANCH  11  18
ENDBRANCH   1   8
TORSDOF 8
ENDMDL
MODEL 9
REMARK VINA RESULT:    -7.395      2.102      4.800
REMARK INTER + INTRA:         -12.302
REMARK INTER:                 -11.120
REMARK INTRA:                  -1.182
REMARK UNBOUND:                -1.664
REMARK SMILES COCCCNc1nc(Nc2ccc(C)cc2O)c2cnn(C)c2n1
REMARK SMILES IDX 6 1 5 3 4 4 3 5 2 6 1 7 7 8 8 9 25 10 9 11 24 12 19 13 22 14
REMARK SMILES IDX 20 15 21 16 23 17 10 18 11 20 12 21 17 22 13 23 16 24 14 25
REMARK SMILES IDX 15 26 18 27
REMARK H PARENT 6 2 10 19 18 28
ROOT
ATOM      1  N   UNL     1       4.286  41.609  51.179  1.00  0.00    -0.354 N 
ATOM      2  H   UNL     1       5.285  41.759  51.073  1.00  0.00     0.163 HD
ENDROOT
BRANCH   1   3
ATOM      3  C   UNL     1       3.588  41.172  49.983  1.00  0.00     0.118 C 
BRANCH   3   4
ATOM      4  C   UNL     1       4.606  40.856  48.890  1.00  0.00     0.050 C 
BRANCH   4   5
ATOM      5  C   UNL     1       5.994  41.363  49.268  1.00  0.00     0.161 C 
BRANCH   5   6
ATOM      6  O   UNL     1       6.169  42.731  48.898  1.00  0.00    -0.385 OA
ATOM      7  C   UNL     1       7.377  43.296  49.388  1.00  0.00     0.194 C 
ENDBRANCH   5   6
ENDBRANCH   4   5
ENDBRANCH   3   4
ENDBRANCH   1   3
BRANCH   1   8
ATOM      8  C   UNL     1       3.786  42.769  51.759  1.00  0.00     0.226 A 
ATOM      9  N   UNL     1       4.497  43.911  51.682  1.00  0.00    -0.195 NA
ATOM     10  N   UNL     1       2.598  42.625  52.363  1.00  0.00    -0.193 NA
ATOM     11  C   UNL     1       4.018  45.049  52.240  1.00  0.00     0.147 A 
ATOM     12  C   UNL     1       2.140  43.771  52.889  1.00  0.00     0.165 A 
ATOM     13  C   UNL     1       2.774  44.996  52.868  1.00  0.00     0.082 A 
ATOM     14  N   UNL     1       0.956  43.971  53.546  1.00  0.00    -0.250 N 
ATOM     15  C   UNL     1       1.883  45.866  53.531  1.00  0.00     0.149 A 
ATOM     16  N   UNL     1       0.776  45.248  53.958  1.00  0.00    -0.179 NA
ATOM     17  C   UNL     1      -0.064  42.988  53.816  1.00  0.00     0.176 C 
BRANCH  11  18
ATOM     18  N   UNL     1       4.805  46.206  52.101  1.00  0.00    -0.336 N 
ATOM     19  H   UNL     1       4.761  46.439  51.107  1.00  0.00     0.168 HD
BRANCH  18  20
ATOM     20  C   UNL     1       6.137  46.361  52.558  1.00  0.00     0.082 A 
ATOM     21  C   UNL     1       7.245  46.280  51.711  1.00  0.00     0.030 A 
ATOM     22  C   UNL     1       6.349  46.761  53.885  1.00  0.00     0.139 A 
ATOM     23  C   UNL     1       8.532  46.534  52.199  1.00  0.00     0.006 A 
ATOM     24  C   UNL     1       7.622  47.024  54.380  1.00  0.00     0.051 A 
ATOM     25  C   UNL     1       8.731  46.894  53.539  1.00  0.00    -0.047 A 
ATOM     26  C   UNL     1      10.108  47.201  54.048  1.00  0.00     0.044 C 
BRANCH  22  27
ATOM     27  O   UNL     1       5.285  46.882  54.740  1.00  0.00    -0.506 OA
ATOM     28  H   UNL     1       5.387  47.759  55.156  1.00  0.00     0.293 HD
ENDBRANCH  22  27
ENDBRANCH  18  20
ENDBRANCH  11  18
ENDBRANCH   1   8
TORSDOF 8
ENDMDL
MODEL 10
REMARK VINA RESULT:    -7.319      2.881      6.435
REMARK INTER + INTRA:         -12.193
REMARK INTER:                 -11.293
REMARK INTRA:                  -0.900
REMARK UNBOUND:                -1.664
REMARK SMILES COCCCNc1nc(Nc2ccc(C)cc2O)c2cnn(C)c2n1
REMARK SMILES IDX 6 1 5 3 4 4 3 5 2 6 1 7 7 8 8 9 25 10 9 11 24 12 19 13 22 14
REMARK SMILES IDX 20 15 21 16 23 17 10 18 11 20 12 21 17 22 13 23 16 24 14 25
REMARK SMILES IDX 15 26 18 27
REMARK H PARENT 6 2 10 19 18 28
ROOT
ATOM      1  N   UNL     1       3.981  45.516  55.645  1.00  0.00    -0.354 N 
ATOM      2  H   UNL     1       3.753  46.505  55.638  1.00  0.00     0.163 HD
ENDROOT
BRANCH   1   3
ATOM      3  C   UNL     1       5.322  45.180  55.202  1.00  0.00     0.118 C 
BRANCH   3   4
ATOM      4  C   UNL     1       6.087  46.462  54.887  1.00  0.00     0.050 C 
BRANCH   4   5
ATOM      5  C   UNL     1       5.683  47.025  53.529  1.00  0.00     0.161 C 
BRANCH   5   6
ATOM      6  O   UNL     1       4.586  47.931  53.644  1.00  0.00    -0.385 OA
ATOM      7  C   UNL     1       3.537  47.665  52.722  1.00  0.00     0.194 C 
ENDBRANCH   5   6
ENDBRANCH   4   5
ENDBRANCH   3   4
ENDBRANCH   1   3
BRANCH   1   8
ATOM      8  C   UNL     1       2.958  44.884  54.948  1.00  0.00     0.226 A 
ATOM      9  N   UNL     1       3.229  44.272  53.778  1.00  0.00    -0.195 NA
ATOM     10  N   UNL     1       1.755  44.954  55.534  1.00  0.00    -0.193 NA
ATOM     11  C   UNL     1       2.241  43.650  53.091  1.00  0.00     0.147 A 
ATOM     12  C   UNL     1       0.800  44.314  54.843  1.00  0.00     0.165 A 
ATOM     13  C   UNL     1       0.959  43.651  53.643  1.00  0.00     0.082 A 
ATOM     14  N   UNL     1      -0.519  44.175  55.177  1.00  0.00    -0.250 N 
ATOM     15  C   UNL     1      -0.322  43.142  53.348  1.00  0.00     0.149 A 
ATOM     16  N   UNL     1      -1.234  43.466  54.272  1.00  0.00    -0.179 NA
ATOM     17  C   UNL     1      -1.176  44.688  56.353  1.00  0.00     0.176 C 
BRANCH  11  18
ATOM     18  N   UNL     1       2.603  43.014  51.890  1.00  0.00    -0.336 N 
ATOM     19  H   UNL     1       2.458  42.017  52.064  1.00  0.00     0.168 HD
BRANCH  18  20
ATOM     20  C   UNL     1       3.824  43.194  51.194  1.00  0.00     0.082 A 
ATOM     21  C   UNL     1       4.478  44.427  51.115  1.00  0.00     0.030 A 
ATOM     22  C   UNL     1       4.483  42.064  50.692  1.00  0.00     0.139 A 
ATOM     23  C   UNL     1       5.730  44.527  50.495  1.00  0.00     0.006 A 
ATOM     24  C   UNL     1       5.730  42.150  50.081  1.00  0.00     0.051 A 
ATOM     25  C   UNL     1       6.357  43.393  49.961  1.00  0.00    -0.047 A 
ATOM     26  C   UNL     1       7.714  43.501  49.331  1.00  0.00     0.044 C 
BRANCH  22  27
ATOM     27  O   UNL     1       3.889  40.832  50.778  1.00  0.00    -0.506 OA
ATOM     28  H   UNL     1       4.211  40.336  50.001  1.00  0.00     0.293 HD
ENDBRANCH  22  27
ENDBRANCH  18  20
ENDBRANCH  11  18
ENDBRANCH   1   8
TORSDOF 8
ENDMDL
MODEL 11
REMARK VINA RESULT:    -7.260      2.169      5.714
REMARK INTER + INTRA:         -12.108
REMARK INTER:                 -11.468
REMARK INTRA:                  -0.640
REMARK UNBOUND:                -1.664
REMARK SMILES COCCCNc1nc(Nc2ccc(C)cc2O)c2cnn(C)c2n1
REMARK SMILES IDX 6 1 5 3 4 4 3 5 2 6 1 7 7 8 8 9 25 10 9 11 24 12 19 13 22 14
REMARK SMILES IDX 20 15 21 16 23 17 10 18 11 20 12 21 17 22 13 23 16 24 14 25
REMARK SMILES IDX 15 26 18 27
REMARK H PARENT 6 2 10 19 18 28
ROOT
ATOM      1  N   UNL     1       4.506  47.553  53.489  1.00  0.00    -0.354 N 
ATOM      2  H   UNL     1       4.350  47.156  54.410  1.00  0.00     0.163 HD
ENDROOT
BRANCH   1   3
ATOM      3  C   UNL     1       3.460  47.303  52.514  1.00  0.00     0.118 C 
BRANCH   3   4
ATOM      4  C   UNL     1       2.392  46.407  53.137  1.00  0.00     0.050 C 
BRANCH   4   5
ATOM      5  C   UNL     1       2.964  45.042  53.503  1.00  0.00     0.161 C 
BRANCH   5   6
ATOM      6  O   UNL     1       3.146  44.914  54.913  1.00  0.00    -0.385 OA
ATOM      7  C   UNL     1       2.138  45.566  55.673  1.00  0.00     0.194 C 
ENDBRANCH   5   6
ENDBRANCH   4   5
ENDBRANCH   3   4
ENDBRANCH   1   3
BRANCH   1   8
ATOM      8  C   UNL     1       5.776  47.139  53.105  1.00  0.00     0.226 A 
ATOM      9  N   UNL     1       5.919  46.346  52.024  1.00  0.00    -0.195 NA
ATOM     10  N   UNL     1       6.770  47.586  53.885  1.00  0.00    -0.193 NA
ATOM     11  C   UNL     1       7.152  45.938  51.639  1.00  0.00     0.147 A 
ATOM     12  C   UNL     1       7.980  47.183  53.469  1.00  0.00     0.165 A 
ATOM     13  C   UNL     1       8.249  46.379  52.380  1.00  0.00     0.082 A 
ATOM     14  N   UNL     1       9.194  47.484  54.023  1.00  0.00    -0.250 N 
ATOM     15  C   UNL     1       9.654  46.266  52.363  1.00  0.00     0.149 A 
ATOM     16  N   UNL     1      10.240  46.927  53.368  1.00  0.00    -0.179 NA
ATOM     17  C   UNL     1       9.440  48.307  55.181  1.00  0.00     0.176 C 
BRANCH  11  18
ATOM     18  N   UNL     1       7.225  45.131  50.489  1.00  0.00    -0.336 N 
ATOM     19  H   UNL     1       7.106  45.775  49.705  1.00  0.00     0.168 HD
BRANCH  18  20
ATOM     20  C   UNL     1       6.464  43.959  50.252  1.00  0.00     0.082 A 
ATOM     21  C   UNL     1       5.241  43.708  50.878  1.00  0.00     0.030 A 
ATOM     22  C   UNL     1       6.877  43.086  49.236  1.00  0.00     0.139 A 
ATOM     23  C   UNL     1       4.487  42.579  50.535  1.00  0.00     0.006 A 
ATOM     24  C   UNL     1       6.132  41.966  48.880  1.00  0.00     0.051 A 
ATOM     25  C   UNL     1       4.933  41.694  49.545  1.00  0.00    -0.047 A 
ATOM     26  C   UNL     1       4.103  40.507  49.156  1.00  0.00     0.044 C 
BRANCH  22  27
ATOM     27  O   UNL     1       8.056  43.315  48.576  1.00  0.00    -0.506 OA
ATOM     28  H   UNL     1       7.963  44.204  48.183  1.00  0.00     0.293 HD
ENDBRANCH  22  27
ENDBRANCH  18  20
ENDBRANCH  11  18
ENDBRANCH   1   8
TORSDOF 8
ENDMDL
MODEL 12
REMARK VINA RESULT:    -7.174      2.588      6.893
REMARK INTER + INTRA:         -11.984
REMARK INTER:                 -10.607
REMARK INTRA:                  -1.377
REMARK UNBOUND:                -1.664
REMARK SMILES COCCCNc1nc(Nc2ccc(C)cc2O)c2cnn(C)c2n1
REMARK SMILES IDX 6 1 5 3 4 4 3 5 2 6 1 7 7 8 8 9 25 10 9 11 24 12 19 13 22 14
REMARK SMILES IDX 20 15 21 16 23 17 10 18 11 20 12 21 17 22 13 23 16 24 14 25
REMARK SMILES IDX 15 26 18 27
REMARK H PARENT 6 2 10 19 18 28
ROOT
ATOM      1  N   UNL     1       6.246  44.311  49.737  1.00  0.00    -0.354 N 
ATOM      2  H   UNL     1       5.333  43.930  49.511  1.00  0.00     0.163 HD
ENDROOT
BRANCH   1   3
ATOM      3  C   UNL     1       7.372  43.428  49.491  1.00  0.00     0.118 C 
BRANCH   3   4
ATOM      4  C   UNL     1       7.057  42.041  50.044  1.00  0.00     0.050 C 
BRANCH   4   5
ATOM      5  C   UNL     1       5.856  41.425  49.333  1.00  0.00     0.161 C 
BRANCH   5   6
ATOM      6  O   UNL     1       4.706  41.400  50.178  1.00  0.00    -0.385 OA
ATOM      7  C   UNL     1       3.587  40.753  49.587  1.00  0.00     0.194 C 
ENDBRANCH   5   6
ENDBRANCH   4   5
ENDBRANCH   3   4
ENDBRANCH   1   3
BRANCH   1   8
ATOM      8  C   UNL     1       6.149  44.787  51.039  1.00  0.00     0.226 A 
ATOM      9  N   UNL     1       5.108  44.411  51.808  1.00  0.00    -0.195 NA
ATOM     10  N   UNL     1       7.139  45.609  51.411  1.00  0.00    -0.193 NA
ATOM     11  C   UNL     1       5.003  44.865  53.080  1.00  0.00     0.147 A 
ATOM     12  C   UNL     1       7.021  46.027  52.680  1.00  0.00     0.165 A 
ATOM     13  C   UNL     1       6.008  45.706  53.559  1.00  0.00     0.082 A 
ATOM     14  N   UNL     1       7.873  46.847  53.370  1.00  0.00    -0.250 N 
ATOM     15  C   UNL     1       6.349  46.377  54.752  1.00  0.00     0.149 A 
ATOM     16  N   UNL     1       7.480  47.085  54.643  1.00  0.00    -0.179 NA
ATOM     17  C   UNL     1       9.091  47.442  52.881  1.00  0.00     0.176 C 
BRANCH  11  18
ATOM     18  N   UNL     1       3.902  44.412  53.830  1.00  0.00    -0.336 N 
ATOM     19  H   UNL     1       4.190  43.504  54.200  1.00  0.00     0.168 HD
BRANCH  18  20
ATOM     20  C   UNL     1       2.566  44.327  53.368  1.00  0.00     0.082 A 
ATOM     21  C   UNL     1       1.687  45.413  53.381  1.00  0.00     0.030 A 
ATOM     22  C   UNL     1       2.150  43.150  52.731  1.00  0.00     0.139 A 
ATOM     23  C   UNL     1       0.407  45.298  52.825  1.00  0.00     0.006 A 
ATOM     24  C   UNL     1       0.884  43.025  52.168  1.00  0.00     0.051 A 
ATOM     25  C   UNL     1      -0.008  44.099  52.228  1.00  0.00    -0.047 A 
ATOM     26  C   UNL     1      -1.367  43.993  51.601  1.00  0.00     0.044 C 
BRANCH  22  27
ATOM     27  O   UNL     1       2.994  42.072  52.670  1.00  0.00    -0.506 OA
ATOM     28  H   UNL     1       3.576  42.155  53.449  1.00  0.00     0.293 HD
ENDBRANCH  22  27
ENDBRANCH  18  20
ENDBRANCH  11  18
ENDBRANCH   1   8
TORSDOF 8
ENDMDL
MODEL 13
REMARK VINA RESULT:    -7.132      2.586      7.349
REMARK INTER + INTRA:         -11.923
REMARK INTER:                 -11.076
REMARK INTRA:                  -0.847
REMARK UNBOUND:                -1.664
REMARK SMILES COCCCNc1nc(Nc2ccc(C)cc2O)c2cnn(C)c2n1
REMARK SMILES IDX 6 1 5 3 4 4 3 5 2 6 1 7 7 8 8 9 25 10 9 11 24 12 19 13 22 14
REMARK SMILES IDX 20 15 21 16 23 17 10 18 11 20 12 21 17 22 13 23 16 24 14 25
REMARK SMILES IDX 15 26 18 27
REMARK H PARENT 6 2 10 19 18 28
ROOT
ATOM      1  N   UNL     1       7.826  45.828  50.515  1.00  0.00    -0.354 N 
ATOM      2  H   UNL     1       8.639  45.262  50.293  1.00  0.00     0.163 HD
ENDROOT
BRANCH   1   3
ATOM      3  C   UNL     1       8.022  46.827  51.550  1.00  0.00     0.118 C 
BRANCH   3   4
ATOM      4  C   UNL     1       9.496  46.863  51.946  1.00  0.00     0.050 C 
BRANCH   4   5
ATOM      5  C   UNL     1       9.709  46.256  53.328  1.00  0.00     0.161 C 
BRANCH   5   6
ATOM      6  O   UNL     1      10.275  47.204  54.233  1.00  0.00    -0.385 OA
ATOM      7  C   UNL     1       9.302  47.964  54.935  1.00  0.00     0.194 C 
ENDBRANCH   5   6
ENDBRANCH   4   5
ENDBRANCH   3   4
ENDBRANCH   1   3
BRANCH   1   8
ATOM      8  C   UNL     1       6.791  44.932  50.754  1.00  0.00     0.226 A 
ATOM      9  N   UNL     1       6.751  43.766  50.079  1.00  0.00    -0.195 NA
ATOM     10  N   UNL     1       5.899  45.338  51.667  1.00  0.00    -0.193 NA
ATOM     11  C   UNL     1       5.749  42.883  50.305  1.00  0.00     0.147 A 
ATOM     12  C   UNL     1       4.930  44.437  51.886  1.00  0.00     0.165 A 
ATOM     13  C   UNL     1       4.789  43.214  51.262  1.00  0.00     0.082 A 
ATOM     14  N   UNL     1       3.888  44.530  52.769  1.00  0.00    -0.250 N 
ATOM     15  C   UNL     1       3.638  42.648  51.848  1.00  0.00     0.149 A 
ATOM     16  N   UNL     1       3.074  43.449  52.761  1.00  0.00    -0.179 NA
ATOM     17  C   UNL     1       3.604  45.624  53.663  1.00  0.00     0.176 C 
BRANCH  11  18
ATOM     18  N   UNL     1       5.786  41.678  49.580  1.00  0.00    -0.336 N 
ATOM     19  H   UNL     1       6.776  41.429  49.531  1.00  0.00     0.168 HD
BRANCH  18  20
ATOM     20  C   UNL     1       5.184  41.455  48.317  1.00  0.00     0.082 A 
ATOM     21  C   UNL     1       5.758  41.881  47.116  1.00  0.00     0.030 A 
ATOM     22  C   UNL     1       4.044  40.642  48.252  1.00  0.00     0.139 A 
ATOM     23  C   UNL     1       5.167  41.550  45.891  1.00  0.00     0.006 A 
ATOM     24  C   UNL     1       3.452  40.301  47.040  1.00  0.00     0.051 A 
ATOM     25  C   UNL     1       4.003  40.771  45.845  1.00  0.00    -0.047 A 
ATOM     26  C   UNL     1       3.396  40.389  44.527  1.00  0.00     0.044 C 
BRANCH  22  27
ATOM     27  O   UNL     1       3.468  40.179  49.405  1.00  0.00    -0.506 OA
ATOM     28  H   UNL     1       4.032  39.436  49.694  1.00  0.00     0.293 HD
ENDBRANCH  22  27
ENDBRANCH  18  20
ENDBRANCH  11  18
ENDBRANCH   1   8
TORSDOF 8
ENDMDL
MODEL 14
REMARK VINA RESULT:    -7.090      1.855      6.239
REMARK INTER + INTRA:         -11.863
REMARK INTER:                 -10.734
REMARK INTRA:                  -1.129
REMARK UNBOUND:                -1.664
REMARK SMILES COCCCNc1nc(Nc2ccc(C)cc2O)c2cnn(C)c2n1
REMARK SMILES IDX 6 1 5 3 4 4 3 5 2 6 1 7 7 8 8 9 25 10 9 11 24 12 19 13 22 14
REMARK SMILES IDX 20 15 21 16 23 17 10 18 11 20 12 21 17 22 13 23 16 24 14 25
REMARK SMILES IDX 15 26 18 27
REMARK H PARENT 6 2 10 19 18 28
ROOT
ATOM      1  N   UNL     1       6.865  47.108  52.784  1.00  0.00    -0.354 N 
ATOM      2  H   UNL     1       7.446  47.480  52.039  1.00  0.00     0.163 HD
ENDROOT
BRANCH   1   3
ATOM      3  C   UNL     1       7.500  47.015  54.087  1.00  0.00     0.118 C 
BRANCH   3   4
ATOM      4  C   UNL     1       8.720  47.932  54.121  1.00  0.00     0.050 C 
BRANCH   4   5
ATOM      5  C   UNL     1      10.010  47.136  53.963  1.00  0.00     0.161 C 
BRANCH   5   6
ATOM      6  O   UNL     1       9.818  45.988  53.137  1.00  0.00    -0.385 OA
ATOM      7  C   UNL     1      10.371  46.132  51.835  1.00  0.00     0.194 C 
ENDBRANCH   5   6
ENDBRANCH   4   5
ENDBRANCH   3   4
ENDBRANCH   1   3
BRANCH   1   8
ATOM      8  C   UNL     1       6.342  45.914  52.300  1.00  0.00     0.226 A 
ATOM      9  N   UNL     1       5.266  45.367  52.901  1.00  0.00    -0.195 NA
ATOM     10  N   UNL     1       6.991  45.407  51.244  1.00  0.00    -0.193 NA
ATOM     11  C   UNL     1       4.747  44.206  52.437  1.00  0.00     0.147 A 
ATOM     12  C   UNL     1       6.443  44.269  50.793  1.00  0.00     0.165 A 
ATOM     13  C   UNL     1       5.345  43.621  51.320  1.00  0.00     0.082 A 
ATOM     14  N   UNL     1       6.845  43.517  49.722  1.00  0.00    -0.250 N 
ATOM     15  C   UNL     1       5.165  42.496  50.488  1.00  0.00     0.149 A 
ATOM     16  N   UNL     1       6.082  42.418  49.517  1.00  0.00    -0.179 NA
ATOM     17  C   UNL     1       7.951  43.787  48.838  1.00  0.00     0.176 C 
BRANCH  11  18
ATOM     18  N   UNL     1       3.611  43.706  53.100  1.00  0.00    -0.336 N 
ATOM     19  H   UNL     1       3.651  42.694  52.967  1.00  0.00     0.168 HD
BRANCH  18  20
ATOM     20  C   UNL     1       2.279  44.151  52.908  1.00  0.00     0.082 A 
ATOM     21  C   UNL     1       1.675  44.218  51.650  1.00  0.00     0.030 A 
ATOM     22  C   UNL     1       1.483  44.391  54.037  1.00  0.00     0.139 A 
ATOM     23  C   UNL     1       0.326  44.575  51.530  1.00  0.00     0.006 A 
ATOM     24  C   UNL     1       0.141  44.738  53.930  1.00  0.00     0.051 A 
ATOM     25  C   UNL     1      -0.446  44.851  52.667  1.00  0.00    -0.047 A 
ATOM     26  C   UNL     1      -1.899  45.197  52.533  1.00  0.00     0.044 C 
BRANCH  22  27
ATOM     27  O   UNL     1       2.031  44.305  55.290  1.00  0.00    -0.506 OA
ATOM     28  H   UNL     1       1.288  44.446  55.906  1.00  0.00     0.293 HD
ENDBRANCH  22  27
ENDBRANCH  18  20
ENDBRANCH  11  18
ENDBRANCH   1   8
TORSDOF 8
ENDMDL
MODEL 15
REMARK VINA RESULT:    -7.050      2.791      4.541
REMARK INTER + INTRA:         -11.805
REMARK INTER:                 -10.915
REMARK INTRA:                  -0.889
REMARK UNBOUND:                -1.664
REMARK SMILES COCCCNc1nc(Nc2ccc(C)cc2O)c2cnn(C)c2n1
REMARK SMILES IDX 6 1 5 3 4 4 3 5 2 6 1 7 7 8 8 9 25 10 9 11 24 12 19 13 22 14
REMARK SMILES IDX 20 15 21 16 23 17 10 18 11 20 12 21 17 22 13 23 16 24 14 25
REMARK SMILES IDX 15 26 18 27
REMARK H PARENT 6 2 10 19 18 28
ROOT
ATOM      1  N   UNL     1       2.161  45.451  56.180  1.00  0.00    -0.354 N 
ATOM      2  H   UNL     1       2.968  44.966  56.562  1.00  0.00     0.163 HD
ENDROOT
BRANCH   1   3
ATOM      3  C   UNL     1       0.892  45.151  56.817  1.00  0.00     0.118 C 
BRANCH   3   4
ATOM      4  C   UNL     1       0.353  46.412  57.488  1.00  0.00     0.050 C 
BRANCH   4   5
ATOM      5  C   UNL     1       1.216  46.813  58.680  1.00  0.00     0.161 C 
BRANCH   5   6
ATOM      6  O   UNL     1       0.492  47.631  59.598  1.00  0.00    -0.385 OA
ATOM      7  C   UNL     1      -0.801  47.994  59.131  1.00  0.00     0.194 C 
ENDBRANCH   5   6
ENDBRANCH   4   5
ENDBRANCH   3   4
ENDBRANCH   1   3
BRANCH   1   8
ATOM      8  C   UNL     1       2.196  45.227  54.809  1.00  0.00     0.226 A 
ATOM      9  N   UNL     1       3.005  45.976  54.033  1.00  0.00    -0.195 NA
ATOM     10  N   UNL     1       1.385  44.251  54.380  1.00  0.00    -0.193 NA
ATOM     11  C   UNL     1       3.050  45.765  52.696  1.00  0.00     0.147 A 
ATOM     12  C   UNL     1       1.464  44.051  53.056  1.00  0.00     0.165 A 
ATOM     13  C   UNL     1       2.256  44.748  52.166  1.00  0.00     0.082 A 
ATOM     14  N   UNL     1       0.792  43.120  52.312  1.00  0.00    -0.250 N 
ATOM     15  C   UNL     1       1.991  44.152  50.916  1.00  0.00     0.149 A 
ATOM     16  N   UNL     1       1.091  43.164  50.992  1.00  0.00    -0.179 NA
ATOM     17  C   UNL     1      -0.153  42.143  52.792  1.00  0.00     0.176 C 
BRANCH  11  18
ATOM     18  N   UNL     1       3.934  46.570  51.954  1.00  0.00    -0.336 N 
ATOM     19  H   UNL     1       3.606  46.501  50.988  1.00  0.00     0.168 HD
BRANCH  18  20
ATOM     20  C   UNL     1       5.348  46.482  51.975  1.00  0.00     0.082 A 
ATOM     21  C   UNL     1       6.079  45.769  51.022  1.00  0.00     0.030 A 
ATOM     22  C   UNL     1       6.054  47.265  52.899  1.00  0.00     0.139 A 
ATOM     23  C   UNL     1       7.479  45.794  51.037  1.00  0.00     0.006 A 
ATOM     24  C   UNL     1       7.444  47.305  52.919  1.00  0.00     0.051 A 
ATOM     25  C   UNL     1       8.171  46.550  51.993  1.00  0.00    -0.047 A 
ATOM     26  C   UNL     1       9.670  46.603  51.981  1.00  0.00     0.044 C 
BRANCH  22  27
ATOM     27  O   UNL     1       5.373  48.004  53.830  1.00  0.00    -0.506 OA
ATOM     28  H   UNL     1       4.491  47.589  53.893  1.00  0.00     0.293 HD
ENDBRANCH  22  27
ENDBRANCH  18  20
ENDBRANCH  11  18
ENDBRANCH   1   8
TORSDOF 8
ENDMDL
MODEL 16
REMARK VINA RESULT:    -7.017      2.243      6.566
REMARK INTER + INTRA:         -11.758
REMARK INTER:                 -10.825
REMARK INTRA:                  -0.933
REMARK UNBOUND:                -1.664
REMARK SMILES COCCCNc1nc(Nc2ccc(C)cc2O)c2cnn(C)c2n1
REMARK SMILES IDX 6 1 5 3 4 4 3 5 2 6 1 7 7 8 8 9 25 10 9 11 24 12 19 13 22 14
REMARK SMILES IDX 20 15 21 16 23 17 10 18 11 20 12 21 17 22 13 23 16 24 14 25
REMARK SMILES IDX 15 26 18 27
REMARK H PARENT 6 2 10 19 18 28
ROOT
ATOM      1  N   UNL     1       6.706  46.364  51.575  1.00  0.00    -0.354 N 
ATOM      2  H   UNL     1       6.229  47.022  50.966  1.00  0.00     0.163 HD
ENDROOT
BRANCH   1   3
ATOM      3  C   UNL     1       8.075  46.049  51.207  1.00  0.00     0.118 C 
BRANCH   3   4
ATOM      4  C   UNL     1       8.996  47.170  51.681  1.00  0.00     0.050 C 
BRANCH   4   5
ATOM      5  C   UNL     1       8.209  48.265  52.392  1.00  0.00     0.161 C 
BRANCH   5   6
ATOM      6  O   UNL     1       8.197  48.066  53.805  1.00  0.00    -0.385 OA
ATOM      7  C   UNL     1       9.428  47.572  54.315  1.00  0.00     0.194 C 
ENDBRANCH   5   6
ENDBRANCH   4   5
ENDBRANCH   3   4
ENDBRANCH   1   3
BRANCH   1   8
ATOM      8  C   UNL     1       5.861  45.265  51.684  1.00  0.00     0.226 A 
ATOM      9  N   UNL     1       4.848  45.291  52.572  1.00  0.00    -0.195 NA
ATOM     10  N   UNL     1       6.156  44.249  50.862  1.00  0.00    -0.193 NA
ATOM     11  C   UNL     1       4.016  44.228  52.686  1.00  0.00     0.147 A 
ATOM     12  C   UNL     1       5.305  43.219  50.981  1.00  0.00     0.165 A 
ATOM     13  C   UNL     1       4.234  43.134  51.847  1.00  0.00     0.082 A 
ATOM     14  N   UNL     1       5.310  42.047  50.275  1.00  0.00    -0.250 N 
ATOM     15  C   UNL     1       3.657  41.876  51.575  1.00  0.00     0.149 A 
ATOM     16  N   UNL     1       4.313  41.200  50.624  1.00  0.00    -0.179 NA
ATOM     17  C   UNL     1       6.237  41.662  49.240  1.00  0.00     0.176 C 
BRANCH  11  18
ATOM     18  N   UNL     1       2.968  44.336  53.618  1.00  0.00    -0.336 N 
ATOM     19  H   UNL     1       3.257  43.758  54.409  1.00  0.00     0.168 HD
BRANCH  18  20
ATOM     20  C   UNL     1       1.596  44.108  53.349  1.00  0.00     0.082 A 
ATOM     21  C   UNL     1       0.950  42.908  53.660  1.00  0.00     0.030 A 
ATOM     22  C   UNL     1       0.814  45.178  52.893  1.00  0.00     0.139 A 
ATOM     23  C   UNL     1      -0.429  42.771  53.459  1.00  0.00     0.006 A 
ATOM     24  C   UNL     1      -0.557  45.057  52.697  1.00  0.00     0.051 A 
ATOM     25  C   UNL     1      -1.189  43.839  52.963  1.00  0.00    -0.047 A 
ATOM     26  C   UNL     1      -2.672  43.698  52.785  1.00  0.00     0.044 C 
BRANCH  22  27
ATOM     27  O   UNL     1       1.405  46.381  52.606  1.00  0.00    -0.506 OA
ATOM     28  H   UNL     1       2.061  46.187  51.910  1.00  0.00     0.293 HD
ENDBRANCH  22  27
ENDBRANCH  18  20
ENDBRANCH  11  18
ENDBRANCH   1   8
TORSDOF 8
ENDMDL
MODEL 17
REMARK VINA RESULT:    -7.001      1.980      5.707
REMARK INTER + INTRA:         -11.734
REMARK INTER:                 -10.343
REMARK INTRA:                  -1.391
REMARK UNBOUND:                -1.664
REMARK SMILES COCCCNc1nc(Nc2ccc(C)cc2O)c2cnn(C)c2n1
REMARK SMILES IDX 6 1 5 3 4 4 3 5 2 6 1 7 7 8 8 9 25 10 9 11 24 12 19 13 22 14
REMARK SMILES IDX 20 15 21 16 23 17 10 18 11 20 12 21 17 22 13 23 16 24 14 25
REMARK SMILES IDX 15 26 18 27
REMARK H PARENT 6 2 10 19 18 28
ROOT
ATOM      1  N   UNL     1       6.166  44.095  49.661  1.00  0.00    -0.354 N 
ATOM      2  H   UNL     1       5.151  44.091  49.689  1.00  0.00     0.163 HD
ENDROOT
BRANCH   1   3
ATOM      3  C   UNL     1       6.800  42.792  49.756  1.00  0.00     0.118 C 
BRANCH   3   4
ATOM      4  C   UNL     1       5.749  41.703  49.562  1.00  0.00     0.050 C 
BRANCH   4   5
ATOM      5  C   UNL     1       4.864  41.566  50.796  1.00  0.00     0.161 C 
BRANCH   5   6
ATOM      6  O   UNL     1       3.952  42.658  50.909  1.00  0.00    -0.385 OA
ATOM      7  C   UNL     1       3.274  42.699  52.157  1.00  0.00     0.194 C 
ENDBRANCH   5   6
ENDBRANCH   4   5
ENDBRANCH   3   4
ENDBRANCH   1   3
BRANCH   1   8
ATOM      8  C   UNL     1       6.570  45.014  50.623  1.00  0.00     0.226 A 
ATOM      9  N   UNL     1       5.642  45.650  51.366  1.00  0.00    -0.195 NA
ATOM     10  N   UNL     1       7.896  45.184  50.712  1.00  0.00    -0.193 NA
ATOM     11  C   UNL     1       6.023  46.546  52.308  1.00  0.00     0.147 A 
ATOM     12  C   UNL     1       8.245  46.061  51.665  1.00  0.00     0.165 A 
ATOM     13  C   UNL     1       7.389  46.765  52.488  1.00  0.00     0.082 A 
ATOM     14  N   UNL     1       9.510  46.438  52.028  1.00  0.00    -0.250 N 
ATOM     15  C   UNL     1       8.241  47.528  53.314  1.00  0.00     0.149 A 
ATOM     16  N   UNL     1       9.536  47.344  53.034  1.00  0.00    -0.179 NA
ATOM     17  C   UNL     1      10.751  45.970  51.463  1.00  0.00     0.176 C 
BRANCH  11  18
ATOM     18  N   UNL     1       5.001  47.153  53.060  1.00  0.00    -0.336 N 
ATOM     19  H   UNL     1       5.483  47.630  53.825  1.00  0.00     0.168 HD
BRANCH  18  20
ATOM     20  C   UNL     1       3.850  46.501  53.567  1.00  0.00     0.082 A 
ATOM     21  C   UNL     1       3.766  46.017  54.875  1.00  0.00     0.030 A 
ATOM     22  C   UNL     1       2.692  46.474  52.778  1.00  0.00     0.139 A 
ATOM     23  C   UNL     1       2.570  45.466  55.353  1.00  0.00     0.006 A 
ATOM     24  C   UNL     1       1.496  45.937  53.244  1.00  0.00     0.051 A 
ATOM     25  C   UNL     1       1.432  45.409  54.536  1.00  0.00    -0.047 A 
ATOM     26  C   UNL     1       0.144  44.852  55.065  1.00  0.00     0.044 C 
BRANCH  22  27
ATOM     27  O   UNL     1       2.725  46.968  51.500  1.00  0.00    -0.506 OA
ATOM     28  H   UNL     1       3.570  46.656  51.125  1.00  0.00     0.293 HD
ENDBRANCH  22  27
ENDBRANCH  18  20
ENDBRANCH  11  18
ENDBRANCH   1   8
TORSDOF 8
ENDMDL
MODEL 18
REMARK VINA RESULT:    -6.947      1.862      6.260
REMARK INTER + INTRA:         -11.657
REMARK INTER:                 -10.767
REMARK INTRA:                  -0.890
REMARK UNBOUND:                -1.664
REMARK SMILES COCCCNc1nc(Nc2ccc(C)cc2O)c2cnn(C)c2n1
REMARK SMILES IDX 6 1 5 3 4 4 3 5 2 6 1 7 7 8 8 9 25 10 9 11 24 12 19 13 22 14
REMARK SMILES IDX 20 15 21 16 23 17 10 18 11 20 12 21 17 22 13 23 16 24 14 25
REMARK SMILES IDX 15 26 18 27
REMARK H PARENT 6 2 10 19 18 28
ROOT
ATOM      1  N   UNL     1       6.932  46.409  51.511  1.00  0.00    -0.354 N 
ATOM      2  H   UNL     1       6.462  47.033  50.862  1.00  0.00     0.163 HD
ENDROOT
BRANCH   1   3
ATOM      3  C   UNL     1       8.318  46.111  51.202  1.00  0.00     0.118 C 
BRANCH   3   4
ATOM      4  C   UNL     1       9.215  47.182  51.817  1.00  0.00     0.050 C 
BRANCH   4   5
ATOM      5  C   UNL     1       8.391  48.236  52.548  1.00  0.00     0.161 C 
BRANCH   5   6
ATOM      6  O   UNL     1       8.290  47.945  53.942  1.00  0.00    -0.385 OA
ATOM      7  C   UNL     1       9.520  47.528  54.520  1.00  0.00     0.194 C 
ENDBRANCH   5   6
ENDBRANCH   4   5
ENDBRANCH   3   4
ENDBRANCH   1   3
BRANCH   1   8
ATOM      8  C   UNL     1       6.107  45.296  51.634  1.00  0.00     0.226 A 
ATOM      9  N   UNL     1       5.233  45.226  52.658  1.00  0.00    -0.195 NA
ATOM     10  N   UNL     1       6.274  44.368  50.683  1.00  0.00    -0.193 NA
ATOM     11  C   UNL     1       4.422  44.149  52.787  1.00  0.00     0.147 A 
ATOM     12  C   UNL     1       5.445  43.322  50.823  1.00  0.00     0.165 A 
ATOM     13  C   UNL     1       4.511  43.144  51.823  1.00  0.00     0.082 A 
ATOM     14  N   UNL     1       5.343  42.225  50.012  1.00  0.00    -0.250 N 
ATOM     15  C   UNL     1       3.895  41.913  51.515  1.00  0.00     0.149 A 
ATOM     16  N   UNL     1       4.403  41.339  50.418  1.00  0.00    -0.179 NA
ATOM     17  C   UNL     1       6.107  41.952  48.821  1.00  0.00     0.176 C 
BRANCH  11  18
ATOM     18  N   UNL     1       3.521  44.155  53.867  1.00  0.00    -0.336 N 
ATOM     19  H   UNL     1       3.668  43.261  54.339  1.00  0.00     0.168 HD
BRANCH  18  20
ATOM     20  C   UNL     1       2.131  44.417  53.783  1.00  0.00     0.082 A 
ATOM     21  C   UNL     1       1.429  44.412  52.575  1.00  0.00     0.030 A 
ATOM     22  C   UNL     1       1.398  44.538  54.972  1.00  0.00     0.139 A 
ATOM     23  C   UNL     1       0.039  44.584  52.561  1.00  0.00     0.006 A 
ATOM     24  C   UNL     1       0.017  44.701  54.971  1.00  0.00     0.051 A 
ATOM     25  C   UNL     1      -0.674  44.744  53.757  1.00  0.00    -0.047 A 
ATOM     26  C   UNL     1      -2.166  44.891  53.738  1.00  0.00     0.044 C 
BRANCH  22  27
ATOM     27  O   UNL     1       2.046  44.516  56.179  1.00  0.00    -0.506 OA
ATOM     28  H   UNL     1       1.419  44.910  56.815  1.00  0.00     0.293 HD
ENDBRANCH  22  27
ENDBRANCH  18  20
ENDBRANCH  11  18
ENDBRANCH   1   8
TORSDOF 8
ENDMDL
MODEL 19
REMARK VINA RESULT:    -6.923      2.894      6.730
REMARK INTER + INTRA:         -11.623
REMARK INTER:                 -10.334
REMARK INTRA:                  -1.289
REMARK UNBOUND:                -1.664
REMARK SMILES COCCCNc1nc(Nc2ccc(C)cc2O)c2cnn(C)c2n1
REMARK SMILES IDX 6 1 5 3 4 4 3 5 2 6 1 7 7 8 8 9 25 10 9 11 24 12 19 13 22 14
REMARK SMILES IDX 20 15 21 16 23 17 10 18 11 20 12 21 17 22 13 23 16 24 14 25
REMARK SMILES IDX 15 26 18 27
REMARK H PARENT 6 2 10 19 18 28
ROOT
ATOM      1  N   UNL     1       2.353  42.553  53.068  1.00  0.00    -0.354 N 
ATOM      2  H   UNL     1       2.503  41.596  53.370  1.00  0.00     0.163 HD
ENDROOT
BRANCH   1   3
ATOM      3  C   UNL     1       1.070  42.820  52.444  1.00  0.00     0.118 C 
BRANCH   3   4
ATOM      4  C   UNL     1       0.129  43.446  53.470  1.00  0.00     0.050 C 
BRANCH   4   5
ATOM      5  C   UNL     1       0.659  44.792  53.953  1.00  0.00     0.161 C 
BRANCH   5   6
ATOM      6  O   UNL     1       1.547  44.637  55.060  1.00  0.00    -0.385 OA
ATOM      7  C   UNL     1       1.114  45.322  56.228  1.00  0.00     0.194 C 
ENDBRANCH   5   6
ENDBRANCH   4   5
ENDBRANCH   3   4
ENDBRANCH   1   3
BRANCH   1   8
ATOM      8  C   UNL     1       3.461  42.888  52.297  1.00  0.00     0.226 A 
ATOM      9  N   UNL     1       3.938  42.002  51.399  1.00  0.00    -0.195 NA
ATOM     10  N   UNL     1       3.964  44.106  52.538  1.00  0.00    -0.193 NA
ATOM     11  C   UNL     1       5.014  42.317  50.640  1.00  0.00     0.147 A 
ATOM     12  C   UNL     1       5.015  44.399  51.759  1.00  0.00     0.165 A 
ATOM     13  C   UNL     1       5.586  43.579  50.807  1.00  0.00     0.082 A 
ATOM     14  N   UNL     1       5.737  45.562  51.735  1.00  0.00    -0.250 N 
ATOM     15  C   UNL     1       6.636  44.347  50.263  1.00  0.00     0.149 A 
ATOM     16  N   UNL     1       6.744  45.554  50.830  1.00  0.00    -0.179 NA
ATOM     17  C   UNL     1       5.521  46.734  52.546  1.00  0.00     0.176 C 
BRANCH  11  18
ATOM     18  N   UNL     1       5.442  41.353  49.710  1.00  0.00    -0.336 N 
ATOM     19  H   UNL     1       6.462  41.401  49.729  1.00  0.00     0.168 HD
BRANCH  18  20
ATOM     20  C   UNL     1       5.004  41.249  48.366  1.00  0.00     0.082 A 
ATOM     21  C   UNL     1       5.701  41.812  47.294  1.00  0.00     0.030 A 
ATOM     22  C   UNL     1       3.910  40.420  48.080  1.00  0.00     0.139 A 
ATOM     23  C   UNL     1       5.273  41.598  45.978  1.00  0.00     0.006 A 
ATOM     24  C   UNL     1       3.480  40.194  46.776  1.00  0.00     0.051 A 
ATOM     25  C   UNL     1       4.152  40.799  45.711  1.00  0.00    -0.047 A 
ATOM     26  C   UNL     1       3.720  40.543  44.298  1.00  0.00     0.044 C 
BRANCH  22  27
ATOM     27  O   UNL     1       3.218  39.825  49.102  1.00  0.00    -0.506 OA
ATOM     28  H   UNL     1       2.540  40.475  49.368  1.00  0.00     0.293 HD
ENDBRANCH  22  27
ENDBRANCH  18  20
ENDBRANCH  11  18
ENDBRANCH   1   8
TORSDOF 8
ENDMDL
MODEL 20
REMARK VINA RESULT:    -6.908      2.121      5.558
REMARK INTER + INTRA:         -11.601
REMARK INTER:                 -10.572
REMARK INTRA:                  -1.028
REMARK UNBOUND:                -1.664
REMARK SMILES COCCCNc1nc(Nc2ccc(C)cc2O)c2cnn(C)c2n1
REMARK SMILES IDX 6 1 5 3 4 4 3 5 2 6 1 7 7 8 8 9 25 10 9 11 24 12 19 13 22 14
REMARK SMILES IDX 20 15 21 16 23 17 10 18 11 20 12 21 17 22 13 23 16 24 14 25
REMARK SMILES IDX 15 26 18 27
REMARK H PARENT 6 2 10 19 18 28
ROOT
ATOM      1  N   UNL     1       5.046  46.879  55.313  1.00  0.00    -0.354 N 
ATOM      2  H   UNL     1       5.322  46.334  56.123  1.00  0.00     0.163 HD
ENDROOT
BRANCH   1   3
ATOM      3  C   UNL     1       3.699  46.638  54.826  1.00  0.00     0.118 C 
BRANCH   3   4
ATOM      4  C   UNL     1       3.268  45.225  55.211  1.00  0.00     0.050 C 
BRANCH   4   5
ATOM      5  C   UNL     1       1.872  44.913  54.683  1.00  0.00     0.161 C 
BRANCH   5   6
ATOM      6  O   UNL     1       1.904  43.881  53.698  1.00  0.00    -0.385 OA
ATOM      7  C   UNL     1       0.618  43.367  53.378  1.00  0.00     0.194 C 
ENDBRANCH   5   6
ENDBRANCH   4   5
ENDBRANCH   3   4
ENDBRANCH   1   3
BRANCH   1   8
ATOM      8  C   UNL     1       6.051  46.696  54.370  1.00  0.00     0.226 A 
ATOM      9  N   UNL     1       5.732  46.272  53.131  1.00  0.00    -0.195 NA
ATOM     10  N   UNL     1       7.287  46.970  54.810  1.00  0.00    -0.193 NA
ATOM     11  C   UNL     1       6.703  46.093  52.203  1.00  0.00     0.147 A 
ATOM     12  C   UNL     1       8.225  46.804  53.865  1.00  0.00     0.165 A 
ATOM     13  C   UNL     1       8.018  46.381  52.568  1.00  0.00     0.082 A 
ATOM     14  N   UNL     1       9.571  47.022  53.980  1.00  0.00    -0.250 N 
ATOM     15  C   UNL     1       9.303  46.387  51.985  1.00  0.00     0.149 A 
ATOM     16  N   UNL     1      10.258  46.766  52.842  1.00  0.00    -0.179 NA
ATOM     17  C   UNL     1      10.279  47.482  55.148  1.00  0.00     0.176 C 
BRANCH  11  18
ATOM     18  N   UNL     1       6.292  45.670  50.926  1.00  0.00    -0.336 N 
ATOM     19  H   UNL     1       5.715  46.433  50.567  1.00  0.00     0.168 HD
BRANCH  18  20
ATOM     20  C   UNL     1       5.671  44.433  50.625  1.00  0.00     0.082 A 
ATOM     21  C   UNL     1       6.366  43.343  50.093  1.00  0.00     0.030 A 
ATOM     22  C   UNL     1       4.339  44.239  51.014  1.00  0.00     0.139 A 
ATOM     23  C   UNL     1       5.722  42.115  49.903  1.00  0.00     0.006 A 
ATOM     24  C   UNL     1       3.690  43.021  50.838  1.00  0.00     0.051 A 
ATOM     25  C   UNL     1       4.377  41.949  50.261  1.00  0.00    -0.047 A 
ATOM     26  C   UNL     1       3.703  40.620  50.089  1.00  0.00     0.044 C 
BRANCH  22  27
ATOM     27  O   UNL     1       3.632  45.273  51.568  1.00  0.00    -0.506 OA
ATOM     28  H   UNL     1       3.414  44.981  52.474  1.00  0.00     0.293 HD
ENDBRANCH  22  27
ENDBRANCH  18  20
ENDBRANCH  11  18
ENDBRANCH   1   8
TORSDOF 8
ENDMDL
