MODEL 1
REMARK VINA RESULT:    -8.476      0.000      0.000
REMARK INTER + INTRA:         -13.506
REMARK INTER:                 -11.944
REMARK INTRA:                  -1.562
REMARK UNBOUND:                -1.562
REMARK SMILES Cc1cc(Cl)ccc1Nc1nc(NCCOC(C)C)nc2c1cnn2C
REMARK SMILES IDX 13 1 12 3 10 4 11 5 22 6 21 7 23 8 20 9 25 10 24 11 26 12
REMARK SMILES IDX 9 13 8 15 2 16 3 17 4 18 7 19 6 20 1 21 5 22 14 23 15 24
REMARK SMILES IDX 16 25 17 26 18 27 19 28
REMARK H PARENT 13 2 9 14
ROOT
ATOM      1  N   UNL     1       2.703  46.084  51.827  1.00  0.00    -0.352 N 
ATOM      2  H   UNL     1       2.211  46.386  50.994  1.00  0.00     0.163 HD
ENDROOT
BRANCH   1   3
ATOM      3  C   UNL     1       3.849  45.426  51.410  1.00  0.00     0.226 A 
ATOM      4  C   UNL     1       6.140  45.471  50.927  1.00  0.00     0.147 A 
ATOM      5  N   UNL     1       5.012  46.098  51.341  1.00  0.00    -0.195 NA
ATOM      6  C   UNL     1       6.052  44.117  50.599  1.00  0.00     0.082 A 
ATOM      7  C   UNL     1       4.807  43.531  50.715  1.00  0.00     0.165 A 
ATOM      8  C   UNL     1       6.892  43.075  50.158  1.00  0.00     0.149 A 
ATOM      9  N   UNL     1       3.675  44.131  51.114  1.00  0.00    -0.193 NA
ATOM     10  N   UNL     1       4.970  42.225  50.339  1.00  0.00    -0.250 N 
ATOM     11  N   UNL     1       6.241  41.916  49.996  1.00  0.00    -0.179 NA
ATOM     12  C   UNL     1       3.954  41.205  50.284  1.00  0.00     0.176 C 
BRANCH   4  13
ATOM     13  N   UNL     1       7.316  46.244  50.880  1.00  0.00    -0.339 N 
ATOM     14  H   UNL     1       7.860  45.865  50.106  1.00  0.00     0.168 HD
BRANCH  13  15
ATOM     15  C   UNL     1       8.141  46.534  51.987  1.00  0.00     0.043 A 
ATOM     16  C   UNL     1       9.498  46.158  52.058  1.00  0.00    -0.026 A 
ATOM     17  C   UNL     1      10.244  46.500  53.200  1.00  0.00     0.026 A 
ATOM     18  C   UNL     1       9.666  47.240  54.230  1.00  0.00     0.041 A 
ATOM     19  C   UNL     1       7.588  47.305  53.021  1.00  0.00     0.028 A 
ATOM     20  C   UNL     1       8.342  47.652  54.142  1.00  0.00     0.022 A 
ATOM     21  C   UNL     1      10.175  45.373  50.966  1.00  0.00     0.046 C 
ATOM     22  Cl  UNL     1      10.601  47.656  55.614  1.00  0.00    -0.084 Cl
ENDBRANCH  13  15
ENDBRANCH   4  13
ENDBRANCH   1   3
BRANCH   1  23
ATOM     23  C   UNL     1       1.896  45.417  52.839  1.00  0.00     0.144 C 
BRANCH  23  24
ATOM     24  C   UNL     1       2.274  45.822  54.272  1.00  0.00     0.181 C 
BRANCH  24  25
ATOM     25  O   UNL     1       3.161  44.866  54.860  1.00  0.00    -0.377 OA
BRANCH  25  26
ATOM     26  C   UNL     1       4.417  45.408  55.279  1.00  0.00     0.112 C 
ATOM     27  C   UNL     1       5.558  44.641  54.616  1.00  0.00     0.038 C 
ATOM     28  C   UNL     1       4.442  46.870  54.853  1.00  0.00     0.038 C 
ENDBRANCH  25  26
ENDBRANCH  24  25
ENDBRANCH  23  24
ENDBRANCH   1  23
TORSDOF 7
ENDMDL
MODEL 2
REMARK VINA RESULT:    -8.351      1.519      1.900
REMARK INTER + INTRA:         -13.331
REMARK INTER:                 -12.299
REMARK INTRA:                  -1.032
REMARK UNBOUND:                -1.562
REMARK SMILES Cc1cc(Cl)ccc1Nc1nc(NCCOC(C)C)nc2c1cnn2C
REMARK SMILES IDX 13 1 12 3 10 4 11 5 22 6 21 7 23 8 20 9 25 10 24 11 26 12
REMARK SMILES IDX 9 13 8 15 2 16 3 17 4 18 7 19 6 20 1 21 5 22 14 23 15 24
REMARK SMILES IDX 16 25 17 26 18 27 19 28
REMARK H PARENT 13 2 9 14
ROOT
ATOM      1  N   UNL     1       3.972  43.781  53.350  1.00  0.00    -0.352 N 
ATOM      2  H   UNL     1       4.126  44.494  54.054  1.00  0.00     0.163 HD
ENDROOT
BRANCH   1   3
ATOM      3  C   UNL     1       4.911  43.983  52.350  1.00  0.00     0.226 A 
ATOM      4  C   UNL     1       6.619  45.287  51.419  1.00  0.00     0.147 A 
ATOM      5  N   UNL     1       5.701  45.071  52.394  1.00  0.00    -0.195 NA
ATOM      6  C   UNL     1       6.720  44.343  50.397  1.00  0.00     0.082 A 
ATOM      7  C   UNL     1       5.861  43.265  50.461  1.00  0.00     0.165 A 
ATOM      8  C   UNL     1       7.481  44.118  49.232  1.00  0.00     0.149 A 
ATOM      9  N   UNL     1       4.940  43.031  51.409  1.00  0.00    -0.193 NA
ATOM     10  N   UNL     1       6.142  42.494  49.365  1.00  0.00    -0.250 N 
ATOM     11  N   UNL     1       7.137  42.992  48.595  1.00  0.00    -0.179 NA
ATOM     12  C   UNL     1       5.503  41.260  48.985  1.00  0.00     0.176 C 
BRANCH   4  13
ATOM     13  N   UNL     1       7.405  46.449  51.536  1.00  0.00    -0.339 N 
ATOM     14  H   UNL     1       7.874  46.551  50.637  1.00  0.00     0.168 HD
BRANCH  13  15
ATOM     15  C   UNL     1       8.286  46.729  52.602  1.00  0.00     0.043 A 
ATOM     16  C   UNL     1       9.659  46.411  52.574  1.00  0.00    -0.026 A 
ATOM     17  C   UNL     1      10.460  46.739  53.682  1.00  0.00     0.026 A 
ATOM     18  C   UNL     1       9.917  47.409  54.777  1.00  0.00     0.041 A 
ATOM     19  C   UNL     1       7.767  47.432  53.701  1.00  0.00     0.028 A 
ATOM     20  C   UNL     1       8.574  47.765  54.788  1.00  0.00     0.022 A 
ATOM     21  C   UNL     1      10.299  45.704  51.410  1.00  0.00     0.046 C 
ATOM     22  Cl  UNL     1      10.919  47.809  56.118  1.00  0.00    -0.084 Cl
ENDBRANCH  13  15
ENDBRANCH   4  13
ENDBRANCH   1   3
BRANCH   1  23
ATOM     23  C   UNL     1       2.593  43.591  52.924  1.00  0.00     0.144 C 
BRANCH  23  24
ATOM     24  C   UNL     1       1.924  44.892  52.455  1.00  0.00     0.181 C 
BRANCH  24  25
ATOM     25  O   UNL     1       2.339  46.001  53.257  1.00  0.00    -0.377 OA
BRANCH  25  26
ATOM     26  C   UNL     1       2.763  47.144  52.508  1.00  0.00     0.112 C 
ATOM     27  C   UNL     1       3.966  47.791  53.188  1.00  0.00     0.038 C 
ATOM     28  C   UNL     1       3.138  46.656  51.115  1.00  0.00     0.038 C 
ENDBRANCH  25  26
ENDBRANCH  24  25
ENDBRANCH  23  24
ENDBRANCH   1  23
TORSDOF 7
ENDMDL
MODEL 3
REMARK VINA RESULT:    -8.342      2.822      5.099
REMARK INTER + INTRA:         -13.317
REMARK INTER:                 -12.467
REMARK INTRA:                  -0.850
REMARK UNBOUND:                -1.562
REMARK SMILES Cc1cc(Cl)ccc1Nc1nc(NCCOC(C)C)nc2c1cnn2C
REMARK SMILES IDX 13 1 12 3 10 4 11 5 22 6 21 7 23 8 20 9 25 10 24 11 26 12
REMARK SMILES IDX 9 13 8 15 2 16 3 17 4 18 7 19 6 20 1 21 5 22 14 23 15 24
REMARK SMILES IDX 16 25 17 26 18 27 19 28
REMARK H PARENT 13 2 9 14
ROOT
ATOM      1  N   UNL     1       6.642  42.382  49.117  1.00  0.00    -0.352 N 
ATOM      2  H   UNL     1       7.639  42.250  49.247  1.00  0.00     0.163 HD
ENDROOT
BRANCH   1   3
ATOM      3  C   UNL     1       6.225  43.308  50.061  1.00  0.00     0.226 A 
ATOM      4  C   UNL     1       6.552  45.342  51.174  1.00  0.00     0.147 A 
ATOM      5  N   UNL     1       6.942  44.431  50.249  1.00  0.00    -0.195 NA
ATOM      6  C   UNL     1       5.387  45.082  51.896  1.00  0.00     0.082 A 
ATOM      7  C   UNL     1       4.732  43.901  51.612  1.00  0.00     0.165 A 
ATOM      8  C   UNL     1       4.602  45.688  52.897  1.00  0.00     0.149 A 
ATOM      9  N   UNL     1       5.100  42.980  50.708  1.00  0.00    -0.193 NA
ATOM     10  N   UNL     1       3.640  43.868  52.437  1.00  0.00    -0.250 N 
ATOM     11  N   UNL     1       3.533  44.956  53.235  1.00  0.00    -0.179 NA
ATOM     12  C   UNL     1       2.647  42.828  52.522  1.00  0.00     0.176 C 
BRANCH   4  13
ATOM     13  N   UNL     1       7.357  46.489  51.312  1.00  0.00    -0.339 N 
ATOM     14  H   UNL     1       7.857  46.579  50.429  1.00  0.00     0.168 HD
BRANCH  13  15
ATOM     15  C   UNL     1       8.207  46.756  52.406  1.00  0.00     0.043 A 
ATOM     16  C   UNL     1       9.578  46.430  52.416  1.00  0.00    -0.026 A 
ATOM     17  C   UNL     1      10.348  46.745  53.551  1.00  0.00     0.026 A 
ATOM     18  C   UNL     1       9.777  47.411  54.634  1.00  0.00     0.041 A 
ATOM     19  C   UNL     1       7.660  47.454  53.494  1.00  0.00     0.028 A 
ATOM     20  C   UNL     1       8.436  47.775  54.608  1.00  0.00     0.022 A 
ATOM     21  C   UNL     1      10.249  45.727  51.267  1.00  0.00     0.046 C 
ATOM     22  Cl  UNL     1      10.741  47.795  56.007  1.00  0.00    -0.084 Cl
ENDBRANCH  13  15
ENDBRANCH   4  13
ENDBRANCH   1   3
BRANCH   1  23
ATOM     23  C   UNL     1       5.848  41.168  48.997  1.00  0.00     0.144 C 
BRANCH  23  24
ATOM     24  C   UNL     1       4.987  41.136  47.725  1.00  0.00     0.181 C 
BRANCH  24  25
ATOM     25  O   UNL     1       5.611  41.864  46.664  1.00  0.00    -0.377 OA
BRANCH  25  26
ATOM     26  C   UNL     1       5.185  41.477  45.354  1.00  0.00     0.112 C 
ATOM     27  C   UNL     1       3.726  41.031  45.395  1.00  0.00     0.038 C 
ATOM     28  C   UNL     1       5.344  42.693  44.450  1.00  0.00     0.038 C 
ENDBRANCH  25  26
ENDBRANCH  24  25
ENDBRANCH  23  24
ENDBRANCH   1  23
TORSDOF 7
ENDMDL
MODEL 4
REMARK VINA RESULT:    -8.280      2.909      5.529
REMARK INTER + INTRA:         -13.231
REMARK INTER:                 -12.280
REMARK INTRA:                  -0.951
REMARK UNBOUND:                -1.562
REMARK SMILES Cc1cc(Cl)ccc1Nc1nc(NCCOC(C)C)nc2c1cnn2C
REMARK SMILES IDX 13 1 12 3 10 4 11 5 22 6 21 7 23 8 20 9 25 10 24 11 26 12
REMARK SMILES IDX 9 13 8 15 2 16 3 17 4 18 7 19 6 20 1 21 5 22 14 23 15 24
REMARK SMILES IDX 16 25 17 26 18 27 19 28
REMARK H PARENT 13 2 9 14
ROOT
ATOM      1  N   UNL     1       5.047  46.989  54.958  1.00  0.00    -0.352 N 
ATOM      2  H   UNL     1       4.500  47.737  54.546  1.00  0.00     0.163 HD
ENDROOT
BRANCH   1   3
ATOM      3  C   UNL     1       6.139  46.778  54.132  1.00  0.00     0.226 A 
ATOM      4  C   UNL     1       7.004  46.100  52.064  1.00  0.00     0.147 A 
ATOM      5  N   UNL     1       5.946  46.320  52.882  1.00  0.00    -0.195 NA
ATOM      6  C   UNL     1       8.280  46.381  52.556  1.00  0.00     0.082 A 
ATOM      7  C   UNL     1       8.354  46.852  53.852  1.00  0.00     0.165 A 
ATOM      8  C   UNL     1       9.619  46.339  52.120  1.00  0.00     0.149 A 
ATOM      9  N   UNL     1       7.324  47.071  54.683  1.00  0.00    -0.193 NA
ATOM     10  N   UNL     1       9.685  47.046  54.106  1.00  0.00    -0.250 N 
ATOM     11  N   UNL     1      10.485  46.742  53.058  1.00  0.00    -0.179 NA
ATOM     12  C   UNL     1      10.274  47.522  55.331  1.00  0.00     0.176 C 
BRANCH   4  13
ATOM     13  N   UNL     1       6.719  45.619  50.772  1.00  0.00    -0.339 N 
ATOM     14  H   UNL     1       6.269  46.393  50.286  1.00  0.00     0.168 HD
BRANCH  13  15
ATOM     15  C   UNL     1       6.074  44.396  50.486  1.00  0.00     0.043 A 
ATOM     16  C   UNL     1       6.647  43.392  49.680  1.00  0.00    -0.026 A 
ATOM     17  C   UNL     1       5.931  42.201  49.458  1.00  0.00     0.026 A 
ATOM     18  C   UNL     1       4.692  41.995  50.063  1.00  0.00     0.041 A 
ATOM     19  C   UNL     1       4.840  44.155  51.109  1.00  0.00     0.028 A 
ATOM     20  C   UNL     1       4.146  42.965  50.895  1.00  0.00     0.022 A 
ATOM     21  C   UNL     1       7.989  43.556  49.018  1.00  0.00     0.046 C 
ATOM     22  Cl  UNL     1       3.839  40.527  49.785  1.00  0.00    -0.084 Cl
ENDBRANCH  13  15
ENDBRANCH   4  13
ENDBRANCH   1   3
BRANCH   1  23
ATOM     23  C   UNL     1       4.303  45.809  55.375  1.00  0.00     0.144 C 
BRANCH  23  24
ATOM     24  C   UNL     1       2.825  45.853  54.960  1.00  0.00     0.181 C 
BRANCH  24  25
ATOM     25  O   UNL     1       2.633  45.256  53.674  1.00  0.00    -0.377 OA
BRANCH  25  26
ATOM     26  C   UNL     1       1.874  46.054  52.761  1.00  0.00     0.112 C 
ATOM     27  C   UNL     1       2.789  47.056  52.064  1.00  0.00     0.038 C 
ATOM     28  C   UNL     1       1.251  45.106  51.744  1.00  0.00     0.038 C 
ENDBRANCH  25  26
ENDBRANCH  24  25
ENDBRANCH  23  24
ENDBRANCH   1  23
TORSDOF 7
ENDMDL
MODEL 5
REMARK VINA RESULT:    -8.135      2.791      5.668
REMARK INTER + INTRA:         -13.025
REMARK INTER:                 -12.391
REMARK INTRA:                  -0.634
REMARK UNBOUND:                -1.562
REMARK SMILES Cc1cc(Cl)ccc1Nc1nc(NCCOC(C)C)nc2c1cnn2C
REMARK SMILES IDX 13 1 12 3 10 4 11 5 22 6 21 7 23 8 20 9 25 10 24 11 26 12
REMARK SMILES IDX 9 13 8 15 2 16 3 17 4 18 7 19 6 20 1 21 5 22 14 23 15 24
REMARK SMILES IDX 16 25 17 26 18 27 19 28
REMARK H PARENT 13 2 9 14
ROOT
ATOM      1  N   UNL     1       4.406  45.663  55.808  1.00  0.00    -0.352 N 
ATOM      2  H   UNL     1       4.284  45.249  56.725  1.00  0.00     0.163 HD
ENDROOT
BRANCH   1   3
ATOM      3  C   UNL     1       3.366  45.209  55.012  1.00  0.00     0.226 A 
ATOM      4  C   UNL     1       2.608  44.402  52.948  1.00  0.00     0.147 A 
ATOM      5  N   UNL     1       3.616  44.840  53.742  1.00  0.00    -0.195 NA
ATOM      6  C   UNL     1       1.327  44.334  53.497  1.00  0.00     0.082 A 
ATOM      7  C   UNL     1       1.193  44.732  54.812  1.00  0.00     0.165 A 
ATOM      8  C   UNL     1       0.026  43.953  53.111  1.00  0.00     0.149 A 
ATOM      9  N   UNL     1       2.172  45.177  55.616  1.00  0.00    -0.193 NA
ATOM     10  N   UNL     1      -0.132  44.583  55.118  1.00  0.00    -0.250 N 
ATOM     11  N   UNL     1      -0.872  44.101  54.092  1.00  0.00    -0.179 NA
ATOM     12  C   UNL     1      -0.772  44.878  56.375  1.00  0.00     0.176 C 
BRANCH   4  13
ATOM     13  N   UNL     1       2.951  44.037  51.633  1.00  0.00    -0.339 N 
ATOM     14  H   UNL     1       2.459  43.162  51.457  1.00  0.00     0.168 HD
BRANCH  13  15
ATOM     15  C   UNL     1       4.264  43.994  51.118  1.00  0.00     0.043 A 
ATOM     16  C   UNL     1       4.889  42.804  50.696  1.00  0.00    -0.026 A 
ATOM     17  C   UNL     1       6.199  42.862  50.187  1.00  0.00     0.026 A 
ATOM     18  C   UNL     1       6.857  44.085  50.058  1.00  0.00     0.041 A 
ATOM     19  C   UNL     1       4.932  45.217  50.950  1.00  0.00     0.028 A 
ATOM     20  C   UNL     1       6.225  45.265  50.430  1.00  0.00     0.022 A 
ATOM     21  C   UNL     1       4.218  41.460  50.797  1.00  0.00     0.046 C 
ATOM     22  Cl  UNL     1       8.456  44.133  49.423  1.00  0.00    -0.084 Cl
ENDBRANCH  13  15
ENDBRANCH   4  13
ENDBRANCH   1   3
BRANCH   1  23
ATOM     23  C   UNL     1       5.746  45.581  55.244  1.00  0.00     0.144 C 
BRANCH  23  24
ATOM     24  C   UNL     1       6.185  46.879  54.548  1.00  0.00     0.181 C 
BRANCH  24  25
ATOM     25  O   UNL     1       7.537  47.209  54.878  1.00  0.00    -0.377 OA
BRANCH  25  26
ATOM     26  C   UNL     1       8.482  46.927  53.841  1.00  0.00     0.112 C 
ATOM     27  C   UNL     1       8.198  47.808  52.629  1.00  0.00     0.038 C 
ATOM     28  C   UNL     1       9.867  47.223  54.401  1.00  0.00     0.038 C 
ENDBRANCH  25  26
ENDBRANCH  24  25
ENDBRANCH  23  24
ENDBRANCH   1  23
TORSDOF 7
ENDMDL
MODEL 6
REMARK VINA RESULT:    -8.129      1.414      2.278
REMARK INTER + INTRA:         -13.017
REMARK INTER:                 -11.923
REMARK INTRA:                  -1.095
REMARK UNBOUND:                -1.562
REMARK SMILES Cc1cc(Cl)ccc1Nc1nc(NCCOC(C)C)nc2c1cnn2C
REMARK SMILES IDX 13 1 12 3 10 4 11 5 22 6 21 7 23 8 20 9 25 10 24 11 26 12
REMARK SMILES IDX 9 13 8 15 2 16 3 17 4 18 7 19 6 20 1 21 5 22 14 23 15 24
REMARK SMILES IDX 16 25 17 26 18 27 19 28
REMARK H PARENT 13 2 9 14
ROOT
ATOM      1  N   UNL     1       3.478  44.090  53.586  1.00  0.00    -0.352 N 
ATOM      2  H   UNL     1       3.752  43.342  54.213  1.00  0.00     0.163 HD
ENDROOT
BRANCH   1   3
ATOM      3  C   UNL     1       4.454  44.180  52.606  1.00  0.00     0.226 A 
ATOM      4  C   UNL     1       6.244  45.342  51.641  1.00  0.00     0.147 A 
ATOM      5  N   UNL     1       5.290  45.235  52.598  1.00  0.00    -0.195 NA
ATOM      6  C   UNL     1       6.335  44.322  50.693  1.00  0.00     0.082 A 
ATOM      7  C   UNL     1       5.429  43.287  50.806  1.00  0.00     0.165 A 
ATOM      8  C   UNL     1       7.121  43.981  49.573  1.00  0.00     0.149 A 
ATOM      9  N   UNL     1       4.470  43.162  51.737  1.00  0.00    -0.193 NA
ATOM     10  N   UNL     1       5.709  42.428  49.778  1.00  0.00    -0.250 N 
ATOM     11  N   UNL     1       6.746  42.827  49.007  1.00  0.00    -0.179 NA
ATOM     12  C   UNL     1       5.028  41.197  49.466  1.00  0.00     0.176 C 
BRANCH   4  13
ATOM     13  N   UNL     1       7.077  46.475  51.700  1.00  0.00    -0.339 N 
ATOM     14  H   UNL     1       7.477  46.568  50.767  1.00  0.00     0.168 HD
BRANCH  13  15
ATOM     15  C   UNL     1       8.048  46.718  52.695  1.00  0.00     0.043 A 
ATOM     16  C   UNL     1       9.415  46.418  52.529  1.00  0.00    -0.026 A 
ATOM     17  C   UNL     1      10.311  46.705  53.575  1.00  0.00     0.026 A 
ATOM     18  C   UNL     1       9.863  47.320  54.744  1.00  0.00     0.041 A 
ATOM     19  C   UNL     1       7.625  47.365  53.867  1.00  0.00     0.028 A 
ATOM     20  C   UNL     1       8.524  47.659  54.891  1.00  0.00     0.022 A 
ATOM     21  C   UNL     1       9.953  45.771  51.281  1.00  0.00     0.046 C 
ATOM     22  Cl  UNL     1      10.979  47.671  56.006  1.00  0.00    -0.084 Cl
ENDBRANCH  13  15
ENDBRANCH   4  13
ENDBRANCH   1   3
BRANCH   1  23
ATOM     23  C   UNL     1       3.069  45.337  54.219  1.00  0.00     0.144 C 
BRANCH  23  24
ATOM     24  C   UNL     1       1.603  45.700  53.938  1.00  0.00     0.181 C 
BRANCH  24  25
ATOM     25  O   UNL     1       1.361  45.814  52.533  1.00  0.00    -0.377 OA
BRANCH  25  26
ATOM     26  C   UNL     1       0.267  45.024  52.057  1.00  0.00     0.112 C 
ATOM     27  C   UNL     1       0.792  43.868  51.212  1.00  0.00     0.038 C 
ATOM     28  C   UNL     1      -0.473  44.496  53.280  1.00  0.00     0.038 C 
ENDBRANCH  25  26
ENDBRANCH  24  25
ENDBRANCH  23  24
ENDBRANCH   1  23
TORSDOF 7
ENDMDL
MODEL 7
REMARK VINA RESULT:    -8.073      1.610      2.138
REMARK INTER + INTRA:         -12.938
REMARK INTER:                 -12.187
REMARK INTRA:                  -0.751
REMARK UNBOUND:                -1.562
REMARK SMILES Cc1cc(Cl)ccc1Nc1nc(NCCOC(C)C)nc2c1cnn2C
REMARK SMILES IDX 13 1 12 3 10 4 11 5 22 6 21 7 23 8 20 9 25 10 24 11 26 12
REMARK SMILES IDX 9 13 8 15 2 16 3 17 4 18 7 19 6 20 1 21 5 22 14 23 15 24
REMARK SMILES IDX 16 25 17 26 18 27 19 28
REMARK H PARENT 13 2 9 14
ROOT
ATOM      1  N   UNL     1       3.609  43.849  53.132  1.00  0.00    -0.352 N 
ATOM      2  H   UNL     1       3.736  42.933  53.548  1.00  0.00     0.163 HD
ENDROOT
BRANCH   1   3
ATOM      3  C   UNL     1       4.634  44.029  52.217  1.00  0.00     0.226 A 
ATOM      4  C   UNL     1       6.410  45.322  51.405  1.00  0.00     0.147 A 
ATOM      5  N   UNL     1       5.408  45.127  52.297  1.00  0.00    -0.195 NA
ATOM      6  C   UNL     1       6.615  44.346  50.428  1.00  0.00     0.082 A 
ATOM      7  C   UNL     1       5.762  43.261  50.449  1.00  0.00     0.165 A 
ATOM      8  C   UNL     1       7.483  44.092  49.348  1.00  0.00     0.149 A 
ATOM      9  N   UNL     1       4.759  43.047  51.315  1.00  0.00    -0.193 NA
ATOM     10  N   UNL     1       6.151  42.458  49.411  1.00  0.00    -0.250 N 
ATOM     11  N   UNL     1       7.208  42.942  48.719  1.00  0.00    -0.179 NA
ATOM     12  C   UNL     1       5.560  41.205  49.014  1.00  0.00     0.176 C 
BRANCH   4  13
ATOM     13  N   UNL     1       7.173  46.496  51.555  1.00  0.00    -0.339 N 
ATOM     14  H   UNL     1       7.595  46.664  50.643  1.00  0.00     0.168 HD
BRANCH  13  15
ATOM     15  C   UNL     1       8.097  46.736  52.594  1.00  0.00     0.043 A 
ATOM     16  C   UNL     1       9.473  46.452  52.484  1.00  0.00    -0.026 A 
ATOM     17  C   UNL     1      10.319  46.735  53.571  1.00  0.00     0.026 A 
ATOM     18  C   UNL     1       9.815  47.331  54.727  1.00  0.00     0.041 A 
ATOM     19  C   UNL     1       7.616  47.364  53.753  1.00  0.00     0.028 A 
ATOM     20  C   UNL     1       8.467  47.655  54.820  1.00  0.00     0.022 A 
ATOM     21  C   UNL     1      10.072  45.825  51.254  1.00  0.00     0.046 C 
ATOM     22  Cl  UNL     1      10.871  47.677  56.041  1.00  0.00    -0.084 Cl
ENDBRANCH  13  15
ENDBRANCH   4  13
ENDBRANCH   1   3
BRANCH   1  23
ATOM     23  C   UNL     1       3.359  44.943  54.059  1.00  0.00     0.144 C 
BRANCH  23  24
ATOM     24  C   UNL     1       2.027  44.801  54.811  1.00  0.00     0.181 C 
BRANCH  24  25
ATOM     25  O   UNL     1       1.981  45.670  55.946  1.00  0.00    -0.377 OA
BRANCH  25  26
ATOM     26  C   UNL     1       0.926  45.380  56.868  1.00  0.00     0.112 C 
ATOM     27  C   UNL     1       0.866  46.461  57.942  1.00  0.00     0.038 C 
ATOM     28  C   UNL     1      -0.372  45.349  56.072  1.00  0.00     0.038 C 
ENDBRANCH  25  26
ENDBRANCH  24  25
ENDBRANCH  23  24
ENDBRANCH   1  23
TORSDOF 7
ENDMDL
MODEL 8
REMARK VINA RESULT:    -8.002      3.123      6.132
REMARK INTER + INTRA:         -12.838
REMARK INTER:                 -11.990
REMARK INTRA:                  -0.848
REMARK UNBOUND:                -1.562
REMARK SMILES Cc1cc(Cl)ccc1Nc1nc(NCCOC(C)C)nc2c1cnn2C
REMARK SMILES IDX 13 1 12 3 10 4 11 5 22 6 21 7 23 8 20 9 25 10 24 11 26 12
REMARK SMILES IDX 9 13 8 15 2 16 3 17 4 18 7 19 6 20 1 21 5 22 14 23 15 24
REMARK SMILES IDX 16 25 17 26 18 27 19 28
REMARK H PARENT 13 2 9 14
ROOT
ATOM      1  N   UNL     1       3.837  46.112  55.716  1.00  0.00    -0.352 N 
ATOM      2  H   UNL     1       4.232  45.409  56.330  1.00  0.00     0.163 HD
ENDROOT
BRANCH   1   3
ATOM      3  C   UNL     1       2.808  45.508  55.010  1.00  0.00     0.226 A 
ATOM      4  C   UNL     1       1.998  44.583  53.017  1.00  0.00     0.147 A 
ATOM      5  N   UNL     1       2.997  45.167  53.723  1.00  0.00    -0.195 NA
ATOM      6  C   UNL     1       0.791  44.338  53.674  1.00  0.00     0.082 A 
ATOM      7  C   UNL     1       0.716  44.726  54.997  1.00  0.00     0.165 A 
ATOM      8  C   UNL     1      -0.471  43.773  53.400  1.00  0.00     0.149 A 
ATOM      9  N   UNL     1       1.686  45.311  55.715  1.00  0.00    -0.193 NA
ATOM     10  N   UNL     1      -0.544  44.392  55.415  1.00  0.00    -0.250 N 
ATOM     11  N   UNL     1      -1.293  43.801  54.456  1.00  0.00    -0.179 NA
ATOM     12  C   UNL     1      -1.109  44.604  56.723  1.00  0.00     0.176 C 
BRANCH   4  13
ATOM     13  N   UNL     1       2.274  44.259  51.676  1.00  0.00    -0.339 N 
ATOM     14  H   UNL     1       1.430  43.809  51.325  1.00  0.00     0.168 HD
BRANCH  13  15
ATOM     15  C   UNL     1       3.432  43.589  51.225  1.00  0.00     0.043 A 
ATOM     16  C   UNL     1       4.608  44.259  50.832  1.00  0.00    -0.026 A 
ATOM     17  C   UNL     1       5.715  43.503  50.405  1.00  0.00     0.026 A 
ATOM     18  C   UNL     1       5.669  42.110  50.412  1.00  0.00     0.041 A 
ATOM     19  C   UNL     1       3.418  42.185  51.253  1.00  0.00     0.028 A 
ATOM     20  C   UNL     1       4.527  41.446  50.842  1.00  0.00     0.022 A 
ATOM     21  C   UNL     1       4.717  45.759  50.822  1.00  0.00     0.046 C 
ATOM     22  Cl  UNL     1       7.040  41.206  49.895  1.00  0.00    -0.084 Cl
ENDBRANCH  13  15
ENDBRANCH   4  13
ENDBRANCH   1   3
BRANCH   1  23
ATOM     23  C   UNL     1       4.792  46.892  54.941  1.00  0.00     0.144 C 
BRANCH  23  24
ATOM     24  C   UNL     1       6.167  46.216  54.827  1.00  0.00     0.181 C 
BRANCH  24  25
ATOM     25  O   UNL     1       7.220  47.184  54.860  1.00  0.00    -0.377 OA
BRANCH  25  26
ATOM     26  C   UNL     1       8.242  46.976  53.880  1.00  0.00     0.112 C 
ATOM     27  C   UNL     1       7.871  47.692  52.586  1.00  0.00     0.038 C 
ATOM     28  C   UNL     1       9.535  47.544  54.450  1.00  0.00     0.038 C 
ENDBRANCH  25  26
ENDBRANCH  24  25
ENDBRANCH  23  24
ENDBRANCH   1  23
TORSDOF 7
ENDMDL
MODEL 9
REMARK VINA RESULT:    -7.739      2.656      5.206
REMARK INTER + INTRA:         -12.468
REMARK INTER:                 -11.079
REMARK INTRA:                  -1.389
REMARK UNBOUND:                -1.562
REMARK SMILES Cc1cc(Cl)ccc1Nc1nc(NCCOC(C)C)nc2c1cnn2C
REMARK SMILES IDX 13 1 12 3 10 4 11 5 22 6 21 7 23 8 20 9 25 10 24 11 26 12
REMARK SMILES IDX 9 13 8 15 2 16 3 17 4 18 7 19 6 20 1 21 5 22 14 23 15 24
REMARK SMILES IDX 16 25 17 26 18 27 19 28
REMARK H PARENT 13 2 9 14
ROOT
ATOM      1  N   UNL     1       3.595  41.324  50.486  1.00  0.00    -0.352 N 
ATOM      2  H   UNL     1       3.188  41.262  49.559  1.00  0.00     0.163 HD
ENDROOT
BRANCH   1   3
ATOM      3  C   UNL     1       2.897  42.303  51.175  1.00  0.00     0.226 A 
ATOM      4  C   UNL     1       2.849  43.962  52.828  1.00  0.00     0.147 A 
ATOM      5  N   UNL     1       3.519  43.006  52.139  1.00  0.00    -0.195 NA
ATOM      6  C   UNL     1       1.515  44.195  52.490  1.00  0.00     0.082 A 
ATOM      7  C   UNL     1       0.985  43.417  51.481  1.00  0.00     0.165 A 
ATOM      8  C   UNL     1       0.455  45.040  52.876  1.00  0.00     0.149 A 
ATOM      9  N   UNL     1       1.625  42.461  50.789  1.00  0.00    -0.193 NA
ATOM     10  N   UNL     1      -0.315  43.821  51.337  1.00  0.00    -0.250 N 
ATOM     11  N   UNL     1      -0.666  44.820  52.179  1.00  0.00    -0.179 NA
ATOM     12  C   UNL     1      -1.288  43.299  50.412  1.00  0.00     0.176 C 
BRANCH   4  13
ATOM     13  N   UNL     1       3.570  44.651  53.821  1.00  0.00    -0.339 N 
ATOM     14  H   UNL     1       2.870  45.151  54.368  1.00  0.00     0.168 HD
BRANCH  13  15
ATOM     15  C   UNL     1       4.703  45.459  53.588  1.00  0.00     0.043 A 
ATOM     16  C   UNL     1       4.627  46.756  53.042  1.00  0.00    -0.026 A 
ATOM     17  C   UNL     1       5.813  47.490  52.855  1.00  0.00     0.026 A 
ATOM     18  C   UNL     1       7.043  46.963  53.246  1.00  0.00     0.041 A 
ATOM     19  C   UNL     1       5.948  44.961  54.003  1.00  0.00     0.028 A 
ATOM     20  C   UNL     1       7.115  45.703  53.828  1.00  0.00     0.022 A 
ATOM     21  C   UNL     1       3.324  47.379  52.619  1.00  0.00     0.046 C 
ATOM     22  Cl  UNL     1       8.479  47.883  53.017  1.00  0.00    -0.084 Cl
ENDBRANCH  13  15
ENDBRANCH   4  13
ENDBRANCH   1   3
BRANCH   1  23
ATOM     23  C   UNL     1       5.048  41.393  50.542  1.00  0.00     0.144 C 
BRANCH  23  24
ATOM     24  C   UNL     1       5.700  41.471  49.153  1.00  0.00     0.181 C 
BRANCH  24  25
ATOM     25  O   UNL     1       6.051  42.818  48.823  1.00  0.00    -0.377 OA
BRANCH  25  26
ATOM     26  C   UNL     1       6.846  43.478  49.813  1.00  0.00     0.112 C 
ATOM     27  C   UNL     1       8.202  43.852  49.221  1.00  0.00     0.038 C 
ATOM     28  C   UNL     1       6.089  44.728  50.239  1.00  0.00     0.038 C 
ENDBRANCH  25  26
ENDBRANCH  24  25
ENDBRANCH  23  24
ENDBRANCH   1  23
TORSDOF 7
ENDMDL
MODEL 10
REMARK VINA RESULT:    -7.738      2.883      5.297
REMARK INTER + INTRA:         -12.467
REMARK INTER:                 -11.557
REMARK INTRA:                  -0.910
REMARK UNBOUND:                -1.562
REMARK SMILES Cc1cc(Cl)ccc1Nc1nc(NCCOC(C)C)nc2c1cnn2C
REMARK SMILES IDX 13 1 12 3 10 4 11 5 22 6 21 7 23 8 20 9 25 10 24 11 26 12
REMARK SMILES IDX 9 13 8 15 2 16 3 17 4 18 7 19 6 20 1 21 5 22 14 23 15 24
REMARK SMILES IDX 16 25 17 26 18 27 19 28
REMARK H PARENT 13 2 9 14
ROOT
ATOM      1  N   UNL     1       4.724  41.328  50.551  1.00  0.00    -0.352 N 
ATOM      2  H   UNL     1       3.914  40.742  50.383  1.00  0.00     0.163 HD
ENDROOT
BRANCH   1   3
ATOM      3  C   UNL     1       4.272  42.480  51.176  1.00  0.00     0.226 A 
ATOM      4  C   UNL     1       4.545  44.756  51.654  1.00  0.00     0.147 A 
ATOM      5  N   UNL     1       4.969  43.623  51.042  1.00  0.00    -0.195 NA
ATOM      6  C   UNL     1       3.368  44.694  52.401  1.00  0.00     0.082 A 
ATOM      7  C   UNL     1       2.736  43.468  52.461  1.00  0.00     0.165 A 
ATOM      8  C   UNL     1       2.551  45.549  53.168  1.00  0.00     0.149 A 
ATOM      9  N   UNL     1       3.138  42.331  51.872  1.00  0.00    -0.193 NA
ATOM     10  N   UNL     1       1.627  43.655  53.241  1.00  0.00    -0.250 N 
ATOM     11  N   UNL     1       1.486  44.925  53.685  1.00  0.00    -0.179 NA
ATOM     12  C   UNL     1       0.647  42.664  53.608  1.00  0.00     0.176 C 
BRANCH   4  13
ATOM     13  N   UNL     1       5.330  45.909  51.467  1.00  0.00    -0.339 N 
ATOM     14  H   UNL     1       5.458  45.991  50.459  1.00  0.00     0.168 HD
BRANCH  13  15
ATOM     15  C   UNL     1       6.528  46.197  52.155  1.00  0.00     0.043 A 
ATOM     16  C   UNL     1       7.806  46.030  51.585  1.00  0.00    -0.026 A 
ATOM     17  C   UNL     1       8.943  46.353  52.347  1.00  0.00     0.026 A 
ATOM     18  C   UNL     1       8.811  46.873  53.634  1.00  0.00     0.041 A 
ATOM     19  C   UNL     1       6.417  46.752  53.440  1.00  0.00     0.028 A 
ATOM     20  C   UNL     1       7.551  47.082  54.181  1.00  0.00     0.022 A 
ATOM     21  C   UNL     1       8.004  45.488  50.195  1.00  0.00     0.046 C 
ATOM     22  Cl  UNL     1      10.216  47.270  54.544  1.00  0.00    -0.084 Cl
ENDBRANCH  13  15
ENDBRANCH   4  13
ENDBRANCH   1   3
BRANCH   1  23
ATOM     23  C   UNL     1       5.629  41.506  49.424  1.00  0.00     0.144 C 
BRANCH  23  24
ATOM     24  C   UNL     1       4.994  41.124  48.078  1.00  0.00     0.181 C 
BRANCH  24  25
ATOM     25  O   UNL     1       5.613  41.829  46.999  1.00  0.00    -0.377 OA
BRANCH  25  26
ATOM     26  C   UNL     1       5.234  41.367  45.699  1.00  0.00     0.112 C 
ATOM     27  C   UNL     1       3.858  40.713  45.764  1.00  0.00     0.038 C 
ATOM     28  C   UNL     1       5.203  42.582  44.780  1.00  0.00     0.038 C 
ENDBRANCH  25  26
ENDBRANCH  24  25
ENDBRANCH  23  24
ENDBRANCH   1  23
TORSDOF 7
ENDMDL
MODEL 11
REMARK VINA RESULT:    -7.653      1.428      2.398
REMARK INTER + INTRA:         -12.347
REMARK INTER:                 -11.459
REMARK INTRA:                  -0.888
REMARK UNBOUND:                -1.562
REMARK SMILES Cc1cc(Cl)ccc1Nc1nc(NCCOC(C)C)nc2c1cnn2C
REMARK SMILES IDX 13 1 12 3 10 4 11 5 22 6 21 7 23 8 20 9 25 10 24 11 26 12
REMARK SMILES IDX 9 13 8 15 2 16 3 17 4 18 7 19 6 20 1 21 5 22 14 23 15 24
REMARK SMILES IDX 16 25 17 26 18 27 19 28
REMARK H PARENT 13 2 9 14
ROOT
ATOM      1  N   UNL     1       3.000  43.800  52.474  1.00  0.00    -0.352 N 
ATOM      2  H   UNL     1       3.143  44.029  53.451  1.00  0.00     0.163 HD
ENDROOT
BRANCH   1   3
ATOM      3  C   UNL     1       4.186  44.074  51.811  1.00  0.00     0.226 A 
ATOM      4  C   UNL     1       5.982  45.521  51.401  1.00  0.00     0.147 A 
ATOM      5  N   UNL     1       4.825  45.235  52.047  1.00  0.00    -0.195 NA
ATOM      6  C   UNL     1       6.484  44.572  50.510  1.00  0.00     0.082 A 
ATOM      7  C   UNL     1       5.746  43.416  50.354  1.00  0.00     0.165 A 
ATOM      8  C   UNL     1       7.592  44.400  49.656  1.00  0.00     0.149 A 
ATOM      9  N   UNL     1       4.595  43.112  50.975  1.00  0.00    -0.193 NA
ATOM     10  N   UNL     1       6.426  42.656  49.441  1.00  0.00    -0.250 N 
ATOM     11  N   UNL     1       7.566  43.234  48.999  1.00  0.00    -0.179 NA
ATOM     12  C   UNL     1       6.049  41.358  48.940  1.00  0.00     0.176 C 
BRANCH   4  13
ATOM     13  N   UNL     1       6.587  46.756  51.702  1.00  0.00    -0.339 N 
ATOM     14  H   UNL     1       6.878  47.142  50.804  1.00  0.00     0.168 HD
BRANCH  13  15
ATOM     15  C   UNL     1       7.579  46.955  52.685  1.00  0.00     0.043 A 
ATOM     16  C   UNL     1       7.288  47.095  54.057  1.00  0.00    -0.026 A 
ATOM     17  C   UNL     1       8.346  47.281  54.965  1.00  0.00     0.026 A 
ATOM     18  C   UNL     1       9.669  47.282  54.524  1.00  0.00     0.041 A 
ATOM     19  C   UNL     1       8.919  46.928  52.267  1.00  0.00     0.028 A 
ATOM     20  C   UNL     1       9.961  47.097  53.179  1.00  0.00     0.022 A 
ATOM     21  C   UNL     1       5.880  47.085  54.589  1.00  0.00     0.046 C 
ATOM     22  Cl  UNL     1      10.947  47.501  55.655  1.00  0.00    -0.084 Cl
ENDBRANCH  13  15
ENDBRANCH   4  13
ENDBRANCH   1   3
BRANCH   1  23
ATOM     23  C   UNL     1       1.779  44.315  51.870  1.00  0.00     0.144 C 
BRANCH  23  24
ATOM     24  C   UNL     1       0.967  45.206  52.822  1.00  0.00     0.181 C 
BRANCH  24  25
ATOM     25  O   UNL     1       0.875  44.618  54.123  1.00  0.00    -0.377 OA
BRANCH  25  26
ATOM     26  C   UNL     1       1.167  45.517  55.197  1.00  0.00     0.112 C 
ATOM     27  C   UNL     1       0.299  45.179  56.405  1.00  0.00     0.038 C 
ATOM     28  C   UNL     1       2.642  45.348  55.538  1.00  0.00     0.038 C 
ENDBRANCH  25  26
ENDBRANCH  24  25
ENDBRANCH  23  24
ENDBRANCH   1  23
TORSDOF 7
ENDMDL
MODEL 12
REMARK VINA RESULT:    -7.645      3.483      6.499
REMARK INTER + INTRA:         -12.335
REMARK INTER:                 -11.281
REMARK INTRA:                  -1.054
REMARK UNBOUND:                -1.562
REMARK SMILES Cc1cc(Cl)ccc1Nc1nc(NCCOC(C)C)nc2c1cnn2C
REMARK SMILES IDX 13 1 12 3 10 4 11 5 22 6 21 7 23 8 20 9 25 10 24 11 26 12
REMARK SMILES IDX 9 13 8 15 2 16 3 17 4 18 7 19 6 20 1 21 5 22 14 23 15 24
REMARK SMILES IDX 16 25 17 26 18 27 19 28
REMARK H PARENT 13 2 9 14
ROOT
ATOM      1  N   UNL     1       5.604  46.656  52.273  1.00  0.00    -0.352 N 
ATOM      2  H   UNL     1       5.164  47.253  51.583  1.00  0.00     0.163 HD
ENDROOT
BRANCH   1   3
ATOM      3  C   UNL     1       5.283  45.347  51.947  1.00  0.00     0.226 A 
ATOM      4  C   UNL     1       3.980  43.437  52.318  1.00  0.00     0.147 A 
ATOM      5  N   UNL     1       4.301  44.719  52.619  1.00  0.00    -0.195 NA
ATOM      6  C   UNL     1       4.686  42.812  51.289  1.00  0.00     0.082 A 
ATOM      7  C   UNL     1       5.667  43.557  50.668  1.00  0.00     0.165 A 
ATOM      8  C   UNL     1       4.716  41.568  50.626  1.00  0.00     0.149 A 
ATOM      9  N   UNL     1       6.009  44.824  50.951  1.00  0.00    -0.193 NA
ATOM     10  N   UNL     1       6.213  42.741  49.714  1.00  0.00    -0.250 N 
ATOM     11  N   UNL     1       5.645  41.514  49.664  1.00  0.00    -0.179 NA
ATOM     12  C   UNL     1       7.284  43.063  48.806  1.00  0.00     0.176 C 
BRANCH   4  13
ATOM     13  N   UNL     1       2.943  42.850  53.067  1.00  0.00    -0.339 N 
ATOM     14  H   UNL     1       3.076  41.844  52.974  1.00  0.00     0.168 HD
BRANCH  13  15
ATOM     15  C   UNL     1       1.578  43.193  52.970  1.00  0.00     0.043 A 
ATOM     16  C   UNL     1       0.921  44.019  53.906  1.00  0.00    -0.026 A 
ATOM     17  C   UNL     1      -0.442  44.313  53.720  1.00  0.00     0.026 A 
ATOM     18  C   UNL     1      -1.126  43.834  52.603  1.00  0.00     0.041 A 
ATOM     19  C   UNL     1       0.878  42.748  51.838  1.00  0.00     0.028 A 
ATOM     20  C   UNL     1      -0.469  43.059  51.656  1.00  0.00     0.022 A 
ATOM     21  C   UNL     1       1.616  44.575  55.118  1.00  0.00     0.046 C 
ATOM     22  Cl  UNL     1      -2.791  44.215  52.392  1.00  0.00    -0.084 Cl
ENDBRANCH  13  15
ENDBRANCH   4  13
ENDBRANCH   1   3
BRANCH   1  23
ATOM     23  C   UNL     1       5.425  47.047  53.664  1.00  0.00     0.144 C 
BRANCH  23  24
ATOM     24  C   UNL     1       6.668  46.784  54.527  1.00  0.00     0.181 C 
BRANCH  24  25
ATOM     25  O   UNL     1       7.779  47.568  54.083  1.00  0.00    -0.377 OA
BRANCH  25  26
ATOM     26  C   UNL     1       8.919  46.802  53.683  1.00  0.00     0.112 C 
ATOM     27  C   UNL     1       9.269  47.115  52.231  1.00  0.00     0.038 C 
ATOM     28  C   UNL     1      10.068  47.190  54.603  1.00  0.00     0.038 C 
ENDBRANCH  25  26
ENDBRANCH  24  25
ENDBRANCH  23  24
ENDBRANCH   1  23
TORSDOF 7
ENDMDL
MODEL 13
REMARK VINA RESULT:    -7.560      2.211      5.035
REMARK INTER + INTRA:         -12.215
REMARK INTER:                 -11.060
REMARK INTRA:                  -1.155
REMARK UNBOUND:                -1.562
REMARK SMILES Cc1cc(Cl)ccc1Nc1nc(NCCOC(C)C)nc2c1cnn2C
REMARK SMILES IDX 13 1 12 3 10 4 11 5 22 6 21 7 23 8 20 9 25 10 24 11 26 12
REMARK SMILES IDX 9 13 8 15 2 16 3 17 4 18 7 19 6 20 1 21 5 22 14 23 15 24
REMARK SMILES IDX 16 25 17 26 18 27 19 28
REMARK H PARENT 13 2 9 14
ROOT
ATOM      1  N   UNL     1       3.901  41.471  51.321  1.00  0.00    -0.352 N 
ATOM      2  H   UNL     1       3.687  40.767  52.018  1.00  0.00     0.163 HD
ENDROOT
BRANCH   1   3
ATOM      3  C   UNL     1       3.447  42.685  51.813  1.00  0.00     0.226 A 
ATOM      4  C   UNL     1       3.719  45.000  52.038  1.00  0.00     0.147 A 
ATOM      5  N   UNL     1       4.145  43.806  51.557  1.00  0.00    -0.195 NA
ATOM      6  C   UNL     1       2.538  45.020  52.781  1.00  0.00     0.082 A 
ATOM      7  C   UNL     1       1.905  43.809  52.973  1.00  0.00     0.165 A 
ATOM      8  C   UNL     1       1.718  45.955  53.446  1.00  0.00     0.149 A 
ATOM      9  N   UNL     1       2.309  42.614  52.515  1.00  0.00    -0.193 NA
ATOM     10  N   UNL     1       0.792  44.080  53.723  1.00  0.00    -0.250 N 
ATOM     11  N   UNL     1       0.650  45.392  54.023  1.00  0.00    -0.179 NA
ATOM     12  C   UNL     1      -0.190  43.136  54.191  1.00  0.00     0.176 C 
BRANCH   4  13
ATOM     13  N   UNL     1       4.505  46.126  51.729  1.00  0.00    -0.339 N 
ATOM     14  H   UNL     1       4.452  46.225  50.716  1.00  0.00     0.168 HD
BRANCH  13  15
ATOM     15  C   UNL     1       5.819  46.350  52.193  1.00  0.00     0.043 A 
ATOM     16  C   UNL     1       6.110  46.814  53.491  1.00  0.00    -0.026 A 
ATOM     17  C   UNL     1       7.453  46.999  53.866  1.00  0.00     0.026 A 
ATOM     18  C   UNL     1       8.487  46.686  52.984  1.00  0.00     0.041 A 
ATOM     19  C   UNL     1       6.875  46.012  51.332  1.00  0.00     0.028 A 
ATOM     20  C   UNL     1       8.203  46.185  51.720  1.00  0.00     0.022 A 
ATOM     21  C   UNL     1       5.034  47.150  54.488  1.00  0.00     0.046 C 
ATOM     22  Cl  UNL     1      10.122  46.911  53.468  1.00  0.00    -0.084 Cl
ENDBRANCH  13  15
ENDBRANCH   4  13
ENDBRANCH   1   3
BRANCH   1  23
ATOM     23  C   UNL     1       3.537  41.144  49.950  1.00  0.00     0.144 C 
BRANCH  23  24
ATOM     24  C   UNL     1       4.750  40.799  49.072  1.00  0.00     0.181 C 
BRANCH  24  25
ATOM     25  O   UNL     1       5.929  41.458  49.543  1.00  0.00    -0.377 OA
BRANCH  25  26
ATOM     26  C   UNL     1       6.249  42.664  48.843  1.00  0.00     0.112 C 
ATOM     27  C   UNL     1       7.655  43.122  49.216  1.00  0.00     0.038 C 
ATOM     28  C   UNL     1       6.168  42.356  47.353  1.00  0.00     0.038 C 
ENDBRANCH  25  26
ENDBRANCH  24  25
ENDBRANCH  23  24
ENDBRANCH   1  23
TORSDOF 7
ENDMDL
MODEL 14
REMARK VINA RESULT:    -7.512      1.780      2.938
REMARK INTER + INTRA:         -12.149
REMARK INTER:                 -11.404
REMARK INTRA:                  -0.745
REMARK UNBOUND:                -1.562
REMARK SMILES Cc1cc(Cl)ccc1Nc1nc(NCCOC(C)C)nc2c1cnn2C
REMARK SMILES IDX 13 1 12 3 10 4 11 5 22 6 21 7 23 8 20 9 25 10 24 11 26 12
REMARK SMILES IDX 9 13 8 15 2 16 3 17 4 18 7 19 6 20 1 21 5 22 14 23 15 24
REMARK SMILES IDX 16 25 17 26 18 27 19 28
REMARK H PARENT 13 2 9 14
ROOT
ATOM      1  N   UNL     1       2.915  43.985  52.354  1.00  0.00    -0.352 N 
ATOM      2  H   UNL     1       2.729  42.989  52.329  1.00  0.00     0.163 HD
ENDROOT
BRANCH   1   3
ATOM      3  C   UNL     1       4.133  44.190  51.727  1.00  0.00     0.226 A 
ATOM      4  C   UNL     1       5.996  45.554  51.333  1.00  0.00     0.147 A 
ATOM      5  N   UNL     1       4.807  45.334  51.946  1.00  0.00    -0.195 NA
ATOM      6  C   UNL     1       6.493  44.555  50.494  1.00  0.00     0.082 A 
ATOM      7  C   UNL     1       5.717  43.422  50.351  1.00  0.00     0.165 A 
ATOM      8  C   UNL     1       7.623  44.311  49.688  1.00  0.00     0.149 A 
ATOM      9  N   UNL     1       4.534  43.184  50.940  1.00  0.00    -0.193 NA
ATOM     10  N   UNL     1       6.399  42.605  49.491  1.00  0.00    -0.250 N 
ATOM     11  N   UNL     1       7.575  43.124  49.071  1.00  0.00    -0.179 NA
ATOM     12  C   UNL     1       5.991  41.305  49.022  1.00  0.00     0.176 C 
BRANCH   4  13
ATOM     13  N   UNL     1       6.638  46.775  51.613  1.00  0.00    -0.339 N 
ATOM     14  H   UNL     1       6.965  47.123  50.713  1.00  0.00     0.168 HD
BRANCH  13  15
ATOM     15  C   UNL     1       7.611  46.969  52.616  1.00  0.00     0.043 A 
ATOM     16  C   UNL     1       7.293  47.115  53.982  1.00  0.00    -0.026 A 
ATOM     17  C   UNL     1       8.334  47.295  54.910  1.00  0.00     0.026 A 
ATOM     18  C   UNL     1       9.666  47.285  54.496  1.00  0.00     0.041 A 
ATOM     19  C   UNL     1       8.959  46.930  52.225  1.00  0.00     0.028 A 
ATOM     20  C   UNL     1       9.983  47.094  53.157  1.00  0.00     0.022 A 
ATOM     21  C   UNL     1       5.875  47.117  54.484  1.00  0.00     0.046 C 
ATOM     22  Cl  UNL     1      10.923  47.497  55.652  1.00  0.00    -0.084 Cl
ENDBRANCH  13  15
ENDBRANCH   4  13
ENDBRANCH   1   3
BRANCH   1  23
ATOM     23  C   UNL     1       2.724  44.637  53.642  1.00  0.00     0.144 C 
BRANCH  23  24
ATOM     24  C   UNL     1       1.343  45.297  53.782  1.00  0.00     0.181 C 
BRANCH  24  25
ATOM     25  O   UNL     1       0.338  44.535  53.109  1.00  0.00    -0.377 OA
BRANCH  25  26
ATOM     26  C   UNL     1      -0.142  43.408  53.848  1.00  0.00     0.112 C 
ATOM     27  C   UNL     1      -1.363  43.810  54.670  1.00  0.00     0.038 C 
ATOM     28  C   UNL     1      -0.512  42.330  52.838  1.00  0.00     0.038 C 
ENDBRANCH  25  26
ENDBRANCH  24  25
ENDBRANCH  23  24
ENDBRANCH   1  23
TORSDOF 7
ENDMDL
MODEL 15
REMARK VINA RESULT:    -7.467      2.909      5.543
REMARK INTER + INTRA:         -12.085
REMARK INTER:                 -11.289
REMARK INTRA:                  -0.796
REMARK UNBOUND:                -1.562
REMARK SMILES Cc1cc(Cl)ccc1Nc1nc(NCCOC(C)C)nc2c1cnn2C
REMARK SMILES IDX 13 1 12 3 10 4 11 5 22 6 21 7 23 8 20 9 25 10 24 11 26 12
REMARK SMILES IDX 9 13 8 15 2 16 3 17 4 18 7 19 6 20 1 21 5 22 14 23 15 24
REMARK SMILES IDX 16 25 17 26 18 27 19 28
REMARK H PARENT 13 2 9 14
ROOT
ATOM      1  N   UNL     1       4.783  41.290  50.492  1.00  0.00    -0.352 N 
ATOM      2  H   UNL     1       4.031  40.626  50.350  1.00  0.00     0.163 HD
ENDROOT
BRANCH   1   3
ATOM      3  C   UNL     1       4.224  42.429  51.050  1.00  0.00     0.226 A 
ATOM      4  C   UNL     1       4.309  44.737  51.439  1.00  0.00     0.147 A 
ATOM      5  N   UNL     1       4.839  43.615  50.893  1.00  0.00    -0.195 NA
ATOM      6  C   UNL     1       3.110  44.616  52.144  1.00  0.00     0.082 A 
ATOM      7  C   UNL     1       2.568  43.350  52.233  1.00  0.00     0.165 A 
ATOM      8  C   UNL     1       2.202  45.437  52.843  1.00  0.00     0.149 A 
ATOM      9  N   UNL     1       3.076  42.224  51.708  1.00  0.00    -0.193 NA
ATOM     10  N   UNL     1       1.418  43.483  52.962  1.00  0.00    -0.250 N 
ATOM     11  N   UNL     1       1.166  44.756  53.346  1.00  0.00    -0.179 NA
ATOM     12  C   UNL     1       0.499  42.438  53.334  1.00  0.00     0.176 C 
BRANCH   4  13
ATOM     13  N   UNL     1       5.014  45.937  51.233  1.00  0.00    -0.339 N 
ATOM     14  H   UNL     1       5.065  46.052  50.221  1.00  0.00     0.168 HD
BRANCH  13  15
ATOM     15  C   UNL     1       6.240  46.274  51.845  1.00  0.00     0.043 A 
ATOM     16  C   UNL     1       6.330  46.848  53.129  1.00  0.00    -0.026 A 
ATOM     17  C   UNL     1       7.599  47.141  53.660  1.00  0.00     0.026 A 
ATOM     18  C   UNL     1       8.756  46.829  52.948  1.00  0.00     0.041 A 
ATOM     19  C   UNL     1       7.418  45.939  51.159  1.00  0.00     0.028 A 
ATOM     20  C   UNL     1       8.672  46.220  51.702  1.00  0.00     0.022 A 
ATOM     21  C   UNL     1       5.113  47.189  53.947  1.00  0.00     0.046 C 
ATOM     22  Cl  UNL     1      10.298  47.187  53.622  1.00  0.00    -0.084 Cl
ENDBRANCH  13  15
ENDBRANCH   4  13
ENDBRANCH   1   3
BRANCH   1  23
ATOM     23  C   UNL     1       5.682  41.488  49.363  1.00  0.00     0.144 C 
BRANCH  23  24
ATOM     24  C   UNL     1       5.061  41.072  48.021  1.00  0.00     0.181 C 
BRANCH  24  25
ATOM     25  O   UNL     1       5.581  41.860  46.946  1.00  0.00    -0.377 OA
BRANCH  25  26
ATOM     26  C   UNL     1       5.178  41.421  45.646  1.00  0.00     0.112 C 
ATOM     27  C   UNL     1       3.740  40.915  45.692  1.00  0.00     0.038 C 
ATOM     28  C   UNL     1       5.291  42.619  44.711  1.00  0.00     0.038 C 
ENDBRANCH  25  26
ENDBRANCH  24  25
ENDBRANCH  23  24
ENDBRANCH   1  23
TORSDOF 7
ENDMDL
MODEL 16
REMARK VINA RESULT:    -7.446      2.843      6.197
REMARK INTER + INTRA:         -12.055
REMARK INTER:                 -10.669
REMARK INTRA:                  -1.386
REMARK UNBOUND:                -1.562
REMARK SMILES Cc1cc(Cl)ccc1Nc1nc(NCCOC(C)C)nc2c1cnn2C
REMARK SMILES IDX 13 1 12 3 10 4 11 5 22 6 21 7 23 8 20 9 25 10 24 11 26 12
REMARK SMILES IDX 9 13 8 15 2 16 3 17 4 18 7 19 6 20 1 21 5 22 14 23 15 24
REMARK SMILES IDX 16 25 17 26 18 27 19 28
REMARK H PARENT 13 2 9 14
ROOT
ATOM      1  N   UNL     1       6.279  44.009  49.463  1.00  0.00    -0.352 N 
ATOM      2  H   UNL     1       6.323  44.484  48.569  1.00  0.00     0.163 HD
ENDROOT
BRANCH   1   3
ATOM      3  C   UNL     1       6.554  44.950  50.442  1.00  0.00     0.226 A 
ATOM      4  C   UNL     1       5.791  46.476  52.046  1.00  0.00     0.147 A 
ATOM      5  N   UNL     1       5.539  45.547  51.092  1.00  0.00    -0.195 NA
ATOM      6  C   UNL     1       7.125  46.770  52.335  1.00  0.00     0.082 A 
ATOM      7  C   UNL     1       8.081  46.090  51.608  1.00  0.00     0.165 A 
ATOM      8  C   UNL     1       7.866  47.599  53.201  1.00  0.00     0.149 A 
ATOM      9  N   UNL     1       7.857  45.172  50.654  1.00  0.00    -0.193 NA
ATOM     10  N   UNL     1       9.291  46.544  52.059  1.00  0.00    -0.250 N 
ATOM     11  N   UNL     1       9.188  47.469  53.041  1.00  0.00    -0.179 NA
ATOM     12  C   UNL     1      10.595  46.140  51.600  1.00  0.00     0.176 C 
BRANCH   4  13
ATOM     13  N   UNL     1       4.676  47.056  52.678  1.00  0.00    -0.339 N 
ATOM     14  H   UNL     1       5.057  47.654  53.410  1.00  0.00     0.168 HD
BRANCH  13  15
ATOM     15  C   UNL     1       3.545  46.348  53.140  1.00  0.00     0.043 A 
ATOM     16  C   UNL     1       3.520  45.646  54.362  1.00  0.00    -0.026 A 
ATOM     17  C   UNL     1       2.342  44.977  54.742  1.00  0.00     0.026 A 
ATOM     18  C   UNL     1       1.200  45.043  53.945  1.00  0.00     0.041 A 
ATOM     19  C   UNL     1       2.375  46.427  52.369  1.00  0.00     0.028 A 
ATOM     20  C   UNL     1       1.208  45.772  52.763  1.00  0.00     0.022 A 
ATOM     21  C   UNL     1       4.719  45.558  55.267  1.00  0.00     0.046 C 
ATOM     22  Cl  UNL     1      -0.232  44.224  54.436  1.00  0.00    -0.084 Cl
ENDBRANCH  13  15
ENDBRANCH   4  13
ENDBRANCH   1   3
BRANCH   1  23
ATOM     23  C   UNL     1       6.997  42.745  49.550  1.00  0.00     0.144 C 
BRANCH  23  24
ATOM     24  C   UNL     1       6.082  41.556  49.884  1.00  0.00     0.181 C 
BRANCH  24  25
ATOM     25  O   UNL     1       5.328  41.805  51.073  1.00  0.00    -0.377 OA
BRANCH  25  26
ATOM     26  C   UNL     1       3.946  41.448  50.981  1.00  0.00     0.112 C 
ATOM     27  C   UNL     1       3.076  42.681  51.208  1.00  0.00     0.038 C 
ATOM     28  C   UNL     1       3.718  40.887  49.583  1.00  0.00     0.038 C 
ENDBRANCH  25  26
ENDBRANCH  24  25
ENDBRANCH  23  24
ENDBRANCH   1  23
TORSDOF 7
ENDMDL
MODEL 17
REMARK VINA RESULT:    -7.376      3.188      6.275
REMARK INTER + INTRA:         -11.957
REMARK INTER:                 -11.616
REMARK INTRA:                  -0.341
REMARK UNBOUND:                -1.562
REMARK SMILES Cc1cc(Cl)ccc1Nc1nc(NCCOC(C)C)nc2c1cnn2C
REMARK SMILES IDX 13 1 12 3 10 4 11 5 22 6 21 7 23 8 20 9 25 10 24 11 26 12
REMARK SMILES IDX 9 13 8 15 2 16 3 17 4 18 7 19 6 20 1 21 5 22 14 23 15 24
REMARK SMILES IDX 16 25 17 26 18 27 19 28
REMARK H PARENT 13 2 9 14
ROOT
ATOM      1  N   UNL     1       5.118  46.684  52.599  1.00  0.00    -0.352 N 
ATOM      2  H   UNL     1       4.497  47.289  52.073  1.00  0.00     0.163 HD
ENDROOT
BRANCH   1   3
ATOM      3  C   UNL     1       4.817  45.379  52.242  1.00  0.00     0.226 A 
ATOM      4  C   UNL     1       3.464  43.483  52.479  1.00  0.00     0.147 A 
ATOM      5  N   UNL     1       3.766  44.762  52.811  1.00  0.00    -0.195 NA
ATOM      6  C   UNL     1       4.261  42.850  51.524  1.00  0.00     0.082 A 
ATOM      7  C   UNL     1       5.307  43.586  51.004  1.00  0.00     0.165 A 
ATOM      8  C   UNL     1       4.345  41.606  50.866  1.00  0.00     0.149 A 
ATOM      9  N   UNL     1       5.632  44.849  51.322  1.00  0.00    -0.193 NA
ATOM     10  N   UNL     1       5.936  42.764  50.108  1.00  0.00    -0.250 N 
ATOM     11  N   UNL     1       5.363  41.543  50.001  1.00  0.00    -0.179 NA
ATOM     12  C   UNL     1       7.096  43.075  49.312  1.00  0.00     0.176 C 
BRANCH   4  13
ATOM     13  N   UNL     1       2.351  42.907  53.120  1.00  0.00    -0.339 N 
ATOM     14  H   UNL     1       1.886  42.346  52.408  1.00  0.00     0.168 HD
BRANCH  13  15
ATOM     15  C   UNL     1       1.413  43.610  53.905  1.00  0.00     0.043 A 
ATOM     16  C   UNL     1       0.019  43.446  53.775  1.00  0.00    -0.026 A 
ATOM     17  C   UNL     1      -0.838  44.185  54.610  1.00  0.00     0.026 A 
ATOM     18  C   UNL     1      -0.320  45.036  55.585  1.00  0.00     0.041 A 
ATOM     19  C   UNL     1       1.913  44.448  54.914  1.00  0.00     0.028 A 
ATOM     20  C   UNL     1       1.054  45.164  55.747  1.00  0.00     0.022 A 
ATOM     21  C   UNL     1      -0.592  42.528  52.750  1.00  0.00     0.046 C 
ATOM     22  Cl  UNL     1      -1.388  45.922  56.602  1.00  0.00    -0.084 Cl
ENDBRANCH  13  15
ENDBRANCH   4  13
ENDBRANCH   1   3
BRANCH   1  23
ATOM     23  C   UNL     1       5.227  46.964  54.024  1.00  0.00     0.144 C 
BRANCH  23  24
ATOM     24  C   UNL     1       6.656  46.791  54.562  1.00  0.00     0.181 C 
BRANCH  24  25
ATOM     25  O   UNL     1       7.578  47.622  53.850  1.00  0.00    -0.377 OA
BRANCH  25  26
ATOM     26  C   UNL     1       8.615  46.906  53.174  1.00  0.00     0.112 C 
ATOM     27  C   UNL     1       8.755  47.423  51.746  1.00  0.00     0.038 C 
ATOM     28  C   UNL     1       9.904  47.138  53.951  1.00  0.00     0.038 C 
ENDBRANCH  25  26
ENDBRANCH  24  25
ENDBRANCH  23  24
ENDBRANCH   1  23
TORSDOF 7
ENDMDL
MODEL 18
REMARK VINA RESULT:    -7.373      3.230      6.662
REMARK INTER + INTRA:         -11.952
REMARK INTER:                 -10.367
REMARK INTRA:                  -1.585
REMARK UNBOUND:                -1.562
REMARK SMILES Cc1cc(Cl)ccc1Nc1nc(NCCOC(C)C)nc2c1cnn2C
REMARK SMILES IDX 13 1 12 3 10 4 11 5 22 6 21 7 23 8 20 9 25 10 24 11 26 12
REMARK SMILES IDX 9 13 8 15 2 16 3 17 4 18 7 19 6 20 1 21 5 22 14 23 15 24
REMARK SMILES IDX 16 25 17 26 18 27 19 28
REMARK H PARENT 13 2 9 14
ROOT
ATOM      1  N   UNL     1       7.281  44.827  49.380  1.00  0.00    -0.352 N 
ATOM      2  H   UNL     1       7.938  45.454  48.929  1.00  0.00     0.163 HD
ENDROOT
BRANCH   1   3
ATOM      3  C   UNL     1       6.912  45.416  50.579  1.00  0.00     0.226 A 
ATOM      4  C   UNL     1       5.233  46.224  51.998  1.00  0.00     0.147 A 
ATOM      5  N   UNL     1       5.610  45.642  50.833  1.00  0.00    -0.195 NA
ATOM      6  C   UNL     1       6.231  46.557  52.915  1.00  0.00     0.082 A 
ATOM      7  C   UNL     1       7.530  46.271  52.548  1.00  0.00     0.165 A 
ATOM      8  C   UNL     1       6.345  47.131  54.197  1.00  0.00     0.149 A 
ATOM      9  N   UNL     1       7.930  45.703  51.399  1.00  0.00    -0.193 NA
ATOM     10  N   UNL     1       8.315  46.686  53.589  1.00  0.00    -0.250 N 
ATOM     11  N   UNL     1       7.613  47.215  54.618  1.00  0.00    -0.179 NA
ATOM     12  C   UNL     1       9.751  46.610  53.678  1.00  0.00     0.176 C 
BRANCH   4  13
ATOM     13  N   UNL     1       3.853  46.429  52.187  1.00  0.00    -0.339 N 
ATOM     14  H   UNL     1       3.780  47.111  52.940  1.00  0.00     0.168 HD
BRANCH  13  15
ATOM     15  C   UNL     1       2.893  45.405  52.334  1.00  0.00     0.043 A 
ATOM     16  C   UNL     1       2.552  44.841  53.580  1.00  0.00    -0.026 A 
ATOM     17  C   UNL     1       1.575  43.830  53.628  1.00  0.00     0.026 A 
ATOM     18  C   UNL     1       0.919  43.420  52.468  1.00  0.00     0.041 A 
ATOM     19  C   UNL     1       2.199  45.000  51.184  1.00  0.00     0.028 A 
ATOM     20  C   UNL     1       1.221  44.007  51.246  1.00  0.00     0.022 A 
ATOM     21  C   UNL     1       3.216  45.258  54.864  1.00  0.00     0.046 C 
ATOM     22  Cl  UNL     1      -0.280  42.188  52.553  1.00  0.00    -0.084 Cl
ENDBRANCH  13  15
ENDBRANCH   4  13
ENDBRANCH   1   3
BRANCH   1  23
ATOM     23  C   UNL     1       7.669  43.424  49.432  1.00  0.00     0.144 C 
BRANCH  23  24
ATOM     24  C   UNL     1       6.537  42.473  49.015  1.00  0.00     0.181 C 
BRANCH  24  25
ATOM     25  O   UNL     1       5.980  41.807  50.152  1.00  0.00    -0.377 OA
BRANCH  25  26
ATOM     26  C   UNL     1       4.565  41.967  50.293  1.00  0.00     0.112 C 
ATOM     27  C   UNL     1       3.843  40.810  49.608  1.00  0.00     0.038 C 
ATOM     28  C   UNL     1       4.259  41.976  51.785  1.00  0.00     0.038 C 
ENDBRANCH  25  26
ENDBRANCH  24  25
ENDBRANCH  23  24
ENDBRANCH   1  23
TORSDOF 7
ENDMDL
MODEL 19
REMARK VINA RESULT:    -7.185      3.018      5.859
REMARK INTER + INTRA:         -11.687
REMARK INTER:                 -10.722
REMARK INTRA:                  -0.965
REMARK UNBOUND:                -1.562
REMARK SMILES Cc1cc(Cl)ccc1Nc1nc(NCCOC(C)C)nc2c1cnn2C
REMARK SMILES IDX 13 1 12 3 10 4 11 5 22 6 21 7 23 8 20 9 25 10 24 11 26 12
REMARK SMILES IDX 9 13 8 15 2 16 3 17 4 18 7 19 6 20 1 21 5 22 14 23 15 24
REMARK SMILES IDX 16 25 17 26 18 27 19 28
REMARK H PARENT 13 2 9 14
ROOT
ATOM      1  N   UNL     1       1.698  42.443  52.419  1.00  0.00    -0.352 N 
ATOM      2  H   UNL     1       0.783  42.076  52.182  1.00  0.00     0.163 HD
ENDROOT
BRANCH   1   3
ATOM      3  C   UNL     1       1.518  43.360  53.443  1.00  0.00     0.226 A 
ATOM      4  C   UNL     1       2.373  45.075  54.788  1.00  0.00     0.147 A 
ATOM      5  N   UNL     1       2.529  44.179  53.784  1.00  0.00    -0.195 NA
ATOM      6  C   UNL     1       1.135  45.126  55.432  1.00  0.00     0.082 A 
ATOM      7  C   UNL     1       0.171  44.241  54.991  1.00  0.00     0.165 A 
ATOM      8  C   UNL     1       0.504  45.850  56.463  1.00  0.00     0.149 A 
ATOM      9  N   UNL     1       0.303  43.340  54.006  1.00  0.00    -0.193 NA
ATOM     10  N   UNL     1      -0.934  44.474  55.765  1.00  0.00    -0.250 N 
ATOM     11  N   UNL     1      -0.759  45.460  56.674  1.00  0.00    -0.179 NA
ATOM     12  C   UNL     1      -2.201  43.793  55.694  1.00  0.00     0.176 C 
BRANCH   4  13
ATOM     13  N   UNL     1       3.478  45.894  55.086  1.00  0.00    -0.339 N 
ATOM     14  H   UNL     1       3.085  46.788  55.376  1.00  0.00     0.168 HD
BRANCH  13  15
ATOM     15  C   UNL     1       4.599  46.081  54.248  1.00  0.00     0.043 A 
ATOM     16  C   UNL     1       4.559  46.845  53.065  1.00  0.00    -0.026 A 
ATOM     17  C   UNL     1       5.731  46.982  52.299  1.00  0.00     0.026 A 
ATOM     18  C   UNL     1       6.929  46.409  52.725  1.00  0.00     0.041 A 
ATOM     19  C   UNL     1       5.821  45.539  54.675  1.00  0.00     0.028 A 
ATOM     20  C   UNL     1       6.981  45.694  53.916  1.00  0.00     0.022 A 
ATOM     21  C   UNL     1       3.298  47.499  52.568  1.00  0.00     0.046 C 
ATOM     22  Cl  UNL     1       8.352  46.598  51.778  1.00  0.00    -0.084 Cl
ENDBRANCH  13  15
ENDBRANCH   4  13
ENDBRANCH   1   3
BRANCH   1  23
ATOM     23  C   UNL     1       2.526  42.866  51.299  1.00  0.00     0.144 C 
BRANCH  23  24
ATOM     24  C   UNL     1       3.811  42.037  51.156  1.00  0.00     0.181 C 
BRANCH  24  25
ATOM     25  O   UNL     1       4.969  42.876  51.164  1.00  0.00    -0.377 OA
BRANCH  25  26
ATOM     26  C   UNL     1       5.751  42.813  49.968  1.00  0.00     0.112 C 
ATOM     27  C   UNL     1       6.758  43.959  49.947  1.00  0.00     0.038 C 
ATOM     28  C   UNL     1       6.473  41.472  49.971  1.00  0.00     0.038 C 
ENDBRANCH  25  26
ENDBRANCH  24  25
ENDBRANCH  23  24
ENDBRANCH   1  23
TORSDOF 7
ENDMDL
MODEL 20
REMARK VINA RESULT:    -7.167      3.394      4.646
REMARK INTER + INTRA:         -11.662
REMARK INTER:                 -10.889
REMARK INTRA:                  -0.773
REMARK UNBOUND:                -1.562
REMARK SMILES Cc1cc(Cl)ccc1Nc1nc(NCCOC(C)C)nc2c1cnn2C
REMARK SMILES IDX 13 1 12 3 10 4 11 5 22 6 21 7 23 8 20 9 25 10 24 11 26 12
REMARK SMILES IDX 9 13 8 15 2 16 3 17 4 18 7 19 6 20 1 21 5 22 14 23 15 24
REMARK SMILES IDX 16 25 17 26 18 27 19 28
REMARK H PARENT 13 2 9 14
ROOT
ATOM      1  N   UNL     1       2.017  45.783  56.458  1.00  0.00    -0.352 N 
ATOM      2  H   UNL     1       2.209  46.777  56.500  1.00  0.00     0.163 HD
ENDROOT
BRANCH   1   3
ATOM      3  C   UNL     1       2.144  45.398  55.132  1.00  0.00     0.226 A 
ATOM      4  C   UNL     1       3.079  45.740  53.012  1.00  0.00     0.147 A 
ATOM      5  N   UNL     1       2.949  46.098  54.313  1.00  0.00    -0.195 NA
ATOM      6  C   UNL     1       2.369  44.622  52.569  1.00  0.00     0.082 A 
ATOM      7  C   UNL     1       1.580  43.979  53.502  1.00  0.00     0.165 A 
ATOM      8  C   UNL     1       2.190  43.880  51.385  1.00  0.00     0.149 A 
ATOM      9  N   UNL     1       1.429  44.318  54.792  1.00  0.00    -0.193 NA
ATOM     10  N   UNL     1       0.991  42.936  52.840  1.00  0.00    -0.250 N 
ATOM     11  N   UNL     1       1.351  42.849  51.539  1.00  0.00    -0.179 NA
ATOM     12  C   UNL     1       0.068  41.973  53.385  1.00  0.00     0.176 C 
BRANCH   4  13
ATOM     13  N   UNL     1       3.938  46.525  52.220  1.00  0.00    -0.339 N 
ATOM     14  H   UNL     1       3.605  46.411  51.264  1.00  0.00     0.168 HD
BRANCH  13  15
ATOM     15  C   UNL     1       5.347  46.492  52.275  1.00  0.00     0.043 A 
ATOM     16  C   UNL     1       6.136  45.710  51.407  1.00  0.00    -0.026 A 
ATOM     17  C   UNL     1       7.536  45.750  51.532  1.00  0.00     0.026 A 
ATOM     18  C   UNL     1       8.142  46.586  52.469  1.00  0.00     0.041 A 
ATOM     19  C   UNL     1       5.978  47.349  53.190  1.00  0.00     0.028 A 
ATOM     20  C   UNL     1       7.369  47.393  53.294  1.00  0.00     0.022 A 
ATOM     21  C   UNL     1       5.534  44.804  50.367  1.00  0.00     0.046 C 
ATOM     22  Cl  UNL     1       9.857  46.626  52.597  1.00  0.00    -0.084 Cl
ENDBRANCH  13  15
ENDBRANCH   4  13
ENDBRANCH   1   3
BRANCH   1  23
ATOM     23  C   UNL     1       0.822  45.332  57.157  1.00  0.00     0.144 C 
BRANCH  23  24
ATOM     24  C   UNL     1      -0.077  46.491  57.618  1.00  0.00     0.181 C 
BRANCH  24  25
ATOM     25  O   UNL     1       0.465  47.133  58.776  1.00  0.00    -0.377 OA
BRANCH  25  26
ATOM     26  C   UNL     1      -0.380  48.139  59.341  1.00  0.00     0.112 C 
ATOM     27  C   UNL     1      -1.838  47.835  59.012  1.00  0.00     0.038 C 
ATOM     28  C   UNL     1      -0.160  48.118  60.848  1.00  0.00     0.038 C 
ENDBRANCH  25  26
ENDBRANCH  24  25
ENDBRANCH  23  24
ENDBRANCH   1  23
TORSDOF 7
ENDMDL
