MODEL 1
REMARK VINA RESULT:    -8.644      0.000      0.000
REMARK INTER + INTRA:         -12.908
REMARK INTER:                 -11.928
REMARK INTRA:                  -0.980
REMARK UNBOUND:                -0.980
REMARK SMILES Cc1ccc(Nc2nc(NCC[NH+](C)C)nc3c2cnn3C)c(O)c1
REMARK SMILES IDX 9 1 8 2 16 3 7 4 17 5 18 6 21 7 19 8 20 9 22 10 10 11 11 13
REMARK SMILES IDX 12 14 13 15 14 16 15 17 6 19 5 21 4 22 23 23 3 24 25 25 2 26
REMARK SMILES IDX 1 27 24 28
REMARK H PARENT 10 12 13 18 6 20 24 29
ROOT
ATOM      1  C   UNL     1       4.285  43.950  52.181  1.00  0.00     0.226 A 
ATOM      2  N   UNL     1       5.044  45.032  52.386  1.00  0.00    -0.195 NA
ATOM      3  N   UNL     1       4.493  42.986  51.273  1.00  0.00    -0.193 NA
ATOM      4  C   UNL     1       6.143  45.263  51.618  1.00  0.00     0.147 A 
ATOM      5  C   UNL     1       5.573  43.237  50.511  1.00  0.00     0.165 A 
ATOM      6  C   UNL     1       6.422  44.325  50.617  1.00  0.00     0.082 A 
ATOM      7  N   UNL     1       6.060  42.485  49.474  1.00  0.00    -0.250 N 
ATOM      8  C   UNL     1       7.381  44.125  49.603  1.00  0.00     0.149 A 
ATOM      9  N   UNL     1       7.166  43.008  48.904  1.00  0.00    -0.179 NA
ATOM     10  C   UNL     1       5.523  41.251  48.957  1.00  0.00     0.176 C 
ENDROOT
BRANCH   1  11
ATOM     11  N   UNL     1       3.212  43.826  53.068  1.00  0.00    -0.348 N 
ATOM     12  H   UNL     1       3.505  43.017  53.627  1.00  0.00     0.163 HD
BRANCH  11  13
ATOM     13  C   UNL     1       3.003  45.023  53.896  1.00  0.00     0.177 C 
BRANCH  13  14
ATOM     14  C   UNL     1       1.674  45.676  53.463  1.00  0.00     0.283 C 
BRANCH  14  15
ATOM     15  N   UNL     1       0.668  45.542  54.599  1.00  0.00    -0.338 N 
ATOM     16  C   UNL     1       1.306  45.315  55.933  1.00  0.00     0.332 C 
ATOM     17  C   UNL     1      -0.428  44.570  54.311  1.00  0.00     0.332 C 
ATOM     18  H   UNL     1       0.239  46.488  54.633  1.00  0.00     0.347 HD
ENDBRANCH  14  15
ENDBRANCH  13  14
ENDBRANCH  11  13
ENDBRANCH   1  11
BRANCH   4  19
ATOM     19  N   UNL     1       6.917  46.418  51.792  1.00  0.00    -0.336 N 
ATOM     20  H   UNL     1       7.039  46.970  50.948  1.00  0.00     0.168 HD
BRANCH  19  21
ATOM     21  C   UNL     1       7.926  46.710  52.734  1.00  0.00     0.082 A 
ATOM     22  C   UNL     1       9.286  46.477  52.521  1.00  0.00     0.030 A 
ATOM     23  C   UNL     1       7.548  47.230  53.984  1.00  0.00     0.139 A 
ATOM     24  C   UNL     1      10.234  46.815  53.497  1.00  0.00     0.006 A 
ATOM     25  C   UNL     1       8.479  47.585  54.955  1.00  0.00     0.051 A 
ATOM     26  C   UNL     1       9.840  47.390  54.711  1.00  0.00    -0.047 A 
ATOM     27  C   UNL     1      10.856  47.730  55.761  1.00  0.00     0.044 C 
BRANCH  23  28
ATOM     28  O   UNL     1       6.221  47.372  54.294  1.00  0.00    -0.506 OA
ATOM     29  H   UNL     1       5.857  46.469  54.299  1.00  0.00     0.293 HD
ENDBRANCH  23  28
ENDBRANCH  19  21
ENDBRANCH   4  19
TORSDOF 7
ENDMDL
MODEL 2
REMARK VINA RESULT:    -8.371      1.684      2.243
REMARK INTER + INTRA:         -12.531
REMARK INTER:                 -11.420
REMARK INTRA:                  -1.111
REMARK UNBOUND:                -0.980
REMARK SMILES Cc1ccc(Nc2nc(NCC[NH+](C)C)nc3c2cnn3C)c(O)c1
REMARK SMILES IDX 9 1 8 2 16 3 7 4 17 5 18 6 21 7 19 8 20 9 22 10 10 11 11 13
REMARK SMILES IDX 12 14 13 15 14 16 15 17 6 19 5 21 4 22 23 23 3 24 25 25 2 26
REMARK SMILES IDX 1 27 24 28
REMARK H PARENT 10 12 13 18 6 20 24 29
ROOT
ATOM      1  C   UNL     1       4.615  44.896  51.419  1.00  0.00     0.226 A 
ATOM      2  N   UNL     1       5.515  45.838  51.720  1.00  0.00    -0.195 NA
ATOM      3  N   UNL     1       4.806  43.829  50.631  1.00  0.00    -0.193 NA
ATOM      4  C   UNL     1       6.769  45.794  51.193  1.00  0.00     0.147 A 
ATOM      5  C   UNL     1       6.044  43.806  50.105  1.00  0.00     0.165 A 
ATOM      6  C   UNL     1       7.052  44.729  50.329  1.00  0.00     0.082 A 
ATOM      7  N   UNL     1       6.571  42.884  49.239  1.00  0.00    -0.250 N 
ATOM      8  C   UNL     1       8.135  44.264  49.555  1.00  0.00     0.149 A 
ATOM      9  N   UNL     1       7.848  43.142  48.889  1.00  0.00    -0.179 NA
ATOM     10  C   UNL     1       5.915  41.723  48.689  1.00  0.00     0.176 C 
ENDROOT
BRANCH   1  11
ATOM     11  N   UNL     1       3.384  45.053  52.062  1.00  0.00    -0.348 N 
ATOM     12  H   UNL     1       2.751  44.589  51.402  1.00  0.00     0.163 HD
BRANCH  11  13
ATOM     13  C   UNL     1       3.345  44.434  53.396  1.00  0.00     0.177 C 
BRANCH  13  14
ATOM     14  C   UNL     1       2.838  45.493  54.398  1.00  0.00     0.283 C 
BRANCH  14  15
ATOM     15  N   UNL     1       4.030  46.056  55.161  1.00  0.00    -0.338 N 
ATOM     16  C   UNL     1       4.485  47.388  54.654  1.00  0.00     0.332 C 
ATOM     17  C   UNL     1       5.151  45.082  55.315  1.00  0.00     0.332 C 
ATOM     18  H   UNL     1       3.633  46.220  56.109  1.00  0.00     0.347 HD
ENDBRANCH  14  15
ENDBRANCH  13  14
ENDBRANCH  11  13
ENDBRANCH   1  11
BRANCH   4  19
ATOM     19  N   UNL     1       7.704  46.801  51.463  1.00  0.00    -0.336 N 
ATOM     20  H   UNL     1       8.170  47.169  50.639  1.00  0.00     0.168 HD
BRANCH  19  21
ATOM     21  C   UNL     1       8.458  47.061  52.626  1.00  0.00     0.082 A 
ATOM     22  C   UNL     1       7.975  47.765  53.731  1.00  0.00     0.030 A 
ATOM     23  C   UNL     1       9.794  46.626  52.673  1.00  0.00     0.139 A 
ATOM     24  C   UNL     1       8.777  47.965  54.863  1.00  0.00     0.006 A 
ATOM     25  C   UNL     1      10.596  46.803  53.796  1.00  0.00     0.051 A 
ATOM     26  C   UNL     1      10.085  47.468  54.912  1.00  0.00    -0.047 A 
ATOM     27  C   UNL     1      10.947  47.703  56.117  1.00  0.00     0.044 C 
BRANCH  23  28
ATOM     28  O   UNL     1      10.359  46.032  51.575  1.00  0.00    -0.506 OA
ATOM     29  H   UNL     1      10.530  46.755  50.947  1.00  0.00     0.293 HD
ENDBRANCH  23  28
ENDBRANCH  19  21
ENDBRANCH   4  19
TORSDOF 7
ENDMDL
MODEL 3
REMARK VINA RESULT:    -8.338      2.016      5.318
REMARK INTER + INTRA:         -12.486
REMARK INTER:                 -11.771
REMARK INTRA:                  -0.715
REMARK UNBOUND:                -0.980
REMARK SMILES Cc1ccc(Nc2nc(NCC[NH+](C)C)nc3c2cnn3C)c(O)c1
REMARK SMILES IDX 9 1 8 2 16 3 7 4 17 5 18 6 21 7 19 8 20 9 22 10 10 11 11 13
REMARK SMILES IDX 12 14 13 15 14 16 15 17 6 19 5 21 4 22 23 23 3 24 25 25 2 26
REMARK SMILES IDX 1 27 24 28
REMARK H PARENT 10 12 13 18 6 20 24 29
ROOT
ATOM      1  C   UNL     1       6.146  43.051  49.921  1.00  0.00     0.226 A 
ATOM      2  N   UNL     1       6.877  44.158  50.087  1.00  0.00    -0.195 NA
ATOM      3  N   UNL     1       5.004  42.743  50.551  1.00  0.00    -0.193 NA
ATOM      4  C   UNL     1       6.503  45.107  50.989  1.00  0.00     0.147 A 
ATOM      5  C   UNL     1       4.655  43.681  51.449  1.00  0.00     0.165 A 
ATOM      6  C   UNL     1       5.336  44.856  51.720  1.00  0.00     0.082 A 
ATOM      7  N   UNL     1       3.570  43.679  52.286  1.00  0.00    -0.250 N 
ATOM      8  C   UNL     1       4.574  45.482  52.728  1.00  0.00     0.149 A 
ATOM      9  N   UNL     1       3.498  44.770  53.077  1.00  0.00    -0.179 NA
ATOM     10  C   UNL     1       2.552  42.666  52.398  1.00  0.00     0.176 C 
ENDROOT
BRANCH   1  11
ATOM     11  N   UNL     1       6.633  42.186  48.937  1.00  0.00    -0.348 N 
ATOM     12  H   UNL     1       7.223  41.559  49.494  1.00  0.00     0.163 HD
BRANCH  11  13
ATOM     13  C   UNL     1       5.570  41.461  48.226  1.00  0.00     0.177 C 
BRANCH  13  14
ATOM     14  C   UNL     1       5.625  41.871  46.739  1.00  0.00     0.283 C 
BRANCH  14  15
ATOM     15  N   UNL     1       4.990  40.768  45.902  1.00  0.00    -0.338 N 
ATOM     16  C   UNL     1       5.219  40.932  44.432  1.00  0.00     0.332 C 
ATOM     17  C   UNL     1       3.558  40.515  46.239  1.00  0.00     0.332 C 
ATOM     18  H   UNL     1       5.528  39.927  46.193  1.00  0.00     0.347 HD
ENDBRANCH  14  15
ENDBRANCH  13  14
ENDBRANCH  11  13
ENDBRANCH   1  11
BRANCH   4  19
ATOM     19  N   UNL     1       7.286  46.248  51.206  1.00  0.00    -0.336 N 
ATOM     20  H   UNL     1       7.628  46.688  50.357  1.00  0.00     0.168 HD
BRANCH  19  21
ATOM     21  C   UNL     1       8.073  46.619  52.317  1.00  0.00     0.082 A 
ATOM     22  C   UNL     1       7.579  47.294  53.435  1.00  0.00     0.030 A 
ATOM     23  C   UNL     1       9.449  46.335  52.291  1.00  0.00     0.139 A 
ATOM     24  C   UNL     1       8.419  47.610  54.512  1.00  0.00     0.006 A 
ATOM     25  C   UNL     1      10.291  46.628  53.360  1.00  0.00     0.051 A 
ATOM     26  C   UNL     1       9.774  47.261  54.492  1.00  0.00    -0.047 A 
ATOM     27  C   UNL     1      10.673  47.620  55.638  1.00  0.00     0.044 C 
BRANCH  23  28
ATOM     28  O   UNL     1      10.013  45.779  51.172  1.00  0.00    -0.506 OA
ATOM     29  H   UNL     1      10.822  46.293  51.005  1.00  0.00     0.293 HD
ENDBRANCH  23  28
ENDBRANCH  19  21
ENDBRANCH   4  19
TORSDOF 7
ENDMDL
MODEL 4
REMARK VINA RESULT:    -8.280      1.691      5.320
REMARK INTER + INTRA:         -12.405
REMARK INTER:                 -11.467
REMARK INTRA:                  -0.939
REMARK UNBOUND:                -0.980
REMARK SMILES Cc1ccc(Nc2nc(NCC[NH+](C)C)nc3c2cnn3C)c(O)c1
REMARK SMILES IDX 9 1 8 2 16 3 7 4 17 5 18 6 21 7 19 8 20 9 22 10 10 11 11 13
REMARK SMILES IDX 12 14 13 15 14 16 15 17 6 19 5 21 4 22 23 23 3 24 25 25 2 26
REMARK SMILES IDX 1 27 24 28
REMARK H PARENT 10 12 13 18 6 20 24 29
ROOT
ATOM      1  C   UNL     1       3.476  42.611  51.549  1.00  0.00     0.226 A 
ATOM      2  N   UNL     1       4.361  43.573  51.265  1.00  0.00    -0.195 NA
ATOM      3  N   UNL     1       2.376  42.732  52.304  1.00  0.00    -0.193 NA
ATOM      4  C   UNL     1       4.212  44.825  51.778  1.00  0.00     0.147 A 
ATOM      5  C   UNL     1       2.250  43.969  52.817  1.00  0.00     0.165 A 
ATOM      6  C   UNL     1       3.105  45.038  52.609  1.00  0.00     0.082 A 
ATOM      7  N   UNL     1       1.268  44.436  53.651  1.00  0.00    -0.250 N 
ATOM      8  C   UNL     1       2.542  46.091  53.358  1.00  0.00     0.149 A 
ATOM      9  N   UNL     1       1.425  45.730  53.995  1.00  0.00    -0.179 NA
ATOM     10  C   UNL     1       0.142  43.704  54.174  1.00  0.00     0.176 C 
ENDROOT
BRANCH   1  11
ATOM     11  N   UNL     1       3.739  41.389  50.922  1.00  0.00    -0.348 N 
ATOM     12  H   UNL     1       2.968  41.339  50.248  1.00  0.00     0.163 HD
BRANCH  11  13
ATOM     13  C   UNL     1       5.053  41.346  50.265  1.00  0.00     0.177 C 
BRANCH  13  14
ATOM     14  C   UNL     1       4.838  40.929  48.795  1.00  0.00     0.283 C 
BRANCH  14  15
ATOM     15  N   UNL     1       5.955  41.523  47.947  1.00  0.00    -0.338 N 
ATOM     16  C   UNL     1       6.620  42.703  48.583  1.00  0.00     0.332 C 
ATOM     17  C   UNL     1       5.557  41.778  46.531  1.00  0.00     0.332 C 
ATOM     18  H   UNL     1       6.660  40.758  47.935  1.00  0.00     0.347 HD
ENDBRANCH  14  15
ENDBRANCH  13  14
ENDBRANCH  11  13
ENDBRANCH   1  11
BRANCH   4  19
ATOM     19  N   UNL     1       5.158  45.827  51.528  1.00  0.00    -0.336 N 
ATOM     20  H   UNL     1       5.238  46.091  50.550  1.00  0.00     0.168 HD
BRANCH  19  21
ATOM     21  C   UNL     1       6.319  46.189  52.243  1.00  0.00     0.082 A 
ATOM     22  C   UNL     1       6.313  46.663  53.556  1.00  0.00     0.030 A 
ATOM     23  C   UNL     1       7.562  46.110  51.590  1.00  0.00     0.139 A 
ATOM     24  C   UNL     1       7.512  46.981  54.210  1.00  0.00     0.006 A 
ATOM     25  C   UNL     1       8.760  46.408  52.233  1.00  0.00     0.051 A 
ATOM     26  C   UNL     1       8.743  46.835  53.562  1.00  0.00    -0.047 A 
ATOM     27  C   UNL     1      10.021  47.198  54.259  1.00  0.00     0.044 C 
BRANCH  23  28
ATOM     28  O   UNL     1       7.620  45.763  50.266  1.00  0.00    -0.506 OA
ATOM     29  H   UNL     1       8.498  46.048  49.960  1.00  0.00     0.293 HD
ENDBRANCH  23  28
ENDBRANCH  19  21
ENDBRANCH   4  19
TORSDOF 7
ENDMDL
MODEL 5
REMARK VINA RESULT:    -8.137      1.673      5.369
REMARK INTER + INTRA:         -12.208
REMARK INTER:                 -11.324
REMARK INTRA:                  -0.884
REMARK UNBOUND:                -0.980
REMARK SMILES Cc1ccc(Nc2nc(NCC[NH+](C)C)nc3c2cnn3C)c(O)c1
REMARK SMILES IDX 9 1 8 2 16 3 7 4 17 5 18 6 21 7 19 8 20 9 22 10 10 11 11 13
REMARK SMILES IDX 12 14 13 15 14 16 15 17 6 19 5 21 4 22 23 23 3 24 25 25 2 26
REMARK SMILES IDX 1 27 24 28
REMARK H PARENT 10 12 13 18 6 20 24 29
ROOT
ATOM      1  C   UNL     1       3.148  42.701  51.481  1.00  0.00     0.226 A 
ATOM      2  N   UNL     1       3.938  43.730  51.159  1.00  0.00    -0.195 NA
ATOM      3  N   UNL     1       2.095  42.728  52.310  1.00  0.00    -0.193 NA
ATOM      4  C   UNL     1       3.734  44.959  51.706  1.00  0.00     0.147 A 
ATOM      5  C   UNL     1       1.915  43.945  52.855  1.00  0.00     0.165 A 
ATOM      6  C   UNL     1       2.673  45.077  52.612  1.00  0.00     0.082 A 
ATOM      7  N   UNL     1       0.960  44.325  53.762  1.00  0.00    -0.250 N 
ATOM      8  C   UNL     1       2.087  46.075  53.418  1.00  0.00     0.149 A 
ATOM      9  N   UNL     1       1.045  45.623  54.120  1.00  0.00    -0.179 NA
ATOM     10  C   UNL     1      -0.072  43.504  54.343  1.00  0.00     0.176 C 
ENDROOT
BRANCH   1  11
ATOM     11  N   UNL     1       3.455  41.511  50.814  1.00  0.00    -0.348 N 
ATOM     12  H   UNL     1       2.741  41.503  50.078  1.00  0.00     0.163 HD
BRANCH  11  13
ATOM     13  C   UNL     1       4.818  41.491  50.263  1.00  0.00     0.177 C 
BRANCH  13  14
ATOM     14  C   UNL     1       4.747  40.918  48.833  1.00  0.00     0.283 C 
BRANCH  14  15
ATOM     15  N   UNL     1       5.902  41.486  48.018  1.00  0.00    -0.338 N 
ATOM     16  C   UNL     1       6.570  42.655  48.669  1.00  0.00     0.332 C 
ATOM     17  C   UNL     1       5.552  41.743  46.589  1.00  0.00     0.332 C 
ATOM     18  H   UNL     1       6.591  40.707  48.031  1.00  0.00     0.347 HD
ENDBRANCH  14  15
ENDBRANCH  13  14
ENDBRANCH  11  13
ENDBRANCH   1  11
BRANCH   4  19
ATOM     19  N   UNL     1       4.586  46.032  51.413  1.00  0.00    -0.336 N 
ATOM     20  H   UNL     1       4.271  46.617  50.645  1.00  0.00     0.168 HD
BRANCH  19  21
ATOM     21  C   UNL     1       5.972  46.185  51.628  1.00  0.00     0.082 A 
ATOM     22  C   UNL     1       6.956  45.539  50.877  1.00  0.00     0.030 A 
ATOM     23  C   UNL     1       6.401  47.004  52.687  1.00  0.00     0.139 A 
ATOM     24  C   UNL     1       8.316  45.759  51.135  1.00  0.00     0.006 A 
ATOM     25  C   UNL     1       7.748  47.243  52.944  1.00  0.00     0.051 A 
ATOM     26  C   UNL     1       8.722  46.628  52.155  1.00  0.00    -0.047 A 
ATOM     27  C   UNL     1      10.178  46.843  52.441  1.00  0.00     0.044 C 
BRANCH  23  28
ATOM     28  O   UNL     1       5.483  47.571  53.530  1.00  0.00    -0.506 OA
ATOM     29  H   UNL     1       5.122  48.335  53.047  1.00  0.00     0.293 HD
ENDBRANCH  23  28
ENDBRANCH  19  21
ENDBRANCH   4  19
TORSDOF 7
ENDMDL
MODEL 6
REMARK VINA RESULT:    -8.133      2.242      5.816
REMARK INTER + INTRA:         -12.203
REMARK INTER:                 -11.347
REMARK INTRA:                  -0.856
REMARK UNBOUND:                -0.980
REMARK SMILES Cc1ccc(Nc2nc(NCC[NH+](C)C)nc3c2cnn3C)c(O)c1
REMARK SMILES IDX 9 1 8 2 16 3 7 4 17 5 18 6 21 7 19 8 20 9 22 10 10 11 11 13
REMARK SMILES IDX 12 14 13 15 14 16 15 17 6 19 5 21 4 22 23 23 3 24 25 25 2 26
REMARK SMILES IDX 1 27 24 28
REMARK H PARENT 10 12 13 18 6 20 24 29
ROOT
ATOM      1  C   UNL     1       5.966  46.741  54.232  1.00  0.00     0.226 A 
ATOM      2  N   UNL     1       5.787  46.133  53.054  1.00  0.00    -0.195 NA
ATOM      3  N   UNL     1       7.125  47.179  54.740  1.00  0.00    -0.193 NA
ATOM      4  C   UNL     1       6.848  45.873  52.241  1.00  0.00     0.147 A 
ATOM      5  C   UNL     1       8.166  46.901  53.934  1.00  0.00     0.165 A 
ATOM      6  C   UNL     1       8.109  46.266  52.705  1.00  0.00     0.082 A 
ATOM      7  N   UNL     1       9.491  47.175  54.149  1.00  0.00    -0.250 N 
ATOM      8  C   UNL     1       9.450  46.214  52.272  1.00  0.00     0.149 A 
ATOM      9  N   UNL     1      10.295  46.765  53.147  1.00  0.00    -0.179 NA
ATOM     10  C   UNL     1      10.077  47.823  55.296  1.00  0.00     0.176 C 
ENDROOT
BRANCH   1  11
ATOM     11  N   UNL     1       4.783  46.974  54.940  1.00  0.00    -0.348 N 
ATOM     12  H   UNL     1       4.210  47.439  54.228  1.00  0.00     0.163 HD
BRANCH  11  13
ATOM     13  C   UNL     1       4.154  45.742  55.440  1.00  0.00     0.177 C 
BRANCH  13  14
ATOM     14  C   UNL     1       2.660  45.781  55.058  1.00  0.00     0.283 C 
BRANCH  14  15
ATOM     15  N   UNL     1       2.498  45.226  53.649  1.00  0.00    -0.338 N 
ATOM     16  C   UNL     1       2.054  46.251  52.654  1.00  0.00     0.332 C 
ATOM     17  C   UNL     1       1.684  43.975  53.592  1.00  0.00     0.332 C 
ATOM     18  H   UNL     1       3.474  44.970  53.395  1.00  0.00     0.347 HD
ENDBRANCH  14  15
ENDBRANCH  13  14
ENDBRANCH  11  13
ENDBRANCH   1  11
BRANCH   4  19
ATOM     19  N   UNL     1       6.680  45.193  51.028  1.00  0.00    -0.336 N 
ATOM     20  H   UNL     1       6.819  45.770  50.204  1.00  0.00     0.168 HD
BRANCH  19  21
ATOM     21  C   UNL     1       5.913  44.050  50.718  1.00  0.00     0.082 A 
ATOM     22  C   UNL     1       4.670  43.764  51.286  1.00  0.00     0.030 A 
ATOM     23  C   UNL     1       6.440  43.112  49.814  1.00  0.00     0.139 A 
ATOM     24  C   UNL     1       3.955  42.618  50.911  1.00  0.00     0.006 A 
ATOM     25  C   UNL     1       5.735  41.979  49.420  1.00  0.00     0.051 A 
ATOM     26  C   UNL     1       4.472  41.730  49.961  1.00  0.00    -0.047 A 
ATOM     27  C   UNL     1       3.713  40.493  49.579  1.00  0.00     0.044 C 
BRANCH  23  28
ATOM     28  O   UNL     1       7.704  43.280  49.312  1.00  0.00    -0.506 OA
ATOM     29  H   UNL     1       8.220  42.527  49.649  1.00  0.00     0.293 HD
ENDBRANCH  23  28
ENDBRANCH  19  21
ENDBRANCH   4  19
TORSDOF 7
ENDMDL
MODEL 7
REMARK VINA RESULT:    -7.922      2.966      6.519
REMARK INTER + INTRA:         -11.912
REMARK INTER:                 -11.098
REMARK INTRA:                  -0.814
REMARK UNBOUND:                -0.980
REMARK SMILES Cc1ccc(Nc2nc(NCC[NH+](C)C)nc3c2cnn3C)c(O)c1
REMARK SMILES IDX 9 1 8 2 16 3 7 4 17 5 18 6 21 7 19 8 20 9 22 10 10 11 11 13
REMARK SMILES IDX 12 14 13 15 14 16 15 17 6 19 5 21 4 22 23 23 3 24 25 25 2 26
REMARK SMILES IDX 1 27 24 28
REMARK H PARENT 10 12 13 18 6 20 24 29
ROOT
ATOM      1  C   UNL     1       2.514  44.926  54.979  1.00  0.00     0.226 A 
ATOM      2  N   UNL     1       2.997  44.336  53.881  1.00  0.00    -0.195 NA
ATOM      3  N   UNL     1       1.262  44.846  55.448  1.00  0.00    -0.193 NA
ATOM      4  C   UNL     1       2.189  43.578  53.090  1.00  0.00     0.147 A 
ATOM      5  C   UNL     1       0.471  44.108  54.648  1.00  0.00     0.165 A 
ATOM      6  C   UNL     1       0.850  43.463  53.483  1.00  0.00     0.082 A 
ATOM      7  N   UNL     1      -0.864  43.841  54.803  1.00  0.00    -0.250 N 
ATOM      8  C   UNL     1      -0.329  42.841  53.024  1.00  0.00     0.149 A 
ATOM      9  N   UNL     1      -1.375  43.067  53.823  1.00  0.00    -0.179 NA
ATOM     10  C   UNL     1      -1.732  44.294  55.861  1.00  0.00     0.176 C 
ENDROOT
BRANCH   1  11
ATOM     11  N   UNL     1       3.468  45.640  55.711  1.00  0.00    -0.348 N 
ATOM     12  H   UNL     1       3.251  45.342  56.668  1.00  0.00     0.163 HD
BRANCH  11  13
ATOM     13  C   UNL     1       4.851  45.318  55.330  1.00  0.00     0.177 C 
BRANCH  13  14
ATOM     14  C   UNL     1       5.544  46.627  54.897  1.00  0.00     0.283 C 
BRANCH  14  15
ATOM     15  N   UNL     1       5.325  46.828  53.404  1.00  0.00    -0.338 N 
ATOM     16  C   UNL     1       6.566  47.223  52.668  1.00  0.00     0.332 C 
ATOM     17  C   UNL     1       4.161  47.709  53.087  1.00  0.00     0.332 C 
ATOM     18  H   UNL     1       5.082  45.870  53.081  1.00  0.00     0.347 HD
ENDBRANCH  14  15
ENDBRANCH  13  14
ENDBRANCH  11  13
ENDBRANCH   1  11
BRANCH   4  19
ATOM     19  N   UNL     1       2.671  42.995  51.911  1.00  0.00    -0.336 N 
ATOM     20  H   UNL     1       2.254  42.096  51.690  1.00  0.00     0.168 HD
BRANCH  19  21
ATOM     21  C   UNL     1       3.909  43.151  51.252  1.00  0.00     0.082 A 
ATOM     22  C   UNL     1       4.554  44.377  51.080  1.00  0.00     0.030 A 
ATOM     23  C   UNL     1       4.521  42.016  50.694  1.00  0.00     0.139 A 
ATOM     24  C   UNL     1       5.796  44.451  50.434  1.00  0.00     0.006 A 
ATOM     25  C   UNL     1       5.761  42.072  50.064  1.00  0.00     0.051 A 
ATOM     26  C   UNL     1       6.417  43.298  49.941  1.00  0.00    -0.047 A 
ATOM     27  C   UNL     1       7.736  43.385  49.231  1.00  0.00     0.044 C 
BRANCH  23  28
ATOM     28  O   UNL     1       3.880  40.805  50.729  1.00  0.00    -0.506 OA
ATOM     29  H   UNL     1       3.554  40.710  51.641  1.00  0.00     0.293 HD
ENDBRANCH  23  28
ENDBRANCH  19  21
ENDBRANCH   4  19
TORSDOF 7
ENDMDL
MODEL 8
REMARK VINA RESULT:    -7.779      2.639      4.062
REMARK INTER + INTRA:         -11.714
REMARK INTER:                 -10.708
REMARK INTRA:                  -1.006
REMARK UNBOUND:                -0.980
REMARK SMILES Cc1ccc(Nc2nc(NCC[NH+](C)C)nc3c2cnn3C)c(O)c1
REMARK SMILES IDX 9 1 8 2 16 3 7 4 17 5 18 6 21 7 19 8 20 9 22 10 10 11 11 13
REMARK SMILES IDX 12 14 13 15 14 16 15 17 6 19 5 21 4 22 23 23 3 24 25 25 2 26
REMARK SMILES IDX 1 27 24 28
REMARK H PARENT 10 12 13 18 6 20 24 29
ROOT
ATOM      1  C   UNL     1       2.136  45.271  54.983  1.00  0.00     0.226 A 
ATOM      2  N   UNL     1       2.996  45.961  54.226  1.00  0.00    -0.195 NA
ATOM      3  N   UNL     1       1.387  44.228  54.598  1.00  0.00    -0.193 NA
ATOM      4  C   UNL     1       3.167  45.649  52.912  1.00  0.00     0.147 A 
ATOM      5  C   UNL     1       1.555  43.942  53.294  1.00  0.00     0.165 A 
ATOM      6  C   UNL     1       2.400  44.591  52.410  1.00  0.00     0.082 A 
ATOM      7  N   UNL     1       0.932  42.965  52.562  1.00  0.00    -0.250 N 
ATOM      8  C   UNL     1       2.208  43.923  51.183  1.00  0.00     0.149 A 
ATOM      9  N   UNL     1       1.315  42.933  51.270  1.00  0.00    -0.179 NA
ATOM     10  C   UNL     1      -0.053  42.018  53.024  1.00  0.00     0.176 C 
ENDROOT
BRANCH   1  11
ATOM     11  N   UNL     1       2.093  45.680  56.319  1.00  0.00    -0.348 N 
ATOM     12  H   UNL     1       2.120  46.701  56.218  1.00  0.00     0.163 HD
BRANCH  11  13
ATOM     13  C   UNL     1       0.887  45.225  57.026  1.00  0.00     0.177 C 
BRANCH  13  14
ATOM     14  C   UNL     1       0.150  46.470  57.564  1.00  0.00     0.283 C 
BRANCH  14  15
ATOM     15  N   UNL     1      -1.049  46.755  56.670  1.00  0.00    -0.338 N 
ATOM     16  C   UNL     1      -2.041  47.690  57.286  1.00  0.00     0.332 C 
ATOM     17  C   UNL     1      -1.685  45.522  56.116  1.00  0.00     0.332 C 
ATOM     18  H   UNL     1      -0.619  47.264  55.871  1.00  0.00     0.347 HD
ENDBRANCH  14  15
ENDBRANCH  13  14
ENDBRANCH  11  13
ENDBRANCH   1  11
BRANCH   4  19
ATOM     19  N   UNL     1       4.029  46.395  52.098  1.00  0.00    -0.336 N 
ATOM     20  H   UNL     1       3.622  46.684  51.213  1.00  0.00     0.168 HD
BRANCH  19  21
ATOM     21  C   UNL     1       5.438  46.415  52.033  1.00  0.00     0.082 A 
ATOM     22  C   UNL     1       6.190  45.671  51.121  1.00  0.00     0.030 A 
ATOM     23  C   UNL     1       6.143  47.195  52.966  1.00  0.00     0.139 A 
ATOM     24  C   UNL     1       7.589  45.760  51.102  1.00  0.00     0.006 A 
ATOM     25  C   UNL     1       7.530  47.305  52.948  1.00  0.00     0.051 A 
ATOM     26  C   UNL     1       8.267  46.593  52.000  1.00  0.00    -0.047 A 
ATOM     27  C   UNL     1       9.765  46.667  51.990  1.00  0.00     0.044 C 
BRANCH  23  28
ATOM     28  O   UNL     1       5.466  47.855  53.958  1.00  0.00    -0.506 OA
ATOM     29  H   UNL     1       5.298  47.188  54.646  1.00  0.00     0.293 HD
ENDBRANCH  23  28
ENDBRANCH  19  21
ENDBRANCH   4  19
TORSDOF 7
ENDMDL
MODEL 9
REMARK VINA RESULT:    -7.728      1.638      6.566
REMARK INTER + INTRA:         -11.645
REMARK INTER:                 -11.060
REMARK INTRA:                  -0.585
REMARK UNBOUND:                -0.980
REMARK SMILES Cc1ccc(Nc2nc(NCC[NH+](C)C)nc3c2cnn3C)c(O)c1
REMARK SMILES IDX 9 1 8 2 16 3 7 4 17 5 18 6 21 7 19 8 20 9 22 10 10 11 11 13
REMARK SMILES IDX 12 14 13 15 14 16 15 17 6 19 5 21 4 22 23 23 3 24 25 25 2 26
REMARK SMILES IDX 1 27 24 28
REMARK H PARENT 10 12 13 18 6 20 24 29
ROOT
ATOM      1  C   UNL     1       5.172  45.629  52.255  1.00  0.00     0.226 A 
ATOM      2  N   UNL     1       4.126  45.170  52.951  1.00  0.00    -0.195 NA
ATOM      3  N   UNL     1       5.829  44.987  51.278  1.00  0.00    -0.193 NA
ATOM      4  C   UNL     1       3.634  43.922  52.720  1.00  0.00     0.147 A 
ATOM      5  C   UNL     1       5.342  43.750  51.073  1.00  0.00     0.165 A 
ATOM      6  C   UNL     1       4.279  43.162  51.737  1.00  0.00     0.082 A 
ATOM      7  N   UNL     1       5.786  42.811  50.179  1.00  0.00    -0.250 N 
ATOM      8  C   UNL     1       4.171  41.878  51.164  1.00  0.00     0.149 A 
ATOM      9  N   UNL     1       5.086  41.659  50.215  1.00  0.00    -0.179 NA
ATOM     10  C   UNL     1       6.885  42.934  49.253  1.00  0.00     0.176 C 
ENDROOT
BRANCH   1  11
ATOM     11  N   UNL     1       5.543  46.938  52.575  1.00  0.00    -0.348 N 
ATOM     12  H   UNL     1       4.770  47.222  53.186  1.00  0.00     0.163 HD
BRANCH  11  13
ATOM     13  C   UNL     1       6.845  47.022  53.253  1.00  0.00     0.177 C 
BRANCH  13  14
ATOM     14  C   UNL     1       7.818  47.781  52.326  1.00  0.00     0.283 C 
BRANCH  14  15
ATOM     15  N   UNL     1       9.241  47.553  52.817  1.00  0.00    -0.338 N 
ATOM     16  C   UNL     1       9.932  46.417  52.130  1.00  0.00     0.332 C 
ATOM     17  C   UNL     1       9.354  47.483  54.304  1.00  0.00     0.332 C 
ATOM     18  H   UNL     1       9.726  48.421  52.512  1.00  0.00     0.347 HD
ENDBRANCH  14  15
ENDBRANCH  13  14
ENDBRANCH  11  13
ENDBRANCH   1  11
BRANCH   4  19
ATOM     19  N   UNL     1       2.570  43.413  53.476  1.00  0.00    -0.336 N 
ATOM     20  H   UNL     1       2.221  42.516  53.153  1.00  0.00     0.168 HD
BRANCH  19  21
ATOM     21  C   UNL     1       1.602  44.078  54.258  1.00  0.00     0.082 A 
ATOM     22  C   UNL     1       0.252  44.172  53.916  1.00  0.00     0.030 A 
ATOM     23  C   UNL     1       2.018  44.725  55.434  1.00  0.00     0.139 A 
ATOM     24  C   UNL     1      -0.657  44.831  54.757  1.00  0.00     0.006 A 
ATOM     25  C   UNL     1       1.124  45.369  56.285  1.00  0.00     0.051 A 
ATOM     26  C   UNL     1      -0.232  45.415  55.956  1.00  0.00    -0.047 A 
ATOM     27  C   UNL     1      -1.204  46.138  56.840  1.00  0.00     0.044 C 
BRANCH  23  28
ATOM     28  O   UNL     1       3.348  44.766  55.761  1.00  0.00    -0.506 OA
ATOM     29  H   UNL     1       3.818  44.426  54.979  1.00  0.00     0.293 HD
ENDBRANCH  23  28
ENDBRANCH  19  21
ENDBRANCH   4  19
TORSDOF 7
ENDMDL
MODEL 10
REMARK VINA RESULT:    -7.705      2.948      6.893
REMARK INTER + INTRA:         -11.612
REMARK INTER:                 -10.443
REMARK INTRA:                  -1.169
REMARK UNBOUND:                -0.980
REMARK SMILES Cc1ccc(Nc2nc(NCC[NH+](C)C)nc3c2cnn3C)c(O)c1
REMARK SMILES IDX 9 1 8 2 16 3 7 4 17 5 18 6 21 7 19 8 20 9 22 10 10 11 11 13
REMARK SMILES IDX 12 14 13 15 14 16 15 17 6 19 5 21 4 22 23 23 3 24 25 25 2 26
REMARK SMILES IDX 1 27 24 28
REMARK H PARENT 10 12 13 18 6 20 24 29
ROOT
ATOM      1  C   UNL     1       4.054  42.739  51.939  1.00  0.00     0.226 A 
ATOM      2  N   UNL     1       4.341  41.928  50.916  1.00  0.00    -0.195 NA
ATOM      3  N   UNL     1       4.645  43.907  52.226  1.00  0.00    -0.193 NA
ATOM      4  C   UNL     1       5.340  42.237  50.045  1.00  0.00     0.147 A 
ATOM      5  C   UNL     1       5.641  44.192  51.367  1.00  0.00     0.165 A 
ATOM      6  C   UNL     1       6.040  43.426  50.285  1.00  0.00     0.082 A 
ATOM      7  N   UNL     1       6.472  45.281  51.377  1.00  0.00    -0.250 N 
ATOM      8  C   UNL     1       7.109  44.147  49.717  1.00  0.00     0.149 A 
ATOM      9  N   UNL     1       7.378  45.277  50.378  1.00  0.00    -0.179 NA
ATOM     10  C   UNL     1       6.472  46.375  52.316  1.00  0.00     0.176 C 
ENDROOT
BRANCH   1  11
ATOM     11  N   UNL     1       2.981  42.311  52.726  1.00  0.00    -0.348 N 
ATOM     12  H   UNL     1       3.311  42.554  53.666  1.00  0.00     0.163 HD
BRANCH  11  13
ATOM     13  C   UNL     1       1.715  42.981  52.393  1.00  0.00     0.177 C 
BRANCH  13  14
ATOM     14  C   UNL     1       1.218  43.716  53.656  1.00  0.00     0.283 C 
BRANCH  14  15
ATOM     15  N   UNL     1       2.121  44.914  53.914  1.00  0.00    -0.338 N 
ATOM     16  C   UNL     1       2.166  45.326  55.351  1.00  0.00     0.332 C 
ATOM     17  C   UNL     1       1.866  46.061  52.992  1.00  0.00     0.332 C 
ATOM     18  H   UNL     1       3.064  44.539  53.684  1.00  0.00     0.347 HD
ENDBRANCH  14  15
ENDBRANCH  13  14
ENDBRANCH  11  13
ENDBRANCH   1  11
BRANCH   4  19
ATOM     19  N   UNL     1       5.682  41.371  48.998  1.00  0.00    -0.336 N 
ATOM     20  H   UNL     1       6.672  41.150  48.946  1.00  0.00     0.168 HD
BRANCH  19  21
ATOM     21  C   UNL     1       5.048  41.138  47.759  1.00  0.00     0.082 A 
ATOM     22  C   UNL     1       5.504  41.642  46.540  1.00  0.00     0.030 A 
ATOM     23  C   UNL     1       3.859  40.388  47.744  1.00  0.00     0.139 A 
ATOM     24  C   UNL     1       4.833  41.348  45.345  1.00  0.00     0.006 A 
ATOM     25  C   UNL     1       3.192  40.076  46.563  1.00  0.00     0.051 A 
ATOM     26  C   UNL     1       3.685  40.547  45.345  1.00  0.00    -0.047 A 
ATOM     27  C   UNL     1       2.958  40.254  44.067  1.00  0.00     0.044 C 
BRANCH  23  28
ATOM     28  O   UNL     1       3.300  39.965  48.921  1.00  0.00    -0.506 OA
ATOM     29  H   UNL     1       2.342  39.928  48.756  1.00  0.00     0.293 HD
ENDBRANCH  23  28
ENDBRANCH  19  21
ENDBRANCH   4  19
TORSDOF 7
ENDMDL
MODEL 11
REMARK VINA RESULT:    -7.680      1.833      6.874
REMARK INTER + INTRA:         -11.578
REMARK INTER:                 -10.674
REMARK INTRA:                  -0.903
REMARK UNBOUND:                -0.980
REMARK SMILES Cc1ccc(Nc2nc(NCC[NH+](C)C)nc3c2cnn3C)c(O)c1
REMARK SMILES IDX 9 1 8 2 16 3 7 4 17 5 18 6 21 7 19 8 20 9 22 10 10 11 11 13
REMARK SMILES IDX 12 14 13 15 14 16 15 17 6 19 5 21 4 22 23 23 3 24 25 25 2 26
REMARK SMILES IDX 1 27 24 28
REMARK H PARENT 10 12 13 18 6 20 24 29
ROOT
ATOM      1  C   UNL     1       5.666  45.638  52.114  1.00  0.00     0.226 A 
ATOM      2  N   UNL     1       4.662  44.915  52.619  1.00  0.00    -0.195 NA
ATOM      3  N   UNL     1       6.490  45.282  51.118  1.00  0.00    -0.193 NA
ATOM      4  C   UNL     1       4.401  43.666  52.145  1.00  0.00     0.147 A 
ATOM      5  C   UNL     1       6.230  44.040  50.670  1.00  0.00     0.165 A 
ATOM      6  C   UNL     1       5.233  43.193  51.122  1.00  0.00     0.082 A 
ATOM      7  N   UNL     1       6.888  43.348  49.688  1.00  0.00    -0.250 N 
ATOM      8  C   UNL     1       5.380  42.027  50.344  1.00  0.00     0.149 A 
ATOM      9  N   UNL     1       6.386  42.115  49.470  1.00  0.00    -0.179 NA
ATOM     10  C   UNL     1       8.016  43.793  48.908  1.00  0.00     0.176 C 
ENDROOT
BRANCH   1  11
ATOM     11  N   UNL     1       5.791  46.913  52.674  1.00  0.00    -0.348 N 
ATOM     12  H   UNL     1       5.538  46.729  53.651  1.00  0.00     0.163 HD
BRANCH  11  13
ATOM     13  C   UNL     1       7.146  47.471  52.548  1.00  0.00     0.177 C 
BRANCH  13  14
ATOM     14  C   UNL     1       7.911  47.165  53.853  1.00  0.00     0.283 C 
BRANCH  14  15
ATOM     15  N   UNL     1       9.401  47.362  53.606  1.00  0.00    -0.338 N 
ATOM     16  C   UNL     1       9.923  46.563  52.453  1.00  0.00     0.332 C 
ATOM     17  C   UNL     1      10.233  47.211  54.836  1.00  0.00     0.332 C 
ATOM     18  H   UNL     1       9.452  48.361  53.320  1.00  0.00     0.347 HD
ENDBRANCH  14  15
ENDBRANCH  13  14
ENDBRANCH  11  13
ENDBRANCH   1  11
BRANCH   4  19
ATOM     19  N   UNL     1       3.383  42.879  52.699  1.00  0.00    -0.336 N 
ATOM     20  H   UNL     1       3.583  41.884  52.708  1.00  0.00     0.168 HD
BRANCH  19  21
ATOM     21  C   UNL     1       1.995  43.115  52.797  1.00  0.00     0.082 A 
ATOM     22  C   UNL     1       1.068  42.740  51.823  1.00  0.00     0.030 A 
ATOM     23  C   UNL     1       1.508  43.805  53.920  1.00  0.00     0.139 A 
ATOM     24  C   UNL     1      -0.301  42.988  52.001  1.00  0.00     0.006 A 
ATOM     25  C   UNL     1       0.151  44.043  54.117  1.00  0.00     0.051 A 
ATOM     26  C   UNL     1      -0.771  43.621  53.158  1.00  0.00    -0.047 A 
ATOM     27  C   UNL     1      -2.233  43.903  53.334  1.00  0.00     0.044 C 
BRANCH  23  28
ATOM     28  O   UNL     1       2.382  44.299  54.853  1.00  0.00    -0.506 OA
ATOM     29  H   UNL     1       1.894  44.997  55.324  1.00  0.00     0.293 HD
ENDBRANCH  23  28
ENDBRANCH  19  21
ENDBRANCH   4  19
TORSDOF 7
ENDMDL
MODEL 12
REMARK VINA RESULT:    -7.524      2.407      7.760
REMARK INTER + INTRA:         -11.363
REMARK INTER:                 -10.523
REMARK INTRA:                  -0.840
REMARK UNBOUND:                -0.980
REMARK SMILES Cc1ccc(Nc2nc(NCC[NH+](C)C)nc3c2cnn3C)c(O)c1
REMARK SMILES IDX 9 1 8 2 16 3 7 4 17 5 18 6 21 7 19 8 20 9 22 10 10 11 11 13
REMARK SMILES IDX 12 14 13 15 14 16 15 17 6 19 5 21 4 22 23 23 3 24 25 25 2 26
REMARK SMILES IDX 1 27 24 28
REMARK H PARENT 10 12 13 18 6 20 24 29
ROOT
ATOM      1  C   UNL     1       5.861  44.952  51.345  1.00  0.00     0.226 A 
ATOM      2  N   UNL     1       5.996  43.791  50.696  1.00  0.00    -0.195 NA
ATOM      3  N   UNL     1       4.874  45.289  52.187  1.00  0.00    -0.193 NA
ATOM      4  C   UNL     1       5.064  42.809  50.831  1.00  0.00     0.147 A 
ATOM      5  C   UNL     1       3.953  44.316  52.298  1.00  0.00     0.165 A 
ATOM      6  C   UNL     1       3.975  43.084  51.667  1.00  0.00     0.082 A 
ATOM      7  N   UNL     1       2.803  44.330  53.043  1.00  0.00    -0.250 N 
ATOM      8  C   UNL     1       2.800  42.441  52.105  1.00  0.00     0.149 A 
ATOM      9  N   UNL     1       2.082  43.195  52.942  1.00  0.00    -0.179 NA
ATOM     10  C   UNL     1       2.314  45.397  53.880  1.00  0.00     0.176 C 
ENDROOT
BRANCH   1  11
ATOM     11  N   UNL     1       6.913  45.850  51.138  1.00  0.00    -0.348 N 
ATOM     12  H   UNL     1       6.475  46.531  50.509  1.00  0.00     0.163 HD
BRANCH  11  13
ATOM     13  C   UNL     1       7.396  46.472  52.379  1.00  0.00     0.177 C 
BRANCH  13  14
ATOM     14  C   UNL     1       8.418  47.565  51.999  1.00  0.00     0.283 C 
BRANCH  14  15
ATOM     15  N   UNL     1       9.785  47.168  52.541  1.00  0.00    -0.338 N 
ATOM     16  C   UNL     1      10.402  46.017  51.810  1.00  0.00     0.332 C 
ATOM     17  C   UNL     1       9.808  46.990  54.024  1.00  0.00     0.332 C 
ATOM     18  H   UNL     1      10.365  48.003  52.322  1.00  0.00     0.347 HD
ENDBRANCH  14  15
ENDBRANCH  13  14
ENDBRANCH  11  13
ENDBRANCH   1  11
BRANCH   4  19
ATOM     19  N   UNL     1       5.170  41.607  50.118  1.00  0.00    -0.336 N 
ATOM     20  H   UNL     1       5.872  40.969  50.478  1.00  0.00     0.168 HD
BRANCH  19  21
ATOM     21  C   UNL     1       4.864  41.312  48.773  1.00  0.00     0.082 A 
ATOM     22  C   UNL     1       3.791  40.513  48.372  1.00  0.00     0.030 A 
ATOM     23  C   UNL     1       5.707  41.812  47.766  1.00  0.00     0.139 A 
ATOM     24  C   UNL     1       3.535  40.283  47.013  1.00  0.00     0.006 A 
ATOM     25  C   UNL     1       5.457  41.604  46.413  1.00  0.00     0.051 A 
ATOM     26  C   UNL     1       4.352  40.843  46.024  1.00  0.00    -0.047 A 
ATOM     27  C   UNL     1       4.088  40.575  44.572  1.00  0.00     0.044 C 
BRANCH  23  28
ATOM     28  O   UNL     1       6.841  42.504  48.103  1.00  0.00    -0.506 OA
ATOM     29  H   UNL     1       6.550  43.192  48.728  1.00  0.00     0.293 HD
ENDBRANCH  23  28
ENDBRANCH  19  21
ENDBRANCH   4  19
TORSDOF 7
ENDMDL
MODEL 13
REMARK VINA RESULT:    -7.524      2.311      6.941
REMARK INTER + INTRA:         -11.363
REMARK INTER:                 -10.382
REMARK INTRA:                  -0.981
REMARK UNBOUND:                -0.980
REMARK SMILES Cc1ccc(Nc2nc(NCC[NH+](C)C)nc3c2cnn3C)c(O)c1
REMARK SMILES IDX 9 1 8 2 16 3 7 4 17 5 18 6 21 7 19 8 20 9 22 10 10 11 11 13
REMARK SMILES IDX 12 14 13 15 14 16 15 17 6 19 5 21 4 22 23 23 3 24 25 25 2 26
REMARK SMILES IDX 1 27 24 28
REMARK H PARENT 10 12 13 18 6 20 24 29
ROOT
ATOM      1  C   UNL     1       5.987  44.422  50.907  1.00  0.00     0.226 A 
ATOM      2  N   UNL     1       5.155  43.965  51.849  1.00  0.00    -0.195 NA
ATOM      3  N   UNL     1       6.822  45.466  51.013  1.00  0.00    -0.193 NA
ATOM      4  C   UNL     1       5.070  44.584  53.059  1.00  0.00     0.147 A 
ATOM      5  C   UNL     1       6.715  46.077  52.207  1.00  0.00     0.165 A 
ATOM      6  C   UNL     1       5.883  45.708  53.250  1.00  0.00     0.082 A 
ATOM      7  N   UNL     1       7.390  47.186  52.645  1.00  0.00    -0.250 N 
ATOM      8  C   UNL     1       6.142  46.656  54.260  1.00  0.00     0.149 A 
ATOM      9  N   UNL     1       7.058  47.559  53.897  1.00  0.00    -0.179 NA
ATOM     10  C   UNL     1       8.371  47.957  51.923  1.00  0.00     0.176 C 
ENDROOT
BRANCH   1  11
ATOM     11  N   UNL     1       5.993  43.665  49.732  1.00  0.00    -0.348 N 
ATOM     12  H   UNL     1       6.911  43.905  49.343  1.00  0.00     0.163 HD
BRANCH  11  13
ATOM     13  C   UNL     1       5.854  42.221  49.973  1.00  0.00     0.177 C 
BRANCH  13  14
ATOM     14  C   UNL     1       5.735  41.518  48.604  1.00  0.00     0.283 C 
BRANCH  14  15
ATOM     15  N   UNL     1       4.523  40.597  48.629  1.00  0.00    -0.338 N 
ATOM     16  C   UNL     1       3.826  40.496  47.309  1.00  0.00     0.332 C 
ATOM     17  C   UNL     1       3.585  40.879  49.757  1.00  0.00     0.332 C 
ATOM     18  H   UNL     1       4.950  39.666  48.810  1.00  0.00     0.347 HD
ENDBRANCH  14  15
ENDBRANCH  13  14
ENDBRANCH  11  13
ENDBRANCH   1  11
BRANCH   4  19
ATOM     19  N   UNL     1       4.168  44.144  54.035  1.00  0.00    -0.336 N 
ATOM     20  H   UNL     1       4.496  43.352  54.580  1.00  0.00     0.168 HD
BRANCH  19  21
ATOM     21  C   UNL     1       2.762  44.249  54.095  1.00  0.00     0.082 A 
ATOM     22  C   UNL     1       2.081  45.223  54.827  1.00  0.00     0.030 A 
ATOM     23  C   UNL     1       1.987  43.293  53.415  1.00  0.00     0.139 A 
ATOM     24  C   UNL     1       0.680  45.278  54.820  1.00  0.00     0.006 A 
ATOM     25  C   UNL     1       0.597  43.346  53.387  1.00  0.00     0.051 A 
ATOM     26  C   UNL     1      -0.071  44.355  54.084  1.00  0.00    -0.047 A 
ATOM     27  C   UNL     1      -1.570  44.404  54.098  1.00  0.00     0.044 C 
BRANCH  23  28
ATOM     28  O   UNL     1       2.597  42.246  52.776  1.00  0.00    -0.506 OA
ATOM     29  H   UNL     1       3.514  42.532  52.623  1.00  0.00     0.293 HD
ENDBRANCH  23  28
ENDBRANCH  19  21
ENDBRANCH   4  19
TORSDOF 7
ENDMDL
MODEL 14
REMARK VINA RESULT:    -7.505      2.595      6.313
REMARK INTER + INTRA:         -11.336
REMARK INTER:                  -9.952
REMARK INTRA:                  -1.384
REMARK UNBOUND:                -0.980
REMARK SMILES Cc1ccc(Nc2nc(NCC[NH+](C)C)nc3c2cnn3C)c(O)c1
REMARK SMILES IDX 9 1 8 2 16 3 7 4 17 5 18 6 21 7 19 8 20 9 22 10 10 11 11 13
REMARK SMILES IDX 12 14 13 15 14 16 15 17 6 19 5 21 4 22 23 23 3 24 25 25 2 26
REMARK SMILES IDX 1 27 24 28
REMARK H PARENT 10 12 13 18 6 20 24 29
ROOT
ATOM      1  C   UNL     1       0.802  44.051  54.146  1.00  0.00     0.226 A 
ATOM      2  N   UNL     1       2.000  44.606  54.358  1.00  0.00    -0.195 NA
ATOM      3  N   UNL     1      -0.294  44.196  54.903  1.00  0.00    -0.193 NA
ATOM      4  C   UNL     1       2.216  45.393  55.447  1.00  0.00     0.147 A 
ATOM      5  C   UNL     1      -0.061  44.963  55.983  1.00  0.00     0.165 A 
ATOM      6  C   UNL     1       1.134  45.577  56.317  1.00  0.00     0.082 A 
ATOM      7  N   UNL     1      -0.940  45.296  56.981  1.00  0.00    -0.250 N 
ATOM      8  C   UNL     1       0.861  46.251  57.524  1.00  0.00     0.149 A 
ATOM      9  N   UNL     1      -0.400  46.084  57.933  1.00  0.00    -0.179 NA
ATOM     10  C   UNL     1      -2.320  44.897  57.102  1.00  0.00     0.176 C 
ENDROOT
BRANCH   1  11
ATOM     11  N   UNL     1       0.720  43.299  52.970  1.00  0.00    -0.348 N 
ATOM     12  H   UNL     1       0.446  44.017  52.291  1.00  0.00     0.163 HD
BRANCH  11  13
ATOM     13  C   UNL     1       1.988  42.649  52.608  1.00  0.00     0.177 C 
BRANCH  13  14
ATOM     14  C   UNL     1       2.463  43.244  51.265  1.00  0.00     0.283 C 
BRANCH  14  15
ATOM     15  N   UNL     1       3.412  44.400  51.550  1.00  0.00    -0.338 N 
ATOM     16  C   UNL     1       2.907  45.719  51.056  1.00  0.00     0.332 C 
ATOM     17  C   UNL     1       4.821  44.129  51.134  1.00  0.00     0.332 C 
ATOM     18  H   UNL     1       3.402  44.450  52.589  1.00  0.00     0.347 HD
ENDBRANCH  14  15
ENDBRANCH  13  14
ENDBRANCH  11  13
ENDBRANCH   1  11
BRANCH   4  19
ATOM     19  N   UNL     1       3.479  45.940  55.706  1.00  0.00    -0.336 N 
ATOM     20  H   UNL     1       3.514  46.542  56.523  1.00  0.00     0.168 HD
BRANCH  19  21
ATOM     21  C   UNL     1       4.554  46.213  54.834  1.00  0.00     0.082 A 
ATOM     22  C   UNL     1       4.628  47.339  54.012  1.00  0.00     0.030 A 
ATOM     23  C   UNL     1       5.603  45.281  54.747  1.00  0.00     0.139 A 
ATOM     24  C   UNL     1       5.741  47.554  53.187  1.00  0.00     0.006 A 
ATOM     25  C   UNL     1       6.720  45.490  53.945  1.00  0.00     0.051 A 
ATOM     26  C   UNL     1       6.804  46.644  53.163  1.00  0.00    -0.047 A 
ATOM     27  C   UNL     1       7.982  46.868  52.262  1.00  0.00     0.044 C 
BRANCH  23  28
ATOM     28  O   UNL     1       5.531  44.102  55.442  1.00  0.00    -0.506 OA
ATOM     29  H   UNL     1       4.955  44.284  56.205  1.00  0.00     0.293 HD
ENDBRANCH  23  28
ENDBRANCH  19  21
ENDBRANCH   4  19
TORSDOF 7
ENDMDL
MODEL 15
REMARK VINA RESULT:    -7.495      2.879      7.911
REMARK INTER + INTRA:         -11.323
REMARK INTER:                 -10.581
REMARK INTRA:                  -0.741
REMARK UNBOUND:                -0.980
REMARK SMILES Cc1ccc(Nc2nc(NCC[NH+](C)C)nc3c2cnn3C)c(O)c1
REMARK SMILES IDX 9 1 8 2 16 3 7 4 17 5 18 6 21 7 19 8 20 9 22 10 10 11 11 13
REMARK SMILES IDX 12 14 13 15 14 16 15 17 6 19 5 21 4 22 23 23 3 24 25 25 2 26
REMARK SMILES IDX 1 27 24 28
REMARK H PARENT 10 12 13 18 6 20 24 29
ROOT
ATOM      1  C   UNL     1       6.843  44.492  50.493  1.00  0.00     0.226 A 
ATOM      2  N   UNL     1       6.828  43.416  49.701  1.00  0.00    -0.195 NA
ATOM      3  N   UNL     1       5.978  44.775  51.478  1.00  0.00    -0.193 NA
ATOM      4  C   UNL     1       5.853  42.475  49.828  1.00  0.00     0.147 A 
ATOM      5  C   UNL     1       5.011  43.845  51.581  1.00  0.00     0.165 A 
ATOM      6  C   UNL     1       4.883  42.701  50.812  1.00  0.00     0.082 A 
ATOM      7  N   UNL     1       3.953  43.828  52.452  1.00  0.00    -0.250 N 
ATOM      8  C   UNL     1       3.722  42.072  51.305  1.00  0.00     0.149 A 
ATOM      9  N   UNL     1       3.151  42.754  52.303  1.00  0.00    -0.179 NA
ATOM     10  C   UNL     1       3.631  44.808  53.459  1.00  0.00     0.176 C 
ENDROOT
BRANCH   1  11
ATOM     11  N   UNL     1       7.923  45.352  50.272  1.00  0.00    -0.348 N 
ATOM     12  H   UNL     1       7.751  45.647  49.305  1.00  0.00     0.163 HD
BRANCH  11  13
ATOM     13  C   UNL     1       7.957  46.491  51.201  1.00  0.00     0.177 C 
BRANCH  13  14
ATOM     14  C   UNL     1       9.294  46.440  51.970  1.00  0.00     0.283 C 
BRANCH  14  15
ATOM     15  N   UNL     1       9.000  46.435  53.464  1.00  0.00    -0.338 N 
ATOM     16  C   UNL     1       7.594  46.824  53.795  1.00  0.00     0.332 C 
ATOM     17  C   UNL     1      10.011  47.181  54.272  1.00  0.00     0.332 C 
ATOM     18  H   UNL     1       9.094  45.428  53.708  1.00  0.00     0.347 HD
ENDBRANCH  14  15
ENDBRANCH  13  14
ENDBRANCH  11  13
ENDBRANCH   1  11
BRANCH   4  19
ATOM     19  N   UNL     1       5.800  41.367  48.972  1.00  0.00    -0.336 N 
ATOM     20  H   UNL     1       6.606  40.753  49.034  1.00  0.00     0.168 HD
BRANCH  19  21
ATOM     21  C   UNL     1       5.125  41.190  47.745  1.00  0.00     0.082 A 
ATOM     22  C   UNL     1       5.552  41.735  46.533  1.00  0.00     0.030 A 
ATOM     23  C   UNL     1       3.926  40.457  47.738  1.00  0.00     0.139 A 
ATOM     24  C   UNL     1       4.840  41.496  45.348  1.00  0.00     0.006 A 
ATOM     25  C   UNL     1       3.218  40.199  46.567  1.00  0.00     0.051 A 
ATOM     26  C   UNL     1       3.682  40.710  45.353  1.00  0.00    -0.047 A 
ATOM     27  C   UNL     1       2.912  40.476  44.087  1.00  0.00     0.044 C 
BRANCH  23  28
ATOM     28  O   UNL     1       3.397  39.997  48.915  1.00  0.00    -0.506 OA
ATOM     29  H   UNL     1       2.454  39.837  48.732  1.00  0.00     0.293 HD
ENDBRANCH  23  28
ENDBRANCH  19  21
ENDBRANCH   4  19
TORSDOF 7
ENDMDL
MODEL 16
REMARK VINA RESULT:    -7.485      2.979      6.434
REMARK INTER + INTRA:         -11.308
REMARK INTER:                 -10.297
REMARK INTRA:                  -1.011
REMARK UNBOUND:                -0.980
REMARK SMILES Cc1ccc(Nc2nc(NCC[NH+](C)C)nc3c2cnn3C)c(O)c1
REMARK SMILES IDX 9 1 8 2 16 3 7 4 17 5 18 6 21 7 19 8 20 9 22 10 10 11 11 13
REMARK SMILES IDX 12 14 13 15 14 16 15 17 6 19 5 21 4 22 23 23 3 24 25 25 2 26
REMARK SMILES IDX 1 27 24 28
REMARK H PARENT 10 12 13 18 6 20 24 29
ROOT
ATOM      1  C   UNL     1       4.918  45.284  51.717  1.00  0.00     0.226 A 
ATOM      2  N   UNL     1       3.867  44.539  52.075  1.00  0.00    -0.195 NA
ATOM      3  N   UNL     1       5.935  44.909  50.928  1.00  0.00    -0.193 NA
ATOM      4  C   UNL     1       3.758  43.248  51.658  1.00  0.00     0.147 A 
ATOM      5  C   UNL     1       5.822  43.626  50.537  1.00  0.00     0.165 A 
ATOM      6  C   UNL     1       4.793  42.756  50.854  1.00  0.00     0.082 A 
ATOM      7  N   UNL     1       6.689  42.908  49.756  1.00  0.00    -0.250 N 
ATOM      8  C   UNL     1       5.141  41.550  50.212  1.00  0.00     0.149 A 
ATOM      9  N   UNL     1       6.294  41.636  49.543  1.00  0.00    -0.179 NA
ATOM     10  C   UNL     1       7.927  43.363  49.175  1.00  0.00     0.176 C 
ENDROOT
BRANCH   1  11
ATOM     11  N   UNL     1       4.876  46.599  52.190  1.00  0.00    -0.348 N 
ATOM     12  H   UNL     1       3.866  46.742  52.297  1.00  0.00     0.163 HD
BRANCH  11  13
ATOM     13  C   UNL     1       5.599  46.783  53.457  1.00  0.00     0.177 C 
BRANCH  13  14
ATOM     14  C   UNL     1       4.580  47.223  54.528  1.00  0.00     0.283 C 
BRANCH  14  15
ATOM     15  N   UNL     1       4.307  46.049  55.459  1.00  0.00    -0.338 N 
ATOM     16  C   UNL     1       5.363  44.989  55.403  1.00  0.00     0.332 C 
ATOM     17  C   UNL     1       2.926  45.495  55.330  1.00  0.00     0.332 C 
ATOM     18  H   UNL     1       4.377  46.486  56.400  1.00  0.00     0.347 HD
ENDBRANCH  14  15
ENDBRANCH  13  14
ENDBRANCH  11  13
ENDBRANCH   1  11
BRANCH   4  19
ATOM     19  N   UNL     1       2.686  42.443  52.066  1.00  0.00    -0.336 N 
ATOM     20  H   UNL     1       2.736  41.484  51.737  1.00  0.00     0.168 HD
BRANCH  19  21
ATOM     21  C   UNL     1       1.363  42.789  52.414  1.00  0.00     0.082 A 
ATOM     22  C   UNL     1       0.862  42.755  53.717  1.00  0.00     0.030 A 
ATOM     23  C   UNL     1       0.473  43.152  51.389  1.00  0.00     0.139 A 
ATOM     24  C   UNL     1      -0.459  43.135  53.988  1.00  0.00     0.006 A 
ATOM     25  C   UNL     1      -0.837  43.547  51.646  1.00  0.00     0.051 A 
ATOM     26  C   UNL     1      -1.311  43.554  52.959  1.00  0.00    -0.047 A 
ATOM     27  C   UNL     1      -2.731  43.939  53.252  1.00  0.00     0.044 C 
BRANCH  23  28
ATOM     28  O   UNL     1       0.873  43.093  50.080  1.00  0.00    -0.506 OA
ATOM     29  H   UNL     1       0.222  42.523  49.634  1.00  0.00     0.293 HD
ENDBRANCH  23  28
ENDBRANCH  19  21
ENDBRANCH   4  19
TORSDOF 7
ENDMDL
MODEL 17
REMARK VINA RESULT:    -7.434      1.862      6.008
REMARK INTER + INTRA:         -11.239
REMARK INTER:                 -10.265
REMARK INTRA:                  -0.974
REMARK UNBOUND:                -0.980
REMARK SMILES Cc1ccc(Nc2nc(NCC[NH+](C)C)nc3c2cnn3C)c(O)c1
REMARK SMILES IDX 9 1 8 2 16 3 7 4 17 5 18 6 21 7 19 8 20 9 22 10 10 11 11 13
REMARK SMILES IDX 12 14 13 15 14 16 15 17 6 19 5 21 4 22 23 23 3 24 25 25 2 26
REMARK SMILES IDX 1 27 24 28
REMARK H PARENT 10 12 13 18 6 20 24 29
ROOT
ATOM      1  C   UNL     1       6.943  45.619  50.933  1.00  0.00     0.226 A 
ATOM      2  N   UNL     1       5.925  46.283  51.491  1.00  0.00    -0.195 NA
ATOM      3  N   UNL     1       6.932  44.351  50.500  1.00  0.00    -0.193 NA
ATOM      4  C   UNL     1       4.727  45.669  51.698  1.00  0.00     0.147 A 
ATOM      5  C   UNL     1       5.748  43.753  50.725  1.00  0.00     0.165 A 
ATOM      6  C   UNL     1       4.631  44.328  51.306  1.00  0.00     0.082 A 
ATOM      7  N   UNL     1       5.394  42.460  50.440  1.00  0.00    -0.250 N 
ATOM      8  C   UNL     1       3.668  43.298  51.317  1.00  0.00     0.149 A 
ATOM      9  N   UNL     1       4.127  42.159  50.792  1.00  0.00    -0.179 NA
ATOM     10  C   UNL     1       6.213  41.440  49.833  1.00  0.00     0.176 C 
ENDROOT
BRANCH   1  11
ATOM     11  N   UNL     1       8.096  46.389  50.751  1.00  0.00    -0.348 N 
ATOM     12  H   UNL     1       7.964  46.724  49.790  1.00  0.00     0.163 HD
BRANCH  11  13
ATOM     13  C   UNL     1       8.213  47.495  51.713  1.00  0.00     0.177 C 
BRANCH  13  14
ATOM     14  C   UNL     1       9.456  47.236  52.589  1.00  0.00     0.283 C 
BRANCH  14  15
ATOM     15  N   UNL     1       9.125  47.602  54.030  1.00  0.00    -0.338 N 
ATOM     16  C   UNL     1      10.233  47.299  54.989  1.00  0.00     0.332 C 
ATOM     17  C   UNL     1       7.804  47.079  54.489  1.00  0.00     0.332 C 
ATOM     18  H   UNL     1       9.048  48.639  53.987  1.00  0.00     0.347 HD
ENDBRANCH  14  15
ENDBRANCH  13  14
ENDBRANCH  11  13
ENDBRANCH   1  11
BRANCH   4  19
ATOM     19  N   UNL     1       3.669  46.338  52.326  1.00  0.00    -0.336 N 
ATOM     20  H   UNL     1       3.640  47.337  52.143  1.00  0.00     0.168 HD
BRANCH  19  21
ATOM     21  C   UNL     1       2.953  46.020  53.500  1.00  0.00     0.082 A 
ATOM     22  C   UNL     1       3.515  45.998  54.777  1.00  0.00     0.030 A 
ATOM     23  C   UNL     1       1.599  45.661  53.383  1.00  0.00     0.139 A 
ATOM     24  C   UNL     1       2.733  45.695  55.901  1.00  0.00     0.006 A 
ATOM     25  C   UNL     1       0.808  45.373  54.492  1.00  0.00     0.051 A 
ATOM     26  C   UNL     1       1.371  45.402  55.769  1.00  0.00    -0.047 A 
ATOM     27  C   UNL     1       0.544  45.056  56.971  1.00  0.00     0.044 C 
BRANCH  23  28
ATOM     28  O   UNL     1       1.023  45.552  52.145  1.00  0.00    -0.506 OA
ATOM     29  H   UNL     1       0.927  44.597  51.986  1.00  0.00     0.293 HD
ENDBRANCH  23  28
ENDBRANCH  19  21
ENDBRANCH   4  19
TORSDOF 7
ENDMDL
MODEL 18
REMARK VINA RESULT:    -7.409      1.691      2.171
REMARK INTER + INTRA:         -11.204
REMARK INTER:                 -10.470
REMARK INTRA:                  -0.734
REMARK UNBOUND:                -0.980
REMARK SMILES Cc1ccc(Nc2nc(NCC[NH+](C)C)nc3c2cnn3C)c(O)c1
REMARK SMILES IDX 9 1 8 2 16 3 7 4 17 5 18 6 21 7 19 8 20 9 22 10 10 11 11 13
REMARK SMILES IDX 12 14 13 15 14 16 15 17 6 19 5 21 4 22 23 23 3 24 25 25 2 26
REMARK SMILES IDX 1 27 24 28
REMARK H PARENT 10 12 13 18 6 20 24 29
ROOT
ATOM      1  C   UNL     1       3.976  42.987  52.047  1.00  0.00     0.226 A 
ATOM      2  N   UNL     1       4.871  43.979  52.020  1.00  0.00    -0.195 NA
ATOM      3  N   UNL     1       3.851  41.995  51.155  1.00  0.00    -0.193 NA
ATOM      4  C   UNL     1       5.767  44.076  51.001  1.00  0.00     0.147 A 
ATOM      5  C   UNL     1       4.732  42.113  50.145  1.00  0.00     0.165 A 
ATOM      6  C   UNL     1       5.692  43.100  50.000  1.00  0.00     0.082 A 
ATOM      7  N   UNL     1       4.868  41.299  49.051  1.00  0.00    -0.250 N 
ATOM      8  C   UNL     1       6.346  42.782  48.792  1.00  0.00     0.149 A 
ATOM      9  N   UNL     1       5.849  41.687  48.210  1.00  0.00    -0.179 NA
ATOM     10  C   UNL     1       4.093  40.127  48.728  1.00  0.00     0.176 C 
ENDROOT
BRANCH   1  11
ATOM     11  N   UNL     1       3.146  42.995  53.173  1.00  0.00    -0.348 N 
ATOM     12  H   UNL     1       3.457  43.850  53.646  1.00  0.00     0.163 HD
BRANCH  11  13
ATOM     13  C   UNL     1       1.715  43.037  52.837  1.00  0.00     0.177 C 
BRANCH  13  14
ATOM     14  C   UNL     1       1.359  44.487  52.447  1.00  0.00     0.283 C 
BRANCH  14  15
ATOM     15  N   UNL     1       2.113  45.441  53.365  1.00  0.00    -0.338 N 
ATOM     16  C   UNL     1       1.461  45.621  54.699  1.00  0.00     0.332 C 
ATOM     17  C   UNL     1       2.464  46.739  52.714  1.00  0.00     0.332 C 
ATOM     18  H   UNL     1       3.003  44.932  53.537  1.00  0.00     0.347 HD
ENDBRANCH  14  15
ENDBRANCH  13  14
ENDBRANCH  11  13
ENDBRANCH   1  11
BRANCH   4  19
ATOM     19  N   UNL     1       6.678  45.139  50.936  1.00  0.00    -0.336 N 
ATOM     20  H   UNL     1       7.148  45.232  50.041  1.00  0.00     0.168 HD
BRANCH  19  21
ATOM     21  C   UNL     1       7.410  45.779  51.958  1.00  0.00     0.082 A 
ATOM     22  C   UNL     1       6.831  46.372  53.081  1.00  0.00     0.030 A 
ATOM     23  C   UNL     1       8.807  45.869  51.828  1.00  0.00     0.139 A 
ATOM     24  C   UNL     1       7.627  46.971  54.068  1.00  0.00     0.006 A 
ATOM     25  C   UNL     1       9.610  46.446  52.808  1.00  0.00     0.051 A 
ATOM     26  C   UNL     1       9.022  46.993  53.949  1.00  0.00    -0.047 A 
ATOM     27  C   UNL     1       9.868  47.654  54.997  1.00  0.00     0.044 C 
BRANCH  23  28
ATOM     28  O   UNL     1       9.421  45.408  50.693  1.00  0.00    -0.506 OA
ATOM     29  H   UNL     1       9.469  44.442  50.797  1.00  0.00     0.293 HD
ENDBRANCH  23  28
ENDBRANCH  19  21
ENDBRANCH   4  19
TORSDOF 7
ENDMDL
MODEL 19
REMARK VINA RESULT:    -7.409      1.820      2.307
REMARK INTER + INTRA:         -11.204
REMARK INTER:                 -10.576
REMARK INTRA:                  -0.628
REMARK UNBOUND:                -0.980
REMARK SMILES Cc1ccc(Nc2nc(NCC[NH+](C)C)nc3c2cnn3C)c(O)c1
REMARK SMILES IDX 9 1 8 2 16 3 7 4 17 5 18 6 21 7 19 8 20 9 22 10 10 11 11 13
REMARK SMILES IDX 12 14 13 15 14 16 15 17 6 19 5 21 4 22 23 23 3 24 25 25 2 26
REMARK SMILES IDX 1 27 24 28
REMARK H PARENT 10 12 13 18 6 20 24 29
ROOT
ATOM      1  C   UNL     1       3.439  44.708  51.966  1.00  0.00     0.226 A 
ATOM      2  N   UNL     1       4.511  45.507  51.964  1.00  0.00    -0.195 NA
ATOM      3  N   UNL     1       3.348  43.486  51.423  1.00  0.00    -0.193 NA
ATOM      4  C   UNL     1       5.660  45.122  51.345  1.00  0.00     0.147 A 
ATOM      5  C   UNL     1       4.485  43.127  50.801  1.00  0.00     0.165 A 
ATOM      6  C   UNL     1       5.650  43.870  50.718  1.00  0.00     0.082 A 
ATOM      7  N   UNL     1       4.737  41.965  50.118  1.00  0.00    -0.250 N 
ATOM      8  C   UNL     1       6.532  43.063  49.970  1.00  0.00     0.149 A 
ATOM      9  N   UNL     1       5.981  41.904  49.601  1.00  0.00    -0.179 NA
ATOM     10  C   UNL     1       3.835  40.861  49.905  1.00  0.00     0.176 C 
ENDROOT
BRANCH   1  11
ATOM     11  N   UNL     1       2.345  45.220  52.672  1.00  0.00    -0.348 N 
ATOM     12  H   UNL     1       2.709  46.130  52.975  1.00  0.00     0.163 HD
BRANCH  11  13
ATOM     13  C   UNL     1       1.136  45.355  51.847  1.00  0.00     0.177 C 
BRANCH  13  14
ATOM     14  C   UNL     1      -0.076  44.928  52.702  1.00  0.00     0.283 C 
BRANCH  14  15
ATOM     15  N   UNL     1      -1.349  45.159  51.900  1.00  0.00    -0.338 N 
ATOM     16  C   UNL     1      -2.549  45.426  52.753  1.00  0.00     0.332 C 
ATOM     17  C   UNL     1      -1.598  44.111  50.865  1.00  0.00     0.332 C 
ATOM     18  H   UNL     1      -1.141  46.045  51.396  1.00  0.00     0.347 HD
ENDBRANCH  14  15
ENDBRANCH  13  14
ENDBRANCH  11  13
ENDBRANCH   1  11
BRANCH   4  19
ATOM     19  N   UNL     1       6.774  45.970  51.294  1.00  0.00    -0.336 N 
ATOM     20  H   UNL     1       7.220  46.019  50.383  1.00  0.00     0.168 HD
BRANCH  19  21
ATOM     21  C   UNL     1       7.663  46.375  52.312  1.00  0.00     0.082 A 
ATOM     22  C   UNL     1       7.269  47.030  53.480  1.00  0.00     0.030 A 
ATOM     23  C   UNL     1       9.039  46.149  52.131  1.00  0.00     0.139 A 
ATOM     24  C   UNL     1       8.209  47.381  54.459  1.00  0.00     0.006 A 
ATOM     25  C   UNL     1       9.981  46.478  53.102  1.00  0.00     0.051 A 
ATOM     26  C   UNL     1       9.567  47.089  54.287  1.00  0.00    -0.047 A 
ATOM     27  C   UNL     1      10.572  47.487  55.327  1.00  0.00     0.044 C 
BRANCH  23  28
ATOM     28  O   UNL     1       9.497  45.616  50.955  1.00  0.00    -0.506 OA
ATOM     29  H   UNL     1       9.310  44.662  51.011  1.00  0.00     0.293 HD
ENDBRANCH  23  28
ENDBRANCH  19  21
ENDBRANCH   4  19
TORSDOF 7
ENDMDL
