MODEL 1
REMARK VINA RESULT:    -8.459      0.000      0.000
REMARK INTER + INTRA:         -13.317
REMARK INTER:                 -11.921
REMARK INTRA:                  -1.397
REMARK UNBOUND:                -1.397
REMARK SMILES Cn1ncc2c(Nc3ccc(F)cc3)nc(NCCCNC=O)nc21
REMARK SMILES IDX 17 1 16 3 2 4 3 5 25 6 4 7 24 8 5 9 6 10 15 11 1 12 7 13
REMARK SMILES IDX 8 15 9 16 14 17 10 18 13 19 11 20 12 21 18 22 19 23 20 24
REMARK SMILES IDX 21 25 22 26 23 28
REMARK H PARENT 17 2 7 14 21 27
ROOT
ATOM      1  N   UNL     1       3.114  42.969  53.080  1.00  0.00    -0.354 N 
ATOM      2  H   UNL     1       3.438  43.214  54.013  1.00  0.00     0.163 HD
ENDROOT
BRANCH   1   3
ATOM      3  C   UNL     1       4.144  43.341  52.223  1.00  0.00     0.226 A 
ATOM      4  N   UNL     1       6.085  42.466  49.381  1.00  0.00    -0.250 N 
ATOM      5  N   UNL     1       7.087  43.212  48.857  1.00  0.00    -0.179 NA
ATOM      6  C   UNL     1       5.499  43.035  50.478  1.00  0.00     0.165 A 
ATOM      7  C   UNL     1       7.129  44.276  49.666  1.00  0.00     0.149 A 
ATOM      8  N   UNL     1       4.484  42.542  51.204  1.00  0.00    -0.193 NA
ATOM      9  C   UNL     1       6.164  44.224  50.695  1.00  0.00     0.082 A 
ATOM     10  C   UNL     1       5.750  45.005  51.782  1.00  0.00     0.147 A 
ATOM     11  N   UNL     1       4.720  44.518  52.523  1.00  0.00    -0.195 NA
ATOM     12  C   UNL     1       5.743  41.207  48.768  1.00  0.00     0.176 C 
BRANCH  10  13
ATOM     13  N   UNL     1       6.354  46.238  52.069  1.00  0.00    -0.339 N 
ATOM     14  H   UNL     1       5.864  47.031  51.681  1.00  0.00     0.168 HD
BRANCH  13  15
ATOM     15  C   UNL     1       7.547  46.575  52.734  1.00  0.00     0.040 A 
ATOM     16  C   UNL     1       8.823  46.415  52.178  1.00  0.00     0.029 A 
ATOM     17  C   UNL     1       7.462  47.061  54.053  1.00  0.00     0.029 A 
ATOM     18  C   UNL     1       9.975  46.742  52.903  1.00  0.00     0.041 A 
ATOM     19  C   UNL     1       8.609  47.389  54.781  1.00  0.00     0.041 A 
ATOM     20  C   UNL     1       9.857  47.226  54.199  1.00  0.00     0.123 A 
ATOM     21  F   UNL     1      10.958  47.539  54.893  1.00  0.00    -0.207 F 
ENDBRANCH  13  15
ENDBRANCH  10  13
ENDBRANCH   1   3
BRANCH   1  22
ATOM     22  C   UNL     1       1.807  43.485  52.719  1.00  0.00     0.118 C 
BRANCH  22  23
ATOM     23  C   UNL     1       1.207  44.273  53.883  1.00  0.00     0.042 C 
BRANCH  23  24
ATOM     24  C   UNL     1       1.745  45.700  53.957  1.00  0.00     0.117 C 
BRANCH  24  25
ATOM     25  N   UNL     1       1.897  46.287  52.638  1.00  0.00    -0.359 N 
ATOM     26  C   UNL     1       2.822  47.266  52.381  1.00  0.00     0.337 C 
ATOM     27  H   UNL     1       1.306  45.965  51.884  1.00  0.00     0.163 HD
ATOM     28  O   UNL     1       3.610  47.736  53.188  1.00  0.00    -0.279 OA
ENDBRANCH  24  25
ENDBRANCH  23  24
ENDBRANCH  22  23
ENDBRANCH   1  22
TORSDOF 7
ENDMDL
MODEL 2
REMARK VINA RESULT:    -8.453      1.061      1.174
REMARK INTER + INTRA:         -13.309
REMARK INTER:                 -12.296
REMARK INTRA:                  -1.013
REMARK UNBOUND:                -1.397
REMARK SMILES Cn1ncc2c(Nc3ccc(F)cc3)nc(NCCCNC=O)nc21
REMARK SMILES IDX 17 1 16 3 2 4 3 5 25 6 4 7 24 8 5 9 6 10 15 11 1 12 7 13
REMARK SMILES IDX 8 15 9 16 14 17 10 18 13 19 11 20 12 21 18 22 19 23 20 24
REMARK SMILES IDX 21 25 22 26 23 28
REMARK H PARENT 17 2 7 14 21 27
ROOT
ATOM      1  N   UNL     1       2.919  43.197  52.919  1.00  0.00    -0.354 N 
ATOM      2  H   UNL     1       3.309  42.807  53.774  1.00  0.00     0.163 HD
ENDROOT
BRANCH   1   3
ATOM      3  C   UNL     1       4.015  43.501  52.119  1.00  0.00     0.226 A 
ATOM      4  N   UNL     1       6.097  42.455  49.439  1.00  0.00    -0.250 N 
ATOM      5  N   UNL     1       7.158  43.145  48.956  1.00  0.00    -0.179 NA
ATOM      6  C   UNL     1       5.464  43.084  50.476  1.00  0.00     0.165 A 
ATOM      7  C   UNL     1       7.190  44.235  49.731  1.00  0.00     0.149 A 
ATOM      8  N   UNL     1       4.387  42.655  51.150  1.00  0.00    -0.193 NA
ATOM      9  C   UNL     1       6.160  44.255  50.696  1.00  0.00     0.082 A 
ATOM     10  C   UNL     1       5.709  45.088  51.728  1.00  0.00     0.147 A 
ATOM     11  N   UNL     1       4.616  44.666  52.417  1.00  0.00    -0.195 NA
ATOM     12  C   UNL     1       5.745  41.189  48.847  1.00  0.00     0.176 C 
BRANCH  10  13
ATOM     13  N   UNL     1       6.341  46.308  52.013  1.00  0.00    -0.339 N 
ATOM     14  H   UNL     1       5.871  47.111  51.620  1.00  0.00     0.168 HD
BRANCH  13  15
ATOM     15  C   UNL     1       7.539  46.619  52.680  1.00  0.00     0.040 A 
ATOM     16  C   UNL     1       8.810  46.494  52.104  1.00  0.00     0.029 A 
ATOM     17  C   UNL     1       7.466  47.038  54.023  1.00  0.00     0.029 A 
ATOM     18  C   UNL     1       9.968  46.793  52.832  1.00  0.00     0.041 A 
ATOM     19  C   UNL     1       8.619  47.336  54.754  1.00  0.00     0.041 A 
ATOM     20  C   UNL     1       9.861  47.210  54.151  1.00  0.00     0.123 A 
ATOM     21  F   UNL     1      10.968  47.496  54.848  1.00  0.00    -0.207 F 
ENDBRANCH  13  15
ENDBRANCH  10  13
ENDBRANCH   1   3
BRANCH   1  22
ATOM     22  C   UNL     1       1.982  44.289  53.105  1.00  0.00     0.118 C 
BRANCH  22  23
ATOM     23  C   UNL     1       1.327  44.199  54.483  1.00  0.00     0.042 C 
BRANCH  23  24
ATOM     24  C   UNL     1       1.930  45.188  55.478  1.00  0.00     0.117 C 
BRANCH  24  25
ATOM     25  N   UNL     1       3.343  44.936  55.698  1.00  0.00    -0.359 N 
ATOM     26  C   UNL     1       4.302  45.866  55.391  1.00  0.00     0.337 C 
ATOM     27  H   UNL     1       3.631  44.050  56.090  1.00  0.00     0.163 HD
ATOM     28  O   UNL     1       4.099  46.980  54.930  1.00  0.00    -0.279 OA
ENDBRANCH  24  25
ENDBRANCH  23  24
ENDBRANCH  22  23
ENDBRANCH   1  22
TORSDOF 7
ENDMDL
MODEL 3
REMARK VINA RESULT:    -8.403      1.400      1.644
REMARK INTER + INTRA:         -13.238
REMARK INTER:                 -12.079
REMARK INTRA:                  -1.159
REMARK UNBOUND:                -1.397
REMARK SMILES Cn1ncc2c(Nc3ccc(F)cc3)nc(NCCCNC=O)nc21
REMARK SMILES IDX 17 1 16 3 2 4 3 5 25 6 4 7 24 8 5 9 6 10 15 11 1 12 7 13
REMARK SMILES IDX 8 15 9 16 14 17 10 18 13 19 11 20 12 21 18 22 19 23 20 24
REMARK SMILES IDX 21 25 22 26 23 28
REMARK H PARENT 17 2 7 14 21 27
ROOT
ATOM      1  N   UNL     1       2.552  45.464  52.401  1.00  0.00    -0.354 N 
ATOM      2  H   UNL     1       2.341  46.283  51.837  1.00  0.00     0.163 HD
ENDROOT
BRANCH   1   3
ATOM      3  C   UNL     1       3.622  44.844  51.767  1.00  0.00     0.226 A 
ATOM      4  N   UNL     1       4.802  41.913  50.145  1.00  0.00    -0.250 N 
ATOM      5  N   UNL     1       6.047  41.745  49.640  1.00  0.00    -0.179 NA
ATOM      6  C   UNL     1       4.607  43.140  50.718  1.00  0.00     0.165 A 
ATOM      7  C   UNL     1       6.649  42.906  49.920  1.00  0.00     0.149 A 
ATOM      8  N   UNL     1       3.485  43.600  51.291  1.00  0.00    -0.193 NA
ATOM      9  C   UNL     1       5.804  43.816  50.591  1.00  0.00     0.082 A 
ATOM     10  C   UNL     1       5.868  45.115  51.113  1.00  0.00     0.147 A 
ATOM     11  N   UNL     1       4.736  45.593  51.694  1.00  0.00    -0.195 NA
ATOM     12  C   UNL     1       3.843  40.843  50.037  1.00  0.00     0.176 C 
BRANCH  10  13
ATOM     13  N   UNL     1       7.035  45.886  51.014  1.00  0.00    -0.339 N 
ATOM     14  H   UNL     1       7.261  46.163  50.069  1.00  0.00     0.168 HD
BRANCH  13  15
ATOM     15  C   UNL     1       7.987  46.288  51.967  1.00  0.00     0.040 A 
ATOM     16  C   UNL     1       9.371  46.253  51.754  1.00  0.00     0.029 A 
ATOM     17  C   UNL     1       7.530  46.712  53.230  1.00  0.00     0.029 A 
ATOM     18  C   UNL     1      10.269  46.640  52.755  1.00  0.00     0.041 A 
ATOM     19  C   UNL     1       8.422  47.098  54.234  1.00  0.00     0.041 A 
ATOM     20  C   UNL     1       9.786  47.058  53.987  1.00  0.00     0.123 A 
ATOM     21  F   UNL     1      10.644  47.429  54.946  1.00  0.00    -0.207 F 
ENDBRANCH  13  15
ENDBRANCH  10  13
ENDBRANCH   1   3
BRANCH   1  22
ATOM     22  C   UNL     1       1.424  44.594  52.679  1.00  0.00     0.118 C 
BRANCH  22  23
ATOM     23  C   UNL     1       1.470  44.110  54.128  1.00  0.00     0.042 C 
BRANCH  23  24
ATOM     24  C   UNL     1       1.919  45.205  55.092  1.00  0.00     0.117 C 
BRANCH  24  25
ATOM     25  N   UNL     1       3.224  44.922  55.660  1.00  0.00    -0.359 N 
ATOM     26  C   UNL     1       4.304  45.737  55.439  1.00  0.00     0.337 C 
ATOM     27  H   UNL     1       3.343  44.100  56.237  1.00  0.00     0.163 HD
ATOM     28  O   UNL     1       4.302  46.767  54.781  1.00  0.00    -0.279 OA
ENDBRANCH  24  25
ENDBRANCH  23  24
ENDBRANCH  22  23
ENDBRANCH   1  22
TORSDOF 7
ENDMDL
MODEL 4
REMARK VINA RESULT:    -8.262      1.865      4.558
REMARK INTER + INTRA:         -13.039
REMARK INTER:                 -12.101
REMARK INTRA:                  -0.938
REMARK UNBOUND:                -1.397
REMARK SMILES Cn1ncc2c(Nc3ccc(F)cc3)nc(NCCCNC=O)nc21
REMARK SMILES IDX 17 1 16 3 2 4 3 5 25 6 4 7 24 8 5 9 6 10 15 11 1 12 7 13
REMARK SMILES IDX 8 15 9 16 14 17 10 18 13 19 11 20 12 21 18 22 19 23 20 24
REMARK SMILES IDX 21 25 22 26 23 28
REMARK H PARENT 17 2 7 14 21 27
ROOT
ATOM      1  N   UNL     1       4.416  41.708  51.259  1.00  0.00    -0.354 N 
ATOM      2  H   UNL     1       4.177  41.231  52.125  1.00  0.00     0.163 HD
ENDROOT
BRANCH   1   3
ATOM      3  C   UNL     1       4.196  43.058  51.509  1.00  0.00     0.226 A 
ATOM      4  N   UNL     1       1.852  45.539  52.488  1.00  0.00    -0.250 N 
ATOM      5  N   UNL     1       2.113  46.863  52.601  1.00  0.00    -0.179 NA
ATOM      6  C   UNL     1       2.934  44.801  52.094  1.00  0.00     0.165 A 
ATOM      7  C   UNL     1       3.402  46.949  52.253  1.00  0.00     0.149 A 
ATOM      8  N   UNL     1       2.987  43.474  51.904  1.00  0.00    -0.193 NA
ATOM      9  C   UNL     1       3.969  45.698  51.926  1.00  0.00     0.082 A 
ATOM     10  C   UNL     1       5.205  45.185  51.512  1.00  0.00     0.147 A 
ATOM     11  N   UNL     1       5.272  43.841  51.319  1.00  0.00    -0.195 NA
ATOM     12  C   UNL     1       0.528  45.050  52.781  1.00  0.00     0.176 C 
BRANCH  10  13
ATOM     13  N   UNL     1       6.320  46.018  51.334  1.00  0.00    -0.339 N 
ATOM     14  H   UNL     1       6.397  46.399  50.402  1.00  0.00     0.168 HD
BRANCH  13  15
ATOM     15  C   UNL     1       7.386  46.367  52.182  1.00  0.00     0.040 A 
ATOM     16  C   UNL     1       7.224  46.781  53.510  1.00  0.00     0.029 A 
ATOM     17  C   UNL     1       8.693  46.342  51.657  1.00  0.00     0.029 A 
ATOM     18  C   UNL     1       8.325  47.144  54.295  1.00  0.00     0.041 A 
ATOM     19  C   UNL     1       9.795  46.704  52.436  1.00  0.00     0.041 A 
ATOM     20  C   UNL     1       9.601  47.102  53.750  1.00  0.00     0.123 A 
ATOM     21  F   UNL     1      10.655  47.448  54.500  1.00  0.00    -0.207 F 
ENDBRANCH  13  15
ENDBRANCH  10  13
ENDBRANCH   1   3
BRANCH   1  22
ATOM     22  C   UNL     1       3.763  41.197  50.068  1.00  0.00     0.118 C 
BRANCH  22  23
ATOM     23  C   UNL     1       4.789  40.950  48.963  1.00  0.00     0.042 C 
BRANCH  23  24
ATOM     24  C   UNL     1       6.177  41.467  49.334  1.00  0.00     0.117 C 
BRANCH  24  25
ATOM     25  N   UNL     1       6.540  42.639  48.558  1.00  0.00    -0.359 N 
ATOM     26  C   UNL     1       7.684  43.351  48.811  1.00  0.00     0.337 C 
ATOM     27  H   UNL     1       5.934  42.940  47.807  1.00  0.00     0.163 HD
ATOM     28  O   UNL     1       8.513  43.093  49.671  1.00  0.00    -0.279 OA
ENDBRANCH  24  25
ENDBRANCH  23  24
ENDBRANCH  22  23
ENDBRANCH   1  22
TORSDOF 7
ENDMDL
MODEL 5
REMARK VINA RESULT:    -8.197      1.196      1.298
REMARK INTER + INTRA:         -12.948
REMARK INTER:                 -11.747
REMARK INTRA:                  -1.201
REMARK UNBOUND:                -1.397
REMARK SMILES Cn1ncc2c(Nc3ccc(F)cc3)nc(NCCCNC=O)nc21
REMARK SMILES IDX 17 1 16 3 2 4 3 5 25 6 4 7 24 8 5 9 6 10 15 11 1 12 7 13
REMARK SMILES IDX 8 15 9 16 14 17 10 18 13 19 11 20 12 21 18 22 19 23 20 24
REMARK SMILES IDX 21 25 22 26 23 28
REMARK H PARENT 17 2 7 14 21 27
ROOT
ATOM      1  N   UNL     1       3.061  43.489  53.084  1.00  0.00    -0.354 N 
ATOM      2  H   UNL     1       2.889  44.387  53.532  1.00  0.00     0.163 HD
ENDROOT
BRANCH   1   3
ATOM      3  C   UNL     1       4.134  43.705  52.227  1.00  0.00     0.226 A 
ATOM      4  N   UNL     1       6.040  42.451  49.506  1.00  0.00    -0.250 N 
ATOM      5  N   UNL     1       7.112  43.065  48.952  1.00  0.00    -0.179 NA
ATOM      6  C   UNL     1       5.486  43.151  50.543  1.00  0.00     0.165 A 
ATOM      7  C   UNL     1       7.233  44.181  49.679  1.00  0.00     0.149 A 
ATOM      8  N   UNL     1       4.420  42.804  51.279  1.00  0.00    -0.193 NA
ATOM      9  C   UNL     1       6.250  44.291  50.686  1.00  0.00     0.082 A 
ATOM     10  C   UNL     1       5.886  45.186  51.701  1.00  0.00     0.147 A 
ATOM     11  N   UNL     1       4.805  44.848  52.452  1.00  0.00    -0.195 NA
ATOM     12  C   UNL     1       5.600  41.183  48.981  1.00  0.00     0.176 C 
BRANCH  10  13
ATOM     13  N   UNL     1       6.591  46.381  51.909  1.00  0.00    -0.339 N 
ATOM     14  H   UNL     1       6.233  47.162  51.378  1.00  0.00     0.168 HD
BRANCH  13  15
ATOM     15  C   UNL     1       7.741  46.683  52.661  1.00  0.00     0.040 A 
ATOM     16  C   UNL     1       9.049  46.466  52.209  1.00  0.00     0.029 A 
ATOM     17  C   UNL     1       7.573  47.192  53.963  1.00  0.00     0.029 A 
ATOM     18  C   UNL     1      10.153  46.760  53.018  1.00  0.00     0.041 A 
ATOM     19  C   UNL     1       8.671  47.487  54.775  1.00  0.00     0.041 A 
ATOM     20  C   UNL     1       9.953  47.268  54.294  1.00  0.00     0.123 A 
ATOM     21  F   UNL     1      11.008  47.550  55.069  1.00  0.00    -0.207 F 
ENDBRANCH  13  15
ENDBRANCH  10  13
ENDBRANCH   1   3
BRANCH   1  22
ATOM     22  C   UNL     1       1.902  42.872  52.465  1.00  0.00     0.118 C 
BRANCH  22  23
ATOM     23  C   UNL     1       0.615  43.479  53.022  1.00  0.00     0.042 C 
BRANCH  23  24
ATOM     24  C   UNL     1       0.718  44.992  53.204  1.00  0.00     0.117 C 
BRANCH  24  25
ATOM     25  N   UNL     1       0.343  45.399  54.545  1.00  0.00    -0.359 N 
ATOM     26  C   UNL     1       1.243  45.412  55.579  1.00  0.00     0.337 C 
ATOM     27  H   UNL     1      -0.610  45.685  54.725  1.00  0.00     0.163 HD
ATOM     28  O   UNL     1       2.425  45.111  55.503  1.00  0.00    -0.279 OA
ENDBRANCH  24  25
ENDBRANCH  23  24
ENDBRANCH  22  23
ENDBRANCH   1  22
TORSDOF 7
ENDMDL
MODEL 6
REMARK VINA RESULT:    -8.196      1.847      2.516
REMARK INTER + INTRA:         -12.946
REMARK INTER:                 -11.788
REMARK INTRA:                  -1.159
REMARK UNBOUND:                -1.397
REMARK SMILES Cn1ncc2c(Nc3ccc(F)cc3)nc(NCCCNC=O)nc21
REMARK SMILES IDX 17 1 16 3 2 4 3 5 25 6 4 7 24 8 5 9 6 10 15 11 1 12 7 13
REMARK SMILES IDX 8 15 9 16 14 17 10 18 13 19 11 20 12 21 18 22 19 23 20 24
REMARK SMILES IDX 21 25 22 26 23 28
REMARK H PARENT 17 2 7 14 21 27
ROOT
ATOM      1  N   UNL     1       2.421  46.524  52.276  1.00  0.00    -0.354 N 
ATOM      2  H   UNL     1       2.183  47.157  51.515  1.00  0.00     0.163 HD
ENDROOT
BRANCH   1   3
ATOM      3  C   UNL     1       3.455  45.733  51.789  1.00  0.00     0.226 A 
ATOM      4  N   UNL     1       4.417  42.526  50.608  1.00  0.00    -0.250 N 
ATOM      5  N   UNL     1       5.664  42.180  50.206  1.00  0.00    -0.179 NA
ATOM      6  C   UNL     1       4.317  43.827  51.016  1.00  0.00     0.165 A 
ATOM      7  C   UNL     1       6.363  43.307  50.383  1.00  0.00     0.149 A 
ATOM      8  N   UNL     1       3.219  44.457  51.459  1.00  0.00    -0.193 NA
ATOM      9  C   UNL     1       5.580  44.368  50.885  1.00  0.00     0.082 A 
ATOM     10  C   UNL     1       5.747  45.710  51.251  1.00  0.00     0.147 A 
ATOM     11  N   UNL     1       4.640  46.361  51.698  1.00  0.00    -0.195 NA
ATOM     12  C   UNL     1       3.363  41.544  50.569  1.00  0.00     0.176 C 
BRANCH  10  13
ATOM     13  N   UNL     1       6.989  46.351  51.134  1.00  0.00    -0.339 N 
ATOM     14  H   UNL     1       7.226  46.610  50.187  1.00  0.00     0.168 HD
BRANCH  13  15
ATOM     15  C   UNL     1       7.997  46.639  52.072  1.00  0.00     0.040 A 
ATOM     16  C   UNL     1       9.363  46.431  51.840  1.00  0.00     0.029 A 
ATOM     17  C   UNL     1       7.614  47.123  53.337  1.00  0.00     0.029 A 
ATOM     18  C   UNL     1      10.316  46.710  52.826  1.00  0.00     0.041 A 
ATOM     19  C   UNL     1       8.561  47.403  54.326  1.00  0.00     0.041 A 
ATOM     20  C   UNL     1       9.906  47.193  54.060  1.00  0.00     0.123 A 
ATOM     21  F   UNL     1      10.817  47.461  55.004  1.00  0.00    -0.207 F 
ENDBRANCH  13  15
ENDBRANCH  10  13
ENDBRANCH   1   3
BRANCH   1  22
ATOM     22  C   UNL     1       1.306  45.787  52.842  1.00  0.00     0.118 C 
BRANCH  22  23
ATOM     23  C   UNL     1       1.504  45.596  54.345  1.00  0.00     0.042 C 
BRANCH  23  24
ATOM     24  C   UNL     1       1.118  44.192  54.807  1.00  0.00     0.117 C 
BRANCH  24  25
ATOM     25  N   UNL     1       1.591  43.174  53.888  1.00  0.00    -0.359 N 
ATOM     26  C   UNL     1       0.760  42.205  53.387  1.00  0.00     0.337 C 
ATOM     27  H   UNL     1       2.561  43.177  53.604  1.00  0.00     0.163 HD
ATOM     28  O   UNL     1      -0.433  42.091  53.627  1.00  0.00    -0.279 OA
ENDBRANCH  24  25
ENDBRANCH  23  24
ENDBRANCH  22  23
ENDBRANCH   1  22
TORSDOF 7
ENDMDL
MODEL 7
REMARK VINA RESULT:    -8.101      2.673      5.151
REMARK INTER + INTRA:         -12.813
REMARK INTER:                 -12.075
REMARK INTRA:                  -0.738
REMARK UNBOUND:                -1.397
REMARK SMILES Cn1ncc2c(Nc3ccc(F)cc3)nc(NCCCNC=O)nc21
REMARK SMILES IDX 17 1 16 3 2 4 3 5 25 6 4 7 24 8 5 9 6 10 15 11 1 12 7 13
REMARK SMILES IDX 8 15 9 16 14 17 10 18 13 19 11 20 12 21 18 22 19 23 20 24
REMARK SMILES IDX 21 25 22 26 23 28
REMARK H PARENT 17 2 7 14 21 27
ROOT
ATOM      1  N   UNL     1       4.421  41.856  50.807  1.00  0.00    -0.354 N 
ATOM      2  H   UNL     1       3.571  41.638  50.293  1.00  0.00     0.163 HD
ENDROOT
BRANCH   1   3
ATOM      3  C   UNL     1       4.290  43.186  51.190  1.00  0.00     0.226 A 
ATOM      4  N   UNL     1       2.119  45.697  52.453  1.00  0.00    -0.250 N 
ATOM      5  N   UNL     1       2.464  46.985  52.686  1.00  0.00    -0.179 NA
ATOM      6  C   UNL     1       3.147  44.936  51.966  1.00  0.00     0.165 A 
ATOM      7  C   UNL     1       3.750  47.027  52.321  1.00  0.00     0.149 A 
ATOM      8  N   UNL     1       3.115  43.634  51.649  1.00  0.00    -0.193 NA
ATOM      9  C   UNL     1       4.233  45.782  51.864  1.00  0.00     0.082 A 
ATOM     10  C   UNL     1       5.429  45.238  51.377  1.00  0.00     0.147 A 
ATOM     11  N   UNL     1       5.409  43.917  51.054  1.00  0.00    -0.195 NA
ATOM     12  C   UNL     1       0.772  45.263  52.725  1.00  0.00     0.176 C 
BRANCH  10  13
ATOM     13  N   UNL     1       6.590  46.015  51.255  1.00  0.00    -0.339 N 
ATOM     14  H   UNL     1       6.764  46.343  50.316  1.00  0.00     0.168 HD
BRANCH  13  15
ATOM     15  C   UNL     1       7.594  46.367  52.176  1.00  0.00     0.040 A 
ATOM     16  C   UNL     1       7.339  46.774  53.492  1.00  0.00     0.029 A 
ATOM     17  C   UNL     1       8.933  46.354  51.741  1.00  0.00     0.029 A 
ATOM     18  C   UNL     1       8.382  47.139  54.351  1.00  0.00     0.041 A 
ATOM     19  C   UNL     1       9.978  46.719  52.595  1.00  0.00     0.041 A 
ATOM     20  C   UNL     1       9.691  47.109  53.894  1.00  0.00     0.123 A 
ATOM     21  F   UNL     1      10.689  47.459  54.715  1.00  0.00    -0.207 F 
ENDBRANCH  13  15
ENDBRANCH  10  13
ENDBRANCH   1   3
BRANCH   1  22
ATOM     22  C   UNL     1       5.660  41.541  50.120  1.00  0.00     0.118 C 
BRANCH  22  23
ATOM     23  C   UNL     1       5.395  41.280  48.638  1.00  0.00     0.042 C 
BRANCH  23  24
ATOM     24  C   UNL     1       4.072  40.555  48.404  1.00  0.00     0.117 C 
BRANCH  24  25
ATOM     25  N   UNL     1       3.901  40.182  47.012  1.00  0.00    -0.359 N 
ATOM     26  C   UNL     1       3.061  39.168  46.630  1.00  0.00     0.337 C 
ATOM     27  H   UNL     1       4.414  40.684  46.300  1.00  0.00     0.163 HD
ATOM     28  O   UNL     1       2.369  38.491  47.376  1.00  0.00    -0.279 OA
ENDBRANCH  24  25
ENDBRANCH  23  24
ENDBRANCH  22  23
ENDBRANCH   1  22
TORSDOF 7
ENDMDL
MODEL 8
REMARK VINA RESULT:    -8.060      2.996      5.652
REMARK INTER + INTRA:         -12.756
REMARK INTER:                 -11.671
REMARK INTRA:                  -1.085
REMARK UNBOUND:                -1.397
REMARK SMILES Cn1ncc2c(Nc3ccc(F)cc3)nc(NCCCNC=O)nc21
REMARK SMILES IDX 17 1 16 3 2 4 3 5 25 6 4 7 24 8 5 9 6 10 15 11 1 12 7 13
REMARK SMILES IDX 8 15 9 16 14 17 10 18 13 19 11 20 12 21 18 22 19 23 20 24
REMARK SMILES IDX 21 25 22 26 23 28
REMARK H PARENT 17 2 7 14 21 27
ROOT
ATOM      1  N   UNL     1       4.864  45.278  55.595  1.00  0.00    -0.354 N 
ATOM      2  H   UNL     1       5.348  45.355  56.487  1.00  0.00     0.163 HD
ENDROOT
BRANCH   1   3
ATOM      3  C   UNL     1       5.824  45.556  54.630  1.00  0.00     0.226 A 
ATOM      4  N   UNL     1       8.857  47.244  53.878  1.00  0.00    -0.250 N 
ATOM      5  N   UNL     1       9.484  47.231  52.677  1.00  0.00    -0.179 NA
ATOM      6  C   UNL     1       7.704  46.509  53.898  1.00  0.00     0.165 A 
ATOM      7  C   UNL     1       8.683  46.469  51.924  1.00  0.00     0.149 A 
ATOM      8  N   UNL     1       6.875  46.327  54.937  1.00  0.00    -0.193 NA
ATOM      9  C   UNL     1       7.558  45.989  52.628  1.00  0.00     0.082 A 
ATOM     10  C   UNL     1       6.432  45.191  52.385  1.00  0.00     0.147 A 
ATOM     11  N   UNL     1       5.586  44.997  53.431  1.00  0.00    -0.195 NA
ATOM     12  C   UNL     1       9.432  47.989  54.969  1.00  0.00     0.176 C 
BRANCH  10  13
ATOM     13  N   UNL     1       6.210  44.605  51.130  1.00  0.00    -0.339 N 
ATOM     14  H   UNL     1       6.599  45.130  50.360  1.00  0.00     0.168 HD
BRANCH  13  15
ATOM     15  C   UNL     1       5.490  43.463  50.733  1.00  0.00     0.040 A 
ATOM     16  C   UNL     1       4.250  43.096  51.271  1.00  0.00     0.029 A 
ATOM     17  C   UNL     1       6.066  42.612  49.771  1.00  0.00     0.029 A 
ATOM     18  C   UNL     1       3.596  41.930  50.854  1.00  0.00     0.041 A 
ATOM     19  C   UNL     1       5.418  41.446  49.352  1.00  0.00     0.041 A 
ATOM     20  C   UNL     1       4.188  41.116  49.899  1.00  0.00     0.123 A 
ATOM     21  F   UNL     1       3.564  40.000  49.499  1.00  0.00    -0.207 F 
ENDBRANCH  13  15
ENDBRANCH  10  13
ENDBRANCH   1   3
BRANCH   1  22
ATOM     22  C   UNL     1       3.645  46.057  55.481  1.00  0.00     0.118 C 
BRANCH  22  23
ATOM     23  C   UNL     1       2.500  45.182  54.972  1.00  0.00     0.042 C 
BRANCH  23  24
ATOM     24  C   UNL     1       2.068  45.558  53.557  1.00  0.00     0.117 C 
BRANCH  24  25
ATOM     25  N   UNL     1       2.844  46.667  53.033  1.00  0.00    -0.359 N 
ATOM     26  C   UNL     1       3.100  46.806  51.693  1.00  0.00     0.337 C 
ATOM     27  H   UNL     1       3.208  47.360  53.673  1.00  0.00     0.163 HD
ATOM     28  O   UNL     1       2.711  46.058  50.808  1.00  0.00    -0.279 OA
ENDBRANCH  24  25
ENDBRANCH  23  24
ENDBRANCH  22  23
ENDBRANCH   1  22
TORSDOF 7
ENDMDL
MODEL 9
REMARK VINA RESULT:    -8.054      1.412      1.486
REMARK INTER + INTRA:         -12.747
REMARK INTER:                 -11.630
REMARK INTRA:                  -1.117
REMARK UNBOUND:                -1.397
REMARK SMILES Cn1ncc2c(Nc3ccc(F)cc3)nc(NCCCNC=O)nc21
REMARK SMILES IDX 17 1 16 3 2 4 3 5 25 6 4 7 24 8 5 9 6 10 15 11 1 12 7 13
REMARK SMILES IDX 8 15 9 16 14 17 10 18 13 19 11 20 12 21 18 22 19 23 20 24
REMARK SMILES IDX 21 25 22 26 23 28
REMARK H PARENT 17 2 7 14 21 27
ROOT
ATOM      1  N   UNL     1       3.044  43.709  53.425  1.00  0.00    -0.354 N 
ATOM      2  H   UNL     1       3.265  42.861  53.942  1.00  0.00     0.163 HD
ENDROOT
BRANCH   1   3
ATOM      3  C   UNL     1       4.061  43.844  52.487  1.00  0.00     0.226 A 
ATOM      4  N   UNL     1       5.696  42.419  49.675  1.00  0.00    -0.250 N 
ATOM      5  N   UNL     1       6.754  42.960  49.027  1.00  0.00    -0.179 NA
ATOM      6  C   UNL     1       5.256  43.174  50.728  1.00  0.00     0.165 A 
ATOM      7  C   UNL     1       6.985  44.087  49.710  1.00  0.00     0.149 A 
ATOM      8  N   UNL     1       4.230  42.905  51.548  1.00  0.00    -0.193 NA
ATOM      9  C   UNL     1       6.085  44.276  50.780  1.00  0.00     0.082 A 
ATOM     10  C   UNL     1       5.844  45.215  51.792  1.00  0.00     0.147 A 
ATOM     11  N   UNL     1       4.805  44.955  52.628  1.00  0.00    -0.195 NA
ATOM     12  C   UNL     1       5.153  41.163  49.222  1.00  0.00     0.176 C 
BRANCH  10  13
ATOM     13  N   UNL     1       6.622  46.376  51.912  1.00  0.00    -0.339 N 
ATOM     14  H   UNL     1       6.330  47.127  51.303  1.00  0.00     0.168 HD
BRANCH  13  15
ATOM     15  C   UNL     1       7.772  46.670  52.667  1.00  0.00     0.040 A 
ATOM     16  C   UNL     1       9.080  46.443  52.220  1.00  0.00     0.029 A 
ATOM     17  C   UNL     1       7.604  47.181  53.969  1.00  0.00     0.029 A 
ATOM     18  C   UNL     1      10.183  46.730  53.032  1.00  0.00     0.041 A 
ATOM     19  C   UNL     1       8.702  47.469  54.784  1.00  0.00     0.041 A 
ATOM     20  C   UNL     1       9.983  47.240  54.307  1.00  0.00     0.123 A 
ATOM     21  F   UNL     1      11.038  47.515  55.085  1.00  0.00    -0.207 F 
ENDBRANCH  13  15
ENDBRANCH  10  13
ENDBRANCH   1   3
BRANCH   1  22
ATOM     22  C   UNL     1       2.806  44.888  54.238  1.00  0.00     0.118 C 
BRANCH  22  23
ATOM     23  C   UNL     1       1.561  44.696  55.102  1.00  0.00     0.042 C 
BRANCH  23  24
ATOM     24  C   UNL     1       0.334  44.318  54.276  1.00  0.00     0.117 C 
BRANCH  24  25
ATOM     25  N   UNL     1      -0.026  45.365  53.337  1.00  0.00    -0.359 N 
ATOM     26  C   UNL     1       0.153  45.221  51.986  1.00  0.00     0.337 C 
ATOM     27  H   UNL     1      -0.423  46.226  53.687  1.00  0.00     0.163 HD
ATOM     28  O   UNL     1       0.602  44.233  51.423  1.00  0.00    -0.279 OA
ENDBRANCH  24  25
ENDBRANCH  23  24
ENDBRANCH  22  23
ENDBRANCH   1  22
TORSDOF 7
ENDMDL
MODEL 10
REMARK VINA RESULT:    -8.002      2.008      4.815
REMARK INTER + INTRA:         -12.674
REMARK INTER:                 -11.427
REMARK INTRA:                  -1.247
REMARK UNBOUND:                -1.397
REMARK SMILES Cn1ncc2c(Nc3ccc(F)cc3)nc(NCCCNC=O)nc21
REMARK SMILES IDX 17 1 16 3 2 4 3 5 25 6 4 7 24 8 5 9 6 10 15 11 1 12 7 13
REMARK SMILES IDX 8 15 9 16 14 17 10 18 13 19 11 20 12 21 18 22 19 23 20 24
REMARK SMILES IDX 21 25 22 26 23 28
REMARK H PARENT 17 2 7 14 21 27
ROOT
ATOM      1  N   UNL     1       3.945  41.583  50.889  1.00  0.00    -0.354 N 
ATOM      2  H   UNL     1       3.288  41.564  50.113  1.00  0.00     0.163 HD
ENDROOT
BRANCH   1   3
ATOM      3  C   UNL     1       3.677  42.766  51.569  1.00  0.00     0.226 A 
ATOM      4  N   UNL     1       1.527  44.447  53.841  1.00  0.00    -0.250 N 
ATOM      5  N   UNL     1       1.669  45.730  54.251  1.00  0.00    -0.179 NA
ATOM      6  C   UNL     1       2.495  44.045  52.962  1.00  0.00     0.165 A 
ATOM      7  C   UNL     1       2.759  46.140  53.593  1.00  0.00     0.149 A 
ATOM      8  N   UNL     1       2.623  42.838  52.392  1.00  0.00    -0.193 NA
ATOM      9  C   UNL     1       3.319  45.136  52.775  1.00  0.00     0.082 A 
ATOM     10  C   UNL     1       4.402  44.982  51.899  1.00  0.00     0.147 A 
ATOM     11  N   UNL     1       4.544  43.762  51.317  1.00  0.00    -0.195 NA
ATOM     12  C   UNL     1       0.428  43.661  54.342  1.00  0.00     0.176 C 
BRANCH  10  13
ATOM     13  N   UNL     1       5.304  46.029  51.661  1.00  0.00    -0.339 N 
ATOM     14  H   UNL     1       5.065  46.598  50.861  1.00  0.00     0.168 HD
BRANCH  13  15
ATOM     15  C   UNL     1       6.513  46.395  52.279  1.00  0.00     0.040 A 
ATOM     16  C   UNL     1       6.680  46.504  53.666  1.00  0.00     0.029 A 
ATOM     17  C   UNL     1       7.612  46.716  51.459  1.00  0.00     0.029 A 
ATOM     18  C   UNL     1       7.903  46.903  54.219  1.00  0.00     0.041 A 
ATOM     19  C   UNL     1       8.835  47.115  52.006  1.00  0.00     0.041 A 
ATOM     20  C   UNL     1       8.969  47.205  53.383  1.00  0.00     0.123 A 
ATOM     21  F   UNL     1      10.139  47.586  53.911  1.00  0.00    -0.207 F 
ENDBRANCH  13  15
ENDBRANCH  10  13
ENDBRANCH   1   3
BRANCH   1  22
ATOM     22  C   UNL     1       5.338  41.391  50.530  1.00  0.00     0.118 C 
BRANCH  22  23
ATOM     23  C   UNL     1       5.484  41.275  49.013  1.00  0.00     0.042 C 
BRANCH  23  24
ATOM     24  C   UNL     1       6.368  42.375  48.429  1.00  0.00     0.117 C 
BRANCH  24  25
ATOM     25  N   UNL     1       6.709  43.376  49.423  1.00  0.00    -0.359 N 
ATOM     26  C   UNL     1       7.945  43.968  49.464  1.00  0.00     0.337 C 
ATOM     27  H   UNL     1       6.016  43.648  50.107  1.00  0.00     0.163 HD
ATOM     28  O   UNL     1       8.868  43.750  48.693  1.00  0.00    -0.279 OA
ENDBRANCH  24  25
ENDBRANCH  23  24
ENDBRANCH  22  23
ENDBRANCH   1  22
TORSDOF 7
ENDMDL
MODEL 11
REMARK VINA RESULT:    -8.000      2.432      4.826
REMARK INTER + INTRA:         -12.671
REMARK INTER:                 -11.913
REMARK INTRA:                  -0.758
REMARK UNBOUND:                -1.397
REMARK SMILES Cn1ncc2c(Nc3ccc(F)cc3)nc(NCCCNC=O)nc21
REMARK SMILES IDX 17 1 16 3 2 4 3 5 25 6 4 7 24 8 5 9 6 10 15 11 1 12 7 13
REMARK SMILES IDX 8 15 9 16 14 17 10 18 13 19 11 20 12 21 18 22 19 23 20 24
REMARK SMILES IDX 21 25 22 26 23 28
REMARK H PARENT 17 2 7 14 21 27
ROOT
ATOM      1  N   UNL     1       4.377  41.706  51.308  1.00  0.00    -0.354 N 
ATOM      2  H   UNL     1       3.485  41.318  51.605  1.00  0.00     0.163 HD
ENDROOT
BRANCH   1   3
ATOM      3  C   UNL     1       4.273  43.076  51.525  1.00  0.00     0.226 A 
ATOM      4  N   UNL     1       2.171  45.759  52.521  1.00  0.00    -0.250 N 
ATOM      5  N   UNL     1       2.538  47.061  52.581  1.00  0.00    -0.179 NA
ATOM      6  C   UNL     1       3.175  44.928  52.106  1.00  0.00     0.165 A 
ATOM      7  C   UNL     1       3.814  47.036  52.177  1.00  0.00     0.149 A 
ATOM      8  N   UNL     1       3.117  43.597  51.956  1.00  0.00    -0.193 NA
ATOM      9  C   UNL     1       4.268  45.737  51.868  1.00  0.00     0.082 A 
ATOM     10  C   UNL     1       5.442  45.117  51.420  1.00  0.00     0.147 A 
ATOM     11  N   UNL     1       5.397  43.767  51.266  1.00  0.00    -0.195 NA
ATOM     12  C   UNL     1       0.827  45.385  52.882  1.00  0.00     0.176 C 
BRANCH  10  13
ATOM     13  N   UNL     1       6.609  45.854  51.169  1.00  0.00    -0.339 N 
ATOM     14  H   UNL     1       6.738  46.092  50.196  1.00  0.00     0.168 HD
BRANCH  13  15
ATOM     15  C   UNL     1       7.665  46.266  52.002  1.00  0.00     0.040 A 
ATOM     16  C   UNL     1       9.012  46.251  51.620  1.00  0.00     0.029 A 
ATOM     17  C   UNL     1       7.360  46.677  53.314  1.00  0.00     0.029 A 
ATOM     18  C   UNL     1      10.021  46.646  52.506  1.00  0.00     0.041 A 
ATOM     19  C   UNL     1       8.363  47.072  54.203  1.00  0.00     0.041 A 
ATOM     20  C   UNL     1       9.686  47.052  53.790  1.00  0.00     0.123 A 
ATOM     21  F   UNL     1      10.650  47.431  54.639  1.00  0.00    -0.207 F 
ENDBRANCH  13  15
ENDBRANCH  10  13
ENDBRANCH   1   3
BRANCH   1  22
ATOM     22  C   UNL     1       4.804  41.333  49.973  1.00  0.00     0.118 C 
BRANCH  22  23
ATOM     23  C   UNL     1       3.624  40.784  49.172  1.00  0.00     0.042 C 
BRANCH  23  24
ATOM     24  C   UNL     1       4.019  40.393  47.750  1.00  0.00     0.117 C 
BRANCH  24  25
ATOM     25  N   UNL     1       5.236  41.061  47.327  1.00  0.00    -0.359 N 
ATOM     26  C   UNL     1       5.349  41.655  46.096  1.00  0.00     0.337 C 
ATOM     27  H   UNL     1       6.027  41.093  47.956  1.00  0.00     0.163 HD
ATOM     28  O   UNL     1       4.473  41.710  45.245  1.00  0.00    -0.279 OA
ENDBRANCH  24  25
ENDBRANCH  23  24
ENDBRANCH  22  23
ENDBRANCH   1  22
TORSDOF 7
ENDMDL
MODEL 12
REMARK VINA RESULT:    -7.988      2.609      5.071
REMARK INTER + INTRA:         -12.653
REMARK INTER:                 -11.930
REMARK INTRA:                  -0.723
REMARK UNBOUND:                -1.397
REMARK SMILES Cn1ncc2c(Nc3ccc(F)cc3)nc(NCCCNC=O)nc21
REMARK SMILES IDX 17 1 16 3 2 4 3 5 25 6 4 7 24 8 5 9 6 10 15 11 1 12 7 13
REMARK SMILES IDX 8 15 9 16 14 17 10 18 13 19 11 20 12 21 18 22 19 23 20 24
REMARK SMILES IDX 21 25 22 26 23 28
REMARK H PARENT 17 2 7 14 21 27
ROOT
ATOM      1  N   UNL     1       6.274  41.574  49.232  1.00  0.00    -0.354 N 
ATOM      2  H   UNL     1       6.551  40.823  49.859  1.00  0.00     0.163 HD
ENDROOT
BRANCH   1   3
ATOM      3  C   UNL     1       5.791  42.584  50.056  1.00  0.00     0.226 A 
ATOM      4  N   UNL     1       3.201  43.620  52.254  1.00  0.00    -0.250 N 
ATOM      5  N   UNL     1       3.144  44.814  52.889  1.00  0.00    -0.179 NA
ATOM      6  C   UNL     1       4.309  43.475  51.464  1.00  0.00     0.165 A 
ATOM      7  C   UNL     1       4.252  45.436  52.469  1.00  0.00     0.149 A 
ATOM      8  N   UNL     1       4.644  42.408  50.723  1.00  0.00    -0.193 NA
ATOM      9  C   UNL     1       5.019  44.652  51.580  1.00  0.00     0.082 A 
ATOM     10  C   UNL     1       6.211  44.760  50.852  1.00  0.00     0.147 A 
ATOM     11  N   UNL     1       6.562  43.685  50.098  1.00  0.00    -0.195 NA
ATOM     12  C   UNL     1       2.147  42.658  52.456  1.00  0.00     0.176 C 
BRANCH  10  13
ATOM     13  N   UNL     1       7.009  45.912  50.921  1.00  0.00    -0.339 N 
ATOM     14  H   UNL     1       6.900  46.530  50.131  1.00  0.00     0.168 HD
BRANCH  13  15
ATOM     15  C   UNL     1       7.981  46.335  51.846  1.00  0.00     0.040 A 
ATOM     16  C   UNL     1       9.358  46.143  51.675  1.00  0.00     0.029 A 
ATOM     17  C   UNL     1       7.547  46.949  53.037  1.00  0.00     0.029 A 
ATOM     18  C   UNL     1      10.274  46.562  52.647  1.00  0.00     0.041 A 
ATOM     19  C   UNL     1       8.457  47.368  54.011  1.00  0.00     0.041 A 
ATOM     20  C   UNL     1       9.814  47.170  53.806  1.00  0.00     0.123 A 
ATOM     21  F   UNL     1      10.690  47.571  54.737  1.00  0.00    -0.207 F 
ENDBRANCH  13  15
ENDBRANCH  10  13
ENDBRANCH   1   3
BRANCH   1  22
ATOM     22  C   UNL     1       5.380  41.188  48.156  1.00  0.00     0.118 C 
BRANCH  22  23
ATOM     23  C   UNL     1       5.735  41.939  46.874  1.00  0.00     0.042 C 
BRANCH  23  24
ATOM     24  C   UNL     1       4.852  41.528  45.697  1.00  0.00     0.117 C 
BRANCH  24  25
ATOM     25  N   UNL     1       4.213  40.246  45.926  1.00  0.00    -0.359 N 
ATOM     26  C   UNL     1       2.851  40.120  46.024  1.00  0.00     0.337 C 
ATOM     27  H   UNL     1       4.786  39.418  46.015  1.00  0.00     0.163 HD
ATOM     28  O   UNL     1       2.039  41.027  45.919  1.00  0.00    -0.279 OA
ENDBRANCH  24  25
ENDBRANCH  23  24
ENDBRANCH  22  23
ENDBRANCH   1  22
TORSDOF 7
ENDMDL
MODEL 13
REMARK VINA RESULT:    -7.956      2.918      5.573
REMARK INTER + INTRA:         -12.609
REMARK INTER:                 -11.680
REMARK INTRA:                  -0.929
REMARK UNBOUND:                -1.397
REMARK SMILES Cn1ncc2c(Nc3ccc(F)cc3)nc(NCCCNC=O)nc21
REMARK SMILES IDX 17 1 16 3 2 4 3 5 25 6 4 7 24 8 5 9 6 10 15 11 1 12 7 13
REMARK SMILES IDX 8 15 9 16 14 17 10 18 13 19 11 20 12 21 18 22 19 23 20 24
REMARK SMILES IDX 21 25 22 26 23 28
REMARK H PARENT 17 2 7 14 21 27
ROOT
ATOM      1  N   UNL     1       4.711  47.095  54.936  1.00  0.00    -0.354 N 
ATOM      2  H   UNL     1       4.617  48.094  55.104  1.00  0.00     0.163 HD
ENDROOT
BRANCH   1   3
ATOM      3  C   UNL     1       5.913  46.947  54.254  1.00  0.00     0.226 A 
ATOM      4  N   UNL     1       9.438  47.361  54.354  1.00  0.00    -0.250 N 
ATOM      5  N   UNL     1      10.292  47.052  53.349  1.00  0.00    -0.179 NA
ATOM      6  C   UNL     1       8.129  47.102  54.055  1.00  0.00     0.165 A 
ATOM      7  C   UNL     1       9.480  46.595  52.390  1.00  0.00     0.149 A 
ATOM      8  N   UNL     1       7.062  47.295  54.845  1.00  0.00    -0.193 NA
ATOM      9  C   UNL     1       8.121  46.601  52.770  1.00  0.00     0.082 A 
ATOM     10  C   UNL     1       6.878  46.259  52.220  1.00  0.00     0.147 A 
ATOM     11  N   UNL     1       5.790  46.447  53.012  1.00  0.00    -0.195 NA
ATOM     12  C   UNL     1       9.958  47.904  55.584  1.00  0.00     0.176 C 
BRANCH  10  13
ATOM     13  N   UNL     1       6.773  45.724  50.927  1.00  0.00    -0.339 N 
ATOM     14  H   UNL     1       6.908  46.406  50.193  1.00  0.00     0.168 HD
BRANCH  13  15
ATOM     15  C   UNL     1       6.448  44.439  50.458  1.00  0.00     0.040 A 
ATOM     16  C   UNL     1       7.166  43.766  49.461  1.00  0.00     0.029 A 
ATOM     17  C   UNL     1       5.308  43.803  50.987  1.00  0.00     0.029 A 
ATOM     18  C   UNL     1       6.773  42.498  49.016  1.00  0.00     0.041 A 
ATOM     19  C   UNL     1       4.911  42.538  50.546  1.00  0.00     0.041 A 
ATOM     20  C   UNL     1       5.649  41.896  49.563  1.00  0.00     0.123 A 
ATOM     21  F   UNL     1       5.273  40.684  49.138  1.00  0.00    -0.207 F 
ENDBRANCH  13  15
ENDBRANCH  10  13
ENDBRANCH   1   3
BRANCH   1  22
ATOM     22  C   UNL     1       3.569  46.462  54.301  1.00  0.00     0.118 C 
BRANCH  22  23
ATOM     23  C   UNL     1       3.049  45.315  55.166  1.00  0.00     0.042 C 
BRANCH  23  24
ATOM     24  C   UNL     1       1.651  44.863  54.750  1.00  0.00     0.117 C 
BRANCH  24  25
ATOM     25  N   UNL     1       1.658  43.515  54.214  1.00  0.00    -0.359 N 
ATOM     26  C   UNL     1       1.774  43.268  52.870  1.00  0.00     0.337 C 
ATOM     27  H   UNL     1       1.577  42.731  54.847  1.00  0.00     0.163 HD
ATOM     28  O   UNL     1       1.897  44.112  51.995  1.00  0.00    -0.279 OA
ENDBRANCH  24  25
ENDBRANCH  23  24
ENDBRANCH  22  23
ENDBRANCH   1  22
TORSDOF 7
ENDMDL
MODEL 14
REMARK VINA RESULT:    -7.886      2.423      2.887
REMARK INTER + INTRA:         -12.510
REMARK INTER:                 -11.768
REMARK INTRA:                  -0.742
REMARK UNBOUND:                -1.397
REMARK SMILES Cn1ncc2c(Nc3ccc(F)cc3)nc(NCCCNC=O)nc21
REMARK SMILES IDX 17 1 16 3 2 4 3 5 25 6 4 7 24 8 5 9 6 10 15 11 1 12 7 13
REMARK SMILES IDX 8 15 9 16 14 17 10 18 13 19 11 20 12 21 18 22 19 23 20 24
REMARK SMILES IDX 21 25 22 26 23 28
REMARK H PARENT 17 2 7 14 21 27
ROOT
ATOM      1  N   UNL     1       1.664  44.191  53.740  1.00  0.00    -0.354 N 
ATOM      2  H   UNL     1       1.619  43.261  54.150  1.00  0.00     0.163 HD
ENDROOT
BRANCH   1   3
ATOM      3  C   UNL     1       2.773  44.170  52.901  1.00  0.00     0.226 A 
ATOM      4  N   UNL     1       4.623  42.330  50.493  1.00  0.00    -0.250 N 
ATOM      5  N   UNL     1       5.760  42.751  49.889  1.00  0.00    -0.179 NA
ATOM      6  C   UNL     1       4.110  43.235  51.382  1.00  0.00     0.165 A 
ATOM      7  C   UNL     1       5.964  43.957  50.433  1.00  0.00     0.149 A 
ATOM      8  N   UNL     1       2.999  43.106  52.122  1.00  0.00    -0.193 NA
ATOM      9  C   UNL     1       4.970  44.314  51.369  1.00  0.00     0.082 A 
ATOM     10  C   UNL     1       4.665  45.390  52.213  1.00  0.00     0.147 A 
ATOM     11  N   UNL     1       3.539  45.273  52.966  1.00  0.00    -0.195 NA
ATOM     12  C   UNL     1       4.082  41.036  50.162  1.00  0.00     0.176 C 
BRANCH  10  13
ATOM     13  N   UNL     1       5.470  46.538  52.254  1.00  0.00    -0.339 N 
ATOM     14  H   UNL     1       5.059  47.340  51.797  1.00  0.00     0.168 HD
BRANCH  13  15
ATOM     15  C   UNL     1       6.767  46.767  52.747  1.00  0.00     0.040 A 
ATOM     16  C   UNL     1       7.073  46.906  54.107  1.00  0.00     0.029 A 
ATOM     17  C   UNL     1       7.819  46.909  51.821  1.00  0.00     0.029 A 
ATOM     18  C   UNL     1       8.381  47.162  54.533  1.00  0.00     0.041 A 
ATOM     19  C   UNL     1       9.127  47.165  52.241  1.00  0.00     0.041 A 
ATOM     20  C   UNL     1       9.396  47.290  53.596  1.00  0.00     0.123 A 
ATOM     21  F   UNL     1      10.648  47.535  54.002  1.00  0.00    -0.207 F 
ENDBRANCH  13  15
ENDBRANCH  10  13
ENDBRANCH   1   3
BRANCH   1  22
ATOM     22  C   UNL     1       1.639  45.289  54.687  1.00  0.00     0.118 C 
BRANCH  22  23
ATOM     23  C   UNL     1       1.483  44.759  56.112  1.00  0.00     0.042 C 
BRANCH  23  24
ATOM     24  C   UNL     1       0.699  45.718  57.006  1.00  0.00     0.117 C 
BRANCH  24  25
ATOM     25  N   UNL     1       1.568  46.427  57.926  1.00  0.00    -0.359 N 
ATOM     26  C   UNL     1       1.074  47.134  58.992  1.00  0.00     0.337 C 
ATOM     27  H   UNL     1       2.568  46.400  57.782  1.00  0.00     0.163 HD
ATOM     28  O   UNL     1      -0.104  47.239  59.298  1.00  0.00    -0.279 OA
ENDBRANCH  24  25
ENDBRANCH  23  24
ENDBRANCH  22  23
ENDBRANCH   1  22
TORSDOF 7
ENDMDL
MODEL 15
REMARK VINA RESULT:    -7.879      3.682      7.507
REMARK INTER + INTRA:         -12.500
REMARK INTER:                 -11.647
REMARK INTRA:                  -0.853
REMARK UNBOUND:                -1.397
REMARK SMILES Cn1ncc2c(Nc3ccc(F)cc3)nc(NCCCNC=O)nc21
REMARK SMILES IDX 17 1 16 3 2 4 3 5 25 6 4 7 24 8 5 9 6 10 15 11 1 12 7 13
REMARK SMILES IDX 8 15 9 16 14 17 10 18 13 19 11 20 12 21 18 22 19 23 20 24
REMARK SMILES IDX 21 25 22 26 23 28
REMARK H PARENT 17 2 7 14 21 27
ROOT
ATOM      1  N   UNL     1       7.856  45.861  50.405  1.00  0.00    -0.354 N 
ATOM      2  H   UNL     1       7.613  46.318  49.529  1.00  0.00     0.163 HD
ENDROOT
BRANCH   1   3
ATOM      3  C   UNL     1       6.889  44.879  50.590  1.00  0.00     0.226 A 
ATOM      4  N   UNL     1       4.123  43.784  52.529  1.00  0.00    -0.250 N 
ATOM      5  N   UNL     1       3.421  42.645  52.320  1.00  0.00    -0.179 NA
ATOM      6  C   UNL     1       5.142  43.969  51.635  1.00  0.00     0.165 A 
ATOM      7  C   UNL     1       4.036  42.099  51.264  1.00  0.00     0.149 A 
ATOM      8  N   UNL     1       5.999  44.999  51.583  1.00  0.00    -0.193 NA
ATOM      9  C   UNL     1       5.115  42.877  50.792  1.00  0.00     0.082 A 
ATOM     10  C   UNL     1       6.079  42.824  49.776  1.00  0.00     0.147 A 
ATOM     11  N   UNL     1       6.952  43.864  49.711  1.00  0.00    -0.195 NA
ATOM     12  C   UNL     1       3.751  44.656  53.615  1.00  0.00     0.176 C 
BRANCH  10  13
ATOM     13  N   UNL     1       6.118  41.762  48.861  1.00  0.00    -0.339 N 
ATOM     14  H   UNL     1       6.899  41.137  48.996  1.00  0.00     0.168 HD
BRANCH  13  15
ATOM     15  C   UNL     1       5.318  41.441  47.749  1.00  0.00     0.040 A 
ATOM     16  C   UNL     1       4.177  40.631  47.815  1.00  0.00     0.029 A 
ATOM     17  C   UNL     1       5.707  41.924  46.485  1.00  0.00     0.029 A 
ATOM     18  C   UNL     1       3.438  40.325  46.666  1.00  0.00     0.041 A 
ATOM     19  C   UNL     1       4.974  41.620  45.334  1.00  0.00     0.041 A 
ATOM     20  C   UNL     1       3.845  40.822  45.436  1.00  0.00     0.123 A 
ATOM     21  F   UNL     1       3.139  40.529  44.336  1.00  0.00    -0.207 F 
ENDBRANCH  13  15
ENDBRANCH  10  13
ENDBRANCH   1   3
BRANCH   1  22
ATOM     22  C   UNL     1       8.046  46.748  51.537  1.00  0.00     0.118 C 
BRANCH  22  23
ATOM     23  C   UNL     1       9.523  46.811  51.923  1.00  0.00     0.042 C 
BRANCH  23  24
ATOM     24  C   UNL     1       9.792  46.192  53.293  1.00  0.00     0.117 C 
BRANCH  24  25
ATOM     25  N   UNL     1      10.256  47.180  54.248  1.00  0.00    -0.359 N 
ATOM     26  C   UNL     1       9.386  47.932  54.995  1.00  0.00     0.337 C 
ATOM     27  H   UNL     1      11.249  47.321  54.370  1.00  0.00     0.163 HD
ATOM     28  O   UNL     1       8.166  47.857  54.965  1.00  0.00    -0.279 OA
ENDBRANCH  24  25
ENDBRANCH  23  24
ENDBRANCH  22  23
ENDBRANCH   1  22
TORSDOF 7
ENDMDL
MODEL 16
REMARK VINA RESULT:    -7.860      3.253      5.701
REMARK INTER + INTRA:         -12.473
REMARK INTER:                 -11.848
REMARK INTRA:                  -0.625
REMARK UNBOUND:                -1.397
REMARK SMILES Cn1ncc2c(Nc3ccc(F)cc3)nc(NCCCNC=O)nc21
REMARK SMILES IDX 17 1 16 3 2 4 3 5 25 6 4 7 24 8 5 9 6 10 15 11 1 12 7 13
REMARK SMILES IDX 8 15 9 16 14 17 10 18 13 19 11 20 12 21 18 22 19 23 20 24
REMARK SMILES IDX 21 25 22 26 23 28
REMARK H PARENT 17 2 7 14 21 27
ROOT
ATOM      1  N   UNL     1       4.776  47.005  55.134  1.00  0.00    -0.354 N 
ATOM      2  H   UNL     1       4.763  47.961  55.483  1.00  0.00     0.163 HD
ENDROOT
BRANCH   1   3
ATOM      3  C   UNL     1       5.947  46.899  54.393  1.00  0.00     0.226 A 
ATOM      4  N   UNL     1       9.473  47.326  54.361  1.00  0.00    -0.250 N 
ATOM      5  N   UNL     1      10.283  47.075  53.305  1.00  0.00    -0.179 NA
ATOM      6  C   UNL     1       8.152  47.076  54.106  1.00  0.00     0.165 A 
ATOM      7  C   UNL     1       9.430  46.665  52.359  1.00  0.00     0.149 A 
ATOM      8  N   UNL     1       7.121  47.222  54.951  1.00  0.00    -0.193 NA
ATOM      9  C   UNL     1       8.089  46.644  52.797  1.00  0.00     0.082 A 
ATOM     10  C   UNL     1       6.825  46.324  52.285  1.00  0.00     0.147 A 
ATOM     11  N   UNL     1       5.772  46.465  53.133  1.00  0.00    -0.195 NA
ATOM     12  C   UNL     1      10.044  47.807  55.594  1.00  0.00     0.176 C 
BRANCH  10  13
ATOM     13  N   UNL     1       6.665  45.859  50.971  1.00  0.00    -0.339 N 
ATOM     14  H   UNL     1       6.619  46.595  50.282  1.00  0.00     0.168 HD
BRANCH  13  15
ATOM     15  C   UNL     1       6.486  44.569  50.440  1.00  0.00     0.040 A 
ATOM     16  C   UNL     1       7.337  43.990  49.490  1.00  0.00     0.029 A 
ATOM     17  C   UNL     1       5.362  43.827  50.851  1.00  0.00     0.029 A 
ATOM     18  C   UNL     1       7.089  42.711  48.978  1.00  0.00     0.041 A 
ATOM     19  C   UNL     1       5.108  42.550  50.342  1.00  0.00     0.041 A 
ATOM     20  C   UNL     1       5.975  42.004  49.408  1.00  0.00     0.123 A 
ATOM     21  F   UNL     1       5.736  40.781  48.919  1.00  0.00    -0.207 F 
ENDBRANCH  13  15
ENDBRANCH  10  13
ENDBRANCH   1   3
BRANCH   1  22
ATOM     22  C   UNL     1       3.576  46.582  54.437  1.00  0.00     0.118 C 
BRANCH  22  23
ATOM     23  C   UNL     1       3.177  45.172  54.872  1.00  0.00     0.042 C 
BRANCH  23  24
ATOM     24  C   UNL     1       1.891  45.161  55.694  1.00  0.00     0.117 C 
BRANCH  24  25
ATOM     25  N   UNL     1       1.999  45.997  56.875  1.00  0.00    -0.359 N 
ATOM     26  C   UNL     1       0.936  46.210  57.714  1.00  0.00     0.337 C 
ATOM     27  H   UNL     1       2.884  46.436  57.090  1.00  0.00     0.163 HD
ATOM     28  O   UNL     1      -0.182  45.732  57.589  1.00  0.00    -0.279 OA
ENDBRANCH  24  25
ENDBRANCH  23  24
ENDBRANCH  22  23
ENDBRANCH   1  22
TORSDOF 7
ENDMDL
MODEL 17
REMARK VINA RESULT:    -7.514      2.608      3.757
REMARK INTER + INTRA:         -11.985
REMARK INTER:                 -10.911
REMARK INTRA:                  -1.074
REMARK UNBOUND:                -1.397
REMARK SMILES Cn1ncc2c(Nc3ccc(F)cc3)nc(NCCCNC=O)nc21
REMARK SMILES IDX 17 1 16 3 2 4 3 5 25 6 4 7 24 8 5 9 6 10 15 11 1 12 7 13
REMARK SMILES IDX 8 15 9 16 14 17 10 18 13 19 11 20 12 21 18 22 19 23 20 24
REMARK SMILES IDX 21 25 22 26 23 28
REMARK H PARENT 17 2 7 14 21 27
ROOT
ATOM      1  N   UNL     1       2.463  46.015  56.510  1.00  0.00    -0.354 N 
ATOM      2  H   UNL     1       2.254  47.011  56.513  1.00  0.00     0.163 HD
ENDROOT
BRANCH   1   3
ATOM      3  C   UNL     1       3.044  45.764  55.272  1.00  0.00     0.226 A 
ATOM      4  N   UNL     1       3.026  43.740  52.355  1.00  0.00    -0.250 N 
ATOM      5  N   UNL     1       3.867  43.875  51.302  1.00  0.00    -0.179 NA
ATOM      6  C   UNL     1       3.247  44.652  53.350  1.00  0.00     0.165 A 
ATOM      7  C   UNL     1       4.644  44.902  51.664  1.00  0.00     0.149 A 
ATOM      8  N   UNL     1       2.576  44.772  54.505  1.00  0.00    -0.193 NA
ATOM      9  C   UNL     1       4.307  45.428  52.929  1.00  0.00     0.082 A 
ATOM     10  C   UNL     1       4.739  46.448  53.788  1.00  0.00     0.147 A 
ATOM     11  N   UNL     1       4.064  46.582  54.960  1.00  0.00    -0.195 NA
ATOM     12  C   UNL     1       2.025  42.703  52.333  1.00  0.00     0.176 C 
BRANCH  10  13
ATOM     13  N   UNL     1       5.796  47.301  53.437  1.00  0.00    -0.339 N 
ATOM     14  H   UNL     1       5.518  48.264  53.315  1.00  0.00     0.168 HD
BRANCH  13  15
ATOM     15  C   UNL     1       7.153  47.059  53.156  1.00  0.00     0.040 A 
ATOM     16  C   UNL     1       8.167  47.082  54.121  1.00  0.00     0.029 A 
ATOM     17  C   UNL     1       7.526  46.822  51.818  1.00  0.00     0.029 A 
ATOM     18  C   UNL     1       9.505  46.862  53.772  1.00  0.00     0.041 A 
ATOM     19  C   UNL     1       8.860  46.603  51.464  1.00  0.00     0.041 A 
ATOM     20  C   UNL     1       9.838  46.625  52.446  1.00  0.00     0.123 A 
ATOM     21  F   UNL     1      11.117  46.414  52.111  1.00  0.00    -0.207 F 
ENDBRANCH  13  15
ENDBRANCH  10  13
ENDBRANCH   1   3
BRANCH   1  22
ATOM     22  C   UNL     1       1.351  45.145  56.847  1.00  0.00     0.118 C 
BRANCH  22  23
ATOM     23  C   UNL     1       0.083  45.967  57.075  1.00  0.00     0.042 C 
BRANCH  23  24
ATOM     24  C   UNL     1      -1.054  45.549  56.145  1.00  0.00     0.117 C 
BRANCH  24  25
ATOM     25  N   UNL     1      -0.572  45.234  54.813  1.00  0.00    -0.359 N 
ATOM     26  C   UNL     1      -1.005  44.129  54.127  1.00  0.00     0.337 C 
ATOM     27  H   UNL     1       0.102  45.847  54.374  1.00  0.00     0.163 HD
ATOM     28  O   UNL     1      -1.825  43.314  54.525  1.00  0.00    -0.279 OA
ENDBRANCH  24  25
ENDBRANCH  23  24
ENDBRANCH  22  23
ENDBRANCH   1  22
TORSDOF 7
ENDMDL
MODEL 18
REMARK VINA RESULT:    -7.501      2.685      6.044
REMARK INTER + INTRA:         -11.967
REMARK INTER:                 -11.231
REMARK INTRA:                  -0.735
REMARK UNBOUND:                -1.397
REMARK SMILES Cn1ncc2c(Nc3ccc(F)cc3)nc(NCCCNC=O)nc21
REMARK SMILES IDX 17 1 16 3 2 4 3 5 25 6 4 7 24 8 5 9 6 10 15 11 1 12 7 13
REMARK SMILES IDX 8 15 9 16 14 17 10 18 13 19 11 20 12 21 18 22 19 23 20 24
REMARK SMILES IDX 21 25 22 26 23 28
REMARK H PARENT 17 2 7 14 21 27
ROOT
ATOM      1  N   UNL     1       3.540  45.821  55.140  1.00  0.00    -0.354 N 
ATOM      2  H   UNL     1       3.189  45.863  56.094  1.00  0.00     0.163 HD
ENDROOT
BRANCH   1   3
ATOM      3  C   UNL     1       2.717  44.913  54.484  1.00  0.00     0.226 A 
ATOM      4  N   UNL     1      -0.522  43.469  54.283  1.00  0.00    -0.250 N 
ATOM      5  N   UNL     1      -0.903  42.519  53.396  1.00  0.00    -0.179 NA
ATOM      6  C   UNL     1       0.784  43.854  54.144  1.00  0.00     0.165 A 
ATOM      7  C   UNL     1       0.212  42.300  52.689  1.00  0.00     0.149 A 
ATOM      8  N   UNL     1       1.441  44.773  54.866  1.00  0.00    -0.193 NA
ATOM      9  C   UNL     1       1.296  43.101  53.107  1.00  0.00     0.082 A 
ATOM     10  C   UNL     1       2.639  43.306  52.765  1.00  0.00     0.147 A 
ATOM     11  N   UNL     1       3.316  44.237  53.488  1.00  0.00    -0.195 NA
ATOM     12  C   UNL     1      -1.475  43.966  55.243  1.00  0.00     0.176 C 
BRANCH  10  13
ATOM     13  N   UNL     1       3.241  42.600  51.713  1.00  0.00    -0.339 N 
ATOM     14  H   UNL     1       2.715  41.793  51.411  1.00  0.00     0.168 HD
BRANCH  13  15
ATOM     15  C   UNL     1       4.469  42.762  51.045  1.00  0.00     0.040 A 
ATOM     16  C   UNL     1       5.094  44.000  50.849  1.00  0.00     0.029 A 
ATOM     17  C   UNL     1       5.089  41.621  50.502  1.00  0.00     0.029 A 
ATOM     18  C   UNL     1       6.303  44.099  50.150  1.00  0.00     0.041 A 
ATOM     19  C   UNL     1       6.295  41.714  49.802  1.00  0.00     0.041 A 
ATOM     20  C   UNL     1       6.892  42.954  49.632  1.00  0.00     0.123 A 
ATOM     21  F   UNL     1       8.048  43.047  48.963  1.00  0.00    -0.207 F 
ENDBRANCH  13  15
ENDBRANCH  10  13
ENDBRANCH   1   3
BRANCH   1  22
ATOM     22  C   UNL     1       4.961  45.556  55.012  1.00  0.00     0.118 C 
BRANCH  22  23
ATOM     23  C   UNL     1       5.701  46.821  54.580  1.00  0.00     0.042 C 
BRANCH  23  24
ATOM     24  C   UNL     1       5.834  46.926  53.062  1.00  0.00     0.117 C 
BRANCH  24  25
ATOM     25  N   UNL     1       7.170  46.580  52.614  1.00  0.00    -0.359 N 
ATOM     26  C   UNL     1       8.120  47.535  52.359  1.00  0.00     0.337 C 
ATOM     27  H   UNL     1       7.412  45.607  52.486  1.00  0.00     0.163 HD
ATOM     28  O   UNL     1       7.975  48.742  52.486  1.00  0.00    -0.279 OA
ENDBRANCH  24  25
ENDBRANCH  23  24
ENDBRANCH  22  23
ENDBRANCH   1  22
TORSDOF 7
ENDMDL
MODEL 19
REMARK VINA RESULT:    -7.411      2.827      5.932
REMARK INTER + INTRA:         -11.841
REMARK INTER:                 -10.962
REMARK INTRA:                  -0.879
REMARK UNBOUND:                -1.397
REMARK SMILES Cn1ncc2c(Nc3ccc(F)cc3)nc(NCCCNC=O)nc21
REMARK SMILES IDX 17 1 16 3 2 4 3 5 25 6 4 7 24 8 5 9 6 10 15 11 1 12 7 13
REMARK SMILES IDX 8 15 9 16 14 17 10 18 13 19 11 20 12 21 18 22 19 23 20 24
REMARK SMILES IDX 21 25 22 26 23 28
REMARK H PARENT 17 2 7 14 21 27
ROOT
ATOM      1  N   UNL     1       7.985  46.101  50.458  1.00  0.00    -0.354 N 
ATOM      2  H   UNL     1       7.851  46.496  49.530  1.00  0.00     0.163 HD
ENDROOT
BRANCH   1   3
ATOM      3  C   UNL     1       6.828  45.377  50.721  1.00  0.00     0.226 A 
ATOM      4  N   UNL     1       5.141  42.272  50.368  1.00  0.00    -0.250 N 
ATOM      5  N   UNL     1       3.897  42.000  50.826  1.00  0.00    -0.179 NA
ATOM      6  C   UNL     1       5.556  43.547  50.639  1.00  0.00     0.165 A 
ATOM      7  C   UNL     1       3.522  43.153  51.392  1.00  0.00     0.149 A 
ATOM      8  N   UNL     1       6.734  44.103  50.320  1.00  0.00    -0.193 NA
ATOM      9  C   UNL     1       4.513  44.155  51.307  1.00  0.00     0.082 A 
ATOM     10  C   UNL     1       4.688  45.490  51.696  1.00  0.00     0.147 A 
ATOM     11  N   UNL     1       5.879  46.063  51.381  1.00  0.00    -0.195 NA
ATOM     12  C   UNL     1       5.881  41.247  49.675  1.00  0.00     0.176 C 
BRANCH  10  13
ATOM     13  N   UNL     1       3.691  46.184  52.397  1.00  0.00    -0.339 N 
ATOM     14  H   UNL     1       3.527  47.119  52.052  1.00  0.00     0.168 HD
BRANCH  13  15
ATOM     15  C   UNL     1       2.926  45.853  53.529  1.00  0.00     0.040 A 
ATOM     16  C   UNL     1       1.568  45.512  53.483  1.00  0.00     0.029 A 
ATOM     17  C   UNL     1       3.545  45.908  54.793  1.00  0.00     0.029 A 
ATOM     18  C   UNL     1       0.853  45.221  54.651  1.00  0.00     0.041 A 
ATOM     19  C   UNL     1       2.836  45.619  55.962  1.00  0.00     0.041 A 
ATOM     20  C   UNL     1       1.495  45.278  55.880  1.00  0.00     0.123 A 
ATOM     21  F   UNL     1       0.813  44.999  56.998  1.00  0.00    -0.207 F 
ENDBRANCH  13  15
ENDBRANCH  10  13
ENDBRANCH   1   3
BRANCH   1  22
ATOM     22  C   UNL     1       8.355  47.051  51.491  1.00  0.00     0.118 C 
BRANCH  22  23
ATOM     23  C   UNL     1       9.782  46.787  51.970  1.00  0.00     0.042 C 
BRANCH  23  24
ATOM     24  C   UNL     1       9.822  46.215  53.386  1.00  0.00     0.117 C 
BRANCH  24  25
ATOM     25  N   UNL     1      10.237  47.210  54.357  1.00  0.00    -0.359 N 
ATOM     26  C   UNL     1       9.331  47.980  55.041  1.00  0.00     0.337 C 
ATOM     27  H   UNL     1      11.223  47.342  54.538  1.00  0.00     0.163 HD
ATOM     28  O   UNL     1       8.115  47.917  54.936  1.00  0.00    -0.279 OA
ENDBRANCH  24  25
ENDBRANCH  23  24
ENDBRANCH  22  23
ENDBRANCH   1  22
TORSDOF 7
ENDMDL
