MODEL 1
REMARK VINA RESULT:    -9.741      0.000      0.000
REMARK INTER + INTRA:         -14.306
REMARK INTER:                 -13.157
REMARK INTRA:                  -1.149
REMARK UNBOUND:                -1.149
REMARK SMILES Cc1ccc(C)c(Nc2nc(NCC[NH+]3CCOCC3)nc3nccnc23)c1
REMARK SMILES IDX 12 1 13 3 14 4 15 5 16 6 20 7 17 8 19 9 18 10 11 12 10 13
REMARK SMILES IDX 21 14 9 15 22 16 27 17 23 18 26 19 24 20 25 21 8 22 7 24
REMARK SMILES IDX 5 25 28 26 4 27 2 28 3 29 6 30 1 31
REMARK H PARENT 12 2 15 11 8 23
ROOT
ATOM      1  N   UNL     1       4.263  46.959  54.827  1.00  0.00    -0.348 N 
ATOM      2  H   UNL     1       3.631  47.403  54.153  1.00  0.00     0.163 HD
ENDROOT
BRANCH   1   3
ATOM      3  C   UNL     1       3.748  45.677  55.333  1.00  0.00     0.177 C 
BRANCH   3   4
ATOM      4  C   UNL     1       2.230  45.553  55.067  1.00  0.00     0.283 C 
BRANCH   4   5
ATOM      5  N   UNL     1       2.018  44.813  53.757  1.00  0.00    -0.330 N 
ATOM      6  C   UNL     1       0.951  43.739  53.822  1.00  0.00     0.291 C 
ATOM      7  C   UNL     1       1.799  45.733  52.574  1.00  0.00     0.291 C 
ATOM      8  C   UNL     1       0.880  43.008  52.478  1.00  0.00     0.221 C 
ATOM      9  C   UNL     1       1.680  44.898  51.294  1.00  0.00     0.221 C 
ATOM     10  O   UNL     1       0.632  43.928  51.407  1.00  0.00    -0.370 OA
ATOM     11  H   UNL     1       2.926  44.331  53.615  1.00  0.00     0.348 HD
ENDBRANCH   4   5
ENDBRANCH   3   4
ENDBRANCH   1   3
BRANCH   1  12
ATOM     12  C   UNL     1       5.445  46.839  54.092  1.00  0.00     0.227 A 
ATOM     13  N   UNL     1       5.400  46.361  52.852  1.00  0.00    -0.193 NA
ATOM     14  N   UNL     1       6.552  47.164  54.732  1.00  0.00    -0.191 NA
ATOM     15  C   UNL     1       6.584  46.244  52.203  1.00  0.00     0.164 A 
ATOM     16  C   UNL     1       7.713  47.012  54.102  1.00  0.00     0.185 A 
ATOM     17  C   UNL     1       7.822  46.533  52.790  1.00  0.00     0.150 A 
ATOM     18  N   UNL     1       8.809  47.339  54.791  1.00  0.00    -0.233 NA
ATOM     19  N   UNL     1       9.041  46.369  52.190  1.00  0.00    -0.247 NA
ATOM     20  C   UNL     1      10.010  47.183  54.190  1.00  0.00     0.133 A 
ATOM     21  C   UNL     1      10.128  46.703  52.909  1.00  0.00     0.132 A 
BRANCH  15  22
ATOM     22  N   UNL     1       6.471  45.741  50.888  1.00  0.00    -0.338 N 
ATOM     23  H   UNL     1       7.215  46.147  50.331  1.00  0.00     0.168 HD
BRANCH  22  24
ATOM     24  C   UNL     1       6.289  44.393  50.481  1.00  0.00     0.043 A 
ATOM     25  C   UNL     1       7.315  43.751  49.759  1.00  0.00    -0.028 A 
ATOM     26  C   UNL     1       5.168  43.644  50.879  1.00  0.00     0.029 A 
ATOM     27  C   UNL     1       7.185  42.392  49.430  1.00  0.00     0.006 A 
ATOM     28  C   UNL     1       5.032  42.293  50.531  1.00  0.00    -0.049 A 
ATOM     29  C   UNL     1       6.055  41.671  49.814  1.00  0.00     0.004 A 
ATOM     30  C   UNL     1       8.543  44.498  49.316  1.00  0.00     0.046 C 
ATOM     31  C   UNL     1       3.831  41.511  50.976  1.00  0.00     0.044 C 
ENDBRANCH  22  24
ENDBRANCH  15  22
ENDBRANCH   1  12
TORSDOF 6
ENDMDL
MODEL 2
REMARK VINA RESULT:    -9.588      0.854      1.080
REMARK INTER + INTRA:         -14.100
REMARK INTER:                 -13.132
REMARK INTRA:                  -0.968
REMARK UNBOUND:                -1.149
REMARK SMILES Cc1ccc(C)c(Nc2nc(NCC[NH+]3CCOCC3)nc3nccnc23)c1
REMARK SMILES IDX 12 1 13 3 14 4 15 5 16 6 20 7 17 8 19 9 18 10 11 12 10 13
REMARK SMILES IDX 21 14 9 15 22 16 27 17 23 18 26 19 24 20 25 21 8 22 7 24
REMARK SMILES IDX 5 25 28 26 4 27 2 28 3 29 6 30 1 31
REMARK H PARENT 12 2 15 11 8 23
ROOT
ATOM      1  N   UNL     1       4.169  46.996  54.711  1.00  0.00    -0.348 N 
ATOM      2  H   UNL     1       3.947  47.988  54.577  1.00  0.00     0.163 HD
ENDROOT
BRANCH   1   3
ATOM      3  C   UNL     1       3.097  46.104  54.241  1.00  0.00     0.177 C 
BRANCH   3   4
ATOM      4  C   UNL     1       2.709  45.087  55.339  1.00  0.00     0.283 C 
BRANCH   4   5
ATOM      5  N   UNL     1       1.600  44.192  54.813  1.00  0.00    -0.330 N 
ATOM      6  C   UNL     1       0.209  44.769  54.984  1.00  0.00     0.291 C 
ATOM      7  C   UNL     1       1.828  43.721  53.392  1.00  0.00     0.291 C 
ATOM      8  C   UNL     1      -0.829  43.753  54.497  1.00  0.00     0.221 C 
ATOM      9  C   UNL     1       0.704  42.763  52.985  1.00  0.00     0.221 C 
ATOM     10  O   UNL     1      -0.580  43.380  53.135  1.00  0.00    -0.370 OA
ATOM     11  H   UNL     1       1.661  43.361  55.432  1.00  0.00     0.348 HD
ENDBRANCH   4   5
ENDBRANCH   3   4
ENDBRANCH   1   3
BRANCH   1  12
ATOM     12  C   UNL     1       5.364  46.860  54.002  1.00  0.00     0.227 A 
ATOM     13  N   UNL     1       5.344  46.350  52.774  1.00  0.00    -0.193 NA
ATOM     14  N   UNL     1       6.458  47.205  54.654  1.00  0.00    -0.191 NA
ATOM     15  C   UNL     1       6.540  46.219  52.151  1.00  0.00     0.164 A 
ATOM     16  C   UNL     1       7.631  47.041  54.050  1.00  0.00     0.185 A 
ATOM     17  C   UNL     1       7.767  46.527  52.753  1.00  0.00     0.150 A 
ATOM     18  N   UNL     1       8.713  47.389  54.751  1.00  0.00    -0.233 NA
ATOM     19  N   UNL     1       8.997  46.352  52.181  1.00  0.00    -0.247 NA
ATOM     20  C   UNL     1       9.926  47.221  54.177  1.00  0.00     0.133 A 
ATOM     21  C   UNL     1      10.069  46.708  52.911  1.00  0.00     0.132 A 
BRANCH  15  22
ATOM     22  N   UNL     1       6.454  45.683  50.848  1.00  0.00    -0.338 N 
ATOM     23  H   UNL     1       7.238  46.034  50.309  1.00  0.00     0.168 HD
BRANCH  22  24
ATOM     24  C   UNL     1       6.222  44.332  50.473  1.00  0.00     0.043 A 
ATOM     25  C   UNL     1       7.217  43.640  49.754  1.00  0.00    -0.028 A 
ATOM     26  C   UNL     1       5.081  43.631  50.900  1.00  0.00     0.029 A 
ATOM     27  C   UNL     1       7.038  42.280  49.457  1.00  0.00     0.006 A 
ATOM     28  C   UNL     1       4.897  42.278  50.584  1.00  0.00    -0.049 A 
ATOM     29  C   UNL     1       5.889  41.606  49.870  1.00  0.00     0.004 A 
ATOM     30  C   UNL     1       8.464  44.336  49.280  1.00  0.00     0.046 C 
ATOM     31  C   UNL     1       3.675  41.546  51.060  1.00  0.00     0.044 C 
ENDBRANCH  22  24
ENDBRANCH  15  22
ENDBRANCH   1  12
TORSDOF 6
ENDMDL
MODEL 3
REMARK VINA RESULT:    -9.202      2.477      5.428
REMARK INTER + INTRA:         -13.579
REMARK INTER:                 -12.845
REMARK INTRA:                  -0.734
REMARK UNBOUND:                -1.149
REMARK SMILES Cc1ccc(C)c(Nc2nc(NCC[NH+]3CCOCC3)nc3nccnc23)c1
REMARK SMILES IDX 12 1 13 3 14 4 15 5 16 6 20 7 17 8 19 9 18 10 11 12 10 13
REMARK SMILES IDX 21 14 9 15 22 16 27 17 23 18 26 19 24 20 25 21 8 22 7 24
REMARK SMILES IDX 5 25 28 26 4 27 2 28 3 29 6 30 1 31
REMARK H PARENT 12 2 15 11 8 23
ROOT
ATOM      1  N   UNL     1       2.277  43.247  53.463  1.00  0.00    -0.348 N 
ATOM      2  H   UNL     1       2.628  42.547  54.126  1.00  0.00     0.163 HD
ENDROOT
BRANCH   1   3
ATOM      3  C   UNL     1       1.830  44.483  54.123  1.00  0.00     0.177 C 
BRANCH   3   4
ATOM      4  C   UNL     1       0.286  44.569  54.136  1.00  0.00     0.283 C 
BRANCH   4   5
ATOM      5  N   UNL     1      -0.149  45.450  55.295  1.00  0.00    -0.330 N 
ATOM      6  C   UNL     1      -1.597  45.262  55.702  1.00  0.00     0.291 C 
ATOM      7  C   UNL     1       0.773  45.368  56.494  1.00  0.00     0.291 C 
ATOM      8  C   UNL     1      -1.946  46.253  56.818  1.00  0.00     0.221 C 
ATOM      9  C   UNL     1       0.299  46.350  57.570  1.00  0.00     0.221 C 
ATOM     10  O   UNL     1      -1.063  46.096  57.936  1.00  0.00    -0.370 OA
ATOM     11  H   UNL     1      -0.066  46.407  54.901  1.00  0.00     0.348 HD
ENDBRANCH   4   5
ENDBRANCH   3   4
ENDBRANCH   1   3
BRANCH   1  12
ATOM     12  C   UNL     1       3.372  43.427  52.615  1.00  0.00     0.227 A 
ATOM     13  N   UNL     1       3.981  44.608  52.572  1.00  0.00    -0.193 NA
ATOM     14  N   UNL     1       3.684  42.393  51.856  1.00  0.00    -0.191 NA
ATOM     15  C   UNL     1       5.018  44.725  51.708  1.00  0.00     0.164 A 
ATOM     16  C   UNL     1       4.679  42.527  50.986  1.00  0.00     0.185 A 
ATOM     17  C   UNL     1       5.422  43.706  50.836  1.00  0.00     0.150 A 
ATOM     18  N   UNL     1       4.952  41.462  50.228  1.00  0.00    -0.233 NA
ATOM     19  N   UNL     1       6.422  43.806  49.908  1.00  0.00    -0.247 NA
ATOM     20  C   UNL     1       5.947  41.564  49.319  1.00  0.00     0.133 A 
ATOM     21  C   UNL     1       6.672  42.719  49.157  1.00  0.00     0.132 A 
BRANCH  15  22
ATOM     22  N   UNL     1       5.631  45.998  51.716  1.00  0.00    -0.338 N 
ATOM     23  H   UNL     1       4.924  46.686  51.953  1.00  0.00     0.168 HD
BRANCH  22  24
ATOM     24  C   UNL     1       6.852  46.376  52.335  1.00  0.00     0.043 A 
ATOM     25  C   UNL     1       6.822  46.909  53.640  1.00  0.00    -0.028 A 
ATOM     26  C   UNL     1       8.096  46.125  51.733  1.00  0.00     0.029 A 
ATOM     27  C   UNL     1       8.028  47.201  54.296  1.00  0.00     0.006 A 
ATOM     28  C   UNL     1       9.298  46.438  52.383  1.00  0.00    -0.049 A 
ATOM     29  C   UNL     1       9.253  46.966  53.674  1.00  0.00     0.004 A 
ATOM     30  C   UNL     1       5.520  47.188  54.340  1.00  0.00     0.046 C 
ATOM     31  C   UNL     1      10.616  46.151  51.724  1.00  0.00     0.044 C 
ENDBRANCH  22  24
ENDBRANCH  15  22
ENDBRANCH   1  12
TORSDOF 6
ENDMDL
MODEL 4
REMARK VINA RESULT:    -9.124      2.268      5.120
REMARK INTER + INTRA:         -13.474
REMARK INTER:                 -12.784
REMARK INTRA:                  -0.690
REMARK UNBOUND:                -1.149
REMARK SMILES Cc1ccc(C)c(Nc2nc(NCC[NH+]3CCOCC3)nc3nccnc23)c1
REMARK SMILES IDX 12 1 13 3 14 4 15 5 16 6 20 7 17 8 19 9 18 10 11 12 10 13
REMARK SMILES IDX 21 14 9 15 22 16 27 17 23 18 26 19 24 20 25 21 8 22 7 24
REMARK SMILES IDX 5 25 28 26 4 27 2 28 3 29 6 30 1 31
REMARK H PARENT 12 2 15 11 8 23
ROOT
ATOM      1  N   UNL     1       3.283  43.942  53.818  1.00  0.00    -0.348 N 
ATOM      2  H   UNL     1       3.830  43.510  54.570  1.00  0.00     0.163 HD
ENDROOT
BRANCH   1   3
ATOM      3  C   UNL     1       2.944  45.347  54.093  1.00  0.00     0.177 C 
BRANCH   3   4
ATOM      4  C   UNL     1       1.505  45.665  53.625  1.00  0.00     0.283 C 
BRANCH   4   5
ATOM      5  N   UNL     1       0.577  45.634  54.827  1.00  0.00    -0.330 N 
ATOM      6  C   UNL     1      -0.429  44.500  54.800  1.00  0.00     0.291 C 
ATOM      7  C   UNL     1       1.307  45.689  56.153  1.00  0.00     0.291 C 
ATOM      8  C   UNL     1      -1.359  44.615  56.012  1.00  0.00     0.221 C 
ATOM      9  C   UNL     1       0.287  45.737  57.295  1.00  0.00     0.221 C 
ATOM     10  O   UNL     1      -0.610  44.622  57.234  1.00  0.00    -0.370 OA
ATOM     11  H   UNL     1       0.041  46.518  54.728  1.00  0.00     0.348 HD
ENDBRANCH   4   5
ENDBRANCH   3   4
ENDBRANCH   1   3
BRANCH   1  12
ATOM     12  C   UNL     1       4.115  43.771  52.709  1.00  0.00     0.227 A 
ATOM     13  N   UNL     1       4.967  44.734  52.375  1.00  0.00    -0.193 NA
ATOM     14  N   UNL     1       3.937  42.655  52.027  1.00  0.00    -0.191 NA
ATOM     15  C   UNL     1       5.726  44.518  51.273  1.00  0.00     0.164 A 
ATOM     16  C   UNL     1       4.660  42.466  50.928  1.00  0.00     0.185 A 
ATOM     17  C   UNL     1       5.607  43.386  50.458  1.00  0.00     0.150 A 
ATOM     18  N   UNL     1       4.438  41.331  50.261  1.00  0.00    -0.233 NA
ATOM     19  N   UNL     1       6.309  43.160  49.306  1.00  0.00    -0.247 NA
ATOM     20  C   UNL     1       5.142  41.109  49.127  1.00  0.00     0.133 A 
ATOM     21  C   UNL     1       6.064  42.010  48.653  1.00  0.00     0.132 A 
BRANCH  15  22
ATOM     22  N   UNL     1       6.619  45.572  50.975  1.00  0.00    -0.338 N 
ATOM     23  H   UNL     1       6.077  46.421  50.858  1.00  0.00     0.168 HD
BRANCH  22  24
ATOM     24  C   UNL     1       7.832  45.902  51.636  1.00  0.00     0.043 A 
ATOM     25  C   UNL     1       9.057  45.524  51.050  1.00  0.00    -0.028 A 
ATOM     26  C   UNL     1       7.851  46.695  52.796  1.00  0.00     0.029 A 
ATOM     27  C   UNL     1      10.263  45.924  51.646  1.00  0.00     0.006 A 
ATOM     28  C   UNL     1       9.058  47.075  53.400  1.00  0.00    -0.049 A 
ATOM     29  C   UNL     1      10.262  46.692  52.810  1.00  0.00     0.004 A 
ATOM     30  C   UNL     1       9.099  44.684  49.802  1.00  0.00     0.046 C 
ATOM     31  C   UNL     1       9.053  47.932  54.632  1.00  0.00     0.044 C 
ENDBRANCH  22  24
ENDBRANCH  15  22
ENDBRANCH   1  12
TORSDOF 6
ENDMDL
MODEL 5
REMARK VINA RESULT:    -9.067      2.635      5.313
REMARK INTER + INTRA:         -13.396
REMARK INTER:                 -12.677
REMARK INTRA:                  -0.719
REMARK UNBOUND:                -1.149
REMARK SMILES Cc1ccc(C)c(Nc2nc(NCC[NH+]3CCOCC3)nc3nccnc23)c1
REMARK SMILES IDX 12 1 13 3 14 4 15 5 16 6 20 7 17 8 19 9 18 10 11 12 10 13
REMARK SMILES IDX 21 14 9 15 22 16 27 17 23 18 26 19 24 20 25 21 8 22 7 24
REMARK SMILES IDX 5 25 28 26 4 27 2 28 3 29 6 30 1 31
REMARK H PARENT 12 2 15 11 8 23
ROOT
ATOM      1  N   UNL     1       2.614  45.927  54.275  1.00  0.00    -0.348 N 
ATOM      2  H   UNL     1       1.884  46.292  53.654  1.00  0.00     0.163 HD
ENDROOT
BRANCH   1   3
ATOM      3  C   UNL     1       2.084  45.025  55.309  1.00  0.00     0.177 C 
BRANCH   3   4
ATOM      4  C   UNL     1       0.539  44.990  55.266  1.00  0.00     0.283 C 
BRANCH   4   5
ATOM      5  N   UNL     1      -0.005  45.999  56.263  1.00  0.00    -0.330 N 
ATOM      6  C   UNL     1      -1.484  45.842  56.555  1.00  0.00     0.291 C 
ATOM      7  C   UNL     1       0.801  46.077  57.543  1.00  0.00     0.291 C 
ATOM      8  C   UNL     1      -1.938  46.956  57.503  1.00  0.00     0.221 C 
ATOM      9  C   UNL     1       0.226  47.176  58.443  1.00  0.00     0.221 C 
ATOM     10  O   UNL     1      -1.163  46.950  58.709  1.00  0.00    -0.370 OA
ATOM     11  H   UNL     1       0.112  46.902  55.764  1.00  0.00     0.348 HD
ENDBRANCH   4   5
ENDBRANCH   3   4
ENDBRANCH   1   3
BRANCH   1  12
ATOM     12  C   UNL     1       3.483  45.304  53.376  1.00  0.00     0.227 A 
ATOM     13  N   UNL     1       4.488  45.995  52.850  1.00  0.00    -0.193 NA
ATOM     14  N   UNL     1       3.185  44.055  53.067  1.00  0.00    -0.191 NA
ATOM     15  C   UNL     1       5.277  45.340  51.963  1.00  0.00     0.164 A 
ATOM     16  C   UNL     1       3.942  43.431  52.170  1.00  0.00     0.185 A 
ATOM     17  C   UNL     1       5.044  44.025  51.541  1.00  0.00     0.150 A 
ATOM     18  N   UNL     1       3.598  42.174  51.877  1.00  0.00    -0.233 NA
ATOM     19  N   UNL     1       5.779  43.351  50.604  1.00  0.00    -0.247 NA
ATOM     20  C   UNL     1       4.334  41.511  50.956  1.00  0.00     0.133 A 
ATOM     21  C   UNL     1       5.408  42.089  50.326  1.00  0.00     0.132 A 
BRANCH  15  22
ATOM     22  N   UNL     1       6.334  46.122  51.447  1.00  0.00    -0.338 N 
ATOM     23  H   UNL     1       5.963  47.035  51.209  1.00  0.00     0.168 HD
BRANCH  22  24
ATOM     24  C   UNL     1       7.637  46.294  51.986  1.00  0.00     0.043 A 
ATOM     25  C   UNL     1       8.748  45.829  51.255  1.00  0.00    -0.028 A 
ATOM     26  C   UNL     1       7.859  47.019  53.170  1.00  0.00     0.029 A 
ATOM     27  C   UNL     1      10.044  46.074  51.733  1.00  0.00     0.006 A 
ATOM     28  C   UNL     1       9.155  47.243  53.655  1.00  0.00    -0.049 A 
ATOM     29  C   UNL     1      10.245  46.775  52.921  1.00  0.00     0.004 A 
ATOM     30  C   UNL     1       8.572  45.057  49.975  1.00  0.00     0.046 C 
ATOM     31  C   UNL     1       9.368  48.029  54.916  1.00  0.00     0.044 C 
ENDBRANCH  22  24
ENDBRANCH  15  22
ENDBRANCH   1  12
TORSDOF 6
ENDMDL
MODEL 6
REMARK VINA RESULT:    -9.012      1.830      4.668
REMARK INTER + INTRA:         -13.322
REMARK INTER:                 -12.364
REMARK INTRA:                  -0.958
REMARK UNBOUND:                -1.149
REMARK SMILES Cc1ccc(C)c(Nc2nc(NCC[NH+]3CCOCC3)nc3nccnc23)c1
REMARK SMILES IDX 12 1 13 3 14 4 15 5 16 6 20 7 17 8 19 9 18 10 11 12 10 13
REMARK SMILES IDX 21 14 9 15 22 16 27 17 23 18 26 19 24 20 25 21 8 22 7 24
REMARK SMILES IDX 5 25 28 26 4 27 2 28 3 29 6 30 1 31
REMARK H PARENT 12 2 15 11 8 23
ROOT
ATOM      1  N   UNL     1       2.668  45.888  54.559  1.00  0.00    -0.348 N 
ATOM      2  H   UNL     1       2.072  46.500  53.992  1.00  0.00     0.163 HD
ENDROOT
BRANCH   1   3
ATOM      3  C   UNL     1       1.897  44.916  55.351  1.00  0.00     0.177 C 
BRANCH   3   4
ATOM      4  C   UNL     1       0.379  45.181  55.216  1.00  0.00     0.283 C 
BRANCH   4   5
ATOM      5  N   UNL     1      -0.154  44.399  54.028  1.00  0.00    -0.330 N 
ATOM      6  C   UNL     1       0.262  42.941  54.012  1.00  0.00     0.291 C 
ATOM      7  C   UNL     1      -1.648  44.544  53.832  1.00  0.00     0.291 C 
ATOM      8  C   UNL     1      -0.260  42.275  52.736  1.00  0.00     0.221 C 
ATOM      9  C   UNL     1      -2.073  43.791  52.567  1.00  0.00     0.221 C 
ATOM     10  O   UNL     1      -1.683  42.414  52.631  1.00  0.00    -0.370 OA
ATOM     11  H   UNL     1       0.314  44.856  53.222  1.00  0.00     0.348 HD
ENDBRANCH   4   5
ENDBRANCH   3   4
ENDBRANCH   1   3
BRANCH   1  12
ATOM     12  C   UNL     1       3.491  45.300  53.596  1.00  0.00     0.227 A 
ATOM     13  N   UNL     1       4.474  46.011  53.052  1.00  0.00    -0.193 NA
ATOM     14  N   UNL     1       3.175  44.066  53.249  1.00  0.00    -0.191 NA
ATOM     15  C   UNL     1       5.218  45.391  52.104  1.00  0.00     0.164 A 
ATOM     16  C   UNL     1       3.886  43.478  52.293  1.00  0.00     0.185 A 
ATOM     17  C   UNL     1       4.960  44.096  51.638  1.00  0.00     0.150 A 
ATOM     18  N   UNL     1       3.524  42.236  51.964  1.00  0.00    -0.233 NA
ATOM     19  N   UNL     1       5.648  43.460  50.641  1.00  0.00    -0.247 NA
ATOM     20  C   UNL     1       4.213  41.610  50.983  1.00  0.00     0.133 A 
ATOM     21  C   UNL     1       5.259  42.211  50.328  1.00  0.00     0.132 A 
BRANCH  15  22
ATOM     22  N   UNL     1       6.253  46.192  51.572  1.00  0.00    -0.338 N 
ATOM     23  H   UNL     1       5.880  47.120  51.406  1.00  0.00     0.168 HD
BRANCH  22  24
ATOM     24  C   UNL     1       7.586  46.323  52.044  1.00  0.00     0.043 A 
ATOM     25  C   UNL     1       8.647  45.865  51.237  1.00  0.00    -0.028 A 
ATOM     26  C   UNL     1       7.886  47.001  53.238  1.00  0.00     0.029 A 
ATOM     27  C   UNL     1       9.972  46.070  51.652  1.00  0.00     0.006 A 
ATOM     28  C   UNL     1       9.210  47.186  53.659  1.00  0.00    -0.049 A 
ATOM     29  C   UNL     1      10.250  46.726  52.851  1.00  0.00     0.004 A 
ATOM     30  C   UNL     1       8.388  45.141  49.944  1.00  0.00     0.046 C 
ATOM     31  C   UNL     1       9.506  47.924  54.933  1.00  0.00     0.044 C 
ENDBRANCH  22  24
ENDBRANCH  15  22
ENDBRANCH   1  12
TORSDOF 6
ENDMDL
MODEL 7
REMARK VINA RESULT:    -8.970      3.055      6.155
REMARK INTER + INTRA:         -13.266
REMARK INTER:                 -12.611
REMARK INTRA:                  -0.655
REMARK UNBOUND:                -1.149
REMARK SMILES Cc1ccc(C)c(Nc2nc(NCC[NH+]3CCOCC3)nc3nccnc23)c1
REMARK SMILES IDX 12 1 13 3 14 4 15 5 16 6 20 7 17 8 19 9 18 10 11 12 10 13
REMARK SMILES IDX 21 14 9 15 22 16 27 17 23 18 26 19 24 20 25 21 8 22 7 24
REMARK SMILES IDX 5 25 28 26 4 27 2 28 3 29 6 30 1 31
REMARK H PARENT 12 2 15 11 8 23
ROOT
ATOM      1  N   UNL     1       4.237  41.291  50.980  1.00  0.00    -0.348 N 
ATOM      2  H   UNL     1       3.501  40.924  51.592  1.00  0.00     0.163 HD
ENDROOT
BRANCH   1   3
ATOM      3  C   UNL     1       3.956  41.068  49.553  1.00  0.00     0.177 C 
BRANCH   3   4
ATOM      4  C   UNL     1       5.254  41.162  48.718  1.00  0.00     0.283 C 
BRANCH   4   5
ATOM      5  N   UNL     1       4.944  40.779  47.280  1.00  0.00    -0.330 N 
ATOM      6  C   UNL     1       3.505  40.364  47.050  1.00  0.00     0.291 C 
ATOM      7  C   UNL     1       5.383  41.820  46.272  1.00  0.00     0.291 C 
ATOM      8  C   UNL     1       3.328  39.924  45.593  1.00  0.00     0.221 C 
ATOM      9  C   UNL     1       5.105  41.307  44.855  1.00  0.00     0.221 C 
ATOM     10  O   UNL     1       3.723  40.967  44.692  1.00  0.00    -0.370 OA
ATOM     11  H   UNL     1       5.531  39.935  47.135  1.00  0.00     0.348 HD
ENDBRANCH   4   5
ENDBRANCH   3   4
ENDBRANCH   1   3
BRANCH   1  12
ATOM     12  C   UNL     1       4.276  42.641  51.340  1.00  0.00     0.227 A 
ATOM     13  N   UNL     1       5.229  43.424  50.844  1.00  0.00    -0.193 NA
ATOM     14  N   UNL     1       3.370  43.024  52.220  1.00  0.00    -0.191 NA
ATOM     15  C   UNL     1       5.229  44.715  51.255  1.00  0.00     0.164 A 
ATOM     16  C   UNL     1       3.398  44.283  52.645  1.00  0.00     0.185 A 
ATOM     17  C   UNL     1       4.334  45.228  52.203  1.00  0.00     0.150 A 
ATOM     18  N   UNL     1       2.473  44.625  53.545  1.00  0.00    -0.233 NA
ATOM     19  N   UNL     1       4.340  46.507  52.688  1.00  0.00    -0.247 NA
ATOM     20  C   UNL     1       2.478  45.893  54.015  1.00  0.00     0.133 A 
ATOM     21  C   UNL     1       3.398  46.822  53.596  1.00  0.00     0.132 A 
BRANCH  15  22
ATOM     22  N   UNL     1       6.257  45.499  50.687  1.00  0.00    -0.338 N 
ATOM     23  H   UNL     1       5.878  46.419  50.489  1.00  0.00     0.168 HD
BRANCH  22  24
ATOM     24  C   UNL     1       7.593  45.652  51.144  1.00  0.00     0.043 A 
ATOM     25  C   UNL     1       8.640  45.056  50.413  1.00  0.00    -0.028 A 
ATOM     26  C   UNL     1       7.911  46.478  52.236  1.00  0.00     0.029 A 
ATOM     27  C   UNL     1       9.970  45.276  50.804  1.00  0.00     0.006 A 
ATOM     28  C   UNL     1       9.240  46.678  52.635  1.00  0.00    -0.049 A 
ATOM     29  C   UNL     1      10.266  46.080  51.903  1.00  0.00     0.004 A 
ATOM     30  C   UNL     1       8.360  44.172  49.228  1.00  0.00     0.046 C 
ATOM     31  C   UNL     1       9.557  47.573  53.798  1.00  0.00     0.044 C 
ENDBRANCH  22  24
ENDBRANCH  15  22
ENDBRANCH   1  12
TORSDOF 6
ENDMDL
MODEL 8
REMARK VINA RESULT:    -8.955      2.166      2.634
REMARK INTER + INTRA:         -13.246
REMARK INTER:                 -12.609
REMARK INTRA:                  -0.637
REMARK UNBOUND:                -1.149
REMARK SMILES Cc1ccc(C)c(Nc2nc(NCC[NH+]3CCOCC3)nc3nccnc23)c1
REMARK SMILES IDX 12 1 13 3 14 4 15 5 16 6 20 7 17 8 19 9 18 10 11 12 10 13
REMARK SMILES IDX 21 14 9 15 22 16 27 17 23 18 26 19 24 20 25 21 8 22 7 24
REMARK SMILES IDX 5 25 28 26 4 27 2 28 3 29 6 30 1 31
REMARK H PARENT 12 2 15 11 8 23
ROOT
ATOM      1  N   UNL     1       4.144  44.990  55.422  1.00  0.00    -0.348 N 
ATOM      2  H   UNL     1       4.627  45.054  56.324  1.00  0.00     0.163 HD
ENDROOT
BRANCH   1   3
ATOM      3  C   UNL     1       2.875  45.734  55.400  1.00  0.00     0.177 C 
BRANCH   3   4
ATOM      4  C   UNL     1       1.671  44.762  55.392  1.00  0.00     0.283 C 
BRANCH   4   5
ATOM      5  N   UNL     1       0.466  45.466  55.992  1.00  0.00    -0.330 N 
ATOM      6  C   UNL     1      -0.792  44.621  56.016  1.00  0.00     0.291 C 
ATOM      7  C   UNL     1       0.741  46.080  57.349  1.00  0.00     0.291 C 
ATOM      8  C   UNL     1      -1.956  45.454  56.563  1.00  0.00     0.221 C 
ATOM      9  C   UNL     1      -0.504  46.834  57.830  1.00  0.00     0.221 C 
ATOM     10  O   UNL     1      -1.647  45.972  57.864  1.00  0.00    -0.370 OA
ATOM     11  H   UNL     1       0.297  46.243  55.325  1.00  0.00     0.348 HD
ENDBRANCH   4   5
ENDBRANCH   3   4
ENDBRANCH   1   3
BRANCH   1  12
ATOM     12  C   UNL     1       5.103  45.489  54.537  1.00  0.00     0.227 A 
ATOM     13  N   UNL     1       5.010  45.205  53.241  1.00  0.00    -0.193 NA
ATOM     14  N   UNL     1       6.089  46.172  55.088  1.00  0.00    -0.191 NA
ATOM     15  C   UNL     1       5.987  45.696  52.441  1.00  0.00     0.164 A 
ATOM     16  C   UNL     1       7.063  46.619  54.301  1.00  0.00     0.185 A 
ATOM     17  C   UNL     1       7.094  46.411  52.916  1.00  0.00     0.150 A 
ATOM     18  N   UNL     1       8.047  47.293  54.901  1.00  0.00    -0.233 NA
ATOM     19  N   UNL     1       8.131  46.868  52.149  1.00  0.00    -0.247 NA
ATOM     20  C   UNL     1       9.065  47.750  54.137  1.00  0.00     0.133 A 
ATOM     21  C   UNL     1       9.110  47.541  52.780  1.00  0.00     0.132 A 
BRANCH  15  22
ATOM     22  N   UNL     1       5.828  45.372  51.075  1.00  0.00    -0.338 N 
ATOM     23  H   UNL     1       6.436  45.977  50.535  1.00  0.00     0.168 HD
BRANCH  22  24
ATOM     24  C   UNL     1       5.830  44.083  50.478  1.00  0.00     0.043 A 
ATOM     25  C   UNL     1       6.977  43.653  49.780  1.00  0.00    -0.028 A 
ATOM     26  C   UNL     1       4.770  43.180  50.662  1.00  0.00     0.029 A 
ATOM     27  C   UNL     1       7.026  42.349  49.264  1.00  0.00     0.006 A 
ATOM     28  C   UNL     1       4.814  41.885  50.126  1.00  0.00    -0.049 A 
ATOM     29  C   UNL     1       5.955  41.473  49.437  1.00  0.00     0.004 A 
ATOM     30  C   UNL     1       8.148  44.573  49.562  1.00  0.00     0.046 C 
ATOM     31  C   UNL     1       3.673  40.934  50.345  1.00  0.00     0.044 C 
ENDBRANCH  22  24
ENDBRANCH  15  22
ENDBRANCH   1  12
TORSDOF 6
ENDMDL
MODEL 9
REMARK VINA RESULT:    -8.700      2.324      5.293
REMARK INTER + INTRA:         -12.901
REMARK INTER:                 -12.167
REMARK INTRA:                  -0.734
REMARK UNBOUND:                -1.149
REMARK SMILES Cc1ccc(C)c(Nc2nc(NCC[NH+]3CCOCC3)nc3nccnc23)c1
REMARK SMILES IDX 12 1 13 3 14 4 15 5 16 6 20 7 17 8 19 9 18 10 11 12 10 13
REMARK SMILES IDX 21 14 9 15 22 16 27 17 23 18 26 19 24 20 25 21 8 22 7 24
REMARK SMILES IDX 5 25 28 26 4 27 2 28 3 29 6 30 1 31
REMARK H PARENT 12 2 15 11 8 23
ROOT
ATOM      1  N   UNL     1       2.342  43.311  53.563  1.00  0.00    -0.348 N 
ATOM      2  H   UNL     1       2.571  43.992  54.294  1.00  0.00     0.163 HD
ENDROOT
BRANCH   1   3
ATOM      3  C   UNL     1       1.029  43.556  52.946  1.00  0.00     0.177 C 
BRANCH   3   4
ATOM      4  C   UNL     1       0.511  44.968  53.305  1.00  0.00     0.283 C 
BRANCH   4   5
ATOM      5  N   UNL     1      -0.941  44.864  53.742  1.00  0.00    -0.330 N 
ATOM      6  C   UNL     1      -1.766  43.899  52.914  1.00  0.00     0.291 C 
ATOM      7  C   UNL     1      -1.106  44.595  55.223  1.00  0.00     0.291 C 
ATOM      8  C   UNL     1      -3.222  43.936  53.389  1.00  0.00     0.221 C 
ATOM      9  C   UNL     1      -2.597  44.591  55.578  1.00  0.00     0.221 C 
ATOM     10  O   UNL     1      -3.312  43.635  54.787  1.00  0.00    -0.370 OA
ATOM     11  H   UNL     1      -1.307  45.816  53.554  1.00  0.00     0.348 HD
ENDBRANCH   4   5
ENDBRANCH   3   4
ENDBRANCH   1   3
BRANCH   1  12
ATOM     12  C   UNL     1       3.414  43.454  52.678  1.00  0.00     0.227 A 
ATOM     13  N   UNL     1       4.041  44.623  52.591  1.00  0.00    -0.193 NA
ATOM     14  N   UNL     1       3.686  42.398  51.934  1.00  0.00    -0.191 NA
ATOM     15  C   UNL     1       5.053  44.704  51.694  1.00  0.00     0.164 A 
ATOM     16  C   UNL     1       4.657  42.496  51.031  1.00  0.00     0.185 A 
ATOM     17  C   UNL     1       5.413  43.659  50.834  1.00  0.00     0.150 A 
ATOM     18  N   UNL     1       4.889  41.410  50.290  1.00  0.00    -0.233 NA
ATOM     19  N   UNL     1       6.387  43.722  49.874  1.00  0.00    -0.247 NA
ATOM     20  C   UNL     1       5.858  41.475  49.349  1.00  0.00     0.133 A 
ATOM     21  C   UNL     1       6.597  42.614  49.141  1.00  0.00     0.132 A 
BRANCH  15  22
ATOM     22  N   UNL     1       5.687  45.965  51.655  1.00  0.00    -0.338 N 
ATOM     23  H   UNL     1       4.991  46.674  51.862  1.00  0.00     0.168 HD
BRANCH  22  24
ATOM     24  C   UNL     1       6.911  46.348  52.266  1.00  0.00     0.043 A 
ATOM     25  C   UNL     1       6.887  46.901  53.562  1.00  0.00    -0.028 A 
ATOM     26  C   UNL     1       8.153  46.081  51.665  1.00  0.00     0.029 A 
ATOM     27  C   UNL     1       8.095  47.198  54.211  1.00  0.00     0.006 A 
ATOM     28  C   UNL     1       9.357  46.399  52.308  1.00  0.00    -0.049 A 
ATOM     29  C   UNL     1       9.318  46.948  53.590  1.00  0.00     0.004 A 
ATOM     30  C   UNL     1       5.587  47.197  54.260  1.00  0.00     0.046 C 
ATOM     31  C   UNL     1      10.672  46.095  51.650  1.00  0.00     0.044 C 
ENDBRANCH  22  24
ENDBRANCH  15  22
ENDBRANCH   1  12
TORSDOF 6
ENDMDL
MODEL 10
REMARK VINA RESULT:    -8.648      2.218      5.298
REMARK INTER + INTRA:         -12.831
REMARK INTER:                 -12.063
REMARK INTRA:                  -0.768
REMARK UNBOUND:                -1.149
REMARK SMILES Cc1ccc(C)c(Nc2nc(NCC[NH+]3CCOCC3)nc3nccnc23)c1
REMARK SMILES IDX 12 1 13 3 14 4 15 5 16 6 20 7 17 8 19 9 18 10 11 12 10 13
REMARK SMILES IDX 21 14 9 15 22 16 27 17 23 18 26 19 24 20 25 21 8 22 7 24
REMARK SMILES IDX 5 25 28 26 4 27 2 28 3 29 6 30 1 31
REMARK H PARENT 12 2 15 11 8 23
ROOT
ATOM      1  N   UNL     1       3.447  43.400  53.454  1.00  0.00    -0.348 N 
ATOM      2  H   UNL     1       3.852  44.154  54.019  1.00  0.00     0.163 HD
ENDROOT
BRANCH   1   3
ATOM      3  C   UNL     1       2.031  43.628  53.129  1.00  0.00     0.177 C 
BRANCH   3   4
ATOM      4  C   UNL     1       1.670  45.125  53.273  1.00  0.00     0.283 C 
BRANCH   4   5
ATOM      5  N   UNL     1       2.949  45.925  53.458  1.00  0.00    -0.330 N 
ATOM      6  C   UNL     1       2.967  47.241  52.707  1.00  0.00     0.291 C 
ATOM      7  C   UNL     1       3.334  46.116  54.910  1.00  0.00     0.291 C 
ATOM      8  C   UNL     1       4.327  47.919  52.899  1.00  0.00     0.221 C 
ATOM      9  C   UNL     1       4.673  46.857  54.989  1.00  0.00     0.221 C 
ATOM     10  O   UNL     1       4.613  48.107  54.291  1.00  0.00    -0.370 OA
ATOM     11  H   UNL     1       3.667  45.316  53.021  1.00  0.00     0.348 HD
ENDBRANCH   4   5
ENDBRANCH   3   4
ENDBRANCH   1   3
BRANCH   1  12
ATOM     12  C   UNL     1       4.285  43.384  52.336  1.00  0.00     0.227 A 
ATOM     13  N   UNL     1       5.079  44.424  52.098  1.00  0.00    -0.193 NA
ATOM     14  N   UNL     1       4.170  42.330  51.551  1.00  0.00    -0.191 NA
ATOM     15  C   UNL     1       5.846  44.358  50.982  1.00  0.00     0.164 A 
ATOM     16  C   UNL     1       4.899  42.290  50.440  1.00  0.00     0.185 A 
ATOM     17  C   UNL     1       5.790  43.303  50.062  1.00  0.00     0.150 A 
ATOM     18  N   UNL     1       4.742  41.212  49.667  1.00  0.00    -0.233 NA
ATOM     19  N   UNL     1       6.501  43.230  48.896  1.00  0.00    -0.247 NA
ATOM     20  C   UNL     1       5.454  41.141  48.519  1.00  0.00     0.133 A 
ATOM     21  C   UNL     1       6.320  42.135  48.135  1.00  0.00     0.132 A 
BRANCH  15  22
ATOM     22  N   UNL     1       6.675  45.485  50.788  1.00  0.00    -0.338 N 
ATOM     23  H   UNL     1       6.081  46.304  50.713  1.00  0.00     0.168 HD
BRANCH  22  24
ATOM     24  C   UNL     1       7.845  45.843  51.510  1.00  0.00     0.043 A 
ATOM     25  C   UNL     1       9.105  45.463  51.006  1.00  0.00    -0.028 A 
ATOM     26  C   UNL     1       7.789  46.666  52.648  1.00  0.00     0.029 A 
ATOM     27  C   UNL     1      10.270  45.889  51.661  1.00  0.00     0.006 A 
ATOM     28  C   UNL     1       8.955  47.072  53.312  1.00  0.00    -0.049 A 
ATOM     29  C   UNL     1      10.195  46.687  52.802  1.00  0.00     0.004 A 
ATOM     30  C   UNL     1       9.226  44.593  49.784  1.00  0.00     0.046 C 
ATOM     31  C   UNL     1       8.872  47.960  54.519  1.00  0.00     0.044 C 
ENDBRANCH  22  24
ENDBRANCH  15  22
ENDBRANCH   1  12
TORSDOF 6
ENDMDL
MODEL 11
REMARK VINA RESULT:    -8.588      3.222      6.937
REMARK INTER + INTRA:         -12.749
REMARK INTER:                 -12.057
REMARK INTRA:                  -0.692
REMARK UNBOUND:                -1.149
REMARK SMILES Cc1ccc(C)c(Nc2nc(NCC[NH+]3CCOCC3)nc3nccnc23)c1
REMARK SMILES IDX 12 1 13 3 14 4 15 5 16 6 20 7 17 8 19 9 18 10 11 12 10 13
REMARK SMILES IDX 21 14 9 15 22 16 27 17 23 18 26 19 24 20 25 21 8 22 7 24
REMARK SMILES IDX 5 25 28 26 4 27 2 28 3 29 6 30 1 31
REMARK H PARENT 12 2 15 11 8 23
ROOT
ATOM      1  N   UNL     1       6.109  41.866  50.038  1.00  0.00    -0.348 N 
ATOM      2  H   UNL     1       6.441  41.231  50.772  1.00  0.00     0.163 HD
ENDROOT
BRANCH   1   3
ATOM      3  C   UNL     1       5.351  41.174  48.984  1.00  0.00     0.177 C 
BRANCH   3   4
ATOM      4  C   UNL     1       5.636  41.804  47.601  1.00  0.00     0.283 C 
BRANCH   4   5
ATOM      5  N   UNL     1       5.031  40.921  46.523  1.00  0.00    -0.330 N 
ATOM      6  C   UNL     1       3.636  40.423  46.845  1.00  0.00     0.291 C 
ATOM      7  C   UNL     1       5.089  41.533  45.139  1.00  0.00     0.291 C 
ATOM      8  C   UNL     1       3.161  39.482  45.733  1.00  0.00     0.221 C 
ATOM      9  C   UNL     1       4.534  40.537  44.116  1.00  0.00     0.221 C 
ATOM     10  O   UNL     1       3.203  40.134  44.458  1.00  0.00    -0.370 OA
ATOM     11  H   UNL     1       5.657  40.093  46.525  1.00  0.00     0.348 HD
ENDBRANCH   4   5
ENDBRANCH   3   4
ENDBRANCH   1   3
BRANCH   1  12
ATOM     12  C   UNL     1       5.350  42.787  50.764  1.00  0.00     0.227 A 
ATOM     13  N   UNL     1       5.827  44.010  50.973  1.00  0.00    -0.193 NA
ATOM     14  N   UNL     1       4.211  42.331  51.250  1.00  0.00    -0.191 NA
ATOM     15  C   UNL     1       5.053  44.845  51.708  1.00  0.00     0.164 A 
ATOM     16  C   UNL     1       3.475  43.145  52.001  1.00  0.00     0.185 A 
ATOM     17  C   UNL     1       3.841  44.464  52.296  1.00  0.00     0.150 A 
ATOM     18  N   UNL     1       2.338  42.639  52.484  1.00  0.00    -0.233 NA
ATOM     19  N   UNL     1       3.063  45.258  53.095  1.00  0.00    -0.247 NA
ATOM     20  C   UNL     1       1.569  43.430  53.266  1.00  0.00     0.133 A 
ATOM     21  C   UNL     1       1.925  44.721  53.570  1.00  0.00     0.132 A 
BRANCH  15  22
ATOM     22  N   UNL     1       5.607  46.132  51.887  1.00  0.00    -0.338 N 
ATOM     23  H   UNL     1       4.895  46.727  52.296  1.00  0.00     0.168 HD
BRANCH  22  24
ATOM     24  C   UNL     1       6.861  46.472  52.462  1.00  0.00     0.043 A 
ATOM     25  C   UNL     1       6.904  46.916  53.799  1.00  0.00    -0.028 A 
ATOM     26  C   UNL     1       8.070  46.265  51.776  1.00  0.00     0.029 A 
ATOM     27  C   UNL     1       8.144  47.167  54.406  1.00  0.00     0.006 A 
ATOM     28  C   UNL     1       9.306  46.537  52.379  1.00  0.00    -0.049 A 
ATOM     29  C   UNL     1       9.333  46.978  53.703  1.00  0.00     0.004 A 
ATOM     30  C   UNL     1       5.642  47.144  54.587  1.00  0.00     0.046 C 
ATOM     31  C   UNL     1      10.585  46.299  51.631  1.00  0.00     0.044 C 
ENDBRANCH  22  24
ENDBRANCH  15  22
ENDBRANCH   1  12
TORSDOF 6
ENDMDL
MODEL 12
REMARK VINA RESULT:    -8.540      2.322      6.059
REMARK INTER + INTRA:         -12.685
REMARK INTER:                 -11.948
REMARK INTRA:                  -0.736
REMARK UNBOUND:                -1.149
REMARK SMILES Cc1ccc(C)c(Nc2nc(NCC[NH+]3CCOCC3)nc3nccnc23)c1
REMARK SMILES IDX 12 1 13 3 14 4 15 5 16 6 20 7 17 8 19 9 18 10 11 12 10 13
REMARK SMILES IDX 21 14 9 15 22 16 27 17 23 18 26 19 24 20 25 21 8 22 7 24
REMARK SMILES IDX 5 25 28 26 4 27 2 28 3 29 6 30 1 31
REMARK H PARENT 12 2 15 11 8 23
ROOT
ATOM      1  N   UNL     1       4.470  45.043  55.693  1.00  0.00    -0.348 N 
ATOM      2  H   UNL     1       4.258  44.216  56.261  1.00  0.00     0.163 HD
ENDROOT
BRANCH   1   3
ATOM      3  C   UNL     1       5.884  45.114  55.295  1.00  0.00     0.177 C 
BRANCH   3   4
ATOM      4  C   UNL     1       6.267  46.557  54.890  1.00  0.00     0.283 C 
BRANCH   4   5
ATOM      5  N   UNL     1       7.449  46.504  53.937  1.00  0.00    -0.330 N 
ATOM      6  C   UNL     1       7.131  46.978  52.533  1.00  0.00     0.291 C 
ATOM      7  C   UNL     1       8.690  47.184  54.478  1.00  0.00     0.291 C 
ATOM      8  C   UNL     1       8.366  46.805  51.644  1.00  0.00     0.221 C 
ATOM      9  C   UNL     1       9.844  47.005  53.486  1.00  0.00     0.221 C 
ATOM     10  O   UNL     1       9.492  47.505  52.190  1.00  0.00    -0.370 OA
ATOM     11  H   UNL     1       7.651  45.488  53.876  1.00  0.00     0.348 HD
ENDBRANCH   4   5
ENDBRANCH   3   4
ENDBRANCH   1   3
BRANCH   1  12
ATOM     12  C   UNL     1       3.589  44.898  54.618  1.00  0.00     0.227 A 
ATOM     13  N   UNL     1       4.073  44.807  53.383  1.00  0.00    -0.193 NA
ATOM     14  N   UNL     1       2.305  44.927  54.923  1.00  0.00    -0.191 NA
ATOM     15  C   UNL     1       3.165  44.697  52.383  1.00  0.00     0.164 A 
ATOM     16  C   UNL     1       1.421  44.854  53.933  1.00  0.00     0.185 A 
ATOM     17  C   UNL     1       1.780  44.741  52.583  1.00  0.00     0.150 A 
ATOM     18  N   UNL     1       0.134  44.901  54.284  1.00  0.00    -0.233 NA
ATOM     19  N   UNL     1       0.834  44.696  51.596  1.00  0.00    -0.247 NA
ATOM     20  C   UNL     1      -0.797  44.846  53.304  1.00  0.00     0.133 A 
ATOM     21  C   UNL     1      -0.455  44.747  51.978  1.00  0.00     0.132 A 
BRANCH  15  22
ATOM     22  N   UNL     1       3.738  44.593  51.096  1.00  0.00    -0.338 N 
ATOM     23  H   UNL     1       3.920  45.531  50.755  1.00  0.00     0.168 HD
BRANCH  22  24
ATOM     24  C   UNL     1       4.803  43.750  50.680  1.00  0.00     0.043 A 
ATOM     25  C   UNL     1       4.592  42.358  50.619  1.00  0.00    -0.028 A 
ATOM     26  C   UNL     1       6.022  44.272  50.215  1.00  0.00     0.029 A 
ATOM     27  C   UNL     1       5.606  41.524  50.123  1.00  0.00     0.006 A 
ATOM     28  C   UNL     1       7.041  43.434  49.740  1.00  0.00    -0.049 A 
ATOM     29  C   UNL     1       6.818  42.058  49.687  1.00  0.00     0.004 A 
ATOM     30  C   UNL     1       3.303  41.743  51.092  1.00  0.00     0.046 C 
ATOM     31  C   UNL     1       8.330  44.016  49.238  1.00  0.00     0.044 C 
ENDBRANCH  22  24
ENDBRANCH  15  22
ENDBRANCH   1  12
TORSDOF 6
ENDMDL
MODEL 13
REMARK VINA RESULT:    -8.540      3.547      6.650
REMARK INTER + INTRA:         -12.684
REMARK INTER:                 -12.037
REMARK INTRA:                  -0.647
REMARK UNBOUND:                -1.149
REMARK SMILES Cc1ccc(C)c(Nc2nc(NCC[NH+]3CCOCC3)nc3nccnc23)c1
REMARK SMILES IDX 12 1 13 3 14 4 15 5 16 6 20 7 17 8 19 9 18 10 11 12 10 13
REMARK SMILES IDX 21 14 9 15 22 16 27 17 23 18 26 19 24 20 25 21 8 22 7 24
REMARK SMILES IDX 5 25 28 26 4 27 2 28 3 29 6 30 1 31
REMARK H PARENT 12 2 15 11 8 23
ROOT
ATOM      1  N   UNL     1       5.633  41.230  49.814  1.00  0.00    -0.348 N 
ATOM      2  H   UNL     1       5.149  40.532  50.388  1.00  0.00     0.163 HD
ENDROOT
BRANCH   1   3
ATOM      3  C   UNL     1       5.198  41.214  48.409  1.00  0.00     0.177 C 
BRANCH   3   4
ATOM      4  C   UNL     1       3.842  40.485  48.264  1.00  0.00     0.283 C 
BRANCH   4   5
ATOM      5  N   UNL     1       3.834  39.716  46.954  1.00  0.00    -0.330 N 
ATOM      6  C   UNL     1       2.871  38.545  46.933  1.00  0.00     0.291 C 
ATOM      7  C   UNL     1       3.652  40.599  45.737  1.00  0.00     0.291 C 
ATOM      8  C   UNL     1       3.006  37.798  45.602  1.00  0.00     0.221 C 
ATOM      9  C   UNL     1       3.741  39.745  44.468  1.00  0.00     0.221 C 
ATOM     10  O   UNL     1       2.783  38.680  44.494  1.00  0.00    -0.370 OA
ATOM     11  H   UNL     1       4.793  39.320  46.913  1.00  0.00     0.348 HD
ENDBRANCH   4   5
ENDBRANCH   3   4
ENDBRANCH   1   3
BRANCH   1  12
ATOM     12  C   UNL     1       5.335  42.421  50.481  1.00  0.00     0.227 A 
ATOM     13  N   UNL     1       6.140  43.469  50.344  1.00  0.00    -0.193 NA
ATOM     14  N   UNL     1       4.275  42.385  51.268  1.00  0.00    -0.191 NA
ATOM     15  C   UNL     1       5.810  44.584  51.040  1.00  0.00     0.164 A 
ATOM     16  C   UNL     1       3.978  43.471  51.975  1.00  0.00     0.185 A 
ATOM     17  C   UNL     1       4.725  44.655  51.924  1.00  0.00     0.150 A 
ATOM     18  N   UNL     1       2.907  43.387  52.768  1.00  0.00    -0.233 NA
ATOM     19  N   UNL     1       4.396  45.740  52.689  1.00  0.00    -0.247 NA
ATOM     20  C   UNL     1       2.581  44.465  53.515  1.00  0.00     0.133 A 
ATOM     21  C   UNL     1       3.314  45.626  53.481  1.00  0.00     0.132 A 
BRANCH  15  22
ATOM     22  N   UNL     1       6.696  45.667  50.845  1.00  0.00    -0.338 N 
ATOM     23  H   UNL     1       6.149  46.520  50.812  1.00  0.00     0.168 HD
BRANCH  22  24
ATOM     24  C   UNL     1       7.908  45.938  51.533  1.00  0.00     0.043 A 
ATOM     25  C   UNL     1       9.127  45.511  50.969  1.00  0.00    -0.028 A 
ATOM     26  C   UNL     1       7.938  46.721  52.700  1.00  0.00     0.029 A 
ATOM     27  C   UNL     1      10.337  45.852  51.593  1.00  0.00     0.006 A 
ATOM     28  C   UNL     1       9.147  47.042  53.332  1.00  0.00    -0.049 A 
ATOM     29  C   UNL     1      10.346  46.611  52.763  1.00  0.00     0.004 A 
ATOM     30  C   UNL     1       9.158  44.680  49.715  1.00  0.00     0.046 C 
ATOM     31  C   UNL     1       9.155  47.889  54.571  1.00  0.00     0.044 C 
ENDBRANCH  22  24
ENDBRANCH  15  22
ENDBRANCH   1  12
TORSDOF 6
ENDMDL
MODEL 14
REMARK VINA RESULT:    -8.472      2.221      4.963
REMARK INTER + INTRA:         -12.593
REMARK INTER:                 -11.960
REMARK INTRA:                  -0.633
REMARK UNBOUND:                -1.149
REMARK SMILES Cc1ccc(C)c(Nc2nc(NCC[NH+]3CCOCC3)nc3nccnc23)c1
REMARK SMILES IDX 12 1 13 3 14 4 15 5 16 6 20 7 17 8 19 9 18 10 11 12 10 13
REMARK SMILES IDX 21 14 9 15 22 16 27 17 23 18 26 19 24 20 25 21 8 22 7 24
REMARK SMILES IDX 5 25 28 26 4 27 2 28 3 29 6 30 1 31
REMARK H PARENT 12 2 15 11 8 23
ROOT
ATOM      1  N   UNL     1       3.159  44.194  53.907  1.00  0.00    -0.348 N 
ATOM      2  H   UNL     1       3.666  44.915  54.431  1.00  0.00     0.163 HD
ENDROOT
BRANCH   1   3
ATOM      3  C   UNL     1       1.807  44.620  53.513  1.00  0.00     0.177 C 
BRANCH   3   4
ATOM      4  C   UNL     1       0.743  43.638  54.056  1.00  0.00     0.283 C 
BRANCH   4   5
ATOM      5  N   UNL     1      -0.615  44.020  53.492  1.00  0.00    -0.330 N 
ATOM      6  C   UNL     1      -1.631  44.414  54.546  1.00  0.00     0.291 C 
ATOM      7  C   UNL     1      -0.539  45.054  52.388  1.00  0.00     0.291 C 
ATOM      8  C   UNL     1      -2.978  44.699  53.874  1.00  0.00     0.221 C 
ATOM      9  C   UNL     1      -1.944  45.310  51.831  1.00  0.00     0.221 C 
ATOM     10  O   UNL     1      -2.845  45.713  52.869  1.00  0.00    -0.370 OA
ATOM     11  H   UNL     1      -0.947  43.133  53.067  1.00  0.00     0.348 HD
ENDBRANCH   4   5
ENDBRANCH   3   4
ENDBRANCH   1   3
BRANCH   1  12
ATOM     12  C   UNL     1       4.011  43.959  52.826  1.00  0.00     0.227 A 
ATOM     13  N   UNL     1       4.882  44.896  52.462  1.00  0.00    -0.193 NA
ATOM     14  N   UNL     1       3.833  42.813  52.196  1.00  0.00    -0.191 NA
ATOM     15  C   UNL     1       5.660  44.617  51.388  1.00  0.00     0.164 A 
ATOM     16  C   UNL     1       4.575  42.562  51.122  1.00  0.00     0.185 A 
ATOM     17  C   UNL     1       5.542  43.447  50.627  1.00  0.00     0.150 A 
ATOM     18  N   UNL     1       4.353  41.398  50.507  1.00  0.00    -0.233 NA
ATOM     19  N   UNL     1       6.265  43.156  49.502  1.00  0.00    -0.247 NA
ATOM     20  C   UNL     1       5.076  41.113  49.401  1.00  0.00     0.133 A 
ATOM     21  C   UNL     1       6.018  41.978  48.902  1.00  0.00     0.132 A 
BRANCH  15  22
ATOM     22  N   UNL     1       6.571  45.644  51.056  1.00  0.00    -0.338 N 
ATOM     23  H   UNL     1       6.047  46.504  50.937  1.00  0.00     0.168 HD
BRANCH  22  24
ATOM     24  C   UNL     1       7.804  45.955  51.689  1.00  0.00     0.043 A 
ATOM     25  C   UNL     1       9.009  45.567  51.069  1.00  0.00    -0.028 A 
ATOM     26  C   UNL     1       7.862  46.739  52.853  1.00  0.00     0.029 A 
ATOM     27  C   UNL     1      10.234  45.948  51.638  1.00  0.00     0.006 A 
ATOM     28  C   UNL     1       9.088  47.099  53.430  1.00  0.00    -0.049 A 
ATOM     29  C   UNL     1      10.273  46.708  52.806  1.00  0.00     0.004 A 
ATOM     30  C   UNL     1       9.010  44.736  49.814  1.00  0.00     0.046 C 
ATOM     31  C   UNL     1       9.124  47.947  54.668  1.00  0.00     0.044 C 
ENDBRANCH  22  24
ENDBRANCH  15  22
ENDBRANCH   1  12
TORSDOF 6
ENDMDL
MODEL 15
REMARK VINA RESULT:    -8.379      2.427      6.354
REMARK INTER + INTRA:         -12.467
REMARK INTER:                 -12.131
REMARK INTRA:                  -0.336
REMARK UNBOUND:                -1.149
REMARK SMILES Cc1ccc(C)c(Nc2nc(NCC[NH+]3CCOCC3)nc3nccnc23)c1
REMARK SMILES IDX 12 1 13 3 14 4 15 5 16 6 20 7 17 8 19 9 18 10 11 12 10 13
REMARK SMILES IDX 21 14 9 15 22 16 27 17 23 18 26 19 24 20 25 21 8 22 7 24
REMARK SMILES IDX 5 25 28 26 4 27 2 28 3 29 6 30 1 31
REMARK H PARENT 12 2 15 11 8 23
ROOT
ATOM      1  N   UNL     1       4.277  45.639  55.820  1.00  0.00    -0.348 N 
ATOM      2  H   UNL     1       4.221  45.128  56.707  1.00  0.00     0.163 HD
ENDROOT
BRANCH   1   3
ATOM      3  C   UNL     1       5.580  45.485  55.155  1.00  0.00     0.177 C 
BRANCH   3   4
ATOM      4  C   UNL     1       6.071  46.840  54.593  1.00  0.00     0.283 C 
BRANCH   4   5
ATOM      5  N   UNL     1       7.394  46.627  53.877  1.00  0.00    -0.330 N 
ATOM      6  C   UNL     1       7.366  46.999  52.408  1.00  0.00     0.291 C 
ATOM      7  C   UNL     1       8.571  47.265  54.583  1.00  0.00     0.291 C 
ATOM      8  C   UNL     1       8.721  46.668  51.772  1.00  0.00     0.221 C 
ATOM      9  C   UNL     1       9.863  46.924  53.833  1.00  0.00     0.221 C 
ATOM     10  O   UNL     1       9.786  47.334  52.462  1.00  0.00    -0.370 OA
ATOM     11  H   UNL     1       7.519  45.597  53.926  1.00  0.00     0.348 HD
ENDBRANCH   4   5
ENDBRANCH   3   4
ENDBRANCH   1   3
BRANCH   1  12
ATOM     12  C   UNL     1       3.211  45.096  55.098  1.00  0.00     0.227 A 
ATOM     13  N   UNL     1       3.402  44.703  53.843  1.00  0.00    -0.193 NA
ATOM     14  N   UNL     1       2.049  45.076  55.724  1.00  0.00    -0.191 NA
ATOM     15  C   UNL     1       2.321  44.212  53.189  1.00  0.00     0.164 A 
ATOM     16  C   UNL     1       0.986  44.626  55.064  1.00  0.00     0.185 A 
ATOM     17  C   UNL     1       1.035  44.166  53.742  1.00  0.00     0.150 A 
ATOM     18  N   UNL     1      -0.172  44.636  55.729  1.00  0.00    -0.233 NA
ATOM     19  N   UNL     1      -0.091  43.736  53.094  1.00  0.00    -0.247 NA
ATOM     20  C   UNL     1      -1.280  44.202  55.087  1.00  0.00     0.133 A 
ATOM     21  C   UNL     1      -1.244  43.760  53.787  1.00  0.00     0.132 A 
BRANCH  15  22
ATOM     22  N   UNL     1       2.588  43.800  51.865  1.00  0.00    -0.338 N 
ATOM     23  H   UNL     1       1.884  44.208  51.260  1.00  0.00     0.168 HD
BRANCH  22  24
ATOM     24  C   UNL     1       3.832  43.817  51.180  1.00  0.00     0.043 A 
ATOM     25  C   UNL     1       4.401  45.056  50.822  1.00  0.00    -0.028 A 
ATOM     26  C   UNL     1       4.568  42.642  50.953  1.00  0.00     0.029 A 
ATOM     27  C   UNL     1       5.671  45.089  50.226  1.00  0.00     0.006 A 
ATOM     28  C   UNL     1       5.828  42.677  50.338  1.00  0.00    -0.049 A 
ATOM     29  C   UNL     1       6.378  43.910  49.988  1.00  0.00     0.004 A 
ATOM     30  C   UNL     1       3.665  46.348  51.051  1.00  0.00     0.046 C 
ATOM     31  C   UNL     1       6.600  41.409  50.116  1.00  0.00     0.044 C 
ENDBRANCH  22  24
ENDBRANCH  15  22
ENDBRANCH   1  12
TORSDOF 6
ENDMDL
MODEL 16
REMARK VINA RESULT:    -8.180      2.602      4.542
REMARK INTER + INTRA:         -12.199
REMARK INTER:                 -10.953
REMARK INTRA:                  -1.246
REMARK UNBOUND:                -1.149
REMARK SMILES Cc1ccc(C)c(Nc2nc(NCC[NH+]3CCOCC3)nc3nccnc23)c1
REMARK SMILES IDX 12 1 13 3 14 4 15 5 16 6 20 7 17 8 19 9 18 10 11 12 10 13
REMARK SMILES IDX 21 14 9 15 22 16 27 17 23 18 26 19 24 20 25 21 8 22 7 24
REMARK SMILES IDX 5 25 28 26 4 27 2 28 3 29 6 30 1 31
REMARK H PARENT 12 2 15 11 8 23
ROOT
ATOM      1  N   UNL     1      -0.102  44.628  51.229  1.00  0.00    -0.348 N 
ATOM      2  H   UNL     1      -0.168  43.604  51.229  1.00  0.00     0.163 HD
ENDROOT
BRANCH   1   3
ATOM      3  C   UNL     1      -1.076  45.261  52.132  1.00  0.00     0.177 C 
BRANCH   3   4
ATOM      4  C   UNL     1      -1.314  44.384  53.383  1.00  0.00     0.283 C 
BRANCH   4   5
ATOM      5  N   UNL     1      -0.676  45.058  54.586  1.00  0.00    -0.330 N 
ATOM      6  C   UNL     1      -1.628  45.275  55.746  1.00  0.00     0.291 C 
ATOM      7  C   UNL     1       0.603  44.389  55.043  1.00  0.00     0.291 C 
ATOM      8  C   UNL     1      -0.903  46.031  56.865  1.00  0.00     0.221 C 
ATOM      9  C   UNL     1       1.210  45.188  56.202  1.00  0.00     0.221 C 
ATOM     10  O   UNL     1       0.275  45.326  57.278  1.00  0.00    -0.370 OA
ATOM     11  H   UNL     1      -0.426  45.996  54.219  1.00  0.00     0.348 HD
ENDBRANCH   4   5
ENDBRANCH   3   4
ENDBRANCH   1   3
BRANCH   1  12
ATOM     12  C   UNL     1       1.228  44.840  51.600  1.00  0.00     0.227 A 
ATOM     13  N   UNL     1       2.100  43.840  51.514  1.00  0.00    -0.193 NA
ATOM     14  N   UNL     1       1.504  46.038  52.078  1.00  0.00    -0.191 NA
ATOM     15  C   UNL     1       3.367  44.103  51.915  1.00  0.00     0.164 A 
ATOM     16  C   UNL     1       2.740  46.278  52.503  1.00  0.00     0.185 A 
ATOM     17  C   UNL     1       3.769  45.328  52.463  1.00  0.00     0.150 A 
ATOM     18  N   UNL     1       2.972  47.498  52.993  1.00  0.00    -0.233 NA
ATOM     19  N   UNL     1       5.021  45.612  52.936  1.00  0.00    -0.247 NA
ATOM     20  C   UNL     1       4.214  47.776  53.451  1.00  0.00     0.133 A 
ATOM     21  C   UNL     1       5.226  46.847  53.426  1.00  0.00     0.132 A 
BRANCH  15  22
ATOM     22  N   UNL     1       4.248  43.007  51.790  1.00  0.00    -0.338 N 
ATOM     23  H   UNL     1       3.743  42.165  52.045  1.00  0.00     0.168 HD
BRANCH  22  24
ATOM     24  C   UNL     1       5.112  42.700  50.705  1.00  0.00     0.043 A 
ATOM     25  C   UNL     1       4.750  41.674  49.809  1.00  0.00    -0.028 A 
ATOM     26  C   UNL     1       6.258  43.467  50.431  1.00  0.00     0.029 A 
ATOM     27  C   UNL     1       5.549  41.423  48.683  1.00  0.00     0.006 A 
ATOM     28  C   UNL     1       7.065  43.199  49.317  1.00  0.00    -0.049 A 
ATOM     29  C   UNL     1       6.695  42.180  48.439  1.00  0.00     0.004 A 
ATOM     30  C   UNL     1       3.528  40.828  50.044  1.00  0.00     0.046 C 
ATOM     31  C   UNL     1       8.278  44.039  49.039  1.00  0.00     0.044 C 
ENDBRANCH  22  24
ENDBRANCH  15  22
ENDBRANCH   1  12
TORSDOF 6
ENDMDL
MODEL 17
REMARK VINA RESULT:    -8.099      1.784      2.845
REMARK INTER + INTRA:         -12.089
REMARK INTER:                 -11.014
REMARK INTRA:                  -1.075
REMARK UNBOUND:                -1.149
REMARK SMILES Cc1ccc(C)c(Nc2nc(NCC[NH+]3CCOCC3)nc3nccnc23)c1
REMARK SMILES IDX 12 1 13 3 14 4 15 5 16 6 20 7 17 8 19 9 18 10 11 12 10 13
REMARK SMILES IDX 21 14 9 15 22 16 27 17 23 18 26 19 24 20 25 21 8 22 7 24
REMARK SMILES IDX 5 25 28 26 4 27 2 28 3 29 6 30 1 31
REMARK H PARENT 12 2 15 11 8 23
ROOT
ATOM      1  N   UNL     1       3.480  46.422  55.771  1.00  0.00    -0.348 N 
ATOM      2  H   UNL     1       3.027  47.340  55.702  1.00  0.00     0.163 HD
ENDROOT
BRANCH   1   3
ATOM      3  C   UNL     1       2.520  45.308  55.717  1.00  0.00     0.177 C 
BRANCH   3   4
ATOM      4  C   UNL     1       1.220  45.668  56.474  1.00  0.00     0.283 C 
BRANCH   4   5
ATOM      5  N   UNL     1       0.028  45.223  55.644  1.00  0.00    -0.330 N 
ATOM      6  C   UNL     1       0.374  44.236  54.547  1.00  0.00     0.291 C 
ATOM      7  C   UNL     1      -1.136  44.731  56.478  1.00  0.00     0.291 C 
ATOM      8  C   UNL     1      -0.882  43.922  53.728  1.00  0.00     0.221 C 
ATOM      9  C   UNL     1      -2.313  44.387  55.558  1.00  0.00     0.221 C 
ATOM     10  O   UNL     1      -1.930  43.424  54.569  1.00  0.00    -0.370 OA
ATOM     11  H   UNL     1      -0.270  46.102  55.178  1.00  0.00     0.348 HD
ENDBRANCH   4   5
ENDBRANCH   3   4
ENDBRANCH   1   3
BRANCH   1  12
ATOM     12  C   UNL     1       4.370  46.449  54.694  1.00  0.00     0.227 A 
ATOM     13  N   UNL     1       4.022  45.885  53.542  1.00  0.00    -0.193 NA
ATOM     14  N   UNL     1       5.545  46.998  54.938  1.00  0.00    -0.191 NA
ATOM     15  C   UNL     1       4.941  45.921  52.547  1.00  0.00     0.164 A 
ATOM     16  C   UNL     1       6.454  46.998  53.968  1.00  0.00     0.185 A 
ATOM     17  C   UNL     1       6.228  46.453  52.698  1.00  0.00     0.150 A 
ATOM     18  N   UNL     1       7.634  47.551  54.262  1.00  0.00    -0.233 NA
ATOM     19  N   UNL     1       7.204  46.453  51.738  1.00  0.00    -0.247 NA
ATOM     20  C   UNL     1       8.591  47.555  53.307  1.00  0.00     0.133 A 
ATOM     21  C   UNL     1       8.383  47.013  52.062  1.00  0.00     0.132 A 
BRANCH  15  22
ATOM     22  N   UNL     1       4.511  45.316  51.345  1.00  0.00    -0.338 N 
ATOM     23  H   UNL     1       4.927  45.822  50.571  1.00  0.00     0.168 HD
BRANCH  22  24
ATOM     24  C   UNL     1       4.495  43.933  51.021  1.00  0.00     0.043 A 
ATOM     25  C   UNL     1       3.257  43.266  50.925  1.00  0.00    -0.028 A 
ATOM     26  C   UNL     1       5.668  43.239  50.678  1.00  0.00     0.029 A 
ATOM     27  C   UNL     1       3.223  41.924  50.516  1.00  0.00     0.006 A 
ATOM     28  C   UNL     1       5.632  41.893  50.291  1.00  0.00    -0.049 A 
ATOM     29  C   UNL     1       4.399  41.245  50.201  1.00  0.00     0.004 A 
ATOM     30  C   UNL     1       1.967  43.961  51.268  1.00  0.00     0.046 C 
ATOM     31  C   UNL     1       6.897  41.175  49.918  1.00  0.00     0.044 C 
ENDBRANCH  22  24
ENDBRANCH  15  22
ENDBRANCH   1  12
TORSDOF 6
ENDMDL
MODEL 18
REMARK VINA RESULT:    -8.047      1.437      2.548
REMARK INTER + INTRA:         -12.019
REMARK INTER:                 -11.780
REMARK INTRA:                  -0.240
REMARK UNBOUND:                -1.149
REMARK SMILES Cc1ccc(C)c(Nc2nc(NCC[NH+]3CCOCC3)nc3nccnc23)c1
REMARK SMILES IDX 12 1 13 3 14 4 15 5 16 6 20 7 17 8 19 9 18 10 11 12 10 13
REMARK SMILES IDX 21 14 9 15 22 16 27 17 23 18 26 19 24 20 25 21 8 22 7 24
REMARK SMILES IDX 5 25 28 26 4 27 2 28 3 29 6 30 1 31
REMARK H PARENT 12 2 15 11 8 23
ROOT
ATOM      1  N   UNL     1       3.140  45.740  55.952  1.00  0.00    -0.348 N 
ATOM      2  H   UNL     1       2.810  46.700  56.096  1.00  0.00     0.163 HD
ENDROOT
BRANCH   1   3
ATOM      3  C   UNL     1       2.059  44.816  55.574  1.00  0.00     0.177 C 
BRANCH   3   4
ATOM      4  C   UNL     1       0.913  45.575  54.864  1.00  0.00     0.283 C 
BRANCH   4   5
ATOM      5  N   UNL     1       0.190  44.617  53.933  1.00  0.00    -0.330 N 
ATOM      6  C   UNL     1       0.858  43.263  53.802  1.00  0.00     0.291 C 
ATOM      7  C   UNL     1      -1.285  44.474  54.243  1.00  0.00     0.291 C 
ATOM      8  C   UNL     1       0.093  42.413  52.782  1.00  0.00     0.221 C 
ATOM      9  C   UNL     1      -1.939  43.558  53.203  1.00  0.00     0.221 C 
ATOM     10  O   UNL     1      -1.285  42.284  53.155  1.00  0.00    -0.370 OA
ATOM     11  H   UNL     1       0.272  45.086  53.010  1.00  0.00     0.348 HD
ENDBRANCH   4   5
ENDBRANCH   3   4
ENDBRANCH   1   3
BRANCH   1  12
ATOM     12  C   UNL     1       4.109  45.906  54.959  1.00  0.00     0.227 A 
ATOM     13  N   UNL     1       3.912  45.378  53.756  1.00  0.00    -0.193 NA
ATOM     14  N   UNL     1       5.204  46.542  55.331  1.00  0.00    -0.191 NA
ATOM     15  C   UNL     1       4.903  45.550  52.847  1.00  0.00     0.164 A 
ATOM     16  C   UNL     1       6.187  46.676  54.446  1.00  0.00     0.185 A 
ATOM     17  C   UNL     1       6.118  46.185  53.135  1.00  0.00     0.150 A 
ATOM     18  N   UNL     1       7.281  47.314  54.867  1.00  0.00    -0.233 NA
ATOM     19  N   UNL     1       7.165  46.324  52.266  1.00  0.00    -0.247 NA
ATOM     20  C   UNL     1       8.310  47.456  54.001  1.00  0.00     0.133 A 
ATOM     21  C   UNL     1       8.256  46.968  52.718  1.00  0.00     0.132 A 
BRANCH  15  22
ATOM     22  N   UNL     1       4.632  44.977  51.585  1.00  0.00    -0.338 N 
ATOM     23  H   UNL     1       4.415  45.728  50.939  1.00  0.00     0.168 HD
BRANCH  22  24
ATOM     24  C   UNL     1       5.385  43.992  50.894  1.00  0.00     0.043 A 
ATOM     25  C   UNL     1       4.903  42.668  50.845  1.00  0.00    -0.028 A 
ATOM     26  C   UNL     1       6.535  44.322  50.157  1.00  0.00     0.029 A 
ATOM     27  C   UNL     1       5.591  41.707  50.089  1.00  0.00     0.006 A 
ATOM     28  C   UNL     1       7.232  43.354  49.420  1.00  0.00    -0.049 A 
ATOM     29  C   UNL     1       6.743  42.047  49.382  1.00  0.00     0.004 A 
ATOM     30  C   UNL     1       3.670  42.259  51.605  1.00  0.00     0.046 C 
ATOM     31  C   UNL     1       8.452  43.732  48.631  1.00  0.00     0.044 C 
ENDBRANCH  22  24
ENDBRANCH  15  22
ENDBRANCH   1  12
TORSDOF 6
ENDMDL
MODEL 19
REMARK VINA RESULT:    -8.043      2.515      6.162
REMARK INTER + INTRA:         -12.014
REMARK INTER:                 -11.403
REMARK INTRA:                  -0.610
REMARK UNBOUND:                -1.149
REMARK SMILES Cc1ccc(C)c(Nc2nc(NCC[NH+]3CCOCC3)nc3nccnc23)c1
REMARK SMILES IDX 12 1 13 3 14 4 15 5 16 6 20 7 17 8 19 9 18 10 11 12 10 13
REMARK SMILES IDX 21 14 9 15 22 16 27 17 23 18 26 19 24 20 25 21 8 22 7 24
REMARK SMILES IDX 5 25 28 26 4 27 2 28 3 29 6 30 1 31
REMARK H PARENT 12 2 15 11 8 23
ROOT
ATOM      1  N   UNL     1       3.729  46.740  54.271  1.00  0.00    -0.348 N 
ATOM      2  H   UNL     1       3.871  46.301  55.187  1.00  0.00     0.163 HD
ENDROOT
BRANCH   1   3
ATOM      3  C   UNL     1       4.990  47.137  53.626  1.00  0.00     0.177 C 
BRANCH   3   4
ATOM      4  C   UNL     1       6.194  46.848  54.553  1.00  0.00     0.283 C 
BRANCH   4   5
ATOM      5  N   UNL     1       7.426  46.601  53.699  1.00  0.00    -0.330 N 
ATOM      6  C   UNL     1       7.271  47.035  52.255  1.00  0.00     0.291 C 
ATOM      7  C   UNL     1       8.699  47.153  54.305  1.00  0.00     0.291 C 
ATOM      8  C   UNL     1       8.536  46.667  51.473  1.00  0.00     0.221 C 
ATOM      9  C   UNL     1       9.890  46.782  53.415  1.00  0.00     0.221 C 
ATOM     10  O   UNL     1       9.698  47.252  52.075  1.00  0.00    -0.370 OA
ATOM     11  H   UNL     1       7.502  45.566  53.698  1.00  0.00     0.348 HD
ENDBRANCH   4   5
ENDBRANCH   3   4
ENDBRANCH   1   3
BRANCH   1  12
ATOM     12  C   UNL     1       3.028  45.751  53.575  1.00  0.00     0.227 A 
ATOM     13  N   UNL     1       3.651  44.630  53.225  1.00  0.00    -0.193 NA
ATOM     14  N   UNL     1       1.782  46.049  53.259  1.00  0.00    -0.191 NA
ATOM     15  C   UNL     1       2.924  43.724  52.527  1.00  0.00     0.164 A 
ATOM     16  C   UNL     1       1.086  45.171  52.543  1.00  0.00     0.185 A 
ATOM     17  C   UNL     1       1.603  43.942  52.113  1.00  0.00     0.150 A 
ATOM     18  N   UNL     1      -0.165  45.519  52.233  1.00  0.00    -0.233 NA
ATOM     19  N   UNL     1       0.858  43.080  51.356  1.00  0.00    -0.247 NA
ATOM     20  C   UNL     1      -0.900  44.659  51.492  1.00  0.00     0.133 A 
ATOM     21  C   UNL     1      -0.398  43.457  51.056  1.00  0.00     0.132 A 
BRANCH  15  22
ATOM     22  N   UNL     1       3.635  42.551  52.194  1.00  0.00    -0.338 N 
ATOM     23  H   UNL     1       3.141  41.759  52.591  1.00  0.00     0.168 HD
BRANCH  22  24
ATOM     24  C   UNL     1       4.145  42.170  50.924  1.00  0.00     0.043 A 
ATOM     25  C   UNL     1       5.347  42.746  50.467  1.00  0.00    -0.028 A 
ATOM     26  C   UNL     1       3.550  41.149  50.163  1.00  0.00     0.029 A 
ATOM     27  C   UNL     1       5.908  42.311  49.256  1.00  0.00     0.006 A 
ATOM     28  C   UNL     1       4.102  40.731  48.944  1.00  0.00    -0.049 A 
ATOM     29  C   UNL     1       5.291  41.312  48.503  1.00  0.00     0.004 A 
ATOM     30  C   UNL     1       6.035  43.835  51.244  1.00  0.00     0.046 C 
ATOM     31  C   UNL     1       3.454  39.631  48.155  1.00  0.00     0.044 C 
ENDBRANCH  22  24
ENDBRANCH  15  22
ENDBRANCH   1  12
TORSDOF 6
ENDMDL
