MODEL 1
REMARK VINA RESULT:    -8.989      0.000      0.000
REMARK INTER + INTRA:         -12.856
REMARK INTER:                 -12.142
REMARK INTRA:                  -0.715
REMARK UNBOUND:                -0.715
REMARK SMILES COc1ccc(Nc2nc(NC[C@@H]3CCCO3)nc3nccnc23)cc1
REMARK SMILES IDX 8 1 9 2 10 3 18 4 19 5 20 6 21 7 22 8 23 9 24 10 7 11 6 13
REMARK SMILES IDX 3 14 4 15 26 16 5 17 25 18 2 19 1 20 11 21 12 23 13 24 14 25
REMARK SMILES IDX 17 26 15 27 16 28
REMARK H PARENT 7 12 11 22
ROOT
ATOM      1  C   UNL     1       6.502  45.924  52.457  1.00  0.00     0.164 A 
ATOM      2  N   UNL     1       5.314  46.096  53.071  1.00  0.00    -0.193 NA
ATOM      3  C   UNL     1       5.316  46.705  54.254  1.00  0.00     0.226 A 
ATOM      4  N   UNL     1       6.409  47.170  54.843  1.00  0.00    -0.191 NA
ATOM      5  C   UNL     1       7.571  47.026  54.216  1.00  0.00     0.185 A 
ATOM      6  N   UNL     1       8.646  47.530  54.836  1.00  0.00    -0.233 NA
ATOM      7  C   UNL     1       9.846  47.418  54.225  1.00  0.00     0.133 A 
ATOM      8  C   UNL     1       9.989  46.811  53.001  1.00  0.00     0.132 A 
ATOM      9  N   UNL     1       8.933  46.293  52.354  1.00  0.00    -0.247 NA
ATOM     10  C   UNL     1       7.711  46.397  52.972  1.00  0.00     0.150 A 
ENDROOT
BRANCH   1  11
ATOM     11  N   UNL     1       6.405  45.271  51.207  1.00  0.00    -0.338 N 
ATOM     12  H   UNL     1       6.102  45.981  50.543  1.00  0.00     0.168 HD
BRANCH  11  13
ATOM     13  C   UNL     1       5.786  44.040  50.902  1.00  0.00     0.040 A 
ATOM     14  C   UNL     1       4.603  41.592  50.127  1.00  0.00     0.119 A 
ATOM     15  C   UNL     1       3.998  42.405  51.085  1.00  0.00     0.048 A 
ATOM     16  C   UNL     1       5.798  42.008  49.546  1.00  0.00     0.048 A 
ATOM     17  C   UNL     1       4.579  43.620  51.467  1.00  0.00     0.030 A 
ATOM     18  C   UNL     1       6.378  43.225  49.928  1.00  0.00     0.030 A 
BRANCH  14  19
ATOM     19  O   UNL     1       3.930  40.435  49.849  1.00  0.00    -0.497 OA
ATOM     20  C   UNL     1       3.565  40.216  48.492  1.00  0.00     0.278 C 
ENDBRANCH  14  19
ENDBRANCH  11  13
ENDBRANCH   1  11
BRANCH   3  21
ATOM     21  N   UNL     1       4.135  46.880  54.960  1.00  0.00    -0.351 N 
ATOM     22  H   UNL     1       3.592  47.547  54.417  1.00  0.00     0.163 HD
BRANCH  21  23
ATOM     23  C   UNL     1       3.437  45.644  55.288  1.00  0.00     0.148 C 
BRANCH  23  24
ATOM     24  C   UNL     1       1.962  45.717  54.847  1.00  0.00     0.137 C 
ATOM     25  C   UNL     1       1.246  44.372  54.894  1.00  0.00     0.036 C 
ATOM     26  O   UNL     1       1.908  46.160  53.474  1.00  0.00    -0.376 OA
ATOM     27  C   UNL     1       1.431  43.846  53.493  1.00  0.00     0.031 C 
ATOM     28  C   UNL     1       1.345  45.112  52.673  1.00  0.00     0.160 C 
ENDBRANCH  23  24
ENDBRANCH  21  23
ENDBRANCH   3  21
TORSDOF 6
ENDMDL
MODEL 2
REMARK VINA RESULT:    -8.528      2.722      5.816
REMARK INTER + INTRA:         -12.234
REMARK INTER:                 -11.449
REMARK INTRA:                  -0.785
REMARK UNBOUND:                -0.715
REMARK SMILES COc1ccc(Nc2nc(NC[C@@H]3CCCO3)nc3nccnc23)cc1
REMARK SMILES IDX 8 1 9 2 10 3 18 4 19 5 20 6 21 7 22 8 23 9 24 10 7 11 6 13
REMARK SMILES IDX 3 14 4 15 26 16 5 17 25 18 2 19 1 20 11 21 12 23 13 24 14 25
REMARK SMILES IDX 17 26 15 27 16 28
REMARK H PARENT 7 12 11 22
ROOT
ATOM      1  C   UNL     1       4.870  44.625  51.610  1.00  0.00     0.164 A 
ATOM      2  N   UNL     1       3.964  44.619  52.608  1.00  0.00    -0.193 NA
ATOM      3  C   UNL     1       3.283  43.494  52.813  1.00  0.00     0.226 A 
ATOM      4  N   UNL     1       3.464  42.384  52.111  1.00  0.00    -0.191 NA
ATOM      5  C   UNL     1       4.381  42.389  51.151  1.00  0.00     0.185 A 
ATOM      6  N   UNL     1       4.546  41.240  50.483  1.00  0.00    -0.233 NA
ATOM      7  C   UNL     1       5.481  41.197  49.508  1.00  0.00     0.133 A 
ATOM      8  C   UNL     1       6.256  42.286  49.191  1.00  0.00     0.132 A 
ATOM      9  N   UNL     1       6.115  43.453  49.840  1.00  0.00    -0.247 NA
ATOM     10  C   UNL     1       5.162  43.506  50.826  1.00  0.00     0.150 A 
ENDROOT
BRANCH   1  11
ATOM     11  N   UNL     1       5.548  45.857  51.466  1.00  0.00    -0.338 N 
ATOM     12  H   UNL     1       5.599  46.032  50.465  1.00  0.00     0.168 HD
BRANCH  11  13
ATOM     13  C   UNL     1       6.742  46.284  52.086  1.00  0.00     0.040 A 
ATOM     14  C   UNL     1       9.220  47.020  53.231  1.00  0.00     0.119 A 
ATOM     15  C   UNL     1       8.045  47.067  53.981  1.00  0.00     0.048 A 
ATOM     16  C   UNL     1       9.158  46.594  51.906  1.00  0.00     0.048 A 
ATOM     17  C   UNL     1       6.817  46.699  53.418  1.00  0.00     0.030 A 
ATOM     18  C   UNL     1       7.930  46.224  51.344  1.00  0.00     0.030 A 
BRANCH  14  19
ATOM     19  O   UNL     1      10.346  47.408  53.902  1.00  0.00    -0.497 OA
ATOM     20  C   UNL     1      10.276  47.408  55.323  1.00  0.00     0.278 C 
ENDBRANCH  14  19
ENDBRANCH  11  13
ENDBRANCH   1  11
BRANCH   3  21
ATOM     21  N   UNL     1       2.307  43.429  53.796  1.00  0.00    -0.351 N 
ATOM     22  H   UNL     1       2.131  44.393  54.066  1.00  0.00     0.163 HD
BRANCH  21  23
ATOM     23  C   UNL     1       1.120  42.670  53.423  1.00  0.00     0.148 C 
BRANCH  23  24
ATOM     24  C   UNL     1      -0.102  43.599  53.295  1.00  0.00     0.137 C 
ATOM     25  C   UNL     1       0.065  44.929  54.019  1.00  0.00     0.036 C 
ATOM     26  O   UNL     1      -1.245  42.950  53.893  1.00  0.00    -0.376 OA
ATOM     27  C   UNL     1      -0.539  44.651  55.372  1.00  0.00     0.031 C 
ATOM     28  C   UNL     1      -1.680  43.725  55.018  1.00  0.00     0.160 C 
ENDBRANCH  23  24
ENDBRANCH  21  23
ENDBRANCH   3  21
TORSDOF 6
ENDMDL
MODEL 3
REMARK VINA RESULT:    -8.497      2.600      5.800
REMARK INTER + INTRA:         -12.192
REMARK INTER:                 -11.422
REMARK INTRA:                  -0.770
REMARK UNBOUND:                -0.715
REMARK SMILES COc1ccc(Nc2nc(NC[C@@H]3CCCO3)nc3nccnc23)cc1
REMARK SMILES IDX 8 1 9 2 10 3 18 4 19 5 20 6 21 7 22 8 23 9 24 10 7 11 6 13
REMARK SMILES IDX 3 14 4 15 26 16 5 17 25 18 2 19 1 20 11 21 12 23 13 24 14 25
REMARK SMILES IDX 17 26 15 27 16 28
REMARK H PARENT 7 12 11 22
ROOT
ATOM      1  C   UNL     1       5.390  42.974  50.648  1.00  0.00     0.164 A 
ATOM      2  N   UNL     1       6.389  43.870  50.522  1.00  0.00    -0.193 NA
ATOM      3  C   UNL     1       6.257  45.031  51.160  1.00  0.00     0.226 A 
ATOM      4  N   UNL     1       5.220  45.339  51.925  1.00  0.00    -0.191 NA
ATOM      5  C   UNL     1       4.255  44.438  52.070  1.00  0.00     0.185 A 
ATOM      6  N   UNL     1       3.237  44.782  52.869  1.00  0.00    -0.233 NA
ATOM      7  C   UNL     1       2.242  43.887  53.056  1.00  0.00     0.133 A 
ATOM      8  C   UNL     1       2.249  42.651  52.458  1.00  0.00     0.132 A 
ATOM      9  N   UNL     1       3.253  42.275  51.649  1.00  0.00    -0.247 NA
ATOM     10  C   UNL     1       4.264  43.182  51.449  1.00  0.00     0.150 A 
ENDROOT
BRANCH   1  11
ATOM     11  N   UNL     1       5.614  41.771  49.940  1.00  0.00    -0.338 N 
ATOM     12  H   UNL     1       6.615  41.593  50.001  1.00  0.00     0.168 HD
BRANCH  11  13
ATOM     13  C   UNL     1       5.142  41.400  48.663  1.00  0.00     0.040 A 
ATOM     14  C   UNL     1       4.248  40.812  46.046  1.00  0.00     0.119 A 
ATOM     15  C   UNL     1       3.571  40.316  47.160  1.00  0.00     0.048 A 
ATOM     16  C   UNL     1       5.371  41.612  46.240  1.00  0.00     0.048 A 
ATOM     17  C   UNL     1       4.008  40.610  48.457  1.00  0.00     0.030 A 
ATOM     18  C   UNL     1       5.807  41.907  47.539  1.00  0.00     0.030 A 
BRANCH  14  19
ATOM     19  O   UNL     1       3.716  40.448  44.841  1.00  0.00    -0.497 OA
ATOM     20  C   UNL     1       3.933  39.106  44.423  1.00  0.00     0.278 C 
ENDBRANCH  14  19
ENDBRANCH  11  13
ENDBRANCH   1  11
BRANCH   3  21
ATOM     21  N   UNL     1       7.228  46.014  51.042  1.00  0.00    -0.351 N 
ATOM     22  H   UNL     1       7.212  46.294  50.065  1.00  0.00     0.163 HD
BRANCH  21  23
ATOM     23  C   UNL     1       7.101  47.108  51.996  1.00  0.00     0.148 C 
BRANCH  23  24
ATOM     24  C   UNL     1       8.465  47.785  52.234  1.00  0.00     0.137 C 
ATOM     25  C   UNL     1       9.650  46.842  52.069  1.00  0.00     0.036 C 
ATOM     26  O   UNL     1       8.515  48.267  53.594  1.00  0.00    -0.376 OA
ATOM     27  C   UNL     1       9.877  46.342  53.473  1.00  0.00     0.031 C 
ATOM     28  C   UNL     1       9.551  47.568  54.295  1.00  0.00     0.160 C 
ENDBRANCH  23  24
ENDBRANCH  21  23
ENDBRANCH   3  21
TORSDOF 6
ENDMDL
MODEL 4
REMARK VINA RESULT:    -8.417      2.529      5.839
REMARK INTER + INTRA:         -12.084
REMARK INTER:                 -11.250
REMARK INTRA:                  -0.834
REMARK UNBOUND:                -0.715
REMARK SMILES COc1ccc(Nc2nc(NC[C@@H]3CCCO3)nc3nccnc23)cc1
REMARK SMILES IDX 8 1 9 2 10 3 18 4 19 5 20 6 21 7 22 8 23 9 24 10 7 11 6 13
REMARK SMILES IDX 3 14 4 15 26 16 5 17 25 18 2 19 1 20 11 21 12 23 13 24 14 25
REMARK SMILES IDX 17 26 15 27 16 28
REMARK H PARENT 7 12 11 22
ROOT
ATOM      1  C   UNL     1       2.469  44.033  53.200  1.00  0.00     0.164 A 
ATOM      2  N   UNL     1       3.576  44.495  53.816  1.00  0.00    -0.193 NA
ATOM      3  C   UNL     1       3.418  45.097  54.992  1.00  0.00     0.226 A 
ATOM      4  N   UNL     1       2.247  45.243  55.596  1.00  0.00    -0.191 NA
ATOM      5  C   UNL     1       1.166  44.756  54.996  1.00  0.00     0.185 A 
ATOM      6  N   UNL     1       0.008  44.905  55.651  1.00  0.00    -0.233 NA
ATOM      7  C   UNL     1      -1.114  44.411  55.084  1.00  0.00     0.133 A 
ATOM      8  C   UNL     1      -1.098  43.766  53.871  1.00  0.00     0.132 A 
ATOM      9  N   UNL     1       0.047  43.601  53.188  1.00  0.00    -0.247 NA
ATOM     10  C   UNL     1       1.190  44.108  53.755  1.00  0.00     0.150 A 
ENDROOT
BRANCH   1  11
ATOM     11  N   UNL     1       2.730  43.407  51.959  1.00  0.00    -0.338 N 
ATOM     12  H   UNL     1       2.294  42.488  52.013  1.00  0.00     0.168 HD
BRANCH  11  13
ATOM     13  C   UNL     1       3.953  43.312  51.260  1.00  0.00     0.040 A 
ATOM     14  C   UNL     1       6.428  42.970  49.937  1.00  0.00     0.119 A 
ATOM     15  C   UNL     1       5.989  44.239  50.312  1.00  0.00     0.048 A 
ATOM     16  C   UNL     1       5.631  41.866  50.232  1.00  0.00     0.048 A 
ATOM     17  C   UNL     1       4.766  44.411  50.972  1.00  0.00     0.030 A 
ATOM     18  C   UNL     1       4.408  42.039  50.894  1.00  0.00     0.030 A 
BRANCH  14  19
ATOM     19  O   UNL     1       7.637  42.945  49.300  1.00  0.00    -0.497 OA
ATOM     20  C   UNL     1       8.364  44.166  49.259  1.00  0.00     0.278 C 
ENDBRANCH  14  19
ENDBRANCH  11  13
ENDBRANCH   1  11
BRANCH   3  21
ATOM     21  N   UNL     1       4.508  45.631  55.663  1.00  0.00    -0.351 N 
ATOM     22  H   UNL     1       4.508  45.185  56.577  1.00  0.00     0.163 HD
BRANCH  21  23
ATOM     23  C   UNL     1       5.769  45.543  54.938  1.00  0.00     0.148 C 
BRANCH  23  24
ATOM     24  C   UNL     1       6.239  46.940  54.489  1.00  0.00     0.137 C 
ATOM     25  C   UNL     1       6.213  47.135  52.978  1.00  0.00     0.036 C 
ATOM     26  O   UNL     1       7.611  47.124  54.900  1.00  0.00    -0.376 OA
ATOM     27  C   UNL     1       7.612  46.752  52.568  1.00  0.00     0.031 C 
ATOM     28  C   UNL     1       8.428  47.266  53.731  1.00  0.00     0.160 C 
ENDBRANCH  23  24
ENDBRANCH  21  23
ENDBRANCH   3  21
TORSDOF 6
ENDMDL
MODEL 5
REMARK VINA RESULT:    -8.415      2.674      5.782
REMARK INTER + INTRA:         -12.081
REMARK INTER:                 -11.154
REMARK INTRA:                  -0.927
REMARK UNBOUND:                -0.715
REMARK SMILES COc1ccc(Nc2nc(NC[C@@H]3CCCO3)nc3nccnc23)cc1
REMARK SMILES IDX 8 1 9 2 10 3 18 4 19 5 20 6 21 7 22 8 23 9 24 10 7 11 6 13
REMARK SMILES IDX 3 14 4 15 26 16 5 17 25 18 2 19 1 20 11 21 12 23 13 24 14 25
REMARK SMILES IDX 17 26 15 27 16 28
REMARK H PARENT 7 12 11 22
ROOT
ATOM      1  C   UNL     1       4.714  44.692  51.745  1.00  0.00     0.164 A 
ATOM      2  N   UNL     1       3.747  44.703  52.683  1.00  0.00    -0.193 NA
ATOM      3  C   UNL     1       3.046  43.585  52.856  1.00  0.00     0.226 A 
ATOM      4  N   UNL     1       3.263  42.466  52.180  1.00  0.00    -0.191 NA
ATOM      5  C   UNL     1       4.239  42.454  51.280  1.00  0.00     0.185 A 
ATOM      6  N   UNL     1       4.438  41.297  50.636  1.00  0.00    -0.233 NA
ATOM      7  C   UNL     1       5.432  41.238  49.723  1.00  0.00     0.133 A 
ATOM      8  C   UNL     1       6.234  42.317  49.443  1.00  0.00     0.132 A 
ATOM      9  N   UNL     1       6.060  43.493  50.070  1.00  0.00    -0.247 NA
ATOM     10  C   UNL     1       5.047  43.563  50.993  1.00  0.00     0.150 A 
ENDROOT
BRANCH   1  11
ATOM     11  N   UNL     1       5.408  45.919  51.631  1.00  0.00    -0.338 N 
ATOM     12  H   UNL     1       5.447  46.126  50.634  1.00  0.00     0.168 HD
BRANCH  11  13
ATOM     13  C   UNL     1       6.618  46.307  52.245  1.00  0.00     0.040 A 
ATOM     14  C   UNL     1       9.126  46.983  53.361  1.00  0.00     0.119 A 
ATOM     15  C   UNL     1       7.990  46.885  54.164  1.00  0.00     0.048 A 
ATOM     16  C   UNL     1       9.011  46.733  51.996  1.00  0.00     0.048 A 
ATOM     17  C   UNL     1       6.748  46.546  53.615  1.00  0.00     0.030 A 
ATOM     18  C   UNL     1       7.767  46.392  51.447  1.00  0.00     0.030 A 
BRANCH  14  19
ATOM     19  O   UNL     1      10.272  47.323  54.025  1.00  0.00    -0.497 OA
ATOM     20  C   UNL     1      10.147  47.610  55.412  1.00  0.00     0.278 C 
ENDBRANCH  14  19
ENDBRANCH  11  13
ENDBRANCH   1  11
BRANCH   3  21
ATOM     21  N   UNL     1       2.009  43.538  53.776  1.00  0.00    -0.351 N 
ATOM     22  H   UNL     1       1.675  44.495  53.857  1.00  0.00     0.163 HD
BRANCH  21  23
ATOM     23  C   UNL     1       0.979  42.552  53.479  1.00  0.00     0.148 C 
BRANCH  23  24
ATOM     24  C   UNL     1      -0.402  43.225  53.357  1.00  0.00     0.137 C 
ATOM     25  C   UNL     1      -1.128  42.894  52.058  1.00  0.00     0.036 C 
ATOM     26  O   UNL     1      -0.224  44.658  53.369  1.00  0.00    -0.376 OA
ATOM     27  C   UNL     1      -0.717  44.024  51.148  1.00  0.00     0.031 C 
ATOM     28  C   UNL     1      -0.655  45.188  52.109  1.00  0.00     0.160 C 
ENDBRANCH  23  24
ENDBRANCH  21  23
ENDBRANCH   3  21
TORSDOF 6
ENDMDL
MODEL 6
REMARK VINA RESULT:    -8.400      2.652      6.341
REMARK INTER + INTRA:         -12.061
REMARK INTER:                 -11.292
REMARK INTRA:                  -0.769
REMARK UNBOUND:                -0.715
REMARK SMILES COc1ccc(Nc2nc(NC[C@@H]3CCCO3)nc3nccnc23)cc1
REMARK SMILES IDX 8 1 9 2 10 3 18 4 19 5 20 6 21 7 22 8 23 9 24 10 7 11 6 13
REMARK SMILES IDX 3 14 4 15 26 16 5 17 25 18 2 19 1 20 11 21 12 23 13 24 14 25
REMARK SMILES IDX 17 26 15 27 16 28
REMARK H PARENT 7 12 11 22
ROOT
ATOM      1  C   UNL     1       4.043  43.046  52.096  1.00  0.00     0.164 A 
ATOM      2  N   UNL     1       4.343  44.210  52.705  1.00  0.00    -0.193 NA
ATOM      3  C   UNL     1       5.348  44.924  52.203  1.00  0.00     0.226 A 
ATOM      4  N   UNL     1       6.045  44.568  51.133  1.00  0.00    -0.191 NA
ATOM      5  C   UNL     1       5.720  43.435  50.520  1.00  0.00     0.185 A 
ATOM      6  N   UNL     1       6.435  43.124  49.431  1.00  0.00    -0.233 NA
ATOM      7  C   UNL     1       6.127  41.988  48.769  1.00  0.00     0.133 A 
ATOM      8  C   UNL     1       5.114  41.155  49.177  1.00  0.00     0.132 A 
ATOM      9  N   UNL     1       4.379  41.436  50.266  1.00  0.00    -0.247 NA
ATOM     10  C   UNL     1       4.691  42.586  50.948  1.00  0.00     0.150 A 
ENDROOT
BRANCH   1  11
ATOM     11  N   UNL     1       2.963  42.356  52.693  1.00  0.00    -0.338 N 
ATOM     12  H   UNL     1       3.085  41.376  52.444  1.00  0.00     0.168 HD
BRANCH  11  13
ATOM     13  C   UNL     1       1.590  42.683  52.675  1.00  0.00     0.040 A 
ATOM     14  C   UNL     1      -1.126  43.450  52.510  1.00  0.00     0.119 A 
ATOM     15  C   UNL     1      -0.556  43.102  53.734  1.00  0.00     0.048 A 
ATOM     16  C   UNL     1      -0.334  43.424  51.365  1.00  0.00     0.048 A 
ATOM     17  C   UNL     1       0.790  42.727  53.820  1.00  0.00     0.030 A 
ATOM     18  C   UNL     1       1.014  43.049  51.451  1.00  0.00     0.030 A 
BRANCH  14  19
ATOM     19  O   UNL     1      -2.448  43.795  52.569  1.00  0.00    -0.497 OA
ATOM     20  C   UNL     1      -2.905  44.373  53.785  1.00  0.00     0.278 C 
ENDBRANCH  14  19
ENDBRANCH  11  13
ENDBRANCH   1  11
BRANCH   3  21
ATOM     21  N   UNL     1       5.737  46.112  52.803  1.00  0.00    -0.351 N 
ATOM     22  H   UNL     1       4.892  46.495  53.219  1.00  0.00     0.163 HD
BRANCH  21  23
ATOM     23  C   UNL     1       6.868  45.990  53.713  1.00  0.00     0.148 C 
BRANCH  23  24
ATOM     24  C   UNL     1       7.709  47.280  53.716  1.00  0.00     0.137 C 
ATOM     25  C   UNL     1       8.631  47.408  52.508  1.00  0.00     0.036 C 
ATOM     26  O   UNL     1       8.563  47.278  54.880  1.00  0.00    -0.376 OA
ATOM     27  C   UNL     1       9.919  46.804  53.006  1.00  0.00     0.031 C 
ATOM     28  C   UNL     1       9.930  47.245  54.451  1.00  0.00     0.160 C 
ENDBRANCH  23  24
ENDBRANCH  21  23
ENDBRANCH   3  21
TORSDOF 6
ENDMDL
MODEL 7
REMARK VINA RESULT:    -8.336      2.633      5.760
REMARK INTER + INTRA:         -11.975
REMARK INTER:                 -11.200
REMARK INTRA:                  -0.775
REMARK UNBOUND:                -0.715
REMARK SMILES COc1ccc(Nc2nc(NC[C@@H]3CCCO3)nc3nccnc23)cc1
REMARK SMILES IDX 8 1 9 2 10 3 18 4 19 5 20 6 21 7 22 8 23 9 24 10 7 11 6 13
REMARK SMILES IDX 3 14 4 15 26 16 5 17 25 18 2 19 1 20 11 21 12 23 13 24 14 25
REMARK SMILES IDX 17 26 15 27 16 28
REMARK H PARENT 7 12 11 22
ROOT
ATOM      1  C   UNL     1       4.703  44.627  51.699  1.00  0.00     0.164 A 
ATOM      2  N   UNL     1       3.708  44.621  52.609  1.00  0.00    -0.193 NA
ATOM      3  C   UNL     1       3.002  43.500  52.739  1.00  0.00     0.226 A 
ATOM      4  N   UNL     1       3.240  42.393  52.049  1.00  0.00    -0.191 NA
ATOM      5  C   UNL     1       4.243  42.398  51.178  1.00  0.00     0.185 A 
ATOM      6  N   UNL     1       4.461  41.253  50.519  1.00  0.00    -0.233 NA
ATOM      7  C   UNL     1       5.483  41.211  49.636  1.00  0.00     0.133 A 
ATOM      8  C   UNL     1       6.292  42.295  49.400  1.00  0.00     0.132 A 
ATOM      9  N   UNL     1       6.099  43.459  50.043  1.00  0.00    -0.247 NA
ATOM     10  C   UNL     1       5.058  43.512  50.937  1.00  0.00     0.150 A 
ENDROOT
BRANCH   1  11
ATOM     11  N   UNL     1       5.400  45.855  51.629  1.00  0.00    -0.338 N 
ATOM     12  H   UNL     1       5.391  46.126  50.648  1.00  0.00     0.168 HD
BRANCH  11  13
ATOM     13  C   UNL     1       6.642  46.198  52.205  1.00  0.00     0.040 A 
ATOM     14  C   UNL     1       9.044  46.980  53.475  1.00  0.00     0.119 A 
ATOM     15  C   UNL     1       9.002  46.762  52.098  1.00  0.00     0.048 A 
ATOM     16  C   UNL     1       7.878  46.816  54.219  1.00  0.00     0.048 A 
ATOM     17  C   UNL     1       7.813  46.380  51.466  1.00  0.00     0.030 A 
ATOM     18  C   UNL     1       6.688  46.435  53.585  1.00  0.00     0.030 A 
BRANCH  14  19
ATOM     19  O   UNL     1      10.267  47.348  53.961  1.00  0.00    -0.497 OA
ATOM     20  C   UNL     1      10.387  47.460  55.374  1.00  0.00     0.278 C 
ENDBRANCH  14  19
ENDBRANCH  11  13
ENDBRANCH   1  11
BRANCH   3  21
ATOM     21  N   UNL     1       1.939  43.435  53.627  1.00  0.00    -0.351 N 
ATOM     22  H   UNL     1       1.932  42.479  53.971  1.00  0.00     0.163 HD
BRANCH  21  23
ATOM     23  C   UNL     1       1.951  44.460  54.663  1.00  0.00     0.148 C 
BRANCH  23  24
ATOM     24  C   UNL     1       0.676  45.322  54.592  1.00  0.00     0.137 C 
ATOM     25  C   UNL     1      -0.215  45.193  55.822  1.00  0.00     0.036 C 
ATOM     26  O   UNL     1      -0.118  44.888  53.467  1.00  0.00    -0.376 OA
ATOM     27  C   UNL     1      -1.173  44.099  55.426  1.00  0.00     0.031 C 
ATOM     28  C   UNL     1      -1.364  44.370  53.952  1.00  0.00     0.160 C 
ENDBRANCH  23  24
ENDBRANCH  21  23
ENDBRANCH   3  21
TORSDOF 6
ENDMDL
MODEL 8
REMARK VINA RESULT:    -8.328      2.684      6.929
REMARK INTER + INTRA:         -11.963
REMARK INTER:                 -11.235
REMARK INTRA:                  -0.729
REMARK UNBOUND:                -0.715
REMARK SMILES COc1ccc(Nc2nc(NC[C@@H]3CCCO3)nc3nccnc23)cc1
REMARK SMILES IDX 8 1 9 2 10 3 18 4 19 5 20 6 21 7 22 8 23 9 24 10 7 11 6 13
REMARK SMILES IDX 3 14 4 15 26 16 5 17 25 18 2 19 1 20 11 21 12 23 13 24 14 25
REMARK SMILES IDX 17 26 15 27 16 28
REMARK H PARENT 7 12 11 22
ROOT
ATOM      1  C   UNL     1       3.969  44.748  51.635  1.00  0.00     0.164 A 
ATOM      2  N   UNL     1       4.948  45.673  51.707  1.00  0.00    -0.193 NA
ATOM      3  C   UNL     1       6.152  45.328  51.258  1.00  0.00     0.226 A 
ATOM      4  N   UNL     1       6.432  44.146  50.728  1.00  0.00    -0.191 NA
ATOM      5  C   UNL     1       5.454  43.252  50.632  1.00  0.00     0.185 A 
ATOM      6  N   UNL     1       5.775  42.080  50.069  1.00  0.00    -0.233 NA
ATOM      7  C   UNL     1       4.805  41.149  49.938  1.00  0.00     0.133 A 
ATOM      8  C   UNL     1       3.517  41.370  50.359  1.00  0.00     0.132 A 
ATOM      9  N   UNL     1       3.162  42.534  50.929  1.00  0.00    -0.247 NA
ATOM     10  C   UNL     1       4.144  43.482  51.072  1.00  0.00     0.150 A 
ENDROOT
BRANCH   1  11
ATOM     11  N   UNL     1       2.725  45.200  52.131  1.00  0.00    -0.338 N 
ATOM     12  H   UNL     1       2.583  46.125  51.730  1.00  0.00     0.168 HD
BRANCH  11  13
ATOM     13  C   UNL     1       2.246  45.180  53.459  1.00  0.00     0.040 A 
ATOM     14  C   UNL     1       1.125  45.164  56.055  1.00  0.00     0.119 A 
ATOM     15  C   UNL     1       2.399  45.686  55.830  1.00  0.00     0.048 A 
ATOM     16  C   UNL     1       0.405  44.656  54.976  1.00  0.00     0.048 A 
ATOM     17  C   UNL     1       2.954  45.700  54.545  1.00  0.00     0.030 A 
ATOM     18  C   UNL     1       0.961  44.671  53.690  1.00  0.00     0.030 A 
BRANCH  14  19
ATOM     19  O   UNL     1       0.706  45.212  57.355  1.00  0.00    -0.497 OA
ATOM     20  C   UNL     1       0.923  46.431  58.053  1.00  0.00     0.278 C 
ENDBRANCH  14  19
ENDBRANCH  11  13
ENDBRANCH   1  11
BRANCH   3  21
ATOM     21  N   UNL     1       7.215  46.216  51.338  1.00  0.00    -0.351 N 
ATOM     22  H   UNL     1       7.363  46.545  50.387  1.00  0.00     0.163 HD
BRANCH  21  23
ATOM     23  C   UNL     1       7.054  47.267  52.333  1.00  0.00     0.148 C 
BRANCH  23  24
ATOM     24  C   UNL     1       8.396  47.975  52.602  1.00  0.00     0.137 C 
ATOM     25  C   UNL     1       9.612  47.101  52.318  1.00  0.00     0.036 C 
ATOM     26  O   UNL     1       8.465  48.326  54.001  1.00  0.00    -0.376 OA
ATOM     27  C   UNL     1       9.898  46.480  53.662  1.00  0.00     0.031 C 
ATOM     28  C   UNL     1       9.548  47.607  54.605  1.00  0.00     0.160 C 
ENDBRANCH  23  24
ENDBRANCH  21  23
ENDBRANCH   3  21
TORSDOF 6
ENDMDL
MODEL 9
REMARK VINA RESULT:    -8.246      2.602      6.855
REMARK INTER + INTRA:         -11.853
REMARK INTER:                 -10.882
REMARK INTRA:                  -0.971
REMARK UNBOUND:                -0.715
REMARK SMILES COc1ccc(Nc2nc(NC[C@@H]3CCCO3)nc3nccnc23)cc1
REMARK SMILES IDX 8 1 9 2 10 3 18 4 19 5 20 6 21 7 22 8 23 9 24 10 7 11 6 13
REMARK SMILES IDX 3 14 4 15 26 16 5 17 25 18 2 19 1 20 11 21 12 23 13 24 14 25
REMARK SMILES IDX 17 26 15 27 16 28
REMARK H PARENT 7 12 11 22
ROOT
ATOM      1  C   UNL     1       3.796  44.741  52.136  1.00  0.00     0.164 A 
ATOM      2  N   UNL     1       4.211  43.632  51.491  1.00  0.00    -0.193 NA
ATOM      3  C   UNL     1       3.575  42.493  51.757  1.00  0.00     0.226 A 
ATOM      4  N   UNL     1       2.551  42.397  52.593  1.00  0.00    -0.191 NA
ATOM      5  C   UNL     1       2.129  43.501  53.200  1.00  0.00     0.185 A 
ATOM      6  N   UNL     1       1.079  43.362  54.018  1.00  0.00    -0.233 NA
ATOM      7  C   UNL     1       0.607  44.463  54.643  1.00  0.00     0.133 A 
ATOM      8  C   UNL     1       1.168  45.704  54.462  1.00  0.00     0.132 A 
ATOM      9  N   UNL     1       2.223  45.877  53.649  1.00  0.00    -0.247 NA
ATOM     10  C   UNL     1       2.712  44.761  53.016  1.00  0.00     0.150 A 
ENDROOT
BRANCH   1  11
ATOM     11  N   UNL     1       4.525  45.902  51.792  1.00  0.00    -0.338 N 
ATOM     12  H   UNL     1       4.395  46.027  50.789  1.00  0.00     0.168 HD
BRANCH  11  13
ATOM     13  C   UNL     1       5.845  46.252  52.147  1.00  0.00     0.040 A 
ATOM     14  C   UNL     1       8.546  46.819  52.761  1.00  0.00     0.119 A 
ATOM     15  C   UNL     1       7.540  47.031  53.703  1.00  0.00     0.048 A 
ATOM     16  C   UNL     1       8.203  46.313  51.509  1.00  0.00     0.048 A 
ATOM     17  C   UNL     1       6.203  46.746  53.404  1.00  0.00     0.030 A 
ATOM     18  C   UNL     1       6.864  46.027  51.211  1.00  0.00     0.030 A 
BRANCH  14  19
ATOM     19  O   UNL     1       9.806  47.140  53.183  1.00  0.00    -0.497 OA
ATOM     20  C   UNL     1      10.024  47.165  54.588  1.00  0.00     0.278 C 
ENDBRANCH  14  19
ENDBRANCH  11  13
ENDBRANCH   1  11
BRANCH   3  21
ATOM     21  N   UNL     1       3.974  41.307  51.160  1.00  0.00    -0.351 N 
ATOM     22  H   UNL     1       3.414  40.581  51.599  1.00  0.00     0.163 HD
BRANCH  21  23
ATOM     23  C   UNL     1       3.931  41.316  49.703  1.00  0.00     0.148 C 
BRANCH  23  24
ATOM     24  C   UNL     1       5.311  40.965  49.115  1.00  0.00     0.137 C 
ATOM     25  C   UNL     1       6.478  41.502  49.935  1.00  0.00     0.036 C 
ATOM     26  O   UNL     1       5.425  41.563  47.805  1.00  0.00    -0.376 OA
ATOM     27  C   UNL     1       6.760  42.832  49.283  1.00  0.00     0.031 C 
ATOM     28  C   UNL     1       6.483  42.529  47.829  1.00  0.00     0.160 C 
ENDBRANCH  23  24
ENDBRANCH  21  23
ENDBRANCH   3  21
TORSDOF 6
ENDMDL
MODEL 10
REMARK VINA RESULT:    -8.122      1.562      4.800
REMARK INTER + INTRA:         -11.686
REMARK INTER:                 -10.751
REMARK INTRA:                  -0.935
REMARK UNBOUND:                -0.715
REMARK SMILES COc1ccc(Nc2nc(NC[C@@H]3CCCO3)nc3nccnc23)cc1
REMARK SMILES IDX 8 1 9 2 10 3 18 4 19 5 20 6 21 7 22 8 23 9 24 10 7 11 6 13
REMARK SMILES IDX 3 14 4 15 26 16 5 17 25 18 2 19 1 20 11 21 12 23 13 24 14 25
REMARK SMILES IDX 17 26 15 27 16 28
REMARK H PARENT 7 12 11 22
ROOT
ATOM      1  C   UNL     1       6.757  46.770  52.361  1.00  0.00     0.164 A 
ATOM      2  N   UNL     1       6.771  46.069  51.209  1.00  0.00    -0.193 NA
ATOM      3  C   UNL     1       7.948  45.624  50.776  1.00  0.00     0.226 A 
ATOM      4  N   UNL     1       9.091  45.809  51.422  1.00  0.00    -0.191 NA
ATOM      5  C   UNL     1       9.063  46.472  52.572  1.00  0.00     0.185 A 
ATOM      6  N   UNL     1      10.235  46.616  53.203  1.00  0.00    -0.233 NA
ATOM      7  C   UNL     1      10.248  47.271  54.384  1.00  0.00     0.133 A 
ATOM      8  C   UNL     1       9.106  47.784  54.949  1.00  0.00     0.132 A 
ATOM      9  N   UNL     1       7.914  47.659  54.342  1.00  0.00    -0.247 NA
ATOM     10  C   UNL     1       7.895  47.001  53.137  1.00  0.00     0.150 A 
ENDROOT
BRANCH   1  11
ATOM     11  N   UNL     1       5.467  47.201  52.746  1.00  0.00    -0.338 N 
ATOM     12  H   UNL     1       5.599  47.761  53.586  1.00  0.00     0.168 HD
BRANCH  11  13
ATOM     13  C   UNL     1       4.282  46.442  52.862  1.00  0.00     0.040 A 
ATOM     14  C   UNL     1       2.006  44.779  53.074  1.00  0.00     0.119 A 
ATOM     15  C   UNL     1       1.916  46.040  52.485  1.00  0.00     0.048 A 
ATOM     16  C   UNL     1       3.240  44.342  53.550  1.00  0.00     0.048 A 
ATOM     17  C   UNL     1       3.043  46.863  52.375  1.00  0.00     0.030 A 
ATOM     18  C   UNL     1       4.367  45.167  53.438  1.00  0.00     0.030 A 
BRANCH  14  19
ATOM     19  O   UNL     1       0.832  44.080  53.118  1.00  0.00    -0.497 OA
ATOM     20  C   UNL     1       0.912  42.716  53.511  1.00  0.00     0.278 C 
ENDBRANCH  14  19
ENDBRANCH  11  13
ENDBRANCH   1  11
BRANCH   3  21
ATOM     21  N   UNL     1       8.043  44.931  49.578  1.00  0.00    -0.351 N 
ATOM     22  H   UNL     1       8.982  45.113  49.234  1.00  0.00     0.163 HD
BRANCH  21  23
ATOM     23  C   UNL     1       7.683  43.522  49.663  1.00  0.00     0.148 C 
BRANCH  23  24
ATOM     24  C   UNL     1       6.203  43.313  49.291  1.00  0.00     0.137 C 
ATOM     25  C   UNL     1       5.320  42.960  50.482  1.00  0.00     0.036 C 
ATOM     26  O   UNL     1       6.106  42.205  48.370  1.00  0.00    -0.376 OA
ATOM     27  C   UNL     1       5.329  41.453  50.469  1.00  0.00     0.031 C 
ATOM     28  C   UNL     1       5.351  41.155  48.988  1.00  0.00     0.160 C 
ENDBRANCH  23  24
ENDBRANCH  21  23
ENDBRANCH   3  21
TORSDOF 6
ENDMDL
MODEL 11
REMARK VINA RESULT:    -8.095      2.603      5.942
REMARK INTER + INTRA:         -11.649
REMARK INTER:                 -11.156
REMARK INTRA:                  -0.493
REMARK UNBOUND:                -0.715
REMARK SMILES COc1ccc(Nc2nc(NC[C@@H]3CCCO3)nc3nccnc23)cc1
REMARK SMILES IDX 8 1 9 2 10 3 18 4 19 5 20 6 21 7 22 8 23 9 24 10 7 11 6 13
REMARK SMILES IDX 3 14 4 15 26 16 5 17 25 18 2 19 1 20 11 21 12 23 13 24 14 25
REMARK SMILES IDX 17 26 15 27 16 28
REMARK H PARENT 7 12 11 22
ROOT
ATOM      1  C   UNL     1       5.963  44.346  50.952  1.00  0.00     0.164 A 
ATOM      2  N   UNL     1       5.270  44.566  52.087  1.00  0.00    -0.193 NA
ATOM      3  C   UNL     1       4.303  43.704  52.392  1.00  0.00     0.226 A 
ATOM      4  N   UNL     1       4.005  42.639  51.661  1.00  0.00    -0.191 NA
ATOM      5  C   UNL     1       4.715  42.413  50.561  1.00  0.00     0.185 A 
ATOM      6  N   UNL     1       4.395  41.315  49.865  1.00  0.00    -0.233 NA
ATOM      7  C   UNL     1       5.102  41.039  48.747  1.00  0.00     0.133 A 
ATOM      8  C   UNL     1       6.128  41.844  48.314  1.00  0.00     0.132 A 
ATOM      9  N   UNL     1       6.473  42.954  48.988  1.00  0.00    -0.247 NA
ATOM     10  C   UNL     1       5.753  43.244  50.120  1.00  0.00     0.150 A 
ENDROOT
BRANCH   1  11
ATOM     11  N   UNL     1       6.971  45.308  50.707  1.00  0.00    -0.338 N 
ATOM     12  H   UNL     1       7.470  44.985  49.881  1.00  0.00     0.168 HD
BRANCH  11  13
ATOM     13  C   UNL     1       7.882  45.880  51.621  1.00  0.00     0.040 A 
ATOM     14  C   UNL     1       9.819  46.899  53.411  1.00  0.00     0.119 A 
ATOM     15  C   UNL     1       8.457  47.020  53.688  1.00  0.00     0.048 A 
ATOM     16  C   UNL     1      10.215  46.257  52.240  1.00  0.00     0.048 A 
ATOM     17  C   UNL     1       7.496  46.512  52.806  1.00  0.00     0.030 A 
ATOM     18  C   UNL     1       9.252  45.748  51.358  1.00  0.00     0.030 A 
BRANCH  14  19
ATOM     19  O   UNL     1      10.647  47.438  54.355  1.00  0.00    -0.497 OA
ATOM     20  C   UNL     1      10.051  47.816  55.590  1.00  0.00     0.278 C 
ENDBRANCH  14  19
ENDBRANCH  11  13
ENDBRANCH   1  11
BRANCH   3  21
ATOM     21  N   UNL     1       3.524  43.890  53.524  1.00  0.00    -0.351 N 
ATOM     22  H   UNL     1       3.277  42.955  53.839  1.00  0.00     0.163 HD
BRANCH  21  23
ATOM     23  C   UNL     1       4.127  44.740  54.542  1.00  0.00     0.148 C 
BRANCH  23  24
ATOM     24  C   UNL     1       3.344  46.059  54.686  1.00  0.00     0.137 C 
ATOM     25  C   UNL     1       2.407  46.341  53.517  1.00  0.00     0.036 C 
ATOM     26  O   UNL     1       4.282  47.156  54.728  1.00  0.00    -0.376 OA
ATOM     27  C   UNL     1       3.260  47.179  52.599  1.00  0.00     0.031 C 
ATOM     28  C   UNL     1       4.068  47.992  53.584  1.00  0.00     0.160 C 
ENDBRANCH  23  24
ENDBRANCH  21  23
ENDBRANCH   3  21
TORSDOF 6
ENDMDL
MODEL 12
REMARK VINA RESULT:    -8.061      2.333      5.635
REMARK INTER + INTRA:         -11.604
REMARK INTER:                 -11.131
REMARK INTRA:                  -0.472
REMARK UNBOUND:                -0.715
REMARK SMILES COc1ccc(Nc2nc(NC[C@@H]3CCCO3)nc3nccnc23)cc1
REMARK SMILES IDX 8 1 9 2 10 3 18 4 19 5 20 6 21 7 22 8 23 9 24 10 7 11 6 13
REMARK SMILES IDX 3 14 4 15 26 16 5 17 25 18 2 19 1 20 11 21 12 23 13 24 14 25
REMARK SMILES IDX 17 26 15 27 16 28
REMARK H PARENT 7 12 11 22
ROOT
ATOM      1  C   UNL     1       3.877  43.697  52.605  1.00  0.00     0.164 A 
ATOM      2  N   UNL     1       4.869  44.610  52.583  1.00  0.00    -0.193 NA
ATOM      3  C   UNL     1       4.592  45.828  53.041  1.00  0.00     0.226 A 
ATOM      4  N   UNL     1       3.414  46.181  53.535  1.00  0.00    -0.191 NA
ATOM      5  C   UNL     1       2.452  45.266  53.583  1.00  0.00     0.185 A 
ATOM      6  N   UNL     1       1.286  45.660  54.110  1.00  0.00    -0.233 NA
ATOM      7  C   UNL     1       0.285  44.755  54.192  1.00  0.00     0.133 A 
ATOM      8  C   UNL     1       0.432  43.461  53.756  1.00  0.00     0.132 A 
ATOM      9  N   UNL     1       1.588  43.035  53.220  1.00  0.00    -0.247 NA
ATOM     10  C   UNL     1       2.606  43.951  53.127  1.00  0.00     0.150 A 
ENDROOT
BRANCH   1  11
ATOM     11  N   UNL     1       4.259  42.432  52.102  1.00  0.00    -0.338 N 
ATOM     12  H   UNL     1       4.923  42.053  52.775  1.00  0.00     0.168 HD
BRANCH  11  13
ATOM     13  C   UNL     1       4.660  42.088  50.793  1.00  0.00     0.040 A 
ATOM     14  C   UNL     1       5.518  41.563  48.151  1.00  0.00     0.119 A 
ATOM     15  C   UNL     1       4.397  40.923  48.678  1.00  0.00     0.048 A 
ATOM     16  C   UNL     1       6.208  42.477  48.944  1.00  0.00     0.048 A 
ATOM     17  C   UNL     1       3.967  41.184  49.984  1.00  0.00     0.030 A 
ATOM     18  C   UNL     1       5.776  42.740  50.251  1.00  0.00     0.030 A 
BRANCH  14  19
ATOM     19  O   UNL     1       5.827  41.215  46.866  1.00  0.00    -0.497 OA
ATOM     20  C   UNL     1       5.157  41.923  45.831  1.00  0.00     0.278 C 
ENDBRANCH  14  19
ENDBRANCH  11  13
ENDBRANCH   1  11
BRANCH   3  21
ATOM     21  N   UNL     1       5.553  46.827  53.011  1.00  0.00    -0.351 N 
ATOM     22  H   UNL     1       5.767  47.026  53.985  1.00  0.00     0.163 HD
BRANCH  21  23
ATOM     23  C   UNL     1       6.711  46.530  52.178  1.00  0.00     0.148 C 
BRANCH  23  24
ATOM     24  C   UNL     1       7.761  47.653  52.283  1.00  0.00     0.137 C 
ATOM     25  C   UNL     1       9.129  47.260  51.736  1.00  0.00     0.036 C 
ATOM     26  O   UNL     1       7.958  47.977  53.677  1.00  0.00    -0.376 OA
ATOM     27  C   UNL     1       9.844  46.748  52.961  1.00  0.00     0.031 C 
ATOM     28  C   UNL     1       9.310  47.665  54.037  1.00  0.00     0.160 C 
ENDBRANCH  23  24
ENDBRANCH  21  23
ENDBRANCH   3  21
TORSDOF 6
ENDMDL
MODEL 13
REMARK VINA RESULT:    -8.027      3.006      7.199
REMARK INTER + INTRA:         -11.557
REMARK INTER:                 -10.678
REMARK INTRA:                  -0.880
REMARK UNBOUND:                -0.715
REMARK SMILES COc1ccc(Nc2nc(NC[C@@H]3CCCO3)nc3nccnc23)cc1
REMARK SMILES IDX 8 1 9 2 10 3 18 4 19 5 20 6 21 7 22 8 23 9 24 10 7 11 6 13
REMARK SMILES IDX 3 14 4 15 26 16 5 17 25 18 2 19 1 20 11 21 12 23 13 24 14 25
REMARK SMILES IDX 17 26 15 27 16 28
REMARK H PARENT 7 12 11 22
ROOT
ATOM      1  C   UNL     1       1.627  44.657  54.668  1.00  0.00     0.164 A 
ATOM      2  N   UNL     1       2.024  43.947  53.594  1.00  0.00    -0.193 NA
ATOM      3  C   UNL     1       1.157  43.081  53.075  1.00  0.00     0.226 A 
ATOM      4  N   UNL     1      -0.072  42.899  53.538  1.00  0.00    -0.191 NA
ATOM      5  C   UNL     1      -0.466  43.627  54.577  1.00  0.00     0.185 A 
ATOM      6  N   UNL     1      -1.722  43.428  54.998  1.00  0.00    -0.233 NA
ATOM      7  C   UNL     1      -2.168  44.160  56.042  1.00  0.00     0.133 A 
ATOM      8  C   UNL     1      -1.379  45.090  56.674  1.00  0.00     0.132 A 
ATOM      9  N   UNL     1      -0.115  45.313  56.278  1.00  0.00    -0.247 NA
ATOM     10  C   UNL     1       0.348  44.568  55.222  1.00  0.00     0.150 A 
ENDROOT
BRANCH   1  11
ATOM     11  N   UNL     1       2.608  45.553  55.151  1.00  0.00    -0.338 N 
ATOM     12  H   UNL     1       2.124  46.432  55.324  1.00  0.00     0.168 HD
BRANCH  11  13
ATOM     13  C   UNL     1       3.895  45.814  54.631  1.00  0.00     0.040 A 
ATOM     14  C   UNL     1       6.395  46.388  53.443  1.00  0.00     0.119 A 
ATOM     15  C   UNL     1       6.258  45.331  54.342  1.00  0.00     0.048 A 
ATOM     16  C   UNL     1       5.276  47.156  53.129  1.00  0.00     0.048 A 
ATOM     17  C   UNL     1       5.020  45.041  54.928  1.00  0.00     0.030 A 
ATOM     18  C   UNL     1       4.037  46.864  53.715  1.00  0.00     0.030 A 
BRANCH  14  19
ATOM     19  O   UNL     1       7.657  46.560  52.947  1.00  0.00    -0.497 OA
ATOM     20  C   UNL     1       7.877  46.159  51.600  1.00  0.00     0.278 C 
ENDBRANCH  14  19
ENDBRANCH  11  13
ENDBRANCH   1  11
BRANCH   3  21
ATOM     21  N   UNL     1       1.513  42.288  51.995  1.00  0.00    -0.351 N 
ATOM     22  H   UNL     1       0.646  42.106  51.496  1.00  0.00     0.163 HD
BRANCH  21  23
ATOM     23  C   UNL     1       2.590  42.828  51.175  1.00  0.00     0.148 C 
BRANCH  23  24
ATOM     24  C   UNL     1       3.959  42.329  51.675  1.00  0.00     0.137 C 
ATOM     25  C   UNL     1       5.073  43.358  51.527  1.00  0.00     0.036 C 
ATOM     26  O   UNL     1       4.354  41.185  50.887  1.00  0.00    -0.376 OA
ATOM     27  C   UNL     1       5.664  43.019  50.181  1.00  0.00     0.031 C 
ATOM     28  C   UNL     1       5.546  41.513  50.161  1.00  0.00     0.160 C 
ENDBRANCH  23  24
ENDBRANCH  21  23
ENDBRANCH   3  21
TORSDOF 6
ENDMDL
MODEL 14
REMARK VINA RESULT:    -7.942      2.598      4.210
REMARK INTER + INTRA:         -11.442
REMARK INTER:                 -10.484
REMARK INTRA:                  -0.958
REMARK UNBOUND:                -0.715
REMARK SMILES COc1ccc(Nc2nc(NC[C@@H]3CCCO3)nc3nccnc23)cc1
REMARK SMILES IDX 8 1 9 2 10 3 18 4 19 5 20 6 21 7 22 8 23 9 24 10 7 11 6 13
REMARK SMILES IDX 3 14 4 15 26 16 5 17 25 18 2 19 1 20 11 21 12 23 13 24 14 25
REMARK SMILES IDX 17 26 15 27 16 28
REMARK H PARENT 7 12 11 22
ROOT
ATOM      1  C   UNL     1       5.373  42.271  50.248  1.00  0.00     0.164 A 
ATOM      2  N   UNL     1       4.277  41.932  50.957  1.00  0.00    -0.193 NA
ATOM      3  C   UNL     1       3.894  42.758  51.927  1.00  0.00     0.226 A 
ATOM      4  N   UNL     1       4.511  43.895  52.215  1.00  0.00    -0.191 NA
ATOM      5  C   UNL     1       5.570  44.237  51.491  1.00  0.00     0.185 A 
ATOM      6  N   UNL     1       6.149  45.404  51.801  1.00  0.00    -0.233 NA
ATOM      7  C   UNL     1       7.220  45.797  51.078  1.00  0.00     0.133 A 
ATOM      8  C   UNL     1       7.723  45.042  50.046  1.00  0.00     0.132 A 
ATOM      9  N   UNL     1       7.168  43.866  49.711  1.00  0.00    -0.247 NA
ATOM     10  C   UNL     1       6.083  43.457  50.446  1.00  0.00     0.150 A 
ENDROOT
BRANCH   1  11
ATOM     11  N   UNL     1       5.705  41.340  49.237  1.00  0.00    -0.338 N 
ATOM     12  H   UNL     1       6.712  41.417  49.106  1.00  0.00     0.168 HD
BRANCH  11  13
ATOM     13  C   UNL     1       5.078  41.131  47.990  1.00  0.00     0.040 A 
ATOM     14  C   UNL     1       3.873  40.874  45.446  1.00  0.00     0.119 A 
ATOM     15  C   UNL     1       3.303  40.275  46.569  1.00  0.00     0.048 A 
ATOM     16  C   UNL     1       5.044  41.612  45.595  1.00  0.00     0.048 A 
ATOM     17  C   UNL     1       3.894  40.406  47.831  1.00  0.00     0.030 A 
ATOM     18  C   UNL     1       5.635  41.743  46.859  1.00  0.00     0.030 A 
BRANCH  14  19
ATOM     19  O   UNL     1       3.193  40.666  44.278  1.00  0.00    -0.497 OA
ATOM     20  C   UNL     1       2.067  39.801  44.337  1.00  0.00     0.278 C 
ENDBRANCH  14  19
ENDBRANCH  11  13
ENDBRANCH   1  11
BRANCH   3  21
ATOM     21  N   UNL     1       2.800  42.452  52.722  1.00  0.00    -0.351 N 
ATOM     22  H   UNL     1       3.014  42.838  53.638  1.00  0.00     0.163 HD
BRANCH  21  23
ATOM     23  C   UNL     1       1.515  42.862  52.169  1.00  0.00     0.148 C 
BRANCH  23  24
ATOM     24  C   UNL     1       0.809  43.856  53.110  1.00  0.00     0.137 C 
ATOM     25  C   UNL     1       0.436  45.172  52.436  1.00  0.00     0.036 C 
ATOM     26  O   UNL     1       1.706  44.193  54.191  1.00  0.00    -0.376 OA
ATOM     27  C   UNL     1       1.628  46.047  52.730  1.00  0.00     0.031 C 
ATOM     28  C   UNL     1       2.012  45.591  54.119  1.00  0.00     0.160 C 
ENDBRANCH  23  24
ENDBRANCH  21  23
ENDBRANCH   3  21
TORSDOF 6
ENDMDL
MODEL 15
REMARK VINA RESULT:    -7.809      3.031      7.425
REMARK INTER + INTRA:         -11.263
REMARK INTER:                 -10.553
REMARK INTRA:                  -0.710
REMARK UNBOUND:                -0.715
REMARK SMILES COc1ccc(Nc2nc(NC[C@@H]3CCCO3)nc3nccnc23)cc1
REMARK SMILES IDX 8 1 9 2 10 3 18 4 19 5 20 6 21 7 22 8 23 9 24 10 7 11 6 13
REMARK SMILES IDX 3 14 4 15 26 16 5 17 25 18 2 19 1 20 11 21 12 23 13 24 14 25
REMARK SMILES IDX 17 26 15 27 16 28
REMARK H PARENT 7 12 11 22
ROOT
ATOM      1  C   UNL     1       2.422  45.116  53.631  1.00  0.00     0.164 A 
ATOM      2  N   UNL     1       3.482  45.670  54.254  1.00  0.00    -0.193 NA
ATOM      3  C   UNL     1       4.687  45.193  53.955  1.00  0.00     0.226 A 
ATOM      4  N   UNL     1       4.902  44.231  53.069  1.00  0.00    -0.191 NA
ATOM      5  C   UNL     1       3.855  43.713  52.436  1.00  0.00     0.185 A 
ATOM      6  N   UNL     1       4.119  42.760  51.534  1.00  0.00    -0.233 NA
ATOM      7  C   UNL     1       3.084  42.218  50.856  1.00  0.00     0.133 A 
ATOM      8  C   UNL     1       1.785  42.616  51.065  1.00  0.00     0.132 A 
ATOM      9  N   UNL     1       1.486  43.567  51.964  1.00  0.00    -0.247 NA
ATOM     10  C   UNL     1       2.532  44.117  52.662  1.00  0.00     0.150 A 
ENDROOT
BRANCH   1  11
ATOM     11  N   UNL     1       1.183  45.684  54.007  1.00  0.00    -0.338 N 
ATOM     12  H   UNL     1       1.356  46.681  54.124  1.00  0.00     0.168 HD
BRANCH  11  13
ATOM     13  C   UNL     1       0.273  45.242  54.991  1.00  0.00     0.040 A 
ATOM     14  C   UNL     1      -1.678  44.374  56.845  1.00  0.00     0.119 A 
ATOM     15  C   UNL     1      -0.565  45.102  57.267  1.00  0.00     0.048 A 
ATOM     16  C   UNL     1      -1.821  44.087  55.490  1.00  0.00     0.048 A 
ATOM     17  C   UNL     1       0.399  45.537  56.350  1.00  0.00     0.030 A 
ATOM     18  C   UNL     1      -0.856  44.524  54.573  1.00  0.00     0.030 A 
BRANCH  14  19
ATOM     19  O   UNL     1      -2.539  44.012  57.842  1.00  0.00    -0.497 OA
ATOM     20  C   UNL     1      -3.268  42.806  57.653  1.00  0.00     0.278 C 
ENDBRANCH  14  19
ENDBRANCH  11  13
ENDBRANCH   1  11
BRANCH   3  21
ATOM     21  N   UNL     1       5.818  45.688  54.587  1.00  0.00    -0.351 N 
ATOM     22  H   UNL     1       5.904  45.152  55.447  1.00  0.00     0.163 HD
BRANCH  21  23
ATOM     23  C   UNL     1       7.015  45.711  53.758  1.00  0.00     0.148 C 
BRANCH  23  24
ATOM     24  C   UNL     1       7.554  47.148  53.617  1.00  0.00     0.137 C 
ATOM     25  C   UNL     1       8.673  47.281  52.591  1.00  0.00     0.036 C 
ATOM     26  O   UNL     1       8.112  47.562  54.883  1.00  0.00    -0.376 OA
ATOM     27  C   UNL     1       9.916  47.109  53.428  1.00  0.00     0.031 C 
ATOM     28  C   UNL     1       9.518  47.789  54.717  1.00  0.00     0.160 C 
ENDBRANCH  23  24
ENDBRANCH  21  23
ENDBRANCH   3  21
TORSDOF 6
ENDMDL
MODEL 16
REMARK VINA RESULT:    -7.809      2.999      7.327
REMARK INTER + INTRA:         -11.263
REMARK INTER:                 -10.475
REMARK INTRA:                  -0.788
REMARK UNBOUND:                -0.715
REMARK SMILES COc1ccc(Nc2nc(NC[C@@H]3CCCO3)nc3nccnc23)cc1
REMARK SMILES IDX 8 1 9 2 10 3 18 4 19 5 20 6 21 7 22 8 23 9 24 10 7 11 6 13
REMARK SMILES IDX 3 14 4 15 26 16 5 17 25 18 2 19 1 20 11 21 12 23 13 24 14 25
REMARK SMILES IDX 17 26 15 27 16 28
REMARK H PARENT 7 12 11 22
ROOT
ATOM      1  C   UNL     1       2.859  43.780  52.834  1.00  0.00     0.164 A 
ATOM      2  N   UNL     1       3.779  42.965  52.278  1.00  0.00    -0.193 NA
ATOM      3  C   UNL     1       3.399  42.234  51.233  1.00  0.00     0.226 A 
ATOM      4  N   UNL     1       2.187  42.283  50.699  1.00  0.00    -0.191 NA
ATOM      5  C   UNL     1       1.297  43.113  51.233  1.00  0.00     0.185 A 
ATOM      6  N   UNL     1       0.093  43.146  50.648  1.00  0.00    -0.233 NA
ATOM      7  C   UNL     1      -0.837  43.988  51.150  1.00  0.00     0.133 A 
ATOM      8  C   UNL     1      -0.581  44.800  52.229  1.00  0.00     0.132 A 
ATOM      9  N   UNL     1       0.615  44.790  52.839  1.00  0.00    -0.247 NA
ATOM     10  C   UNL     1       1.562  43.931  52.338  1.00  0.00     0.150 A 
ENDROOT
BRANCH   1  11
ATOM     11  N   UNL     1       3.348  44.519  53.936  1.00  0.00    -0.338 N 
ATOM     12  H   UNL     1       2.543  45.004  54.327  1.00  0.00     0.168 HD
BRANCH  11  13
ATOM     13  C   UNL     1       4.485  45.354  54.002  1.00  0.00     0.040 A 
ATOM     14  C   UNL     1       6.752  47.042  53.962  1.00  0.00     0.119 A 
ATOM     15  C   UNL     1       6.645  46.013  54.897  1.00  0.00     0.048 A 
ATOM     16  C   UNL     1       5.726  47.223  53.037  1.00  0.00     0.048 A 
ATOM     17  C   UNL     1       5.526  45.172  54.916  1.00  0.00     0.030 A 
ATOM     18  C   UNL     1       4.607  46.380  53.056  1.00  0.00     0.030 A 
BRANCH  14  19
ATOM     19  O   UNL     1       7.894  47.787  54.056  1.00  0.00    -0.497 OA
ATOM     20  C   UNL     1       9.116  47.126  53.752  1.00  0.00     0.278 C 
ENDBRANCH  14  19
ENDBRANCH  11  13
ENDBRANCH   1  11
BRANCH   3  21
ATOM     21  N   UNL     1       4.281  41.346  50.637  1.00  0.00    -0.351 N 
ATOM     22  H   UNL     1       3.861  41.107  49.742  1.00  0.00     0.163 HD
BRANCH  21  23
ATOM     23  C   UNL     1       5.658  41.816  50.561  1.00  0.00     0.148 C 
BRANCH  23  24
ATOM     24  C   UNL     1       5.764  43.047  49.641  1.00  0.00     0.137 C 
ATOM     25  C   UNL     1       6.890  42.947  48.618  1.00  0.00     0.036 C 
ATOM     26  O   UNL     1       6.050  44.210  50.449  1.00  0.00    -0.376 OA
ATOM     27  C   UNL     1       8.041  43.622  49.322  1.00  0.00     0.031 C 
ATOM     28  C   UNL     1       7.337  44.723  50.081  1.00  0.00     0.160 C 
ENDBRANCH  23  24
ENDBRANCH  21  23
ENDBRANCH   3  21
TORSDOF 6
ENDMDL
MODEL 17
REMARK VINA RESULT:    -7.780      3.308      8.158
REMARK INTER + INTRA:         -11.223
REMARK INTER:                 -10.490
REMARK INTRA:                  -0.733
REMARK UNBOUND:                -0.715
REMARK SMILES COc1ccc(Nc2nc(NC[C@@H]3CCCO3)nc3nccnc23)cc1
REMARK SMILES IDX 8 1 9 2 10 3 18 4 19 5 20 6 21 7 22 8 23 9 24 10 7 11 6 13
REMARK SMILES IDX 3 14 4 15 26 16 5 17 25 18 2 19 1 20 11 21 12 23 13 24 14 25
REMARK SMILES IDX 17 26 15 27 16 28
REMARK H PARENT 7 12 11 22
ROOT
ATOM      1  C   UNL     1       2.705  44.928  54.986  1.00  0.00     0.164 A 
ATOM      2  N   UNL     1       3.815  45.682  55.116  1.00  0.00    -0.193 NA
ATOM      3  C   UNL     1       4.537  45.905  54.020  1.00  0.00     0.226 A 
ATOM      4  N   UNL     1       4.212  45.452  52.817  1.00  0.00    -0.191 NA
ATOM      5  C   UNL     1       3.099  44.737  52.694  1.00  0.00     0.185 A 
ATOM      6  N   UNL     1       2.798  44.318  51.458  1.00  0.00    -0.233 NA
ATOM      7  C   UNL     1       1.666  43.601  51.285  1.00  0.00     0.133 A 
ATOM      8  C   UNL     1       0.827  43.297  52.329  1.00  0.00     0.132 A 
ATOM      9  N   UNL     1       1.101  43.699  53.581  1.00  0.00    -0.247 NA
ATOM     10  C   UNL     1       2.254  44.422  53.765  1.00  0.00     0.150 A 
ENDROOT
BRANCH   1  11
ATOM     11  N   UNL     1       2.000  44.744  56.198  1.00  0.00    -0.338 N 
ATOM     12  H   UNL     1       1.687  43.775  56.196  1.00  0.00     0.168 HD
BRANCH  11  13
ATOM     13  C   UNL     1       1.002  45.563  56.770  1.00  0.00     0.040 A 
ATOM     14  C   UNL     1      -0.919  47.180  58.069  1.00  0.00     0.119 A 
ATOM     15  C   UNL     1      -1.273  46.392  56.973  1.00  0.00     0.048 A 
ATOM     16  C   UNL     1       0.397  47.152  58.524  1.00  0.00     0.048 A 
ATOM     17  C   UNL     1      -0.324  45.587  56.331  1.00  0.00     0.030 A 
ATOM     18  C   UNL     1       1.345  46.345  57.881  1.00  0.00     0.030 A 
BRANCH  14  19
ATOM     19  O   UNL     1      -1.941  47.917  58.600  1.00  0.00    -0.497 OA
ATOM     20  C   UNL     1      -1.577  49.043  59.387  1.00  0.00     0.278 C 
ENDBRANCH  14  19
ENDBRANCH  11  13
ENDBRANCH   1  11
BRANCH   3  21
ATOM     21  N   UNL     1       5.712  46.638  54.087  1.00  0.00    -0.351 N 
ATOM     22  H   UNL     1       6.107  46.432  55.001  1.00  0.00     0.163 HD
BRANCH  21  23
ATOM     23  C   UNL     1       6.619  46.432  52.966  1.00  0.00     0.148 C 
BRANCH  23  24
ATOM     24  C   UNL     1       7.642  47.581  52.874  1.00  0.00     0.137 C 
ATOM     25  C   UNL     1       8.856  47.248  52.014  1.00  0.00     0.036 C 
ATOM     26  O   UNL     1       8.147  47.862  54.198  1.00  0.00    -0.376 OA
ATOM     27  C   UNL     1       9.843  46.714  53.021  1.00  0.00     0.031 C 
ATOM     28  C   UNL     1       9.551  47.576  54.227  1.00  0.00     0.160 C 
ENDBRANCH  23  24
ENDBRANCH  21  23
ENDBRANCH   3  21
TORSDOF 6
ENDMDL
MODEL 18
REMARK VINA RESULT:    -7.735      2.994      6.862
REMARK INTER + INTRA:         -11.163
REMARK INTER:                  -9.923
REMARK INTRA:                  -1.240
REMARK UNBOUND:                -0.715
REMARK SMILES COc1ccc(Nc2nc(NC[C@@H]3CCCO3)nc3nccnc23)cc1
REMARK SMILES IDX 8 1 9 2 10 3 18 4 19 5 20 6 21 7 22 8 23 9 24 10 7 11 6 13
REMARK SMILES IDX 3 14 4 15 26 16 5 17 25 18 2 19 1 20 11 21 12 23 13 24 14 25
REMARK SMILES IDX 17 26 15 27 16 28
REMARK H PARENT 7 12 11 22
ROOT
ATOM      1  C   UNL     1       1.878  45.314  55.628  1.00  0.00     0.164 A 
ATOM      2  N   UNL     1       1.943  44.521  54.540  1.00  0.00    -0.193 NA
ATOM      3  C   UNL     1       0.804  43.995  54.095  1.00  0.00     0.226 A 
ATOM      4  N   UNL     1      -0.381  44.228  54.642  1.00  0.00    -0.191 NA
ATOM      5  C   UNL     1      -0.439  45.037  55.694  1.00  0.00     0.185 A 
ATOM      6  N   UNL     1      -1.658  45.262  56.201  1.00  0.00    -0.233 NA
ATOM      7  C   UNL     1      -1.764  46.091  57.263  1.00  0.00     0.133 A 
ATOM      8  C   UNL     1      -0.670  46.702  57.826  1.00  0.00     0.132 A 
ATOM      9  N   UNL     1       0.566  46.496  57.342  1.00  0.00    -0.247 NA
ATOM     10  C   UNL     1       0.682  45.649  56.269  1.00  0.00     0.150 A 
ENDROOT
BRANCH   1  11
ATOM     11  N   UNL     1       3.131  45.829  56.030  1.00  0.00    -0.338 N 
ATOM     12  H   UNL     1       2.931  46.688  56.539  1.00  0.00     0.168 HD
BRANCH  11  13
ATOM     13  C   UNL     1       4.303  45.997  55.260  1.00  0.00     0.040 A 
ATOM     14  C   UNL     1       6.551  46.406  53.596  1.00  0.00     0.119 A 
ATOM     15  C   UNL     1       6.470  45.286  54.423  1.00  0.00     0.048 A 
ATOM     16  C   UNL     1       5.500  47.321  53.593  1.00  0.00     0.048 A 
ATOM     17  C   UNL     1       5.356  45.078  55.244  1.00  0.00     0.030 A 
ATOM     18  C   UNL     1       4.385  47.111  54.415  1.00  0.00     0.030 A 
BRANCH  14  19
ATOM     19  O   UNL     1       7.692  46.486  52.848  1.00  0.00    -0.497 OA
ATOM     20  C   UNL     1       7.562  46.245  51.452  1.00  0.00     0.278 C 
ENDBRANCH  14  19
ENDBRANCH  11  13
ENDBRANCH   1  11
BRANCH   3  21
ATOM     21  N   UNL     1       0.802  43.138  53.004  1.00  0.00    -0.351 N 
ATOM     22  H   UNL     1       0.406  43.677  52.238  1.00  0.00     0.163 HD
BRANCH  21  23
ATOM     23  C   UNL     1       2.089  42.519  52.718  1.00  0.00     0.148 C 
BRANCH  23  24
ATOM     24  C   UNL     1       2.620  42.973  51.344  1.00  0.00     0.137 C 
ATOM     25  C   UNL     1       4.049  42.523  51.064  1.00  0.00     0.036 C 
ATOM     26  O   UNL     1       2.633  44.417  51.304  1.00  0.00    -0.376 OA
ATOM     27  C   UNL     1       4.868  43.693  51.546  1.00  0.00     0.031 C 
ATOM     28  C   UNL     1       3.989  44.863  51.170  1.00  0.00     0.160 C 
ENDBRANCH  23  24
ENDBRANCH  21  23
ENDBRANCH   3  21
TORSDOF 6
ENDMDL
