MODEL 1
REMARK VINA RESULT:    -8.982      0.000      0.000
REMARK INTER + INTRA:         -13.656
REMARK INTER:                 -12.657
REMARK INTRA:                  -0.999
REMARK UNBOUND:                -0.999
REMARK SMILES Cc1ccccc1Nc1nc(NCCC[NH+](C)C)nc2c1cnn2C
REMARK SMILES IDX 13 1 14 2 15 3 16 4 17 5 18 6 12 8 11 10 10 11 19 12 9 13
REMARK SMILES IDX 20 14 21 15 24 16 22 17 23 18 25 19 8 20 7 22 6 23 2 24 5 25
REMARK SMILES IDX 3 26 4 27 1 28
REMARK H PARENT 16 7 12 9 8 21
ROOT
ATOM      1  C   UNL     1       4.260  45.678  55.479  1.00  0.00     0.122 C 
ENDROOT
BRANCH   1   2
ATOM      2  C   UNL     1       2.734  45.677  55.343  1.00  0.00     0.083 C 
BRANCH   2   3
ATOM      3  C   UNL     1       2.282  45.001  54.051  1.00  0.00     0.263 C 
BRANCH   3   4
ATOM      4  N   UNL     1       1.503  45.971  53.175  1.00  0.00    -0.340 N 
ATOM      5  C   UNL     1       0.422  45.320  52.360  1.00  0.00     0.332 C 
ATOM      6  C   UNL     1       2.433  46.772  52.301  1.00  0.00     0.332 C 
ATOM      7  H   UNL     1       1.054  46.647  53.807  1.00  0.00     0.347 HD
ENDBRANCH   3   4
ENDBRANCH   2   3
ENDBRANCH   1   2
BRANCH   1   8
ATOM      8  N   UNL     1       4.842  46.917  54.993  1.00  0.00    -0.354 N 
ATOM      9  H   UNL     1       4.224  47.457  54.386  1.00  0.00     0.163 HD
BRANCH   8  10
ATOM     10  C   UNL     1       5.989  46.776  54.210  1.00  0.00     0.226 A 
ATOM     11  N   UNL     1       5.752  46.288  52.982  1.00  0.00    -0.195 NA
ATOM     12  N   UNL     1       7.182  47.135  54.704  1.00  0.00    -0.193 NA
ATOM     13  C   UNL     1       6.776  46.120  52.105  1.00  0.00     0.147 A 
ATOM     14  C   UNL     1       8.183  46.921  53.833  1.00  0.00     0.165 A 
ATOM     15  C   UNL     1       8.064  46.428  52.547  1.00  0.00     0.082 A 
ATOM     16  N   UNL     1       9.523  47.130  54.029  1.00  0.00    -0.250 N 
ATOM     17  C   UNL     1       9.388  46.373  52.065  1.00  0.00     0.149 A 
ATOM     18  N   UNL     1      10.282  46.816  52.957  1.00  0.00    -0.179 NA
ATOM     19  C   UNL     1      10.165  47.616  55.223  1.00  0.00     0.176 C 
BRANCH  13  20
ATOM     20  N   UNL     1       6.463  45.589  50.847  1.00  0.00    -0.339 N 
ATOM     21  H   UNL     1       7.159  45.917  50.182  1.00  0.00     0.168 HD
BRANCH  20  22
ATOM     22  C   UNL     1       6.064  44.269  50.531  1.00  0.00     0.043 A 
ATOM     23  C   UNL     1       4.888  43.708  51.055  1.00  0.00     0.026 A 
ATOM     24  C   UNL     1       6.909  43.462  49.742  1.00  0.00    -0.028 A 
ATOM     25  C   UNL     1       4.532  42.389  50.769  1.00  0.00     0.002 A 
ATOM     26  C   UNL     1       6.541  42.136  49.463  1.00  0.00     0.005 A 
ATOM     27  C   UNL     1       5.357  41.605  49.970  1.00  0.00     0.000 A 
ATOM     28  C   UNL     1       8.194  44.003  49.174  1.00  0.00     0.046 C 
ENDBRANCH  20  22
ENDBRANCH  13  20
ENDBRANCH   8  10
ENDBRANCH   1   8
TORSDOF 7
ENDMDL
MODEL 2
REMARK VINA RESULT:    -8.368      1.921      5.318
REMARK INTER + INTRA:         -12.791
REMARK INTER:                 -11.843
REMARK INTRA:                  -0.948
REMARK UNBOUND:                -0.999
REMARK SMILES Cc1ccccc1Nc1nc(NCCC[NH+](C)C)nc2c1cnn2C
REMARK SMILES IDX 13 1 14 2 15 3 16 4 17 5 18 6 12 8 11 10 10 11 19 12 9 13
REMARK SMILES IDX 20 14 21 15 24 16 22 17 23 18 25 19 8 20 7 22 6 23 2 24 5 25
REMARK SMILES IDX 3 26 4 27 1 28
REMARK H PARENT 16 7 12 9 8 21
ROOT
ATOM      1  C   UNL     1       1.634  43.069  52.483  1.00  0.00     0.122 C 
ENDROOT
BRANCH   1   2
ATOM      2  C   UNL     1       0.497  43.978  52.961  1.00  0.00     0.083 C 
BRANCH   2   3
ATOM      3  C   UNL     1       1.027  45.285  53.545  1.00  0.00     0.263 C 
BRANCH   3   4
ATOM      4  N   UNL     1       0.413  45.558  54.910  1.00  0.00    -0.340 N 
ATOM      5  C   UNL     1       1.349  45.314  56.059  1.00  0.00     0.332 C 
ATOM      6  C   UNL     1      -0.871  44.788  55.085  1.00  0.00     0.332 C 
ATOM      7  H   UNL     1       0.152  46.553  54.925  1.00  0.00     0.347 HD
ENDBRANCH   3   4
ENDBRANCH   2   3
ENDBRANCH   1   2
BRANCH   1   8
ATOM      8  N   UNL     1       2.893  43.403  53.123  1.00  0.00    -0.354 N 
ATOM      9  H   UNL     1       2.868  44.266  53.669  1.00  0.00     0.163 HD
BRANCH   8  10
ATOM     10  C   UNL     1       3.967  43.623  52.259  1.00  0.00     0.226 A 
ATOM     11  N   UNL     1       4.587  44.799  52.451  1.00  0.00    -0.195 NA
ATOM     12  N   UNL     1       4.300  42.689  51.357  1.00  0.00    -0.193 NA
ATOM     13  C   UNL     1       5.664  45.133  51.694  1.00  0.00     0.147 A 
ATOM     14  C   UNL     1       5.342  43.061  50.594  1.00  0.00     0.165 A 
ATOM     15  C   UNL     1       6.059  44.239  50.697  1.00  0.00     0.082 A 
ATOM     16  N   UNL     1       5.907  42.372  49.553  1.00  0.00    -0.250 N 
ATOM     17  C   UNL     1       7.022  44.158  49.670  1.00  0.00     0.149 A 
ATOM     18  N   UNL     1       6.946  43.014  48.980  1.00  0.00    -0.179 NA
ATOM     19  C   UNL     1       5.501  41.092  49.031  1.00  0.00     0.176 C 
BRANCH  13  20
ATOM     20  N   UNL     1       6.252  46.383  51.932  1.00  0.00    -0.339 N 
ATOM     21  H   UNL     1       5.542  46.997  52.324  1.00  0.00     0.168 HD
BRANCH  20  22
ATOM     22  C   UNL     1       7.514  46.659  52.507  1.00  0.00     0.043 A 
ATOM     23  C   UNL     1       8.695  46.617  51.750  1.00  0.00     0.026 A 
ATOM     24  C   UNL     1       7.605  46.895  53.895  1.00  0.00    -0.028 A 
ATOM     25  C   UNL     1       9.938  46.848  52.343  1.00  0.00     0.002 A 
ATOM     26  C   UNL     1       8.860  47.123  54.480  1.00  0.00     0.005 A 
ATOM     27  C   UNL     1      10.020  47.106  53.707  1.00  0.00     0.000 A 
ATOM     28  C   UNL     1       6.373  46.926  54.760  1.00  0.00     0.046 C 
ENDBRANCH  20  22
ENDBRANCH  13  20
ENDBRANCH   8  10
ENDBRANCH   1   8
TORSDOF 7
ENDMDL
MODEL 3
REMARK VINA RESULT:    -8.349      1.842      5.165
REMARK INTER + INTRA:         -12.765
REMARK INTER:                 -11.320
REMARK INTRA:                  -1.445
REMARK UNBOUND:                -0.999
REMARK SMILES Cc1ccccc1Nc1nc(NCCC[NH+](C)C)nc2c1cnn2C
REMARK SMILES IDX 13 1 14 2 15 3 16 4 17 5 18 6 12 8 11 10 10 11 19 12 9 13
REMARK SMILES IDX 20 14 21 15 24 16 22 17 23 18 25 19 8 20 7 22 6 23 2 24 5 25
REMARK SMILES IDX 3 26 4 27 1 28
REMARK H PARENT 16 7 12 9 8 21
ROOT
ATOM      1  C   UNL     1       1.730  45.468  52.730  1.00  0.00     0.122 C 
ENDROOT
BRANCH   1   2
ATOM      2  C   UNL     1       2.118  45.999  54.114  1.00  0.00     0.083 C 
BRANCH   2   3
ATOM      3  C   UNL     1       3.089  45.060  54.826  1.00  0.00     0.263 C 
BRANCH   3   4
ATOM      4  N   UNL     1       4.409  45.760  55.112  1.00  0.00    -0.340 N 
ATOM      5  C   UNL     1       4.485  47.160  54.574  1.00  0.00     0.332 C 
ATOM      6  C   UNL     1       5.572  44.931  54.629  1.00  0.00     0.332 C 
ATOM      7  H   UNL     1       4.503  45.813  56.135  1.00  0.00     0.347 HD
ENDBRANCH   3   4
ENDBRANCH   2   3
ENDBRANCH   1   2
BRANCH   1   8
ATOM      8  N   UNL     1       2.560  46.038  51.684  1.00  0.00    -0.354 N 
ATOM      9  H   UNL     1       2.063  46.225  50.812  1.00  0.00     0.163 HD
BRANCH   8  10
ATOM     10  C   UNL     1       3.625  45.240  51.260  1.00  0.00     0.226 A 
ATOM     11  N   UNL     1       4.779  45.910  51.109  1.00  0.00    -0.195 NA
ATOM     12  N   UNL     1       3.437  43.928  51.062  1.00  0.00    -0.193 NA
ATOM     13  C   UNL     1       5.903  45.252  50.722  1.00  0.00     0.147 A 
ATOM     14  C   UNL     1       4.553  43.308  50.640  1.00  0.00     0.165 A 
ATOM     15  C   UNL     1       5.794  43.887  50.450  1.00  0.00     0.082 A 
ATOM     16  N   UNL     1       4.702  41.989  50.300  1.00  0.00    -0.250 N 
ATOM     17  C   UNL     1       6.610  42.833  49.988  1.00  0.00     0.149 A 
ATOM     18  N   UNL     1       5.954  41.669  49.912  1.00  0.00    -0.179 NA
ATOM     19  C   UNL     1       3.687  40.967  50.305  1.00  0.00     0.176 C 
BRANCH  13  20
ATOM     20  N   UNL     1       7.068  46.014  50.563  1.00  0.00    -0.339 N 
ATOM     21  H   UNL     1       6.849  46.807  49.965  1.00  0.00     0.168 HD
BRANCH  20  22
ATOM     22  C   UNL     1       8.009  46.387  51.551  1.00  0.00     0.043 A 
ATOM     23  C   UNL     1       7.689  47.301  52.568  1.00  0.00     0.026 A 
ATOM     24  C   UNL     1       9.331  45.901  51.466  1.00  0.00    -0.028 A 
ATOM     25  C   UNL     1       8.642  47.692  53.508  1.00  0.00     0.002 A 
ATOM     26  C   UNL     1      10.282  46.304  52.417  1.00  0.00     0.005 A 
ATOM     27  C   UNL     1       9.937  47.191  53.435  1.00  0.00     0.000 A 
ATOM     28  C   UNL     1       9.737  44.938  50.382  1.00  0.00     0.046 C 
ENDBRANCH  20  22
ENDBRANCH  13  20
ENDBRANCH   8  10
ENDBRANCH   1   8
TORSDOF 7
ENDMDL
MODEL 4
REMARK VINA RESULT:    -8.295      0.794      1.594
REMARK INTER + INTRA:         -12.688
REMARK INTER:                 -11.612
REMARK INTRA:                  -1.075
REMARK UNBOUND:                -0.999
REMARK SMILES Cc1ccccc1Nc1nc(NCCC[NH+](C)C)nc2c1cnn2C
REMARK SMILES IDX 13 1 14 2 15 3 16 4 17 5 18 6 12 8 11 10 10 11 19 12 9 13
REMARK SMILES IDX 20 14 21 15 24 16 22 17 23 18 25 19 8 20 7 22 6 23 2 24 5 25
REMARK SMILES IDX 3 26 4 27 1 28
REMARK H PARENT 16 7 12 9 8 21
ROOT
ATOM      1  C   UNL     1       3.604  45.340  55.493  1.00  0.00     0.122 C 
ENDROOT
BRANCH   1   2
ATOM      2  C   UNL     1       2.100  45.618  55.394  1.00  0.00     0.083 C 
BRANCH   2   3
ATOM      3  C   UNL     1       1.418  44.683  54.399  1.00  0.00     0.263 C 
BRANCH   3   4
ATOM      4  N   UNL     1       0.709  45.473  53.309  1.00  0.00    -0.340 N 
ATOM      5  C   UNL     1      -0.265  44.661  52.504  1.00  0.00     0.332 C 
ATOM      6  C   UNL     1       1.704  46.168  52.416  1.00  0.00     0.332 C 
ATOM      7  H   UNL     1       0.180  46.219  53.780  1.00  0.00     0.347 HD
ENDBRANCH   3   4
ENDBRANCH   2   3
ENDBRANCH   1   2
BRANCH   1   8
ATOM      8  N   UNL     1       4.383  46.562  55.397  1.00  0.00    -0.354 N 
ATOM      9  H   UNL     1       3.843  47.380  55.113  1.00  0.00     0.163 HD
BRANCH   8  10
ATOM     10  C   UNL     1       5.419  46.542  54.462  1.00  0.00     0.226 A 
ATOM     11  N   UNL     1       5.072  46.010  53.278  1.00  0.00    -0.195 NA
ATOM     12  N   UNL     1       6.619  47.045  54.784  1.00  0.00    -0.193 NA
ATOM     13  C   UNL     1       5.977  45.948  52.267  1.00  0.00     0.147 A 
ATOM     14  C   UNL     1       7.508  46.934  53.781  1.00  0.00     0.165 A 
ATOM     15  C   UNL     1       7.269  46.410  52.525  1.00  0.00     0.082 A 
ATOM     16  N   UNL     1       8.828  47.300  53.788  1.00  0.00    -0.250 N 
ATOM     17  C   UNL     1       8.511  46.501  51.861  1.00  0.00     0.149 A 
ATOM     18  N   UNL     1       9.461  47.059  52.620  1.00  0.00    -0.179 NA
ATOM     19  C   UNL     1       9.569  47.876  54.881  1.00  0.00     0.176 C 
BRANCH  13  20
ATOM     20  N   UNL     1       5.556  45.364  51.065  1.00  0.00    -0.339 N 
ATOM     21  H   UNL     1       5.645  46.059  50.327  1.00  0.00     0.168 HD
BRANCH  20  22
ATOM     22  C   UNL     1       5.859  44.075  50.567  1.00  0.00     0.043 A 
ATOM     23  C   UNL     1       6.967  43.848  49.735  1.00  0.00     0.026 A 
ATOM     24  C   UNL     1       4.980  43.005  50.836  1.00  0.00    -0.028 A 
ATOM     25  C   UNL     1       7.226  42.579  49.215  1.00  0.00     0.002 A 
ATOM     26  C   UNL     1       5.251  41.734  50.306  1.00  0.00     0.005 A 
ATOM     27  C   UNL     1       6.371  41.521  49.504  1.00  0.00     0.000 A 
ATOM     28  C   UNL     1       3.764  43.197  51.702  1.00  0.00     0.046 C 
ENDBRANCH  20  22
ENDBRANCH  13  20
ENDBRANCH   8  10
ENDBRANCH   1   8
TORSDOF 7
ENDMDL
MODEL 5
REMARK VINA RESULT:    -8.179      1.865      5.004
REMARK INTER + INTRA:         -12.525
REMARK INTER:                 -11.388
REMARK INTRA:                  -1.137
REMARK UNBOUND:                -0.999
REMARK SMILES Cc1ccccc1Nc1nc(NCCC[NH+](C)C)nc2c1cnn2C
REMARK SMILES IDX 13 1 14 2 15 3 16 4 17 5 18 6 12 8 11 10 10 11 19 12 9 13
REMARK SMILES IDX 20 14 21 15 24 16 22 17 23 18 25 19 8 20 7 22 6 23 2 24 5 25
REMARK SMILES IDX 3 26 4 27 1 28
REMARK H PARENT 16 7 12 9 8 21
ROOT
ATOM      1  C   UNL     1       2.246  45.657  54.422  1.00  0.00     0.122 C 
ENDROOT
BRANCH   1   2
ATOM      2  C   UNL     1       0.831  45.153  54.118  1.00  0.00     0.083 C 
BRANCH   2   3
ATOM      3  C   UNL     1       0.556  45.116  52.617  1.00  0.00     0.263 C 
BRANCH   3   4
ATOM      4  N   UNL     1       0.138  43.721  52.177  1.00  0.00    -0.340 N 
ATOM      5  C   UNL     1       0.315  42.670  53.236  1.00  0.00     0.332 C 
ATOM      6  C   UNL     1       0.837  43.328  50.901  1.00  0.00     0.332 C 
ATOM      7  H   UNL     1      -0.864  43.769  51.949  1.00  0.00     0.347 HD
ENDBRANCH   3   4
ENDBRANCH   2   3
ENDBRANCH   1   2
BRANCH   1   8
ATOM      8  N   UNL     1       3.197  44.563  54.511  1.00  0.00    -0.354 N 
ATOM      9  H   UNL     1       3.872  44.658  55.271  1.00  0.00     0.163 HD
BRANCH   8  10
ATOM     10  C   UNL     1       4.019  44.389  53.396  1.00  0.00     0.226 A 
ATOM     11  N   UNL     1       4.916  45.373  53.223  1.00  0.00    -0.195 NA
ATOM     12  N   UNL     1       3.877  43.301  52.626  1.00  0.00    -0.193 NA
ATOM     13  C   UNL     1       5.795  45.320  52.189  1.00  0.00     0.147 A 
ATOM     14  C   UNL     1       4.730  43.293  51.587  1.00  0.00     0.165 A 
ATOM     15  C   UNL     1       5.694  44.243  51.306  1.00  0.00     0.082 A 
ATOM     16  N   UNL     1       4.822  42.362  50.586  1.00  0.00    -0.250 N 
ATOM     17  C   UNL     1       6.300  43.792  50.116  1.00  0.00     0.149 A 
ATOM     18  N   UNL     1       5.785  42.636  49.680  1.00  0.00    -0.179 NA
ATOM     19  C   UNL     1       4.013  41.183  50.413  1.00  0.00     0.176 C 
BRANCH  13  20
ATOM     20  N   UNL     1       6.691  46.389  52.054  1.00  0.00    -0.339 N 
ATOM     21  H   UNL     1       6.150  47.241  51.920  1.00  0.00     0.168 HD
BRANCH  20  22
ATOM     22  C   UNL     1       7.851  46.657  52.817  1.00  0.00     0.043 A 
ATOM     23  C   UNL     1       7.782  47.292  54.068  1.00  0.00     0.026 A 
ATOM     24  C   UNL     1       9.120  46.364  52.274  1.00  0.00    -0.028 A 
ATOM     25  C   UNL     1       8.940  47.590  54.787  1.00  0.00     0.002 A 
ATOM     26  C   UNL     1      10.277  46.671  53.006  1.00  0.00     0.005 A 
ATOM     27  C   UNL     1      10.187  47.276  54.258  1.00  0.00     0.000 A 
ATOM     28  C   UNL     1       9.255  45.706  50.926  1.00  0.00     0.046 C 
ENDBRANCH  20  22
ENDBRANCH  13  20
ENDBRANCH   8  10
ENDBRANCH   1   8
TORSDOF 7
ENDMDL
MODEL 6
REMARK VINA RESULT:    -8.139      1.802      5.124
REMARK INTER + INTRA:         -12.468
REMARK INTER:                 -11.600
REMARK INTRA:                  -0.868
REMARK UNBOUND:                -0.999
REMARK SMILES Cc1ccccc1Nc1nc(NCCC[NH+](C)C)nc2c1cnn2C
REMARK SMILES IDX 13 1 14 2 15 3 16 4 17 5 18 6 12 8 11 10 10 11 19 12 9 13
REMARK SMILES IDX 20 14 21 15 24 16 22 17 23 18 25 19 8 20 7 22 6 23 2 24 5 25
REMARK SMILES IDX 3 26 4 27 1 28
REMARK H PARENT 16 7 12 9 8 21
ROOT
ATOM      1  C   UNL     1       3.039  44.959  54.365  1.00  0.00     0.122 C 
ENDROOT
BRANCH   1   2
ATOM      2  C   UNL     1       1.744  44.920  55.184  1.00  0.00     0.083 C 
BRANCH   2   3
ATOM      3  C   UNL     1       0.652  44.123  54.476  1.00  0.00     0.263 C 
BRANCH   3   4
ATOM      4  N   UNL     1      -0.403  45.050  53.890  1.00  0.00    -0.340 N 
ATOM      5  C   UNL     1      -1.811  44.679  54.259  1.00  0.00     0.332 C 
ATOM      6  C   UNL     1      -0.247  45.165  52.395  1.00  0.00     0.332 C 
ATOM      7  H   UNL     1      -0.217  45.988  54.268  1.00  0.00     0.347 HD
ENDBRANCH   3   4
ENDBRANCH   2   3
ENDBRANCH   1   2
BRANCH   1   8
ATOM      8  N   UNL     1       3.093  43.879  53.396  1.00  0.00    -0.354 N 
ATOM      9  H   UNL     1       3.240  42.956  53.808  1.00  0.00     0.163 HD
BRANCH   8  10
ATOM     10  C   UNL     1       4.127  43.961  52.462  1.00  0.00     0.226 A 
ATOM     11  N   UNL     1       4.855  45.086  52.554  1.00  0.00    -0.195 NA
ATOM     12  N   UNL     1       4.324  42.958  51.595  1.00  0.00    -0.193 NA
ATOM     13  C   UNL     1       5.908  45.287  51.720  1.00  0.00     0.147 A 
ATOM     14  C   UNL     1       5.345  43.199  50.754  1.00  0.00     0.165 A 
ATOM     15  C   UNL     1       6.164  44.313  50.752  1.00  0.00     0.082 A 
ATOM     16  N   UNL     1       5.785  42.413  49.722  1.00  0.00    -0.250 N 
ATOM     17  C   UNL     1       7.052  44.098  49.678  1.00  0.00     0.149 A 
ATOM     18  N   UNL     1       6.838  42.933  49.057  1.00  0.00    -0.179 NA
ATOM     19  C   UNL     1       5.241  41.149  49.295  1.00  0.00     0.176 C 
BRANCH  13  20
ATOM     20  N   UNL     1       6.613  46.490  51.856  1.00  0.00    -0.339 N 
ATOM     21  H   UNL     1       5.943  47.227  52.066  1.00  0.00     0.168 HD
BRANCH  20  22
ATOM     22  C   UNL     1       7.827  46.718  52.544  1.00  0.00     0.043 A 
ATOM     23  C   UNL     1       9.072  46.560  51.914  1.00  0.00     0.026 A 
ATOM     24  C   UNL     1       7.796  47.024  53.920  1.00  0.00    -0.028 A 
ATOM     25  C   UNL     1      10.263  46.745  52.620  1.00  0.00     0.002 A 
ATOM     26  C   UNL     1       9.000  47.206  54.619  1.00  0.00     0.005 A 
ATOM     27  C   UNL     1      10.226  47.072  53.971  1.00  0.00     0.000 A 
ATOM     28  C   UNL     1       6.490  47.182  54.652  1.00  0.00     0.046 C 
ENDBRANCH  20  22
ENDBRANCH  13  20
ENDBRANCH   8  10
ENDBRANCH   1   8
TORSDOF 7
ENDMDL
MODEL 7
REMARK VINA RESULT:    -8.085      3.070      7.024
REMARK INTER + INTRA:         -12.392
REMARK INTER:                 -11.582
REMARK INTRA:                  -0.810
REMARK UNBOUND:                -0.999
REMARK SMILES Cc1ccccc1Nc1nc(NCCC[NH+](C)C)nc2c1cnn2C
REMARK SMILES IDX 13 1 14 2 15 3 16 4 17 5 18 6 12 8 11 10 10 11 19 12 9 13
REMARK SMILES IDX 20 14 21 15 24 16 22 17 23 18 25 19 8 20 7 22 6 23 2 24 5 25
REMARK SMILES IDX 3 26 4 27 1 28
REMARK H PARENT 16 7 12 9 8 21
ROOT
ATOM      1  C   UNL     1       5.373  41.174  48.140  1.00  0.00     0.122 C 
ENDROOT
BRANCH   1   2
ATOM      2  C   UNL     1       5.822  41.902  46.868  1.00  0.00     0.083 C 
BRANCH   2   3
ATOM      3  C   UNL     1       4.826  41.711  45.727  1.00  0.00     0.263 C 
BRANCH   3   4
ATOM      4  N   UNL     1       4.911  40.300  45.165  1.00  0.00    -0.340 N 
ATOM      5  C   UNL     1       5.558  40.222  43.811  1.00  0.00     0.332 C 
ATOM      6  C   UNL     1       3.554  39.643  45.155  1.00  0.00     0.332 C 
ATOM      7  H   UNL     1       5.487  39.753  45.818  1.00  0.00     0.347 HD
ENDBRANCH   3   4
ENDBRANCH   2   3
ENDBRANCH   1   2
BRANCH   1   8
ATOM      8  N   UNL     1       6.224  41.495  49.271  1.00  0.00    -0.354 N 
ATOM      9  H   UNL     1       6.314  40.741  49.954  1.00  0.00     0.163 HD
BRANCH   8  10
ATOM     10  C   UNL     1       5.798  42.567  50.058  1.00  0.00     0.226 A 
ATOM     11  N   UNL     1       6.608  43.637  50.004  1.00  0.00    -0.195 NA
ATOM     12  N   UNL     1       4.662  42.467  50.762  1.00  0.00    -0.193 NA
ATOM     13  C   UNL     1       6.302  44.760  50.704  1.00  0.00     0.147 A 
ATOM     14  C   UNL     1       4.403  43.575  51.478  1.00  0.00     0.165 A 
ATOM     15  C   UNL     1       5.156  44.734  51.502  1.00  0.00     0.082 A 
ATOM     16  N   UNL     1       3.358  43.793  52.337  1.00  0.00    -0.250 N 
ATOM     17  C   UNL     1       4.482  45.576  52.410  1.00  0.00     0.149 A 
ATOM     18  N   UNL     1       3.374  45.015  52.910  1.00  0.00    -0.179 NA
ATOM     19  C   UNL     1       2.303  42.874  52.678  1.00  0.00     0.176 C 
BRANCH  13  20
ATOM     20  N   UNL     1       7.200  45.832  50.620  1.00  0.00    -0.339 N 
ATOM     21  H   UNL     1       6.714  46.618  50.192  1.00  0.00     0.168 HD
BRANCH  20  22
ATOM     22  C   UNL     1       8.109  46.291  51.601  1.00  0.00     0.043 A 
ATOM     23  C   UNL     1       7.729  47.221  52.582  1.00  0.00     0.026 A 
ATOM     24  C   UNL     1       9.455  45.875  51.544  1.00  0.00    -0.028 A 
ATOM     25  C   UNL     1       8.651  47.697  53.516  1.00  0.00     0.002 A 
ATOM     26  C   UNL     1      10.373  46.362  52.488  1.00  0.00     0.005 A 
ATOM     27  C   UNL     1       9.972  47.264  53.471  1.00  0.00     0.000 A 
ATOM     28  C   UNL     1       9.924  44.898  50.499  1.00  0.00     0.046 C 
ENDBRANCH  20  22
ENDBRANCH  13  20
ENDBRANCH   8  10
ENDBRANCH   1   8
TORSDOF 7
ENDMDL
MODEL 8
REMARK VINA RESULT:    -8.015      1.761      4.985
REMARK INTER + INTRA:         -12.294
REMARK INTER:                 -11.385
REMARK INTRA:                  -0.909
REMARK UNBOUND:                -0.999
REMARK SMILES Cc1ccccc1Nc1nc(NCCC[NH+](C)C)nc2c1cnn2C
REMARK SMILES IDX 13 1 14 2 15 3 16 4 17 5 18 6 12 8 11 10 10 11 19 12 9 13
REMARK SMILES IDX 20 14 21 15 24 16 22 17 23 18 25 19 8 20 7 22 6 23 2 24 5 25
REMARK SMILES IDX 3 26 4 27 1 28
REMARK H PARENT 16 7 12 9 8 21
ROOT
ATOM      1  C   UNL     1       3.672  44.973  54.219  1.00  0.00     0.122 C 
ENDROOT
BRANCH   1   2
ATOM      2  C   UNL     1       2.300  45.636  54.381  1.00  0.00     0.083 C 
BRANCH   2   3
ATOM      3  C   UNL     1       1.237  44.634  54.821  1.00  0.00     0.263 C 
BRANCH   3   4
ATOM      4  N   UNL     1       0.027  44.686  53.899  1.00  0.00    -0.340 N 
ATOM      5  C   UNL     1      -0.654  43.360  53.713  1.00  0.00     0.332 C 
ATOM      6  C   UNL     1       0.390  45.300  52.571  1.00  0.00     0.332 C 
ATOM      7  H   UNL     1      -0.650  45.327  54.333  1.00  0.00     0.347 HD
ENDBRANCH   3   4
ENDBRANCH   2   3
ENDBRANCH   1   2
BRANCH   1   8
ATOM      8  N   UNL     1       3.635  43.896  53.245  1.00  0.00    -0.354 N 
ATOM      9  H   UNL     1       3.773  42.967  53.646  1.00  0.00     0.163 HD
BRANCH   8  10
ATOM     10  C   UNL     1       4.618  43.948  52.255  1.00  0.00     0.226 A 
ATOM     11  N   UNL     1       5.415  45.026  52.336  1.00  0.00    -0.195 NA
ATOM     12  N   UNL     1       4.708  42.962  51.352  1.00  0.00    -0.193 NA
ATOM     13  C   UNL     1       6.429  45.193  51.448  1.00  0.00     0.147 A 
ATOM     14  C   UNL     1       5.692  43.170  50.460  1.00  0.00     0.165 A 
ATOM     15  C   UNL     1       6.573  44.235  50.442  1.00  0.00     0.082 A 
ATOM     16  N   UNL     1       6.027  42.392  49.384  1.00  0.00    -0.250 N 
ATOM     17  C   UNL     1       7.386  44.003  49.313  1.00  0.00     0.149 A 
ATOM     18  N   UNL     1       7.070  42.871  48.673  1.00  0.00    -0.179 NA
ATOM     19  C   UNL     1       5.387  41.175  48.955  1.00  0.00     0.176 C 
BRANCH  13  20
ATOM     20  N   UNL     1       7.210  46.349  51.576  1.00  0.00    -0.339 N 
ATOM     21  H   UNL     1       6.634  47.149  51.321  1.00  0.00     0.168 HD
BRANCH  20  22
ATOM     22  C   UNL     1       8.096  46.694  52.623  1.00  0.00     0.043 A 
ATOM     23  C   UNL     1       7.659  47.394  53.759  1.00  0.00     0.026 A 
ATOM     24  C   UNL     1       9.471  46.409  52.488  1.00  0.00    -0.028 A 
ATOM     25  C   UNL     1       8.555  47.766  54.762  1.00  0.00     0.002 A 
ATOM     26  C   UNL     1      10.362  46.790  53.502  1.00  0.00     0.005 A 
ATOM     27  C   UNL     1       9.906  47.460  54.636  1.00  0.00     0.000 A 
ATOM     28  C   UNL     1       9.999  45.683  51.279  1.00  0.00     0.046 C 
ENDBRANCH  20  22
ENDBRANCH  13  20
ENDBRANCH   8  10
ENDBRANCH   1   8
TORSDOF 7
ENDMDL
MODEL 9
REMARK VINA RESULT:    -8.014      2.635      6.416
REMARK INTER + INTRA:         -12.292
REMARK INTER:                 -11.415
REMARK INTRA:                  -0.877
REMARK UNBOUND:                -0.999
REMARK SMILES Cc1ccccc1Nc1nc(NCCC[NH+](C)C)nc2c1cnn2C
REMARK SMILES IDX 13 1 14 2 15 3 16 4 17 5 18 6 12 8 11 10 10 11 19 12 9 13
REMARK SMILES IDX 20 14 21 15 24 16 22 17 23 18 25 19 8 20 7 22 6 23 2 24 5 25
REMARK SMILES IDX 3 26 4 27 1 28
REMARK H PARENT 16 7 12 9 8 21
ROOT
ATOM      1  C   UNL     1       5.774  41.546  49.810  1.00  0.00     0.122 C 
ENDROOT
BRANCH   1   2
ATOM      2  C   UNL     1       5.319  41.213  48.386  1.00  0.00     0.083 C 
BRANCH   2   3
ATOM      3  C   UNL     1       3.994  40.454  48.379  1.00  0.00     0.263 C 
BRANCH   3   4
ATOM      4  N   UNL     1       3.804  39.706  47.069  1.00  0.00    -0.340 N 
ATOM      5  C   UNL     1       3.442  40.590  45.909  1.00  0.00     0.332 C 
ATOM      6  C   UNL     1       2.806  38.588  47.228  1.00  0.00     0.332 C 
ATOM      7  H   UNL     1       4.702  39.255  46.850  1.00  0.00     0.347 HD
ENDBRANCH   3   4
ENDBRANCH   2   3
ENDBRANCH   1   2
BRANCH   1   8
ATOM      8  N   UNL     1       4.657  41.568  50.739  1.00  0.00    -0.354 N 
ATOM      9  H   UNL     1       3.757  41.340  50.314  1.00  0.00     0.163 HD
BRANCH   8  10
ATOM     10  C   UNL     1       4.403  42.801  51.343  1.00  0.00     0.226 A 
ATOM     11  N   UNL     1       5.269  43.766  50.994  1.00  0.00    -0.195 NA
ATOM     12  N   UNL     1       3.357  42.935  52.171  1.00  0.00    -0.193 NA
ATOM     13  C   UNL     1       5.127  45.022  51.491  1.00  0.00     0.147 A 
ATOM     14  C   UNL     1       3.262  44.176  52.680  1.00  0.00     0.165 A 
ATOM     15  C   UNL     1       4.088  45.247  52.397  1.00  0.00     0.082 A 
ATOM     16  N   UNL     1       2.347  44.641  53.587  1.00  0.00    -0.250 N 
ATOM     17  C   UNL     1       3.588  46.300  53.191  1.00  0.00     0.149 A 
ATOM     18  N   UNL     1       2.515  45.942  53.906  1.00  0.00    -0.179 NA
ATOM     19  C   UNL     1       1.283  43.898  54.213  1.00  0.00     0.176 C 
BRANCH  13  20
ATOM     20  N   UNL     1       6.076  45.977  51.103  1.00  0.00    -0.339 N 
ATOM     21  H   UNL     1       5.588  46.848  50.907  1.00  0.00     0.168 HD
BRANCH  20  22
ATOM     22  C   UNL     1       7.339  46.239  51.683  1.00  0.00     0.043 A 
ATOM     23  C   UNL     1       7.478  47.090  52.792  1.00  0.00     0.026 A 
ATOM     24  C   UNL     1       8.500  45.709  51.084  1.00  0.00    -0.028 A 
ATOM     25  C   UNL     1       8.736  47.375  53.325  1.00  0.00     0.002 A 
ATOM     26  C   UNL     1       9.760  46.004  51.628  1.00  0.00     0.005 A 
ATOM     27  C   UNL     1       9.876  46.828  52.746  1.00  0.00     0.000 A 
ATOM     28  C   UNL     1       8.412  44.811  49.879  1.00  0.00     0.046 C 
ENDBRANCH  20  22
ENDBRANCH  13  20
ENDBRANCH   8  10
ENDBRANCH   1   8
TORSDOF 7
ENDMDL
MODEL 10
REMARK VINA RESULT:    -7.994      2.450      6.767
REMARK INTER + INTRA:         -12.264
REMARK INTER:                 -11.457
REMARK INTRA:                  -0.807
REMARK UNBOUND:                -0.999
REMARK SMILES Cc1ccccc1Nc1nc(NCCC[NH+](C)C)nc2c1cnn2C
REMARK SMILES IDX 13 1 14 2 15 3 16 4 17 5 18 6 12 8 11 10 10 11 19 12 9 13
REMARK SMILES IDX 20 14 21 15 24 16 22 17 23 18 25 19 8 20 7 22 6 23 2 24 5 25
REMARK SMILES IDX 3 26 4 27 1 28
REMARK H PARENT 16 7 12 9 8 21
ROOT
ATOM      1  C   UNL     1       6.628  42.636  49.421  1.00  0.00     0.122 C 
ENDROOT
BRANCH   1   2
ATOM      2  C   UNL     1       6.174  42.277  48.002  1.00  0.00     0.083 C 
BRANCH   2   3
ATOM      3  C   UNL     1       5.143  41.151  48.007  1.00  0.00     0.263 C 
BRANCH   3   4
ATOM      4  N   UNL     1       4.779  40.743  46.588  1.00  0.00    -0.340 N 
ATOM      5  C   UNL     1       5.147  41.762  45.547  1.00  0.00     0.332 C 
ATOM      6  C   UNL     1       3.321  40.374  46.492  1.00  0.00     0.332 C 
ATOM      7  H   UNL     1       5.304  39.882  46.382  1.00  0.00     0.347 HD
ENDBRANCH   3   4
ENDBRANCH   2   3
ENDBRANCH   1   2
BRANCH   1   8
ATOM      8  N   UNL     1       5.698  42.144  50.422  1.00  0.00    -0.354 N 
ATOM      9  H   UNL     1       4.931  41.588  50.041  1.00  0.00     0.163 HD
BRANCH   8  10
ATOM     10  C   UNL     1       5.027  43.125  51.154  1.00  0.00     0.226 A 
ATOM     11  N   UNL     1       5.670  44.303  51.199  1.00  0.00    -0.195 NA
ATOM     12  N   UNL     1       3.842  42.845  51.715  1.00  0.00    -0.193 NA
ATOM     13  C   UNL     1       5.119  45.355  51.860  1.00  0.00     0.147 A 
ATOM     14  C   UNL     1       3.338  43.889  52.396  1.00  0.00     0.165 A 
ATOM     15  C   UNL     1       3.903  45.145  52.514  1.00  0.00     0.082 A 
ATOM     16  N   UNL     1       2.178  43.934  53.124  1.00  0.00    -0.250 N 
ATOM     17  C   UNL     1       3.008  45.861  53.335  1.00  0.00     0.149 A 
ATOM     18  N   UNL     1       1.945  45.133  53.696  1.00  0.00    -0.179 NA
ATOM     19  C   UNL     1       1.238  42.862  53.334  1.00  0.00     0.176 C 
BRANCH  13  20
ATOM     20  N   UNL     1       5.851  46.550  51.885  1.00  0.00    -0.339 N 
ATOM     21  H   UNL     1       5.248  47.282  52.254  1.00  0.00     0.168 HD
BRANCH  20  22
ATOM     22  C   UNL     1       7.185  46.748  52.311  1.00  0.00     0.043 A 
ATOM     23  C   UNL     1       8.259  46.721  51.408  1.00  0.00     0.026 A 
ATOM     24  C   UNL     1       7.458  46.888  53.688  1.00  0.00    -0.028 A 
ATOM     25  C   UNL     1       9.574  46.874  51.851  1.00  0.00     0.002 A 
ATOM     26  C   UNL     1       8.784  47.039  54.121  1.00  0.00     0.005 A 
ATOM     27  C   UNL     1       9.836  47.037  53.207  1.00  0.00     0.000 A 
ATOM     28  C   UNL     1       6.346  46.899  54.703  1.00  0.00     0.046 C 
ENDBRANCH  20  22
ENDBRANCH  13  20
ENDBRANCH   8  10
ENDBRANCH   1   8
TORSDOF 7
ENDMDL
MODEL 11
REMARK VINA RESULT:    -7.944      1.462      5.639
REMARK INTER + INTRA:         -12.194
REMARK INTER:                 -11.524
REMARK INTRA:                  -0.670
REMARK UNBOUND:                -0.999
REMARK SMILES Cc1ccccc1Nc1nc(NCCC[NH+](C)C)nc2c1cnn2C
REMARK SMILES IDX 13 1 14 2 15 3 16 4 17 5 18 6 12 8 11 10 10 11 19 12 9 13
REMARK SMILES IDX 20 14 21 15 24 16 22 17 23 18 25 19 8 20 7 22 6 23 2 24 5 25
REMARK SMILES IDX 3 26 4 27 1 28
REMARK H PARENT 16 7 12 9 8 21
ROOT
ATOM      1  C   UNL     1       7.266  46.296  54.299  1.00  0.00     0.122 C 
ENDROOT
BRANCH   1   2
ATOM      2  C   UNL     1       8.204  47.501  54.178  1.00  0.00     0.083 C 
BRANCH   2   3
ATOM      3  C   UNL     1       9.631  47.073  53.844  1.00  0.00     0.263 C 
BRANCH   3   4
ATOM      4  N   UNL     1       9.895  47.182  52.350  1.00  0.00    -0.340 N 
ATOM      5  C   UNL     1       8.756  47.780  51.573  1.00  0.00     0.332 C 
ATOM      6  C   UNL     1      10.299  45.848  51.777  1.00  0.00     0.332 C 
ATOM      7  H   UNL     1      10.710  47.799  52.235  1.00  0.00     0.347 HD
ENDBRANCH   3   4
ENDBRANCH   2   3
ENDBRANCH   1   2
BRANCH   1   8
ATOM      8  N   UNL     1       6.013  46.654  54.942  1.00  0.00    -0.354 N 
ATOM      9  H   UNL     1       6.003  46.497  55.951  1.00  0.00     0.163 HD
BRANCH   8  10
ATOM     10  C   UNL     1       4.892  45.942  54.512  1.00  0.00     0.226 A 
ATOM     11  N   UNL     1       5.009  45.442  53.271  1.00  0.00    -0.195 NA
ATOM     12  N   UNL     1       3.840  45.797  55.330  1.00  0.00    -0.193 NA
ATOM     13  C   UNL     1       4.000  44.707  52.735  1.00  0.00     0.147 A 
ATOM     14  C   UNL     1       2.840  45.102  54.761  1.00  0.00     0.165 A 
ATOM     15  C   UNL     1       2.843  44.539  53.499  1.00  0.00     0.082 A 
ATOM     16  N   UNL     1       1.611  44.813  55.294  1.00  0.00    -0.250 N 
ATOM     17  C   UNL     1       1.570  43.945  53.372  1.00  0.00     0.149 A 
ATOM     18  N   UNL     1       0.820  44.093  54.470  1.00  0.00    -0.179 NA
ATOM     19  C   UNL     1       1.107  45.202  56.586  1.00  0.00     0.176 C 
BRANCH  13  20
ATOM     20  N   UNL     1       4.178  44.231  51.429  1.00  0.00    -0.339 N 
ATOM     21  H   UNL     1       3.592  44.785  50.808  1.00  0.00     0.168 HD
BRANCH  20  22
ATOM     22  C   UNL     1       5.386  43.882  50.783  1.00  0.00     0.043 A 
ATOM     23  C   UNL     1       6.343  44.849  50.434  1.00  0.00     0.026 A 
ATOM     24  C   UNL     1       5.603  42.543  50.398  1.00  0.00    -0.028 A 
ATOM     25  C   UNL     1       7.510  44.493  49.757  1.00  0.00     0.002 A 
ATOM     26  C   UNL     1       6.780  42.197  49.716  1.00  0.00     0.005 A 
ATOM     27  C   UNL     1       7.731  43.167  49.401  1.00  0.00     0.000 A 
ATOM     28  C   UNL     1       4.600  41.468  50.725  1.00  0.00     0.046 C 
ENDBRANCH  20  22
ENDBRANCH  13  20
ENDBRANCH   8  10
ENDBRANCH   1   8
TORSDOF 7
ENDMDL
MODEL 12
REMARK VINA RESULT:    -7.830      1.592      5.926
REMARK INTER + INTRA:         -12.034
REMARK INTER:                 -11.414
REMARK INTRA:                  -0.620
REMARK UNBOUND:                -0.999
REMARK SMILES Cc1ccccc1Nc1nc(NCCC[NH+](C)C)nc2c1cnn2C
REMARK SMILES IDX 13 1 14 2 15 3 16 4 17 5 18 6 12 8 11 10 10 11 19 12 9 13
REMARK SMILES IDX 20 14 21 15 24 16 22 17 23 18 25 19 8 20 7 22 6 23 2 24 5 25
REMARK SMILES IDX 3 26 4 27 1 28
REMARK H PARENT 16 7 12 9 8 21
ROOT
ATOM      1  C   UNL     1       5.857  47.043  54.470  1.00  0.00     0.122 C 
ENDROOT
BRANCH   1   2
ATOM      2  C   UNL     1       7.357  46.759  54.341  1.00  0.00     0.083 C 
BRANCH   2   3
ATOM      3  C   UNL     1       7.891  47.159  52.969  1.00  0.00     0.263 C 
BRANCH   3   4
ATOM      4  N   UNL     1       9.400  47.350  53.008  1.00  0.00    -0.340 N 
ATOM      5  C   UNL     1      10.152  46.458  52.062  1.00  0.00     0.332 C 
ATOM      6  C   UNL     1       9.923  47.210  54.415  1.00  0.00     0.332 C 
ATOM      7  H   UNL     1       9.584  48.324  52.733  1.00  0.00     0.347 HD
ENDBRANCH   3   4
ENDBRANCH   2   3
ENDBRANCH   1   2
BRANCH   1   8
ATOM      8  N   UNL     1       5.192  46.052  55.298  1.00  0.00    -0.354 N 
ATOM      9  H   UNL     1       5.788  45.268  55.569  1.00  0.00     0.163 HD
BRANCH   8  10
ATOM     10  C   UNL     1       4.099  45.414  54.710  1.00  0.00     0.226 A 
ATOM     11  N   UNL     1       4.357  44.899  53.498  1.00  0.00    -0.195 NA
ATOM     12  N   UNL     1       2.933  45.346  55.369  1.00  0.00    -0.193 NA
ATOM     13  C   UNL     1       3.388  44.230  52.820  1.00  0.00     0.147 A 
ATOM     14  C   UNL     1       1.980  44.716  54.661  1.00  0.00     0.165 A 
ATOM     15  C   UNL     1       2.125  44.146  53.410  1.00  0.00     0.082 A 
ATOM     16  N   UNL     1       0.671  44.514  55.011  1.00  0.00    -0.250 N 
ATOM     17  C   UNL     1       0.846  43.638  53.100  1.00  0.00     0.149 A 
ATOM     18  N   UNL     1      -0.041  43.844  54.080  1.00  0.00    -0.179 NA
ATOM     19  C   UNL     1       0.014  44.945  56.219  1.00  0.00     0.176 C 
BRANCH  13  20
ATOM     20  N   UNL     1       3.718  43.736  51.551  1.00  0.00    -0.339 N 
ATOM     21  H   UNL     1       3.004  44.043  50.896  1.00  0.00     0.168 HD
BRANCH  20  22
ATOM     22  C   UNL     1       4.986  43.715  50.924  1.00  0.00     0.043 A 
ATOM     23  C   UNL     1       5.779  44.870  50.827  1.00  0.00     0.026 A 
ATOM     24  C   UNL     1       5.430  42.531  50.300  1.00  0.00    -0.028 A 
ATOM     25  C   UNL     1       7.008  44.843  50.165  1.00  0.00     0.002 A 
ATOM     26  C   UNL     1       6.666  42.517  49.636  1.00  0.00     0.005 A 
ATOM     27  C   UNL     1       7.453  43.666  49.573  1.00  0.00     0.000 A 
ATOM     28  C   UNL     1       4.609  41.270  50.352  1.00  0.00     0.046 C 
ENDBRANCH  20  22
ENDBRANCH  13  20
ENDBRANCH   8  10
ENDBRANCH   1   8
TORSDOF 7
ENDMDL
MODEL 13
REMARK VINA RESULT:    -7.813      1.426      5.452
REMARK INTER + INTRA:         -12.009
REMARK INTER:                 -11.115
REMARK INTRA:                  -0.894
REMARK UNBOUND:                -0.999
REMARK SMILES Cc1ccccc1Nc1nc(NCCC[NH+](C)C)nc2c1cnn2C
REMARK SMILES IDX 13 1 14 2 15 3 16 4 17 5 18 6 12 8 11 10 10 11 19 12 9 13
REMARK SMILES IDX 20 14 21 15 24 16 22 17 23 18 25 19 8 20 7 22 6 23 2 24 5 25
REMARK SMILES IDX 3 26 4 27 1 28
REMARK H PARENT 16 7 12 9 8 21
ROOT
ATOM      1  C   UNL     1       7.297  46.483  54.293  1.00  0.00     0.122 C 
ENDROOT
BRANCH   1   2
ATOM      2  C   UNL     1       8.408  47.505  54.552  1.00  0.00     0.083 C 
BRANCH   2   3
ATOM      3  C   UNL     1       9.666  47.187  53.748  1.00  0.00     0.263 C 
BRANCH   3   4
ATOM      4  N   UNL     1       9.309  46.707  52.349  1.00  0.00    -0.340 N 
ATOM      5  C   UNL     1      10.415  45.960  51.660  1.00  0.00     0.332 C 
ATOM      6  C   UNL     1       8.816  47.850  51.499  1.00  0.00     0.332 C 
ATOM      7  H   UNL     1       8.512  46.064  52.450  1.00  0.00     0.347 HD
ENDBRANCH   3   4
ENDBRANCH   2   3
ENDBRANCH   1   2
BRANCH   1   8
ATOM      8  N   UNL     1       6.075  46.829  54.998  1.00  0.00    -0.354 N 
ATOM      9  H   UNL     1       6.089  46.600  55.993  1.00  0.00     0.163 HD
BRANCH   8  10
ATOM     10  C   UNL     1       4.921  46.180  54.554  1.00  0.00     0.226 A 
ATOM     11  N   UNL     1       4.980  45.781  53.274  1.00  0.00    -0.195 NA
ATOM     12  N   UNL     1       3.895  45.994  55.396  1.00  0.00    -0.193 NA
ATOM     13  C   UNL     1       3.934  45.117  52.717  1.00  0.00     0.147 A 
ATOM     14  C   UNL     1       2.857  45.372  54.811  1.00  0.00     0.165 A 
ATOM     15  C   UNL     1       2.801  44.914  53.507  1.00  0.00     0.082 A 
ATOM     16  N   UNL     1       1.641  45.069  55.364  1.00  0.00    -0.250 N 
ATOM     17  C   UNL     1       1.509  44.363  53.381  1.00  0.00     0.149 A 
ATOM     18  N   UNL     1       0.802  44.438  54.515  1.00  0.00    -0.179 NA
ATOM     19  C   UNL     1       1.193  45.363  56.701  1.00  0.00     0.176 C 
BRANCH  13  20
ATOM     20  N   UNL     1       4.053  44.746  51.371  1.00  0.00    -0.339 N 
ATOM     21  H   UNL     1       4.236  45.586  50.827  1.00  0.00     0.168 HD
BRANCH  20  22
ATOM     22  C   UNL     1       4.753  43.645  50.827  1.00  0.00     0.043 A 
ATOM     23  C   UNL     1       4.234  42.341  50.883  1.00  0.00     0.026 A 
ATOM     24  C   UNL     1       6.044  43.840  50.294  1.00  0.00    -0.028 A 
ATOM     25  C   UNL     1       4.958  41.258  50.381  1.00  0.00     0.002 A 
ATOM     26  C   UNL     1       6.763  42.743  49.794  1.00  0.00     0.005 A 
ATOM     27  C   UNL     1       6.220  41.459  49.833  1.00  0.00     0.000 A 
ATOM     28  C   UNL     1       6.659  45.212  50.231  1.00  0.00     0.046 C 
ENDBRANCH  20  22
ENDBRANCH  13  20
ENDBRANCH   8  10
ENDBRANCH   1   8
TORSDOF 7
ENDMDL
MODEL 14
REMARK VINA RESULT:    -7.723      2.743      4.535
REMARK INTER + INTRA:         -11.882
REMARK INTER:                 -10.531
REMARK INTRA:                  -1.351
REMARK UNBOUND:                -0.999
REMARK SMILES Cc1ccccc1Nc1nc(NCCC[NH+](C)C)nc2c1cnn2C
REMARK SMILES IDX 13 1 14 2 15 3 16 4 17 5 18 6 12 8 11 10 10 11 19 12 9 13
REMARK SMILES IDX 20 14 21 15 24 16 22 17 23 18 25 19 8 20 7 22 6 23 2 24 5 25
REMARK SMILES IDX 3 26 4 27 1 28
REMARK H PARENT 16 7 12 9 8 21
ROOT
ATOM      1  C   UNL     1       1.901  43.136  52.443  1.00  0.00     0.122 C 
ENDROOT
BRANCH   1   2
ATOM      2  C   UNL     1       1.619  43.863  53.762  1.00  0.00     0.083 C 
BRANCH   2   3
ATOM      3  C   UNL     1       1.609  45.378  53.580  1.00  0.00     0.263 C 
BRANCH   3   4
ATOM      4  N   UNL     1       3.021  45.911  53.390  1.00  0.00    -0.340 N 
ATOM      5  C   UNL     1       3.744  46.190  54.677  1.00  0.00     0.332 C 
ATOM      6  C   UNL     1       3.023  47.123  52.495  1.00  0.00     0.332 C 
ATOM      7  H   UNL     1       3.548  45.185  52.887  1.00  0.00     0.347 HD
ENDBRANCH   3   4
ENDBRANCH   2   3
ENDBRANCH   1   2
BRANCH   1   8
ATOM      8  N   UNL     1       3.093  42.311  52.529  1.00  0.00    -0.354 N 
ATOM      9  H   UNL     1       3.512  42.280  53.460  1.00  0.00     0.163 HD
BRANCH   8  10
ATOM     10  C   UNL     1       4.163  42.717  51.729  1.00  0.00     0.226 A 
ATOM     11  N   UNL     1       4.442  41.871  50.725  1.00  0.00    -0.195 NA
ATOM     12  N   UNL     1       4.793  43.870  51.993  1.00  0.00    -0.193 NA
ATOM     13  C   UNL     1       5.446  42.153  49.854  1.00  0.00     0.147 A 
ATOM     14  C   UNL     1       5.808  44.107  51.143  1.00  0.00     0.165 A 
ATOM     15  C   UNL     1       6.188  43.315  50.075  1.00  0.00     0.082 A 
ATOM     16  N   UNL     1       6.683  45.161  51.154  1.00  0.00    -0.250 N 
ATOM     17  C   UNL     1       7.302  43.979  49.521  1.00  0.00     0.149 A 
ATOM     18  N   UNL     1       7.598  45.115  50.163  1.00  0.00    -0.179 NA
ATOM     19  C   UNL     1       6.721  46.253  52.093  1.00  0.00     0.176 C 
BRANCH  13  20
ATOM     20  N   UNL     1       5.698  41.218  48.841  1.00  0.00    -0.339 N 
ATOM     21  H   UNL     1       5.691  40.290  49.258  1.00  0.00     0.168 HD
BRANCH  20  22
ATOM     22  C   UNL     1       5.153  41.176  47.537  1.00  0.00     0.043 A 
ATOM     23  C   UNL     1       5.678  41.953  46.492  1.00  0.00     0.026 A 
ATOM     24  C   UNL     1       3.998  40.404  47.294  1.00  0.00    -0.028 A 
ATOM     25  C   UNL     1       5.101  41.934  45.222  1.00  0.00     0.002 A 
ATOM     26  C   UNL     1       3.425  40.394  46.013  1.00  0.00     0.005 A 
ATOM     27  C   UNL     1       3.977  41.151  44.981  1.00  0.00     0.000 A 
ATOM     28  C   UNL     1       3.378  39.570  48.383  1.00  0.00     0.046 C 
ENDBRANCH  20  22
ENDBRANCH  13  20
ENDBRANCH   8  10
ENDBRANCH   1   8
TORSDOF 7
ENDMDL
MODEL 15
REMARK VINA RESULT:    -7.625      2.128      5.154
REMARK INTER + INTRA:         -11.744
REMARK INTER:                 -11.063
REMARK INTRA:                  -0.681
REMARK UNBOUND:                -0.999
REMARK SMILES Cc1ccccc1Nc1nc(NCCC[NH+](C)C)nc2c1cnn2C
REMARK SMILES IDX 13 1 14 2 15 3 16 4 17 5 18 6 12 8 11 10 10 11 19 12 9 13
REMARK SMILES IDX 20 14 21 15 24 16 22 17 23 18 25 19 8 20 7 22 6 23 2 24 5 25
REMARK SMILES IDX 3 26 4 27 1 28
REMARK H PARENT 16 7 12 9 8 21
ROOT
ATOM      1  C   UNL     1       2.126  45.923  53.236  1.00  0.00     0.122 C 
ENDROOT
BRANCH   1   2
ATOM      2  C   UNL     1       0.890  45.025  53.113  1.00  0.00     0.083 C 
BRANCH   2   3
ATOM      3  C   UNL     1       0.968  43.827  54.056  1.00  0.00     0.263 C 
BRANCH   3   4
ATOM      4  N   UNL     1      -0.309  43.002  53.991  1.00  0.00    -0.340 N 
ATOM      5  C   UNL     1      -0.512  42.297  52.680  1.00  0.00     0.332 C 
ATOM      6  C   UNL     1      -1.510  43.841  54.345  1.00  0.00     0.332 C 
ATOM      7  H   UNL     1      -0.237  42.285  54.724  1.00  0.00     0.347 HD
ENDBRANCH   3   4
ENDBRANCH   2   3
ENDBRANCH   1   2
BRANCH   1   8
ATOM      8  N   UNL     1       2.679  46.256  51.934  1.00  0.00    -0.354 N 
ATOM      9  H   UNL     1       2.001  46.218  51.172  1.00  0.00     0.163 HD
BRANCH   8  10
ATOM     10  C   UNL     1       3.695  45.414  51.480  1.00  0.00     0.226 A 
ATOM     11  N   UNL     1       4.879  46.028  51.320  1.00  0.00    -0.195 NA
ATOM     12  N   UNL     1       3.439  44.116  51.262  1.00  0.00    -0.193 NA
ATOM     13  C   UNL     1       5.962  45.322  50.904  1.00  0.00     0.147 A 
ATOM     14  C   UNL     1       4.515  43.449  50.812  1.00  0.00     0.165 A 
ATOM     15  C   UNL     1       5.781  43.969  50.611  1.00  0.00     0.082 A 
ATOM     16  N   UNL     1       4.593  42.131  50.447  1.00  0.00    -0.250 N 
ATOM     17  C   UNL     1       6.535  42.883  50.119  1.00  0.00     0.149 A 
ATOM     18  N   UNL     1       5.821  41.755  50.033  1.00  0.00    -0.179 NA
ATOM     19  C   UNL     1       3.528  41.160  50.452  1.00  0.00     0.176 C 
BRANCH  13  20
ATOM     20  N   UNL     1       7.162  46.027  50.739  1.00  0.00    -0.339 N 
ATOM     21  H   UNL     1       6.999  46.777  50.071  1.00  0.00     0.168 HD
BRANCH  20  22
ATOM     22  C   UNL     1       8.073  46.445  51.736  1.00  0.00     0.043 A 
ATOM     23  C   UNL     1       7.710  47.373  52.726  1.00  0.00     0.026 A 
ATOM     24  C   UNL     1       9.408  45.991  51.688  1.00  0.00    -0.028 A 
ATOM     25  C   UNL     1       8.635  47.809  53.675  1.00  0.00     0.002 A 
ATOM     26  C   UNL     1      10.329  46.438  52.647  1.00  0.00     0.005 A 
ATOM     27  C   UNL     1       9.943  47.339  53.639  1.00  0.00     0.000 A 
ATOM     28  C   UNL     1       9.859  45.014  50.634  1.00  0.00     0.046 C 
ENDBRANCH  20  22
ENDBRANCH  13  20
ENDBRANCH   8  10
ENDBRANCH   1   8
TORSDOF 7
ENDMDL
MODEL 16
REMARK VINA RESULT:    -7.503      1.633      6.519
REMARK INTER + INTRA:         -11.572
REMARK INTER:                 -10.362
REMARK INTRA:                  -1.210
REMARK UNBOUND:                -0.999
REMARK SMILES Cc1ccccc1Nc1nc(NCCC[NH+](C)C)nc2c1cnn2C
REMARK SMILES IDX 13 1 14 2 15 3 16 4 17 5 18 6 12 8 11 10 10 11 19 12 9 13
REMARK SMILES IDX 20 14 21 15 24 16 22 17 23 18 25 19 8 20 7 22 6 23 2 24 5 25
REMARK SMILES IDX 3 26 4 27 1 28
REMARK H PARENT 16 7 12 9 8 21
ROOT
ATOM      1  C   UNL     1       8.958  45.829  51.166  1.00  0.00     0.122 C 
ENDROOT
BRANCH   1   2
ATOM      2  C   UNL     1       9.723  46.804  52.067  1.00  0.00     0.083 C 
BRANCH   2   3
ATOM      3  C   UNL     1       8.807  47.886  52.633  1.00  0.00     0.263 C 
BRANCH   3   4
ATOM      4  N   UNL     1       8.664  47.741  54.141  1.00  0.00    -0.340 N 
ATOM      5  C   UNL     1       9.930  47.326  54.835  1.00  0.00     0.332 C 
ATOM      6  C   UNL     1       7.527  46.813  54.486  1.00  0.00     0.332 C 
ATOM      7  H   UNL     1       8.397  48.666  54.505  1.00  0.00     0.347 HD
ENDBRANCH   3   4
ENDBRANCH   2   3
ENDBRANCH   1   2
BRANCH   1   8
ATOM      8  N   UNL     1       7.663  46.361  50.778  1.00  0.00    -0.354 N 
ATOM      9  H   UNL     1       7.347  47.146  51.348  1.00  0.00     0.163 HD
BRANCH   8  10
ATOM     10  C   UNL     1       6.594  45.468  50.872  1.00  0.00     0.226 A 
ATOM     11  N   UNL     1       5.471  46.015  51.366  1.00  0.00    -0.195 NA
ATOM     12  N   UNL     1       6.747  44.199  50.468  1.00  0.00    -0.193 NA
ATOM     13  C   UNL     1       4.346  45.265  51.492  1.00  0.00     0.147 A 
ATOM     14  C   UNL     1       5.632  43.467  50.641  1.00  0.00     0.165 A 
ATOM     15  C   UNL     1       4.422  43.917  51.136  1.00  0.00     0.082 A 
ATOM     16  N   UNL     1       5.456  42.134  50.381  1.00  0.00    -0.250 N 
ATOM     17  C   UNL     1       3.594  42.775  51.138  1.00  0.00     0.149 A 
ATOM     18  N   UNL     1       4.213  41.688  50.662  1.00  0.00    -0.179 NA
ATOM     19  C   UNL     1       6.435  41.207  49.873  1.00  0.00     0.176 C 
BRANCH  13  20
ATOM     20  N   UNL     1       3.215  45.891  52.033  1.00  0.00    -0.339 N 
ATOM     21  H   UNL     1       2.488  45.900  51.321  1.00  0.00     0.168 HD
BRANCH  20  22
ATOM     22  C   UNL     1       2.647  45.713  53.315  1.00  0.00     0.043 A 
ATOM     23  C   UNL     1       3.409  45.855  54.486  1.00  0.00     0.026 A 
ATOM     24  C   UNL     1       1.304  45.295  53.425  1.00  0.00    -0.028 A 
ATOM     25  C   UNL     1       2.844  45.631  55.742  1.00  0.00     0.002 A 
ATOM     26  C   UNL     1       0.748  45.072  54.694  1.00  0.00     0.005 A 
ATOM     27  C   UNL     1       1.512  45.244  55.847  1.00  0.00     0.000 A 
ATOM     28  C   UNL     1       0.447  45.104  52.202  1.00  0.00     0.046 C 
ENDBRANCH  20  22
ENDBRANCH  13  20
ENDBRANCH   8  10
ENDBRANCH   1   8
TORSDOF 7
ENDMDL
MODEL 17
REMARK VINA RESULT:    -7.479      1.989      6.435
REMARK INTER + INTRA:         -11.538
REMARK INTER:                 -10.603
REMARK INTRA:                  -0.935
REMARK UNBOUND:                -0.999
REMARK SMILES Cc1ccccc1Nc1nc(NCCC[NH+](C)C)nc2c1cnn2C
REMARK SMILES IDX 13 1 14 2 15 3 16 4 17 5 18 6 12 8 11 10 10 11 19 12 9 13
REMARK SMILES IDX 20 14 21 15 24 16 22 17 23 18 25 19 8 20 7 22 6 23 2 24 5 25
REMARK SMILES IDX 3 26 4 27 1 28
REMARK H PARENT 16 7 12 9 8 21
ROOT
ATOM      1  C   UNL     1       5.751  47.014  53.664  1.00  0.00     0.122 C 
ENDROOT
BRANCH   1   2
ATOM      2  C   UNL     1       7.254  46.722  53.724  1.00  0.00     0.083 C 
BRANCH   2   3
ATOM      3  C   UNL     1       8.049  47.669  52.829  1.00  0.00     0.263 C 
BRANCH   3   4
ATOM      4  N   UNL     1       9.545  47.449  52.999  1.00  0.00    -0.340 N 
ATOM      5  C   UNL     1      10.110  46.386  52.101  1.00  0.00     0.332 C 
ATOM      6  C   UNL     1       9.887  47.178  54.441  1.00  0.00     0.332 C 
ATOM      7  H   UNL     1      10.005  48.337  52.760  1.00  0.00     0.347 HD
ENDBRANCH   3   4
ENDBRANCH   2   3
ENDBRANCH   1   2
BRANCH   1   8
ATOM      8  N   UNL     1       5.213  46.791  52.334  1.00  0.00    -0.354 N 
ATOM      9  H   UNL     1       4.304  47.227  52.173  1.00  0.00     0.163 HD
BRANCH   8  10
ATOM     10  C   UNL     1       4.973  45.457  51.998  1.00  0.00     0.226 A 
ATOM     11  N   UNL     1       4.018  44.874  52.740  1.00  0.00    -0.195 NA
ATOM     12  N   UNL     1       5.662  44.886  51.000  1.00  0.00    -0.193 NA
ATOM     13  C   UNL     1       3.667  43.582  52.506  1.00  0.00     0.147 A 
ATOM     14  C   UNL     1       5.325  43.598  50.816  1.00  0.00     0.165 A 
ATOM     15  C   UNL     1       4.362  42.892  51.512  1.00  0.00     0.082 A 
ATOM     16  N   UNL     1       5.862  42.711  49.920  1.00  0.00    -0.250 N 
ATOM     17  C   UNL     1       4.408  41.594  50.962  1.00  0.00     0.149 A 
ATOM     18  N   UNL     1       5.308  41.482  49.978  1.00  0.00    -0.179 NA
ATOM     19  C   UNL     1       6.924  42.958  48.978  1.00  0.00     0.176 C 
BRANCH  13  20
ATOM     20  N   UNL     1       2.678  43.028  53.329  1.00  0.00    -0.339 N 
ATOM     21  H   UNL     1       2.994  43.096  54.294  1.00  0.00     0.168 HD
BRANCH  20  22
ATOM     22  C   UNL     1       1.277  43.212  53.257  1.00  0.00     0.043 A 
ATOM     23  C   UNL     1       0.511  42.640  52.229  1.00  0.00     0.026 A 
ATOM     24  C   UNL     1       0.642  44.062  54.186  1.00  0.00    -0.028 A 
ATOM     25  C   UNL     1      -0.864  42.868  52.146  1.00  0.00     0.002 A 
ATOM     26  C   UNL     1      -0.741  44.285  54.091  1.00  0.00     0.005 A 
ATOM     27  C   UNL     1      -1.490  43.686  53.079  1.00  0.00     0.000 A 
ATOM     28  C   UNL     1       1.418  44.721  55.294  1.00  0.00     0.046 C 
ENDBRANCH  20  22
ENDBRANCH  13  20
ENDBRANCH   8  10
ENDBRANCH   1   8
TORSDOF 7
ENDMDL
MODEL 18
REMARK VINA RESULT:    -7.458      2.744      5.532
REMARK INTER + INTRA:         -11.508
REMARK INTER:                 -10.969
REMARK INTRA:                  -0.539
REMARK UNBOUND:                -0.999
REMARK SMILES Cc1ccccc1Nc1nc(NCCC[NH+](C)C)nc2c1cnn2C
REMARK SMILES IDX 13 1 14 2 15 3 16 4 17 5 18 6 12 8 11 10 10 11 19 12 9 13
REMARK SMILES IDX 20 14 21 15 24 16 22 17 23 18 25 19 8 20 7 22 6 23 2 24 5 25
REMARK SMILES IDX 3 26 4 27 1 28
REMARK H PARENT 16 7 12 9 8 21
ROOT
ATOM      1  C   UNL     1       1.653  45.194  56.514  1.00  0.00     0.122 C 
ENDROOT
BRANCH   1   2
ATOM      2  C   UNL     1       0.509  45.994  57.147  1.00  0.00     0.083 C 
BRANCH   2   3
ATOM      3  C   UNL     1       0.970  46.750  58.390  1.00  0.00     0.263 C 
BRANCH   3   4
ATOM      4  N   UNL     1      -0.061  47.790  58.806  1.00  0.00    -0.340 N 
ATOM      5  C   UNL     1      -0.101  48.049  60.285  1.00  0.00     0.332 C 
ATOM      6  C   UNL     1      -1.427  47.431  58.281  1.00  0.00     0.332 C 
ATOM      7  H   UNL     1       0.200  48.670  58.341  1.00  0.00     0.347 HD
ENDBRANCH   3   4
ENDBRANCH   2   3
ENDBRANCH   1   2
BRANCH   1   8
ATOM      8  N   UNL     1       2.744  46.056  56.097  1.00  0.00    -0.354 N 
ATOM      9  H   UNL     1       2.470  47.027  55.936  1.00  0.00     0.163 HD
BRANCH   8  10
ATOM     10  C   UNL     1       3.356  45.710  54.891  1.00  0.00     0.226 A 
ATOM     11  N   UNL     1       4.355  46.533  54.533  1.00  0.00    -0.195 NA
ATOM     12  N   UNL     1       2.940  44.628  54.219  1.00  0.00    -0.193 NA
ATOM     13  C   UNL     1       5.054  46.300  53.391  1.00  0.00     0.147 A 
ATOM     14  C   UNL     1       3.619  44.443  53.073  1.00  0.00     0.165 A 
ATOM     15  C   UNL     1       4.663  45.217  52.601  1.00  0.00     0.082 A 
ATOM     16  N   UNL     1       3.422  43.470  52.130  1.00  0.00    -0.250 N 
ATOM     17  C   UNL     1       5.012  44.628  51.368  1.00  0.00     0.149 A 
ATOM     18  N   UNL     1       4.271  43.551  51.083  1.00  0.00    -0.179 NA
ATOM     19  C   UNL     1       2.428  42.426  52.146  1.00  0.00     0.176 C 
BRANCH  13  20
ATOM     20  N   UNL     1       6.070  47.208  53.066  1.00  0.00    -0.339 N 
ATOM     21  H   UNL     1       5.765  48.138  53.344  1.00  0.00     0.168 HD
BRANCH  20  22
ATOM     22  C   UNL     1       7.463  47.067  53.263  1.00  0.00     0.043 A 
ATOM     23  C   UNL     1       8.070  47.380  54.490  1.00  0.00     0.026 A 
ATOM     24  C   UNL     1       8.281  46.690  52.177  1.00  0.00    -0.028 A 
ATOM     25  C   UNL     1       9.452  47.279  54.654  1.00  0.00     0.002 A 
ATOM     26  C   UNL     1       9.670  46.593  52.355  1.00  0.00     0.005 A 
ATOM     27  C   UNL     1      10.252  46.881  53.588  1.00  0.00     0.000 A 
ATOM     28  C   UNL     1       7.687  46.367  50.832  1.00  0.00     0.046 C 
ENDBRANCH  20  22
ENDBRANCH  13  20
ENDBRANCH   8  10
ENDBRANCH   1   8
TORSDOF 7
ENDMDL
MODEL 19
REMARK VINA RESULT:    -7.364      1.653      4.935
REMARK INTER + INTRA:         -11.377
REMARK INTER:                 -10.344
REMARK INTRA:                  -1.033
REMARK UNBOUND:                -0.999
REMARK SMILES Cc1ccccc1Nc1nc(NCCC[NH+](C)C)nc2c1cnn2C
REMARK SMILES IDX 13 1 14 2 15 3 16 4 17 5 18 6 12 8 11 10 10 11 19 12 9 13
REMARK SMILES IDX 20 14 21 15 24 16 22 17 23 18 25 19 8 20 7 22 6 23 2 24 5 25
REMARK SMILES IDX 3 26 4 27 1 28
REMARK H PARENT 16 7 12 9 8 21
ROOT
ATOM      1  C   UNL     1       8.035  43.884  49.499  1.00  0.00     0.122 C 
ENDROOT
BRANCH   1   2
ATOM      2  C   UNL     1       6.944  42.953  48.959  1.00  0.00     0.083 C 
BRANCH   2   3
ATOM      3  C   UNL     1       6.101  42.360  50.085  1.00  0.00     0.263 C 
BRANCH   3   4
ATOM      4  N   UNL     1       5.250  41.206  49.575  1.00  0.00    -0.340 N 
ATOM      5  C   UNL     1       5.087  41.184  48.081  1.00  0.00     0.332 C 
ATOM      6  C   UNL     1       3.911  41.180  50.266  1.00  0.00     0.332 C 
ATOM      7  H   UNL     1       5.729  40.339  49.850  1.00  0.00     0.347 HD
ENDBRANCH   3   4
ENDBRANCH   2   3
ENDBRANCH   1   2
BRANCH   1   8
ATOM      8  N   UNL     1       7.587  45.264  49.548  1.00  0.00    -0.354 N 
ATOM      9  H   UNL     1       8.278  45.940  49.220  1.00  0.00     0.163 HD
BRANCH   8  10
ATOM     10  C   UNL     1       7.270  45.748  50.819  1.00  0.00     0.226 A 
ATOM     11  N   UNL     1       5.951  45.852  51.048  1.00  0.00    -0.195 NA
ATOM     12  N   UNL     1       8.251  46.043  51.684  1.00  0.00    -0.193 NA
ATOM     13  C   UNL     1       5.501  46.289  52.253  1.00  0.00     0.147 A 
ATOM     14  C   UNL     1       7.781  46.511  52.853  1.00  0.00     0.165 A 
ATOM     15  C   UNL     1       6.453  46.661  53.205  1.00  0.00     0.082 A 
ATOM     16  N   UNL     1       8.504  46.948  53.932  1.00  0.00    -0.250 N 
ATOM     17  C   UNL     1       6.490  47.200  54.507  1.00  0.00     0.149 A 
ATOM     18  N   UNL     1       7.738  47.362  54.964  1.00  0.00    -0.179 NA
ATOM     19  C   UNL     1       9.938  47.017  54.052  1.00  0.00     0.176 C 
BRANCH  13  20
ATOM     20  N   UNL     1       4.114  46.393  52.420  1.00  0.00    -0.339 N 
ATOM     21  H   UNL     1       3.785  47.176  51.859  1.00  0.00     0.168 HD
BRANCH  20  22
ATOM     22  C   UNL     1       3.154  45.354  52.425  1.00  0.00     0.043 A 
ATOM     23  C   UNL     1       2.539  44.912  51.243  1.00  0.00     0.026 A 
ATOM     24  C   UNL     1       2.735  44.805  53.655  1.00  0.00    -0.028 A 
ATOM     25  C   UNL     1       1.561  43.917  51.271  1.00  0.00     0.002 A 
ATOM     26  C   UNL     1       1.749  43.806  53.670  1.00  0.00     0.005 A 
ATOM     27  C   UNL     1       1.169  43.361  52.484  1.00  0.00     0.000 A 
ATOM     28  C   UNL     1       3.343  45.258  54.955  1.00  0.00     0.046 C 
ENDBRANCH  20  22
ENDBRANCH  13  20
ENDBRANCH   8  10
ENDBRANCH   1   8
TORSDOF 7
ENDMDL
MODEL 20
REMARK VINA RESULT:    -7.337      1.623      4.798
REMARK INTER + INTRA:         -11.338
REMARK INTER:                 -10.057
REMARK INTRA:                  -1.282
REMARK UNBOUND:                -0.999
REMARK SMILES Cc1ccccc1Nc1nc(NCCC[NH+](C)C)nc2c1cnn2C
REMARK SMILES IDX 13 1 14 2 15 3 16 4 17 5 18 6 12 8 11 10 10 11 19 12 9 13
REMARK SMILES IDX 20 14 21 15 24 16 22 17 23 18 25 19 8 20 7 22 6 23 2 24 5 25
REMARK SMILES IDX 3 26 4 27 1 28
REMARK H PARENT 16 7 12 9 8 21
ROOT
ATOM      1  C   UNL     1       6.476  42.478  49.730  1.00  0.00     0.122 C 
ENDROOT
BRANCH   1   2
ATOM      2  C   UNL     1       5.586  41.724  50.725  1.00  0.00     0.083 C 
BRANCH   2   3
ATOM      3  C   UNL     1       4.160  41.571  50.202  1.00  0.00     0.263 C 
BRANCH   3   4
ATOM      4  N   UNL     1       3.146  41.931  51.278  1.00  0.00    -0.340 N 
ATOM      5  C   UNL     1       1.975  42.722  50.769  1.00  0.00     0.332 C 
ATOM      6  C   UNL     1       3.814  42.634  52.432  1.00  0.00     0.332 C 
ATOM      7  H   UNL     1       2.785  41.045  51.655  1.00  0.00     0.347 HD
ENDBRANCH   3   4
ENDBRANCH   2   3
ENDBRANCH   1   2
BRANCH   1   8
ATOM      8  N   UNL     1       5.974  43.816  49.469  1.00  0.00    -0.354 N 
ATOM      9  H   UNL     1       6.302  44.220  48.591  1.00  0.00     0.163 HD
BRANCH   8  10
ATOM     10  C   UNL     1       6.338  44.787  50.404  1.00  0.00     0.226 A 
ATOM     11  N   UNL     1       5.294  45.378  51.007  1.00  0.00    -0.195 NA
ATOM     12  N   UNL     1       7.634  45.036  50.637  1.00  0.00    -0.193 NA
ATOM     13  C   UNL     1       5.503  46.328  51.956  1.00  0.00     0.147 A 
ATOM     14  C   UNL     1       7.814  46.007  51.549  1.00  0.00     0.165 A 
ATOM     15  C   UNL     1       6.823  46.685  52.236  1.00  0.00     0.082 A 
ATOM     16  N   UNL     1       8.999  46.540  51.984  1.00  0.00    -0.250 N 
ATOM     17  C   UNL     1       7.520  47.604  53.048  1.00  0.00     0.149 A 
ATOM     18  N   UNL     1       8.848  47.508  52.912  1.00  0.00    -0.179 NA
ATOM     19  C   UNL     1      10.326  46.186  51.550  1.00  0.00     0.176 C 
BRANCH  13  20
ATOM     20  N   UNL     1       4.370  46.919  52.532  1.00  0.00    -0.339 N 
ATOM     21  H   UNL     1       4.089  47.701  51.944  1.00  0.00     0.168 HD
BRANCH  20  22
ATOM     22  C   UNL     1       3.234  46.280  53.079  1.00  0.00     0.043 A 
ATOM     23  C   UNL     1       2.024  46.193  52.371  1.00  0.00     0.026 A 
ATOM     24  C   UNL     1       3.283  45.794  54.402  1.00  0.00    -0.028 A 
ATOM     25  C   UNL     1       0.898  45.599  52.943  1.00  0.00     0.002 A 
ATOM     26  C   UNL     1       2.144  45.200  54.967  1.00  0.00     0.005 A 
ATOM     27  C   UNL     1       0.959  45.098  54.240  1.00  0.00     0.000 A 
ATOM     28  C   UNL     1       4.547  45.883  55.216  1.00  0.00     0.046 C 
ENDBRANCH  20  22
ENDBRANCH  13  20
ENDBRANCH   8  10
ENDBRANCH   1   8
TORSDOF 7
ENDMDL
