MODEL 1
REMARK VINA RESULT:    -9.506      0.000      0.000
REMARK INTER + INTRA:         -13.618
REMARK INTER:                 -13.118
REMARK INTRA:                  -0.501
REMARK UNBOUND:                -0.501
REMARK SMILES Cc1cc(O)ccc1Nc1nc(NCCC(C)C)nc2c1cnn2C
REMARK SMILES IDX 10 1 11 2 12 3 19 4 20 5 21 6 22 7 23 8 24 9 25 10 9 11 8 13
REMARK SMILES IDX 2 14 3 15 4 16 7 17 6 18 1 19 5 20 13 22 14 24 15 25 16 26
REMARK SMILES IDX 17 27 18 28
REMARK H PARENT 9 12 5 21 13 23
ROOT
ATOM      1  C   UNL     1       3.799  44.777  52.827  1.00  0.00     0.147 A 
ATOM      2  N   UNL     1       4.861  45.516  53.237  1.00  0.00    -0.195 NA
ATOM      3  C   UNL     1       4.830  46.142  54.429  1.00  0.00     0.226 A 
ATOM      4  N   UNL     1       3.819  46.103  55.306  1.00  0.00    -0.193 NA
ATOM      5  C   UNL     1       2.786  45.361  54.881  1.00  0.00     0.165 A 
ATOM      6  C   UNL     1       2.700  44.681  53.683  1.00  0.00     0.082 A 
ATOM      7  C   UNL     1       1.434  44.062  53.721  1.00  0.00     0.149 A 
ATOM      8  N   UNL     1       0.761  44.322  54.849  1.00  0.00    -0.179 NA
ATOM      9  N   UNL     1       1.608  45.125  55.535  1.00  0.00    -0.250 N 
ATOM     10  C   UNL     1       1.217  45.632  56.825  1.00  0.00     0.176 C 
ENDROOT
BRANCH   1  11
ATOM     11  N   UNL     1       3.908  44.157  51.567  1.00  0.00    -0.339 N 
ATOM     12  H   UNL     1       3.365  43.299  51.644  1.00  0.00     0.168 HD
BRANCH  11  13
ATOM     13  C   UNL     1       5.123  43.924  50.886  1.00  0.00     0.043 A 
ATOM     14  C   UNL     1       5.488  42.663  50.373  1.00  0.00    -0.024 A 
ATOM     15  C   UNL     1       6.718  42.530  49.709  1.00  0.00     0.051 A 
ATOM     16  C   UNL     1       7.544  43.633  49.521  1.00  0.00     0.115 A 
ATOM     17  C   UNL     1       5.961  45.028  50.662  1.00  0.00     0.030 A 
ATOM     18  C   UNL     1       7.174  44.886  49.987  1.00  0.00     0.048 A 
ATOM     19  C   UNL     1       4.625  41.443  50.543  1.00  0.00     0.047 C 
BRANCH  16  20
ATOM     20  O   UNL     1       8.722  43.439  48.861  1.00  0.00    -0.508 OA
ATOM     21  H   UNL     1       9.454  43.627  49.472  1.00  0.00     0.293 HD
ENDBRANCH  16  20
ENDBRANCH  11  13
ENDBRANCH   1  11
BRANCH   3  22
ATOM     22  N   UNL     1       5.973  46.879  54.715  1.00  0.00    -0.354 N 
ATOM     23  H   UNL     1       5.730  47.843  54.518  1.00  0.00     0.163 HD
BRANCH  22  24
ATOM     24  C   UNL     1       7.209  46.420  54.106  1.00  0.00     0.116 C 
BRANCH  24  25
ATOM     25  C   UNL     1       7.799  47.461  53.147  1.00  0.00     0.024 C 
BRANCH  25  26
ATOM     26  C   UNL     1       9.339  47.488  53.073  1.00  0.00    -0.016 C 
ATOM     27  C   UNL     1       9.927  47.237  54.464  1.00  0.00     0.007 C 
ATOM     28  C   UNL     1       9.894  46.461  52.085  1.00  0.00     0.007 C 
ENDBRANCH  25  26
ENDBRANCH  24  25
ENDBRANCH  22  24
ENDBRANCH   3  22
TORSDOF 7
ENDMDL
MODEL 2
REMARK VINA RESULT:    -9.418      2.563      6.269
REMARK INTER + INTRA:         -13.498
REMARK INTER:                 -12.225
REMARK INTRA:                  -1.273
REMARK UNBOUND:                -0.501
REMARK SMILES Cc1cc(O)ccc1Nc1nc(NCCC(C)C)nc2c1cnn2C
REMARK SMILES IDX 10 1 11 2 12 3 19 4 20 5 21 6 22 7 23 8 24 9 25 10 9 11 8 13
REMARK SMILES IDX 2 14 3 15 4 16 7 17 6 18 1 19 5 20 13 22 14 24 15 25 16 26
REMARK SMILES IDX 17 27 18 28
REMARK H PARENT 9 12 5 21 13 23
ROOT
ATOM      1  C   UNL     1       6.902  45.833  51.028  1.00  0.00     0.147 A 
ATOM      2  N   UNL     1       5.698  45.880  51.652  1.00  0.00    -0.195 NA
ATOM      3  C   UNL     1       4.796  44.900  51.459  1.00  0.00     0.226 A 
ATOM      4  N   UNL     1       4.971  43.819  50.689  1.00  0.00    -0.193 NA
ATOM      5  C   UNL     1       6.170  43.791  50.090  1.00  0.00     0.165 A 
ATOM      6  C   UNL     1       7.169  44.736  50.206  1.00  0.00     0.082 A 
ATOM      7  C   UNL     1       8.213  44.245  49.396  1.00  0.00     0.149 A 
ATOM      8  N   UNL     1       7.911  43.080  48.807  1.00  0.00    -0.179 NA
ATOM      9  N   UNL     1       6.654  42.832  49.244  1.00  0.00    -0.250 N 
ATOM     10  C   UNL     1       5.972  41.642  48.803  1.00  0.00     0.176 C 
ENDROOT
BRANCH   1  11
ATOM     11  N   UNL     1       7.789  46.898  51.279  1.00  0.00    -0.339 N 
ATOM     12  H   UNL     1       8.413  46.922  50.475  1.00  0.00     0.168 HD
BRANCH  11  13
ATOM     13  C   UNL     1       8.508  47.082  52.481  1.00  0.00     0.043 A 
ATOM     14  C   UNL     1       9.829  46.629  52.663  1.00  0.00    -0.024 A 
ATOM     15  C   UNL     1      10.463  46.860  53.895  1.00  0.00     0.051 A 
ATOM     16  C   UNL     1       9.813  47.561  54.905  1.00  0.00     0.115 A 
ATOM     17  C   UNL     1       7.881  47.810  53.505  1.00  0.00     0.030 A 
ATOM     18  C   UNL     1       8.526  48.046  54.719  1.00  0.00     0.048 A 
ATOM     19  C   UNL     1      10.577  45.874  51.598  1.00  0.00     0.047 C 
BRANCH  16  20
ATOM     20  O   UNL     1      10.485  47.758  56.075  1.00  0.00    -0.508 OA
ATOM     21  H   UNL     1      10.082  48.508  56.542  1.00  0.00     0.293 HD
ENDBRANCH  16  20
ENDBRANCH  11  13
ENDBRANCH   1  11
BRANCH   3  22
ATOM     22  N   UNL     1       3.600  45.083  52.142  1.00  0.00    -0.354 N 
ATOM     23  H   UNL     1       3.502  46.087  52.251  1.00  0.00     0.163 HD
BRANCH  22  24
ATOM     24  C   UNL     1       3.425  44.313  53.361  1.00  0.00     0.116 C 
BRANCH  24  25
ATOM     25  C   UNL     1       3.024  45.197  54.547  1.00  0.00     0.024 C 
BRANCH  25  26
ATOM     26  C   UNL     1       4.195  45.869  55.293  1.00  0.00    -0.016 C 
ATOM     27  C   UNL     1       5.430  44.966  55.231  1.00  0.00     0.007 C 
ATOM     28  C   UNL     1       4.534  47.247  54.726  1.00  0.00     0.007 C 
ENDBRANCH  25  26
ENDBRANCH  24  25
ENDBRANCH  22  24
ENDBRANCH   3  22
TORSDOF 7
ENDMDL
MODEL 3
REMARK VINA RESULT:    -9.404      2.031      5.508
REMARK INTER + INTRA:         -13.478
REMARK INTER:                 -12.461
REMARK INTRA:                  -1.018
REMARK UNBOUND:                -0.501
REMARK SMILES Cc1cc(O)ccc1Nc1nc(NCCC(C)C)nc2c1cnn2C
REMARK SMILES IDX 10 1 11 2 12 3 19 4 20 5 21 6 22 7 23 8 24 9 25 10 9 11 8 13
REMARK SMILES IDX 2 14 3 15 4 16 7 17 6 18 1 19 5 20 13 22 14 24 15 25 16 26
REMARK SMILES IDX 17 27 18 28
REMARK H PARENT 9 12 5 21 13 23
ROOT
ATOM      1  C   UNL     1       6.429  46.008  52.044  1.00  0.00     0.147 A 
ATOM      2  N   UNL     1       5.428  46.257  52.926  1.00  0.00    -0.195 NA
ATOM      3  C   UNL     1       5.704  46.799  54.128  1.00  0.00     0.226 A 
ATOM      4  N   UNL     1       6.919  47.151  54.566  1.00  0.00    -0.193 NA
ATOM      5  C   UNL     1       7.889  46.903  53.674  1.00  0.00     0.165 A 
ATOM      6  C   UNL     1       7.731  46.348  52.420  1.00  0.00     0.082 A 
ATOM      7  C   UNL     1       9.035  46.304  51.888  1.00  0.00     0.149 A 
ATOM      8  N   UNL     1       9.957  46.791  52.729  1.00  0.00    -0.179 NA
ATOM      9  N   UNL     1       9.228  47.141  53.815  1.00  0.00    -0.250 N 
ATOM     10  C   UNL     1       9.891  47.705  54.962  1.00  0.00     0.176 C 
ENDROOT
BRANCH   1  11
ATOM     11  N   UNL     1       6.059  45.437  50.811  1.00  0.00    -0.339 N 
ATOM     12  H   UNL     1       5.488  46.143  50.350  1.00  0.00     0.168 HD
BRANCH  11  13
ATOM     13  C   UNL     1       5.496  44.152  50.655  1.00  0.00     0.043 A 
ATOM     14  C   UNL     1       6.146  43.104  49.973  1.00  0.00    -0.024 A 
ATOM     15  C   UNL     1       5.504  41.859  49.870  1.00  0.00     0.051 A 
ATOM     16  C   UNL     1       4.266  41.649  50.468  1.00  0.00     0.115 A 
ATOM     17  C   UNL     1       4.258  43.908  51.272  1.00  0.00     0.030 A 
ATOM     18  C   UNL     1       3.637  42.662  51.176  1.00  0.00     0.048 A 
ATOM     19  C   UNL     1       7.489  43.280  49.318  1.00  0.00     0.047 C 
BRANCH  16  20
ATOM     20  O   UNL     1       3.700  40.415  50.338  1.00  0.00    -0.508 OA
ATOM     21  H   UNL     1       4.316  39.840  49.856  1.00  0.00     0.293 HD
ENDBRANCH  16  20
ENDBRANCH  11  13
ENDBRANCH   1  11
BRANCH   3  22
ATOM     22  N   UNL     1       4.591  46.982  54.939  1.00  0.00    -0.354 N 
ATOM     23  H   UNL     1       4.858  47.697  55.608  1.00  0.00     0.163 HD
BRANCH  22  24
ATOM     24  C   UNL     1       4.010  45.785  55.521  1.00  0.00     0.116 C 
BRANCH  24  25
ATOM     25  C   UNL     1       2.504  45.686  55.249  1.00  0.00     0.024 C 
BRANCH  25  26
ATOM     26  C   UNL     1       2.118  44.988  53.929  1.00  0.00    -0.016 C 
ATOM     27  C   UNL     1       1.027  43.947  54.196  1.00  0.00     0.007 C 
ATOM     28  C   UNL     1       1.640  45.975  52.864  1.00  0.00     0.007 C 
ENDBRANCH  25  26
ENDBRANCH  24  25
ENDBRANCH  22  24
ENDBRANCH   3  22
TORSDOF 7
ENDMDL
MODEL 4
REMARK VINA RESULT:    -9.295      0.852      1.645
REMARK INTER + INTRA:         -13.327
REMARK INTER:                 -12.434
REMARK INTRA:                  -0.893
REMARK UNBOUND:                -0.501
REMARK SMILES Cc1cc(O)ccc1Nc1nc(NCCC(C)C)nc2c1cnn2C
REMARK SMILES IDX 10 1 11 2 12 3 19 4 20 5 21 6 22 7 23 8 24 9 25 10 9 11 8 13
REMARK SMILES IDX 2 14 3 15 4 16 7 17 6 18 1 19 5 20 13 22 14 24 15 25 16 26
REMARK SMILES IDX 17 27 18 28
REMARK H PARENT 9 12 5 21 13 23
ROOT
ATOM      1  C   UNL     1       3.762  45.330  52.655  1.00  0.00     0.147 A 
ATOM      2  N   UNL     1       4.820  46.019  53.152  1.00  0.00    -0.195 NA
ATOM      3  C   UNL     1       4.793  46.483  54.415  1.00  0.00     0.226 A 
ATOM      4  N   UNL     1       3.790  46.319  55.286  1.00  0.00    -0.193 NA
ATOM      5  C   UNL     1       2.760  45.629  54.774  1.00  0.00     0.165 A 
ATOM      6  C   UNL     1       2.671  45.111  53.498  1.00  0.00     0.082 A 
ATOM      7  C   UNL     1       1.411  44.480  53.463  1.00  0.00     0.149 A 
ATOM      8  N   UNL     1       0.744  44.583  54.620  1.00  0.00    -0.179 NA
ATOM      9  N   UNL     1       1.590  45.297  55.399  1.00  0.00    -0.250 N 
ATOM     10  C   UNL     1       1.204  45.627  56.748  1.00  0.00     0.176 C 
ENDROOT
BRANCH   1  11
ATOM     11  N   UNL     1       3.866  44.882  51.324  1.00  0.00    -0.339 N 
ATOM     12  H   UNL     1       2.909  44.708  51.024  1.00  0.00     0.168 HD
BRANCH  11  13
ATOM     13  C   UNL     1       4.727  43.851  50.886  1.00  0.00     0.043 A 
ATOM     14  C   UNL     1       6.042  44.085  50.439  1.00  0.00    -0.024 A 
ATOM     15  C   UNL     1       6.823  42.994  50.023  1.00  0.00     0.051 A 
ATOM     16  C   UNL     1       6.322  41.698  50.091  1.00  0.00     0.115 A 
ATOM     17  C   UNL     1       4.252  42.532  50.969  1.00  0.00     0.030 A 
ATOM     18  C   UNL     1       5.042  41.455  50.568  1.00  0.00     0.048 A 
ATOM     19  C   UNL     1       6.632  45.467  50.356  1.00  0.00     0.047 C 
BRANCH  16  20
ATOM     20  O   UNL     1       7.132  40.682  49.679  1.00  0.00    -0.508 OA
ATOM     21  H   UNL     1       7.982  40.755  50.143  1.00  0.00     0.293 HD
ENDBRANCH  16  20
ENDBRANCH  11  13
ENDBRANCH   1  11
BRANCH   3  22
ATOM     22  N   UNL     1       5.932  47.186  54.789  1.00  0.00    -0.354 N 
ATOM     23  H   UNL     1       5.753  48.149  54.527  1.00  0.00     0.163 HD
BRANCH  22  24
ATOM     24  C   UNL     1       7.202  46.651  54.332  1.00  0.00     0.116 C 
BRANCH  24  25
ATOM     25  C   UNL     1       7.815  47.501  53.212  1.00  0.00     0.024 C 
BRANCH  25  26
ATOM     26  C   UNL     1       9.356  47.482  53.141  1.00  0.00    -0.016 C 
ATOM     27  C   UNL     1       9.932  47.182  54.527  1.00  0.00     0.007 C 
ATOM     28  C   UNL     1       9.882  46.463  52.131  1.00  0.00     0.007 C 
ENDBRANCH  25  26
ENDBRANCH  24  25
ENDBRANCH  22  24
ENDBRANCH   3  22
TORSDOF 7
ENDMDL
MODEL 5
REMARK VINA RESULT:    -9.063      1.871      5.468
REMARK INTER + INTRA:         -13.008
REMARK INTER:                 -12.041
REMARK INTRA:                  -0.967
REMARK UNBOUND:                -0.501
REMARK SMILES Cc1cc(O)ccc1Nc1nc(NCCC(C)C)nc2c1cnn2C
REMARK SMILES IDX 10 1 11 2 12 3 19 4 20 5 21 6 22 7 23 8 24 9 25 10 9 11 8 13
REMARK SMILES IDX 2 14 3 15 4 16 7 17 6 18 1 19 5 20 13 22 14 24 15 25 16 26
REMARK SMILES IDX 17 27 18 28
REMARK H PARENT 9 12 5 21 13 23
ROOT
ATOM      1  C   UNL     1       6.711  46.437  52.209  1.00  0.00     0.147 A 
ATOM      2  N   UNL     1       5.722  46.679  53.106  1.00  0.00    -0.195 NA
ATOM      3  C   UNL     1       6.025  47.066  54.360  1.00  0.00     0.226 A 
ATOM      4  N   UNL     1       7.259  47.263  54.840  1.00  0.00    -0.193 NA
ATOM      5  C   UNL     1       8.218  47.026  53.932  1.00  0.00     0.165 A 
ATOM      6  C   UNL     1       8.031  46.620  52.626  1.00  0.00     0.082 A 
ATOM      7  C   UNL     1       9.335  46.519  52.101  1.00  0.00     0.149 A 
ATOM      8  N   UNL     1      10.283  46.833  52.994  1.00  0.00    -0.179 NA
ATOM      9  N   UNL     1       9.570  47.130  54.106  1.00  0.00    -0.250 N 
ATOM     10  C   UNL     1      10.262  47.512  55.310  1.00  0.00     0.176 C 
ENDROOT
BRANCH   1  11
ATOM     11  N   UNL     1       6.313  46.032  50.920  1.00  0.00    -0.339 N 
ATOM     12  H   UNL     1       5.407  46.472  50.769  1.00  0.00     0.168 HD
BRANCH  11  13
ATOM     13  C   UNL     1       6.305  44.696  50.462  1.00  0.00     0.043 A 
ATOM     14  C   UNL     1       5.249  43.800  50.720  1.00  0.00    -0.024 A 
ATOM     15  C   UNL     1       5.332  42.490  50.221  1.00  0.00     0.051 A 
ATOM     16  C   UNL     1       6.418  42.094  49.447  1.00  0.00     0.115 A 
ATOM     17  C   UNL     1       7.379  44.281  49.658  1.00  0.00     0.030 A 
ATOM     18  C   UNL     1       7.443  42.982  49.155  1.00  0.00     0.048 A 
ATOM     19  C   UNL     1       4.049  44.184  51.543  1.00  0.00     0.047 C 
BRANCH  16  20
ATOM     20  O   UNL     1       6.435  40.811  48.987  1.00  0.00    -0.508 OA
ATOM     21  H   UNL     1       5.540  40.574  48.695  1.00  0.00     0.293 HD
ENDBRANCH  16  20
ENDBRANCH  11  13
ENDBRANCH   1  11
BRANCH   3  22
ATOM     22  N   UNL     1       4.920  47.260  55.179  1.00  0.00    -0.354 N 
ATOM     23  H   UNL     1       5.206  46.942  56.099  1.00  0.00     0.163 HD
BRANCH  22  24
ATOM     24  C   UNL     1       3.660  46.714  54.706  1.00  0.00     0.116 C 
BRANCH  24  25
ATOM     25  C   UNL     1       3.343  45.358  55.348  1.00  0.00     0.024 C 
BRANCH  25  26
ATOM     26  C   UNL     1       1.897  44.859  55.149  1.00  0.00    -0.016 C 
ATOM     27  C   UNL     1       1.027  45.321  56.321  1.00  0.00     0.007 C 
ATOM     28  C   UNL     1       1.288  45.342  53.833  1.00  0.00     0.007 C 
ENDBRANCH  25  26
ENDBRANCH  24  25
ENDBRANCH  22  24
ENDBRANCH   3  22
TORSDOF 7
ENDMDL
MODEL 6
REMARK VINA RESULT:    -8.875      2.930      6.563
REMARK INTER + INTRA:         -12.747
REMARK INTER:                 -12.103
REMARK INTRA:                  -0.645
REMARK UNBOUND:                -0.501
REMARK SMILES Cc1cc(O)ccc1Nc1nc(NCCC(C)C)nc2c1cnn2C
REMARK SMILES IDX 10 1 11 2 12 3 19 4 20 5 21 6 22 7 23 8 24 9 25 10 9 11 8 13
REMARK SMILES IDX 2 14 3 15 4 16 7 17 6 18 1 19 5 20 13 22 14 24 15 25 16 26
REMARK SMILES IDX 17 27 18 28
REMARK H PARENT 9 12 5 21 13 23
ROOT
ATOM      1  C   UNL     1       6.513  45.175  51.045  1.00  0.00     0.147 A 
ATOM      2  N   UNL     1       6.886  44.247  50.128  1.00  0.00    -0.195 NA
ATOM      3  C   UNL     1       6.155  43.128  49.960  1.00  0.00     0.226 A 
ATOM      4  N   UNL     1       5.034  42.821  50.624  1.00  0.00    -0.193 NA
ATOM      5  C   UNL     1       4.682  43.757  51.518  1.00  0.00     0.165 A 
ATOM      6  C   UNL     1       5.351  44.935  51.782  1.00  0.00     0.082 A 
ATOM      7  C   UNL     1       4.582  45.559  52.785  1.00  0.00     0.149 A 
ATOM      8  N   UNL     1       3.506  44.842  53.137  1.00  0.00    -0.179 NA
ATOM      9  N   UNL     1       3.599  43.743  52.353  1.00  0.00    -0.250 N 
ATOM     10  C   UNL     1       2.600  42.710  52.458  1.00  0.00     0.176 C 
ENDROOT
BRANCH   1  11
ATOM     11  N   UNL     1       7.332  46.314  51.163  1.00  0.00    -0.339 N 
ATOM     12  H   UNL     1       7.890  46.332  50.311  1.00  0.00     0.168 HD
BRANCH  11  13
ATOM     13  C   UNL     1       8.124  46.625  52.290  1.00  0.00     0.043 A 
ATOM     14  C   UNL     1       9.508  46.365  52.354  1.00  0.00    -0.024 A 
ATOM     15  C   UNL     1      10.211  46.710  53.519  1.00  0.00     0.051 A 
ATOM     16  C   UNL     1       9.563  47.338  54.578  1.00  0.00     0.115 A 
ATOM     17  C   UNL     1       7.497  47.281  53.361  1.00  0.00     0.030 A 
ATOM     18  C   UNL     1       8.210  47.633  54.507  1.00  0.00     0.048 A 
ATOM     19  C   UNL     1      10.255  45.697  51.231  1.00  0.00     0.047 C 
BRANCH  16  20
ATOM     20  O   UNL     1      10.305  47.653  55.678  1.00  0.00    -0.508 OA
ATOM     21  H   UNL     1       9.784  47.449  56.471  1.00  0.00     0.293 HD
ENDBRANCH  16  20
ENDBRANCH  11  13
ENDBRANCH   1  11
BRANCH   3  22
ATOM     22  N   UNL     1       6.660  42.255  49.004  1.00  0.00    -0.354 N 
ATOM     23  H   UNL     1       7.329  42.798  48.469  1.00  0.00     0.163 HD
BRANCH  22  24
ATOM     24  C   UNL     1       5.684  41.529  48.212  1.00  0.00     0.116 C 
BRANCH  24  25
ATOM     25  C   UNL     1       5.766  41.891  46.724  1.00  0.00     0.024 C 
BRANCH  25  26
ATOM     26  C   UNL     1       4.573  41.421  45.866  1.00  0.00    -0.016 C 
ATOM     27  C   UNL     1       5.088  40.788  44.571  1.00  0.00     0.007 C 
ATOM     28  C   UNL     1       3.677  40.427  46.606  1.00  0.00     0.007 C 
ENDBRANCH  25  26
ENDBRANCH  24  25
ENDBRANCH  22  24
ENDBRANCH   3  22
TORSDOF 7
ENDMDL
MODEL 7
REMARK VINA RESULT:    -8.834      2.965      5.504
REMARK INTER + INTRA:         -12.691
REMARK INTER:                 -11.529
REMARK INTRA:                  -1.162
REMARK UNBOUND:                -0.501
REMARK SMILES Cc1cc(O)ccc1Nc1nc(NCCC(C)C)nc2c1cnn2C
REMARK SMILES IDX 10 1 11 2 12 3 19 4 20 5 21 6 22 7 23 8 24 9 25 10 9 11 8 13
REMARK SMILES IDX 2 14 3 15 4 16 7 17 6 18 1 19 5 20 13 22 14 24 15 25 16 26
REMARK SMILES IDX 17 27 18 28
REMARK H PARENT 9 12 5 21 13 23
ROOT
ATOM      1  C   UNL     1       4.750  45.537  51.532  1.00  0.00     0.147 A 
ATOM      2  N   UNL     1       5.938  46.153  51.309  1.00  0.00    -0.195 NA
ATOM      3  C   UNL     1       6.963  45.471  50.764  1.00  0.00     0.226 A 
ATOM      4  N   UNL     1       6.933  44.188  50.384  1.00  0.00    -0.193 NA
ATOM      5  C   UNL     1       5.746  43.604  50.607  1.00  0.00     0.165 A 
ATOM      6  C   UNL     1       4.630  44.196  51.163  1.00  0.00     0.082 A 
ATOM      7  C   UNL     1       3.660  43.173  51.173  1.00  0.00     0.149 A 
ATOM      8  N   UNL     1       4.113  42.019  50.667  1.00  0.00    -0.179 NA
ATOM      9  N   UNL     1       5.393  42.311  50.337  1.00  0.00    -0.250 N 
ATOM     10  C   UNL     1       6.228  41.288  49.760  1.00  0.00     0.176 C 
ENDROOT
BRANCH   1  11
ATOM     11  N   UNL     1       3.730  46.318  52.109  1.00  0.00    -0.339 N 
ATOM     12  H   UNL     1       4.097  47.267  52.127  1.00  0.00     0.168 HD
BRANCH  11  13
ATOM     13  C   UNL     1       3.066  46.011  53.318  1.00  0.00     0.043 A 
ATOM     14  C   UNL     1       1.718  45.604  53.373  1.00  0.00    -0.024 A 
ATOM     15  C   UNL     1       1.145  45.320  54.624  1.00  0.00     0.051 A 
ATOM     16  C   UNL     1       1.907  45.397  55.785  1.00  0.00     0.115 A 
ATOM     17  C   UNL     1       3.821  46.058  54.500  1.00  0.00     0.030 A 
ATOM     18  C   UNL     1       3.245  45.758  55.735  1.00  0.00     0.048 A 
ATOM     19  C   UNL     1       0.857  45.497  52.144  1.00  0.00     0.047 C 
BRANCH  16  20
ATOM     20  O   UNL     1       1.293  45.102  56.967  1.00  0.00    -0.508 OA
ATOM     21  H   UNL     1       0.350  44.945  56.796  1.00  0.00     0.293 HD
ENDBRANCH  16  20
ENDBRANCH  11  13
ENDBRANCH   1  11
BRANCH   3  22
ATOM     22  N   UNL     1       8.126  46.216  50.610  1.00  0.00    -0.354 N 
ATOM     23  H   UNL     1       8.884  45.544  50.645  1.00  0.00     0.163 HD
BRANCH  22  24
ATOM     24  C   UNL     1       8.281  47.363  51.487  1.00  0.00     0.116 C 
BRANCH  24  25
ATOM     25  C   UNL     1       9.433  47.176  52.482  1.00  0.00     0.024 C 
BRANCH  25  26
ATOM     26  C   UNL     1       9.137  47.637  53.924  1.00  0.00    -0.016 C 
ATOM     27  C   UNL     1       7.798  47.058  54.386  1.00  0.00     0.007 C 
ATOM     28  C   UNL     1      10.240  47.234  54.903  1.00  0.00     0.007 C 
ENDBRANCH  25  26
ENDBRANCH  24  25
ENDBRANCH  22  24
ENDBRANCH   3  22
TORSDOF 7
ENDMDL
MODEL 8
REMARK VINA RESULT:    -8.784      2.441      6.710
REMARK INTER + INTRA:         -12.622
REMARK INTER:                 -11.847
REMARK INTRA:                  -0.775
REMARK UNBOUND:                -0.501
REMARK SMILES Cc1cc(O)ccc1Nc1nc(NCCC(C)C)nc2c1cnn2C
REMARK SMILES IDX 10 1 11 2 12 3 19 4 20 5 21 6 22 7 23 8 24 9 25 10 9 11 8 13
REMARK SMILES IDX 2 14 3 15 4 16 7 17 6 18 1 19 5 20 13 22 14 24 15 25 16 26
REMARK SMILES IDX 17 27 18 28
REMARK H PARENT 9 12 5 21 13 23
ROOT
ATOM      1  C   UNL     1       6.794  45.724  51.198  1.00  0.00     0.147 A 
ATOM      2  N   UNL     1       5.634  45.700  51.902  1.00  0.00    -0.195 NA
ATOM      3  C   UNL     1       4.768  44.681  51.746  1.00  0.00     0.226 A 
ATOM      4  N   UNL     1       4.941  43.626  50.941  1.00  0.00    -0.193 NA
ATOM      5  C   UNL     1       6.097  43.668  50.262  1.00  0.00     0.165 A 
ATOM      6  C   UNL     1       7.056  44.658  50.334  1.00  0.00     0.082 A 
ATOM      7  C   UNL     1       8.064  44.235  49.444  1.00  0.00     0.149 A 
ATOM      8  N   UNL     1       7.778  43.070  48.848  1.00  0.00    -0.179 NA
ATOM      9  N   UNL     1       6.567  42.752  49.362  1.00  0.00    -0.250 N 
ATOM     10  C   UNL     1       5.913  41.540  48.939  1.00  0.00     0.176 C 
ENDROOT
BRANCH   1  11
ATOM     11  N   UNL     1       7.644  46.825  51.415  1.00  0.00    -0.339 N 
ATOM     12  H   UNL     1       8.227  46.882  50.582  1.00  0.00     0.168 HD
BRANCH  11  13
ATOM     13  C   UNL     1       8.412  47.033  52.581  1.00  0.00     0.043 A 
ATOM     14  C   UNL     1       9.760  46.638  52.696  1.00  0.00    -0.024 A 
ATOM     15  C   UNL     1      10.442  46.889  53.897  1.00  0.00     0.051 A 
ATOM     16  C   UNL     1       9.812  47.554  54.944  1.00  0.00     0.115 A 
ATOM     17  C   UNL     1       7.805  47.725  53.642  1.00  0.00     0.030 A 
ATOM     18  C   UNL     1       8.498  47.981  54.825  1.00  0.00     0.048 A 
ATOM     19  C   UNL     1      10.488  45.925  51.588  1.00  0.00     0.047 C 
BRANCH  16  20
ATOM     20  O   UNL     1      10.532  47.772  56.082  1.00  0.00    -0.508 OA
ATOM     21  H   UNL     1      10.112  48.492  56.580  1.00  0.00     0.293 HD
ENDBRANCH  16  20
ENDBRANCH  11  13
ENDBRANCH   1  11
BRANCH   3  22
ATOM     22  N   UNL     1       3.614  44.791  52.511  1.00  0.00    -0.354 N 
ATOM     23  H   UNL     1       3.069  45.527  52.075  1.00  0.00     0.163 HD
BRANCH  22  24
ATOM     24  C   UNL     1       3.799  44.933  53.945  1.00  0.00     0.116 C 
BRANCH  24  25
ATOM     25  C   UNL     1       2.595  45.605  54.617  1.00  0.00     0.024 C 
BRANCH  25  26
ATOM     26  C   UNL     1       1.509  44.640  55.136  1.00  0.00    -0.016 C 
ATOM     27  C   UNL     1       0.908  45.190  56.432  1.00  0.00     0.007 C 
ATOM     28  C   UNL     1       0.399  44.403  54.112  1.00  0.00     0.007 C 
ENDBRANCH  25  26
ENDBRANCH  24  25
ENDBRANCH  22  24
ENDBRANCH   3  22
TORSDOF 7
ENDMDL
MODEL 9
REMARK VINA RESULT:    -8.765      2.816      5.652
REMARK INTER + INTRA:         -12.596
REMARK INTER:                 -11.629
REMARK INTRA:                  -0.967
REMARK UNBOUND:                -0.501
REMARK SMILES Cc1cc(O)ccc1Nc1nc(NCCC(C)C)nc2c1cnn2C
REMARK SMILES IDX 10 1 11 2 12 3 19 4 20 5 21 6 22 7 23 8 24 9 25 10 9 11 8 13
REMARK SMILES IDX 2 14 3 15 4 16 7 17 6 18 1 19 5 20 13 22 14 24 15 25 16 26
REMARK SMILES IDX 17 27 18 28
REMARK H PARENT 9 12 5 21 13 23
ROOT
ATOM      1  C   UNL     1       4.597  44.140  52.301  1.00  0.00     0.147 A 
ATOM      2  N   UNL     1       5.017  45.345  52.763  1.00  0.00    -0.195 NA
ATOM      3  C   UNL     1       6.085  45.949  52.207  1.00  0.00     0.226 A 
ATOM      4  N   UNL     1       6.808  45.471  51.187  1.00  0.00    -0.193 NA
ATOM      5  C   UNL     1       6.369  44.284  50.744  1.00  0.00     0.165 A 
ATOM      6  C   UNL     1       5.295  43.570  51.234  1.00  0.00     0.082 A 
ATOM      7  C   UNL     1       5.250  42.410  50.434  1.00  0.00     0.149 A 
ATOM      8  N   UNL     1       6.215  42.380  49.506  1.00  0.00    -0.179 NA
ATOM      9  N   UNL     1       6.888  43.534  49.725  1.00  0.00    -0.250 N 
ATOM     10  C   UNL     1       8.030  43.855  48.907  1.00  0.00     0.176 C 
ENDROOT
BRANCH   1  11
ATOM     11  N   UNL     1       3.476  43.574  52.937  1.00  0.00    -0.339 N 
ATOM     12  H   UNL     1       3.492  42.588  52.681  1.00  0.00     0.168 HD
BRANCH  11  13
ATOM     13  C   UNL     1       2.163  44.091  52.867  1.00  0.00     0.043 A 
ATOM     14  C   UNL     1       1.518  44.703  53.960  1.00  0.00    -0.024 A 
ATOM     15  C   UNL     1       0.211  45.187  53.793  1.00  0.00     0.051 A 
ATOM     16  C   UNL     1      -0.423  45.104  52.558  1.00  0.00     0.115 A 
ATOM     17  C   UNL     1       1.513  44.040  51.624  1.00  0.00     0.030 A 
ATOM     18  C   UNL     1       0.220  44.539  51.466  1.00  0.00     0.048 A 
ATOM     19  C   UNL     1       2.165  44.825  55.313  1.00  0.00     0.047 C 
BRANCH  16  20
ATOM     20  O   UNL     1      -1.690  45.600  52.460  1.00  0.00    -0.508 OA
ATOM     21  H   UNL     1      -1.865  46.158  53.235  1.00  0.00     0.293 HD
ENDBRANCH  16  20
ENDBRANCH  11  13
ENDBRANCH   1  11
BRANCH   3  22
ATOM     22  N   UNL     1       6.418  47.166  52.788  1.00  0.00    -0.354 N 
ATOM     23  H   UNL     1       5.542  47.669  52.882  1.00  0.00     0.163 HD
BRANCH  22  24
ATOM     24  C   UNL     1       7.490  47.914  52.155  1.00  0.00     0.116 C 
BRANCH  24  25
ATOM     25  C   UNL     1       8.657  48.171  53.115  1.00  0.00     0.024 C 
BRANCH  25  26
ATOM     26  C   UNL     1       9.395  46.908  53.606  1.00  0.00    -0.016 C 
ATOM     27  C   UNL     1      10.251  46.338  52.472  1.00  0.00     0.007 C 
ATOM     28  C   UNL     1      10.273  47.182  54.828  1.00  0.00     0.007 C 
ENDBRANCH  25  26
ENDBRANCH  24  25
ENDBRANCH  22  24
ENDBRANCH   3  22
TORSDOF 7
ENDMDL
MODEL 10
REMARK VINA RESULT:    -8.693      2.969      5.575
REMARK INTER + INTRA:         -12.497
REMARK INTER:                 -11.695
REMARK INTRA:                  -0.802
REMARK UNBOUND:                -0.501
REMARK SMILES Cc1cc(O)ccc1Nc1nc(NCCC(C)C)nc2c1cnn2C
REMARK SMILES IDX 10 1 11 2 12 3 19 4 20 5 21 6 22 7 23 8 24 9 25 10 9 11 8 13
REMARK SMILES IDX 2 14 3 15 4 16 7 17 6 18 1 19 5 20 13 22 14 24 15 25 16 26
REMARK SMILES IDX 17 27 18 28
REMARK H PARENT 9 12 5 21 13 23
ROOT
ATOM      1  C   UNL     1       3.754  44.729  51.598  1.00  0.00     0.147 A 
ATOM      2  N   UNL     1       4.713  45.687  51.541  1.00  0.00    -0.195 NA
ATOM      3  C   UNL     1       5.956  45.378  51.124  1.00  0.00     0.226 A 
ATOM      4  N   UNL     1       6.367  44.168  50.726  1.00  0.00    -0.193 NA
ATOM      5  C   UNL     1       5.400  43.241  50.784  1.00  0.00     0.165 A 
ATOM      6  C   UNL     1       4.098  43.436  51.198  1.00  0.00     0.082 A 
ATOM      7  C   UNL     1       3.495  42.168  51.068  1.00  0.00     0.149 A 
ATOM      8  N   UNL     1       4.339  41.234  50.609  1.00  0.00    -0.179 NA
ATOM      9  N   UNL     1       5.497  41.918  50.452  1.00  0.00    -0.250 N 
ATOM     10  C   UNL     1       6.668  41.228  49.974  1.00  0.00     0.176 C 
ENDROOT
BRANCH   1  11
ATOM     11  N   UNL     1       2.482  45.131  52.048  1.00  0.00    -0.339 N 
ATOM     12  H   UNL     1       2.346  46.065  51.667  1.00  0.00     0.168 HD
BRANCH  11  13
ATOM     13  C   UNL     1       2.043  45.066  53.389  1.00  0.00     0.043 A 
ATOM     14  C   UNL     1       0.896  44.351  53.789  1.00  0.00    -0.024 A 
ATOM     15  C   UNL     1       0.540  44.344  55.147  1.00  0.00     0.051 A 
ATOM     16  C   UNL     1       1.328  44.996  56.090  1.00  0.00     0.115 A 
ATOM     17  C   UNL     1       2.837  45.695  54.361  1.00  0.00     0.030 A 
ATOM     18  C   UNL     1       2.481  45.668  55.710  1.00  0.00     0.048 A 
ATOM     19  C   UNL     1       0.017  43.623  52.809  1.00  0.00     0.047 C 
BRANCH  16  20
ATOM     20  O   UNL     1       0.931  44.945  57.394  1.00  0.00    -0.508 OA
ATOM     21  H   UNL     1       0.302  45.667  57.554  1.00  0.00     0.293 HD
ENDBRANCH  16  20
ENDBRANCH  11  13
ENDBRANCH   1  11
BRANCH   3  22
ATOM     22  N   UNL     1       6.842  46.448  51.133  1.00  0.00    -0.354 N 
ATOM     23  H   UNL     1       7.736  46.061  50.849  1.00  0.00     0.163 HD
BRANCH  22  24
ATOM     24  C   UNL     1       6.878  47.250  52.343  1.00  0.00     0.116 C 
BRANCH  24  25
ATOM     25  C   UNL     1       8.283  47.790  52.635  1.00  0.00     0.024 C 
BRANCH  25  26
ATOM     26  C   UNL     1       9.298  46.744  53.139  1.00  0.00    -0.016 C 
ATOM     27  C   UNL     1      10.281  46.397  52.018  1.00  0.00     0.007 C 
ATOM     28  C   UNL     1      10.067  47.223  54.370  1.00  0.00     0.007 C 
ENDBRANCH  25  26
ENDBRANCH  24  25
ENDBRANCH  22  24
ENDBRANCH   3  22
TORSDOF 7
ENDMDL
MODEL 11
REMARK VINA RESULT:    -8.688      2.912      5.606
REMARK INTER + INTRA:         -12.491
REMARK INTER:                 -11.714
REMARK INTRA:                  -0.777
REMARK UNBOUND:                -0.501
REMARK SMILES Cc1cc(O)ccc1Nc1nc(NCCC(C)C)nc2c1cnn2C
REMARK SMILES IDX 10 1 11 2 12 3 19 4 20 5 21 6 22 7 23 8 24 9 25 10 9 11 8 13
REMARK SMILES IDX 2 14 3 15 4 16 7 17 6 18 1 19 5 20 13 22 14 24 15 25 16 26
REMARK SMILES IDX 17 27 18 28
REMARK H PARENT 9 12 5 21 13 23
ROOT
ATOM      1  C   UNL     1       4.394  43.779  52.259  1.00  0.00     0.147 A 
ATOM      2  N   UNL     1       4.747  45.045  52.595  1.00  0.00    -0.195 NA
ATOM      3  C   UNL     1       5.739  45.670  51.932  1.00  0.00     0.226 A 
ATOM      4  N   UNL     1       6.441  45.158  50.914  1.00  0.00    -0.193 NA
ATOM      5  C   UNL     1       6.067  43.910  50.595  1.00  0.00     0.165 A 
ATOM      6  C   UNL     1       5.075  43.168  51.204  1.00  0.00     0.082 A 
ATOM      7  C   UNL     1       5.074  41.944  50.505  1.00  0.00     0.149 A 
ATOM      8  N   UNL     1       5.989  41.900  49.528  1.00  0.00    -0.179 NA
ATOM      9  N   UNL     1       6.586  43.112  49.613  1.00  0.00    -0.250 N 
ATOM     10  C   UNL     1       7.658  43.440  48.707  1.00  0.00     0.176 C 
ENDROOT
BRANCH   1  11
ATOM     11  N   UNL     1       3.351  43.193  53.003  1.00  0.00    -0.339 N 
ATOM     12  H   UNL     1       3.304  42.227  52.684  1.00  0.00     0.168 HD
BRANCH  11  13
ATOM     13  C   UNL     1       2.056  43.740  53.144  1.00  0.00     0.043 A 
ATOM     14  C   UNL     1       1.067  43.642  52.145  1.00  0.00    -0.024 A 
ATOM     15  C   UNL     1      -0.192  44.218  52.377  1.00  0.00     0.051 A 
ATOM     16  C   UNL     1      -0.475  44.837  53.591  1.00  0.00     0.115 A 
ATOM     17  C   UNL     1       1.740  44.347  54.369  1.00  0.00     0.030 A 
ATOM     18  C   UNL     1       0.480  44.902  54.594  1.00  0.00     0.048 A 
ATOM     19  C   UNL     1       1.322  42.975  50.821  1.00  0.00     0.047 C 
BRANCH  16  20
ATOM     20  O   UNL     1      -1.719  45.370  53.756  1.00  0.00    -0.508 OA
ATOM     21  H   UNL     1      -2.368  44.648  53.756  1.00  0.00     0.293 HD
ENDBRANCH  16  20
ENDBRANCH  11  13
ENDBRANCH   1  11
BRANCH   3  22
ATOM     22  N   UNL     1       6.011  46.952  52.391  1.00  0.00    -0.354 N 
ATOM     23  H   UNL     1       5.961  47.549  51.572  1.00  0.00     0.163 HD
BRANCH  22  24
ATOM     24  C   UNL     1       7.211  47.112  53.193  1.00  0.00     0.116 C 
BRANCH  24  25
ATOM     25  C   UNL     1       8.343  47.786  52.409  1.00  0.00     0.024 C 
BRANCH  25  26
ATOM     26  C   UNL     1       9.761  47.270  52.727  1.00  0.00    -0.016 C 
ATOM     27  C   UNL     1       9.862  46.924  54.215  1.00  0.00     0.007 C 
ATOM     28  C   UNL     1      10.142  46.051  51.887  1.00  0.00     0.007 C 
ENDBRANCH  25  26
ENDBRANCH  24  25
ENDBRANCH  22  24
ENDBRANCH   3  22
TORSDOF 7
ENDMDL
MODEL 12
REMARK VINA RESULT:    -8.666      2.985      4.222
REMARK INTER + INTRA:         -12.460
REMARK INTER:                 -11.818
REMARK INTRA:                  -0.642
REMARK UNBOUND:                -0.501
REMARK SMILES Cc1cc(O)ccc1Nc1nc(NCCC(C)C)nc2c1cnn2C
REMARK SMILES IDX 10 1 11 2 12 3 19 4 20 5 21 6 22 7 23 8 24 9 25 10 9 11 8 13
REMARK SMILES IDX 2 14 3 15 4 16 7 17 6 18 1 19 5 20 13 22 14 24 15 25 16 26
REMARK SMILES IDX 17 27 18 28
REMARK H PARENT 9 12 5 21 13 23
ROOT
ATOM      1  C   UNL     1       5.765  42.571  49.922  1.00  0.00     0.147 A 
ATOM      2  N   UNL     1       6.667  43.582  49.858  1.00  0.00    -0.195 NA
ATOM      3  C   UNL     1       6.548  44.648  50.672  1.00  0.00     0.226 A 
ATOM      4  N   UNL     1       5.596  44.822  51.597  1.00  0.00    -0.193 NA
ATOM      5  C   UNL     1       4.723  43.805  51.647  1.00  0.00     0.165 A 
ATOM      6  C   UNL     1       4.738  42.669  50.863  1.00  0.00     0.082 A 
ATOM      7  C   UNL     1       3.627  41.923  51.305  1.00  0.00     0.149 A 
ATOM      8  N   UNL     1       2.953  42.528  52.292  1.00  0.00    -0.179 NA
ATOM      9  N   UNL     1       3.641  43.679  52.473  1.00  0.00    -0.250 N 
ATOM     10  C   UNL     1       3.198  44.621  53.470  1.00  0.00     0.176 C 
ENDROOT
BRANCH   1  11
ATOM     11  N   UNL     1       5.956  41.494  49.034  1.00  0.00    -0.339 N 
ATOM     12  H   UNL     1       6.965  41.420  48.916  1.00  0.00     0.168 HD
BRANCH  11  13
ATOM     13  C   UNL     1       5.292  41.342  47.797  1.00  0.00     0.043 A 
ATOM     14  C   UNL     1       4.109  40.592  47.646  1.00  0.00    -0.024 A 
ATOM     15  C   UNL     1       3.521  40.500  46.374  1.00  0.00     0.051 A 
ATOM     16  C   UNL     1       4.072  41.172  45.288  1.00  0.00     0.115 A 
ATOM     17  C   UNL     1       5.816  42.032  46.692  1.00  0.00     0.030 A 
ATOM     18  C   UNL     1       5.214  41.945  45.436  1.00  0.00     0.048 A 
ATOM     19  C   UNL     1       3.470  39.855  48.791  1.00  0.00     0.047 C 
BRANCH  16  20
ATOM     20  O   UNL     1       3.449  41.047  44.081  1.00  0.00    -0.508 OA
ATOM     21  H   UNL     1       4.101  41.200  43.378  1.00  0.00     0.293 HD
ENDBRANCH  16  20
ENDBRANCH  11  13
ENDBRANCH   1  11
BRANCH   3  22
ATOM     22  N   UNL     1       7.526  45.618  50.488  1.00  0.00    -0.354 N 
ATOM     23  H   UNL     1       8.410  45.141  50.625  1.00  0.00     0.163 HD
BRANCH  22  24
ATOM     24  C   UNL     1       7.368  46.848  51.245  1.00  0.00     0.116 C 
BRANCH  24  25
ATOM     25  C   UNL     1       8.715  47.414  51.710  1.00  0.00     0.024 C 
BRANCH  25  26
ATOM     26  C   UNL     1       9.546  46.477  52.611  1.00  0.00    -0.016 C 
ATOM     27  C   UNL     1      10.747  45.940  51.828  1.00  0.00     0.007 C 
ATOM     28  C   UNL     1      10.029  47.169  53.885  1.00  0.00     0.007 C 
ENDBRANCH  25  26
ENDBRANCH  24  25
ENDBRANCH  22  24
ENDBRANCH   3  22
TORSDOF 7
ENDMDL
MODEL 13
REMARK VINA RESULT:    -8.580      2.933      5.639
REMARK INTER + INTRA:         -12.340
REMARK INTER:                 -11.397
REMARK INTRA:                  -0.943
REMARK UNBOUND:                -0.501
REMARK SMILES Cc1cc(O)ccc1Nc1nc(NCCC(C)C)nc2c1cnn2C
REMARK SMILES IDX 10 1 11 2 12 3 19 4 20 5 21 6 22 7 23 8 24 9 25 10 9 11 8 13
REMARK SMILES IDX 2 14 3 15 4 16 7 17 6 18 1 19 5 20 13 22 14 24 15 25 16 26
REMARK SMILES IDX 17 27 18 28
REMARK H PARENT 9 12 5 21 13 23
ROOT
ATOM      1  C   UNL     1       4.709  45.338  51.504  1.00  0.00     0.147 A 
ATOM      2  N   UNL     1       5.863  46.018  51.288  1.00  0.00    -0.195 NA
ATOM      3  C   UNL     1       6.920  45.399  50.728  1.00  0.00     0.226 A 
ATOM      4  N   UNL     1       6.954  44.123  50.326  1.00  0.00    -0.193 NA
ATOM      5  C   UNL     1       5.800  43.475  50.542  1.00  0.00     0.165 A 
ATOM      6  C   UNL     1       4.657  43.999  51.111  1.00  0.00     0.082 A 
ATOM      7  C   UNL     1       3.740  42.928  51.107  1.00  0.00     0.149 A 
ATOM      8  N   UNL     1       4.250  41.807  50.579  1.00  0.00    -0.179 NA
ATOM      9  N   UNL     1       5.512  42.170  50.250  1.00  0.00    -0.250 N 
ATOM     10  C   UNL     1       6.396  41.201  49.653  1.00  0.00     0.176 C 
ENDROOT
BRANCH   1  11
ATOM     11  N   UNL     1       3.652  46.055  52.097  1.00  0.00    -0.339 N 
ATOM     12  H   UNL     1       3.928  47.033  52.041  1.00  0.00     0.168 HD
BRANCH  11  13
ATOM     13  C   UNL     1       3.088  45.762  53.359  1.00  0.00     0.043 A 
ATOM     14  C   UNL     1       3.660  46.187  54.574  1.00  0.00    -0.024 A 
ATOM     15  C   UNL     1       3.025  45.847  55.779  1.00  0.00     0.051 A 
ATOM     16  C   UNL     1       1.827  45.140  55.774  1.00  0.00     0.115 A 
ATOM     17  C   UNL     1       1.866  45.071  53.377  1.00  0.00     0.030 A 
ATOM     18  C   UNL     1       1.237  44.752  54.580  1.00  0.00     0.048 A 
ATOM     19  C   UNL     1       4.949  46.962  54.631  1.00  0.00     0.047 C 
BRANCH  16  20
ATOM     20  O   UNL     1       1.257  44.847  56.978  1.00  0.00    -0.508 OA
ATOM     21  H   UNL     1       0.357  45.210  56.991  1.00  0.00     0.293 HD
ENDBRANCH  16  20
ENDBRANCH  11  13
ENDBRANCH   1  11
BRANCH   3  22
ATOM     22  N   UNL     1       8.042  46.206  50.583  1.00  0.00    -0.354 N 
ATOM     23  H   UNL     1       8.065  46.463  49.602  1.00  0.00     0.163 HD
BRANCH  22  24
ATOM     24  C   UNL     1       9.289  45.680  51.109  1.00  0.00     0.116 C 
BRANCH  24  25
ATOM     25  C   UNL     1       9.959  46.656  52.083  1.00  0.00     0.024 C 
BRANCH  25  26
ATOM     26  C   UNL     1       9.132  47.006  53.337  1.00  0.00    -0.016 C 
ATOM     27  C   UNL     1      10.061  47.142  54.546  1.00  0.00     0.007 C 
ATOM     28  C   UNL     1       8.321  48.290  53.162  1.00  0.00     0.007 C 
ENDBRANCH  25  26
ENDBRANCH  24  25
ENDBRANCH  22  24
ENDBRANCH   3  22
TORSDOF 7
ENDMDL
MODEL 14
REMARK VINA RESULT:    -8.413      2.963      6.844
REMARK INTER + INTRA:         -12.111
REMARK INTER:                 -10.798
REMARK INTRA:                  -1.313
REMARK UNBOUND:                -0.501
REMARK SMILES Cc1cc(O)ccc1Nc1nc(NCCC(C)C)nc2c1cnn2C
REMARK SMILES IDX 10 1 11 2 12 3 19 4 20 5 21 6 22 7 23 8 24 9 25 10 9 11 8 13
REMARK SMILES IDX 2 14 3 15 4 16 7 17 6 18 1 19 5 20 13 22 14 24 15 25 16 26
REMARK SMILES IDX 17 27 18 28
REMARK H PARENT 9 12 5 21 13 23
ROOT
ATOM      1  C   UNL     1       5.720  46.370  51.755  1.00  0.00     0.147 A 
ATOM      2  N   UNL     1       5.554  45.356  50.869  1.00  0.00    -0.195 NA
ATOM      3  C   UNL     1       6.626  44.744  50.331  1.00  0.00     0.226 A 
ATOM      4  N   UNL     1       7.906  45.032  50.599  1.00  0.00    -0.193 NA
ATOM      5  C   UNL     1       8.043  46.031  51.483  1.00  0.00     0.165 A 
ATOM      6  C   UNL     1       7.025  46.734  52.094  1.00  0.00     0.082 A 
ATOM      7  C   UNL     1       7.687  47.660  52.925  1.00  0.00     0.149 A 
ATOM      8  N   UNL     1       9.021  47.562  52.855  1.00  0.00    -0.179 NA
ATOM      9  N   UNL     1       9.209  46.564  51.961  1.00  0.00    -0.250 N 
ATOM     10  C   UNL     1      10.549  46.169  51.609  1.00  0.00     0.176 C 
ENDROOT
BRANCH   1  11
ATOM     11  N   UNL     1       4.549  46.960  52.269  1.00  0.00    -0.339 N 
ATOM     12  H   UNL     1       4.809  47.919  52.493  1.00  0.00     0.168 HD
BRANCH  11  13
ATOM     13  C   UNL     1       3.748  46.404  53.290  1.00  0.00     0.043 A 
ATOM     14  C   UNL     1       2.551  45.706  53.035  1.00  0.00    -0.024 A 
ATOM     15  C   UNL     1       1.823  45.188  54.118  1.00  0.00     0.051 A 
ATOM     16  C   UNL     1       2.295  45.324  55.419  1.00  0.00     0.115 A 
ATOM     17  C   UNL     1       4.218  46.507  54.610  1.00  0.00     0.030 A 
ATOM     18  C   UNL     1       3.493  45.975  55.676  1.00  0.00     0.048 A 
ATOM     19  C   UNL     1       2.004  45.525  51.645  1.00  0.00     0.047 C 
BRANCH  16  20
ATOM     20  O   UNL     1       1.544  44.792  56.426  1.00  0.00    -0.508 OA
ATOM     21  H   UNL     1       0.605  44.886  56.195  1.00  0.00     0.293 HD
ENDBRANCH  16  20
ENDBRANCH  11  13
ENDBRANCH   1  11
BRANCH   3  22
ATOM     22  N   UNL     1       6.314  43.737  49.425  1.00  0.00    -0.354 N 
ATOM     23  H   UNL     1       5.303  43.749  49.347  1.00  0.00     0.163 HD
BRANCH  22  24
ATOM     24  C   UNL     1       6.895  42.431  49.683  1.00  0.00     0.116 C 
BRANCH  24  25
ATOM     25  C   UNL     1       5.924  41.506  50.426  1.00  0.00     0.024 C 
BRANCH  25  26
ATOM     26  C   UNL     1       4.437  41.908  50.340  1.00  0.00    -0.016 C 
ATOM     27  C   UNL     1       3.637  40.784  49.677  1.00  0.00     0.007 C 
ATOM     28  C   UNL     1       3.839  42.229  51.710  1.00  0.00     0.007 C 
ENDBRANCH  25  26
ENDBRANCH  24  25
ENDBRANCH  22  24
ENDBRANCH   3  22
TORSDOF 7
ENDMDL
MODEL 15
REMARK VINA RESULT:    -8.347      2.236      6.517
REMARK INTER + INTRA:         -12.020
REMARK INTER:                 -11.277
REMARK INTRA:                  -0.743
REMARK UNBOUND:                -0.501
REMARK SMILES Cc1cc(O)ccc1Nc1nc(NCCC(C)C)nc2c1cnn2C
REMARK SMILES IDX 10 1 11 2 12 3 19 4 20 5 21 6 22 7 23 8 24 9 25 10 9 11 8 13
REMARK SMILES IDX 2 14 3 15 4 16 7 17 6 18 1 19 5 20 13 22 14 24 15 25 16 26
REMARK SMILES IDX 17 27 18 28
REMARK H PARENT 9 12 5 21 13 23
ROOT
ATOM      1  C   UNL     1       5.926  45.330  51.524  1.00  0.00     0.147 A 
ATOM      2  N   UNL     1       4.862  45.033  52.312  1.00  0.00    -0.195 NA
ATOM      3  C   UNL     1       4.211  43.864  52.159  1.00  0.00     0.226 A 
ATOM      4  N   UNL     1       4.523  42.907  51.277  1.00  0.00    -0.193 NA
ATOM      5  C   UNL     1       5.582  43.220  50.516  1.00  0.00     0.165 A 
ATOM      6  C   UNL     1       6.322  44.384  50.577  1.00  0.00     0.082 A 
ATOM      7  C   UNL     1       7.312  44.221  49.587  1.00  0.00     0.149 A 
ATOM      8  N   UNL     1       7.218  43.051  48.943  1.00  0.00    -0.179 NA
ATOM      9  N   UNL     1       6.147  42.464  49.526  1.00  0.00    -0.250 N 
ATOM     10  C   UNL     1       5.718  41.164  49.079  1.00  0.00     0.176 C 
ENDROOT
BRANCH   1  11
ATOM     11  N   UNL     1       6.550  46.573  51.744  1.00  0.00    -0.339 N 
ATOM     12  H   UNL     1       6.822  46.903  50.820  1.00  0.00     0.168 HD
BRANCH  11  13
ATOM     13  C   UNL     1       7.579  46.803  52.684  1.00  0.00     0.043 A 
ATOM     14  C   UNL     1       7.335  47.014  54.056  1.00  0.00    -0.024 A 
ATOM     15  C   UNL     1       8.425  47.233  54.914  1.00  0.00     0.051 A 
ATOM     16  C   UNL     1       9.727  47.201  54.427  1.00  0.00     0.115 A 
ATOM     17  C   UNL     1       8.903  46.750  52.220  1.00  0.00     0.030 A 
ATOM     18  C   UNL     1       9.978  46.954  53.085  1.00  0.00     0.048 A 
ATOM     19  C   UNL     1       5.945  47.048  54.631  1.00  0.00     0.047 C 
BRANCH  16  20
ATOM     20  O   UNL     1      10.742  47.415  55.313  1.00  0.00    -0.508 OA
ATOM     21  H   UNL     1      10.634  46.805  56.061  1.00  0.00     0.293 HD
ENDBRANCH  16  20
ENDBRANCH  11  13
ENDBRANCH   1  11
BRANCH   3  22
ATOM     22  N   UNL     1       3.130  43.697  53.016  1.00  0.00    -0.354 N 
ATOM     23  H   UNL     1       2.490  43.081  52.527  1.00  0.00     0.163 HD
BRANCH  22  24
ATOM     24  C   UNL     1       2.531  44.909  53.546  1.00  0.00     0.116 C 
BRANCH  24  25
ATOM     25  C   UNL     1       2.561  44.943  55.079  1.00  0.00     0.024 C 
BRANCH  25  26
ATOM     26  C   UNL     1       1.219  44.630  55.770  1.00  0.00    -0.016 C 
ATOM     27  C   UNL     1       0.943  45.673  56.857  1.00  0.00     0.007 C 
ATOM     28  C   UNL     1       0.050  44.589  54.785  1.00  0.00     0.007 C 
ENDBRANCH  25  26
ENDBRANCH  24  25
ENDBRANCH  22  24
ENDBRANCH   3  22
TORSDOF 7
ENDMDL
MODEL 16
REMARK VINA RESULT:    -8.309      2.637      5.933
REMARK INTER + INTRA:         -11.967
REMARK INTER:                 -10.722
REMARK INTRA:                  -1.245
REMARK UNBOUND:                -0.501
REMARK SMILES Cc1cc(O)ccc1Nc1nc(NCCC(C)C)nc2c1cnn2C
REMARK SMILES IDX 10 1 11 2 12 3 19 4 20 5 21 6 22 7 23 8 24 9 25 10 9 11 8 13
REMARK SMILES IDX 2 14 3 15 4 16 7 17 6 18 1 19 5 20 13 22 14 24 15 25 16 26
REMARK SMILES IDX 17 27 18 28
REMARK H PARENT 9 12 5 21 13 23
ROOT
ATOM      1  C   UNL     1       5.548  46.364  52.136  1.00  0.00     0.147 A 
ATOM      2  N   UNL     1       6.077  45.862  50.992  1.00  0.00    -0.195 NA
ATOM      3  C   UNL     1       7.412  45.771  50.846  1.00  0.00     0.226 A 
ATOM      4  N   UNL     1       8.324  46.126  51.760  1.00  0.00    -0.193 NA
ATOM      5  C   UNL     1       7.776  46.611  52.884  1.00  0.00     0.165 A 
ATOM      6  C   UNL     1       6.429  46.758  53.146  1.00  0.00     0.082 A 
ATOM      7  C   UNL     1       6.381  47.297  54.447  1.00  0.00     0.149 A 
ATOM      8  N   UNL     1       7.596  47.482  54.980  1.00  0.00    -0.179 NA
ATOM      9  N   UNL     1       8.429  47.061  53.999  1.00  0.00    -0.250 N 
ATOM     10  C   UNL     1       9.853  47.120  54.203  1.00  0.00     0.176 C 
ENDROOT
BRANCH   1  11
ATOM     11  N   UNL     1       4.143  46.431  52.209  1.00  0.00    -0.339 N 
ATOM     12  H   UNL     1       3.945  47.083  52.965  1.00  0.00     0.168 HD
BRANCH  11  13
ATOM     13  C   UNL     1       3.286  45.310  52.274  1.00  0.00     0.043 A 
ATOM     14  C   UNL     1       2.945  44.671  53.482  1.00  0.00    -0.024 A 
ATOM     15  C   UNL     1       2.083  43.563  53.445  1.00  0.00     0.051 A 
ATOM     16  C   UNL     1       1.540  43.128  52.241  1.00  0.00     0.115 A 
ATOM     17  C   UNL     1       2.705  44.869  51.074  1.00  0.00     0.030 A 
ATOM     18  C   UNL     1       1.839  43.776  51.052  1.00  0.00     0.048 A 
ATOM     19  C   UNL     1       3.499  45.110  54.811  1.00  0.00     0.047 C 
BRANCH  16  20
ATOM     20  O   UNL     1       0.704  42.051  52.274  1.00  0.00    -0.508 OA
ATOM     21  H   UNL     1       0.027  42.163  51.587  1.00  0.00     0.293 HD
ENDBRANCH  16  20
ENDBRANCH  11  13
ENDBRANCH   1  11
BRANCH   3  22
ATOM     22  N   UNL     1       7.818  45.258  49.620  1.00  0.00    -0.354 N 
ATOM     23  H   UNL     1       7.183  45.657  48.937  1.00  0.00     0.163 HD
BRANCH  22  24
ATOM     24  C   UNL     1       7.978  43.817  49.542  1.00  0.00     0.116 C 
BRANCH  24  25
ATOM     25  C   UNL     1       6.824  43.150  48.784  1.00  0.00     0.024 C 
BRANCH  25  26
ATOM     26  C   UNL     1       6.168  41.955  49.505  1.00  0.00    -0.016 C 
ATOM     27  C   UNL     1       5.380  42.455  50.719  1.00  0.00     0.007 C 
ATOM     28  C   UNL     1       5.247  41.152  48.587  1.00  0.00     0.007 C 
ENDBRANCH  25  26
ENDBRANCH  24  25
ENDBRANCH  22  24
ENDBRANCH   3  22
TORSDOF 7
ENDMDL
MODEL 17
REMARK VINA RESULT:    -8.303      2.373      5.070
REMARK INTER + INTRA:         -11.959
REMARK INTER:                 -10.667
REMARK INTRA:                  -1.292
REMARK UNBOUND:                -0.501
REMARK SMILES Cc1cc(O)ccc1Nc1nc(NCCC(C)C)nc2c1cnn2C
REMARK SMILES IDX 10 1 11 2 12 3 19 4 20 5 21 6 22 7 23 8 24 9 25 10 9 11 8 13
REMARK SMILES IDX 2 14 3 15 4 16 7 17 6 18 1 19 5 20 13 22 14 24 15 25 16 26
REMARK SMILES IDX 17 27 18 28
REMARK H PARENT 9 12 5 21 13 23
ROOT
ATOM      1  C   UNL     1       2.689  43.885  52.914  1.00  0.00     0.147 A 
ATOM      2  N   UNL     1       3.380  42.970  52.189  1.00  0.00    -0.195 NA
ATOM      3  C   UNL     1       2.777  42.307  51.184  1.00  0.00     0.226 A 
ATOM      4  N   UNL     1       1.508  42.471  50.791  1.00  0.00    -0.193 NA
ATOM      5  C   UNL     1       0.849  43.386  51.517  1.00  0.00     0.165 A 
ATOM      6  C   UNL     1       1.356  44.121  52.570  1.00  0.00     0.082 A 
ATOM      7  C   UNL     1       0.280  44.932  52.982  1.00  0.00     0.149 A 
ATOM      8  N   UNL     1      -0.828  44.737  52.256  1.00  0.00    -0.179 NA
ATOM      9  N   UNL     1      -0.452  43.781  51.374  1.00  0.00    -0.250 N 
ATOM     10  C   UNL     1      -1.405  43.290  50.411  1.00  0.00     0.176 C 
ENDROOT
BRANCH   1  11
ATOM     11  N   UNL     1       3.389  44.532  53.951  1.00  0.00    -0.339 N 
ATOM     12  H   UNL     1       2.675  45.002  54.504  1.00  0.00     0.168 HD
BRANCH  11  13
ATOM     13  C   UNL     1       4.513  45.367  53.765  1.00  0.00     0.043 A 
ATOM     14  C   UNL     1       4.431  46.653  53.195  1.00  0.00    -0.024 A 
ATOM     15  C   UNL     1       5.605  47.409  53.052  1.00  0.00     0.051 A 
ATOM     16  C   UNL     1       6.824  46.916  53.505  1.00  0.00     0.115 A 
ATOM     17  C   UNL     1       5.751  44.901  54.237  1.00  0.00     0.030 A 
ATOM     18  C   UNL     1       6.908  45.668  54.103  1.00  0.00     0.048 A 
ATOM     19  C   UNL     1       3.134  47.233  52.700  1.00  0.00     0.047 C 
BRANCH  16  20
ATOM     20  O   UNL     1       7.926  47.703  53.343  1.00  0.00    -0.508 OA
ATOM     21  H   UNL     1       8.580  47.217  52.814  1.00  0.00     0.293 HD
ENDBRANCH  16  20
ENDBRANCH  11  13
ENDBRANCH   1  11
BRANCH   3  22
ATOM     22  N   UNL     1       3.592  41.386  50.538  1.00  0.00    -0.354 N 
ATOM     23  H   UNL     1       3.187  40.478  50.739  1.00  0.00     0.163 HD
BRANCH  22  24
ATOM     24  C   UNL     1       5.018  41.492  50.795  1.00  0.00     0.116 C 
BRANCH  24  25
ATOM     25  C   UNL     1       5.746  42.266  49.690  1.00  0.00     0.024 C 
BRANCH  25  26
ATOM     26  C   UNL     1       6.658  43.410  50.180  1.00  0.00    -0.016 C 
ATOM     27  C   UNL     1       7.806  43.614  49.189  1.00  0.00     0.007 C 
ATOM     28  C   UNL     1       5.898  44.724  50.367  1.00  0.00     0.007 C 
ENDBRANCH  25  26
ENDBRANCH  24  25
ENDBRANCH  22  24
ENDBRANCH   3  22
TORSDOF 7
ENDMDL
MODEL 18
REMARK VINA RESULT:    -8.283      2.181      4.818
REMARK INTER + INTRA:         -11.931
REMARK INTER:                 -10.244
REMARK INTRA:                  -1.687
REMARK UNBOUND:                -0.501
REMARK SMILES Cc1cc(O)ccc1Nc1nc(NCCC(C)C)nc2c1cnn2C
REMARK SMILES IDX 10 1 11 2 12 3 19 4 20 5 21 6 22 7 23 8 24 9 25 10 9 11 8 13
REMARK SMILES IDX 2 14 3 15 4 16 7 17 6 18 1 19 5 20 13 22 14 24 15 25 16 26
REMARK SMILES IDX 17 27 18 28
REMARK H PARENT 9 12 5 21 13 23
ROOT
ATOM      1  C   UNL     1       2.333  45.334  55.321  1.00  0.00     0.147 A 
ATOM      2  N   UNL     1       2.428  44.637  54.161  1.00  0.00    -0.195 NA
ATOM      3  C   UNL     1       1.381  43.918  53.714  1.00  0.00     0.226 A 
ATOM      4  N   UNL     1       0.188  43.822  54.314  1.00  0.00    -0.193 NA
ATOM      5  C   UNL     1       0.116  44.525  55.453  1.00  0.00     0.165 A 
ATOM      6  C   UNL     1       1.119  45.291  56.012  1.00  0.00     0.082 A 
ATOM      7  C   UNL     1       0.545  45.820  57.185  1.00  0.00     0.149 A 
ATOM      8  N   UNL     1      -0.723  45.428  57.367  1.00  0.00    -0.179 NA
ATOM      9  N   UNL     1      -0.955  44.632  56.298  1.00  0.00    -0.250 N 
ATOM     10  C   UNL     1      -2.241  44.000  56.149  1.00  0.00     0.176 C 
ENDROOT
BRANCH   1  11
ATOM     11  N   UNL     1       3.473  46.057  55.722  1.00  0.00    -0.339 N 
ATOM     12  H   UNL     1       3.112  46.884  56.194  1.00  0.00     0.168 HD
BRANCH  11  13
ATOM     13  C   UNL     1       4.554  46.391  54.877  1.00  0.00     0.043 A 
ATOM     14  C   UNL     1       5.722  45.610  54.777  1.00  0.00    -0.024 A 
ATOM     15  C   UNL     1       6.744  46.023  53.907  1.00  0.00     0.051 A 
ATOM     16  C   UNL     1       6.589  47.162  53.124  1.00  0.00     0.115 A 
ATOM     17  C   UNL     1       4.410  47.522  54.057  1.00  0.00     0.030 A 
ATOM     18  C   UNL     1       5.426  47.915  53.186  1.00  0.00     0.048 A 
ATOM     19  C   UNL     1       5.932  44.366  55.597  1.00  0.00     0.047 C 
BRANCH  16  20
ATOM     20  O   UNL     1       7.616  47.506  52.294  1.00  0.00    -0.508 OA
ATOM     21  H   UNL     1       7.314  48.218  51.707  1.00  0.00     0.293 HD
ENDBRANCH  16  20
ENDBRANCH  11  13
ENDBRANCH   1  11
BRANCH   3  22
ATOM     22  N   UNL     1       1.621  43.239  52.527  1.00  0.00    -0.354 N 
ATOM     23  H   UNL     1       0.868  42.564  52.444  1.00  0.00     0.163 HD
BRANCH  22  24
ATOM     24  C   UNL     1       2.956  42.694  52.351  1.00  0.00     0.116 C 
BRANCH  24  25
ATOM     25  C   UNL     1       3.651  43.265  51.109  1.00  0.00     0.024 C 
BRANCH  25  26
ATOM     26  C   UNL     1       4.424  44.580  51.335  1.00  0.00    -0.016 C 
ATOM     27  C   UNL     1       5.770  44.519  50.609  1.00  0.00     0.007 C 
ATOM     28  C   UNL     1       3.640  45.806  50.867  1.00  0.00     0.007 C 
ENDBRANCH  25  26
ENDBRANCH  24  25
ENDBRANCH  22  24
ENDBRANCH   3  22
TORSDOF 7
ENDMDL
MODEL 19
REMARK VINA RESULT:    -8.275      1.915      2.699
REMARK INTER + INTRA:         -11.920
REMARK INTER:                 -11.020
REMARK INTRA:                  -0.901
REMARK UNBOUND:                -0.501
REMARK SMILES Cc1cc(O)ccc1Nc1nc(NCCC(C)C)nc2c1cnn2C
REMARK SMILES IDX 10 1 11 2 12 3 19 4 20 5 21 6 22 7 23 8 24 9 25 10 9 11 8 13
REMARK SMILES IDX 2 14 3 15 4 16 7 17 6 18 1 19 5 20 13 22 14 24 15 25 16 26
REMARK SMILES IDX 17 27 18 28
REMARK H PARENT 9 12 5 21 13 23
ROOT
ATOM      1  C   UNL     1       4.760  43.544  51.923  1.00  0.00     0.147 A 
ATOM      2  N   UNL     1       5.468  44.694  52.055  1.00  0.00    -0.195 NA
ATOM      3  C   UNL     1       4.892  45.786  52.593  1.00  0.00     0.226 A 
ATOM      4  N   UNL     1       3.636  45.862  53.049  1.00  0.00    -0.193 NA
ATOM      5  C   UNL     1       2.960  44.712  52.915  1.00  0.00     0.165 A 
ATOM      6  C   UNL     1       3.439  43.534  52.377  1.00  0.00     0.082 A 
ATOM      7  C   UNL     1       2.354  42.639  52.470  1.00  0.00     0.149 A 
ATOM      8  N   UNL     1       1.267  43.193  53.022  1.00  0.00    -0.179 NA
ATOM      9  N   UNL     1       1.665  44.462  53.276  1.00  0.00    -0.250 N 
ATOM     10  C   UNL     1       0.738  45.389  53.874  1.00  0.00     0.176 C 
ENDROOT
BRANCH   1  11
ATOM     11  N   UNL     1       5.432  42.448  51.349  1.00  0.00    -0.339 N 
ATOM     12  H   UNL     1       6.411  42.572  51.601  1.00  0.00     0.168 HD
BRANCH  11  13
ATOM     13  C   UNL     1       5.307  42.042  50.002  1.00  0.00     0.043 A 
ATOM     14  C   UNL     1       6.202  42.444  48.991  1.00  0.00    -0.024 A 
ATOM     15  C   UNL     1       5.995  41.987  47.679  1.00  0.00     0.051 A 
ATOM     16  C   UNL     1       4.949  41.118  47.389  1.00  0.00     0.115 A 
ATOM     17  C   UNL     1       4.273  41.145  49.689  1.00  0.00     0.030 A 
ATOM     18  C   UNL     1       4.087  40.685  48.385  1.00  0.00     0.048 A 
ATOM     19  C   UNL     1       7.354  43.375  49.257  1.00  0.00     0.047 C 
BRANCH  16  20
ATOM     20  O   UNL     1       4.807  40.705  46.096  1.00  0.00    -0.508 OA
ATOM     21  H   UNL     1       4.302  39.875  46.090  1.00  0.00     0.293 HD
ENDBRANCH  16  20
ENDBRANCH  11  13
ENDBRANCH   1  11
BRANCH   3  22
ATOM     22  N   UNL     1       5.723  46.898  52.650  1.00  0.00    -0.354 N 
ATOM     23  H   UNL     1       5.571  47.395  51.779  1.00  0.00     0.163 HD
BRANCH  22  24
ATOM     24  C   UNL     1       7.115  46.651  52.981  1.00  0.00     0.116 C 
BRANCH  24  25
ATOM     25  C   UNL     1       8.062  47.120  51.870  1.00  0.00     0.024 C 
BRANCH  25  26
ATOM     26  C   UNL     1       9.557  47.147  52.250  1.00  0.00    -0.016 C 
ATOM     27  C   UNL     1       9.702  47.196  53.773  1.00  0.00     0.007 C 
ATOM     28  C   UNL     1      10.322  45.943  51.698  1.00  0.00     0.007 C 
ENDBRANCH  25  26
ENDBRANCH  24  25
ENDBRANCH  22  24
ENDBRANCH   3  22
TORSDOF 7
ENDMDL
MODEL 20
REMARK VINA RESULT:    -8.132      2.418      5.823
REMARK INTER + INTRA:         -11.723
REMARK INTER:                 -10.900
REMARK INTRA:                  -0.823
REMARK UNBOUND:                -0.501
REMARK SMILES Cc1cc(O)ccc1Nc1nc(NCCC(C)C)nc2c1cnn2C
REMARK SMILES IDX 10 1 11 2 12 3 19 4 20 5 21 6 22 7 23 8 24 9 25 10 9 11 8 13
REMARK SMILES IDX 2 14 3 15 4 16 7 17 6 18 1 19 5 20 13 22 14 24 15 25 16 26
REMARK SMILES IDX 17 27 18 28
REMARK H PARENT 9 12 5 21 13 23
ROOT
ATOM      1  C   UNL     1       4.619  44.738  51.343  1.00  0.00     0.147 A 
ATOM      2  N   UNL     1       4.799  43.461  50.920  1.00  0.00    -0.195 NA
ATOM      3  C   UNL     1       3.988  42.481  51.359  1.00  0.00     0.226 A 
ATOM      4  N   UNL     1       2.959  42.637  52.202  1.00  0.00    -0.193 NA
ATOM      5  C   UNL     1       2.797  43.908  52.599  1.00  0.00     0.165 A 
ATOM      6  C   UNL     1       3.565  44.991  52.223  1.00  0.00     0.082 A 
ATOM      7  C   UNL     1       2.987  46.083  52.903  1.00  0.00     0.149 A 
ATOM      8  N   UNL     1       1.935  45.732  53.653  1.00  0.00    -0.179 NA
ATOM      9  N   UNL     1       1.848  44.396  53.454  1.00  0.00    -0.250 N 
ATOM     10  C   UNL     1       0.816  43.645  54.123  1.00  0.00     0.176 C 
ENDROOT
BRANCH   1  11
ATOM     11  N   UNL     1       5.512  45.704  50.841  1.00  0.00    -0.339 N 
ATOM     12  H   UNL     1       5.664  45.448  49.867  1.00  0.00     0.168 HD
BRANCH  11  13
ATOM     13  C   UNL     1       6.725  46.079  51.458  1.00  0.00     0.043 A 
ATOM     14  C   UNL     1       7.988  45.678  50.979  1.00  0.00    -0.024 A 
ATOM     15  C   UNL     1       9.140  46.103  51.661  1.00  0.00     0.051 A 
ATOM     16  C   UNL     1       9.039  46.941  52.767  1.00  0.00     0.115 A 
ATOM     17  C   UNL     1       6.650  46.945  52.561  1.00  0.00     0.030 A 
ATOM     18  C   UNL     1       7.802  47.373  53.221  1.00  0.00     0.048 A 
ATOM     19  C   UNL     1       8.148  44.781  49.782  1.00  0.00     0.047 C 
BRANCH  16  20
ATOM     20  O   UNL     1      10.196  47.323  53.381  1.00  0.00    -0.508 OA
ATOM     21  H   UNL     1      10.789  46.556  53.429  1.00  0.00     0.293 HD
ENDBRANCH  16  20
ENDBRANCH  11  13
ENDBRANCH   1  11
BRANCH   3  22
ATOM     22  N   UNL     1       4.296  41.220  50.863  1.00  0.00    -0.354 N 
ATOM     23  H   UNL     1       5.295  41.235  50.690  1.00  0.00     0.163 HD
BRANCH  22  24
ATOM     24  C   UNL     1       3.488  40.746  49.754  1.00  0.00     0.116 C 
BRANCH  24  25
ATOM     25  C   UNL     1       4.255  40.777  48.427  1.00  0.00     0.024 C 
BRANCH  25  26
ATOM     26  C   UNL     1       3.426  40.410  47.179  1.00  0.00    -0.016 C 
ATOM     27  C   UNL     1       4.197  40.801  45.915  1.00  0.00     0.007 C 
ATOM     28  C   UNL     1       3.073  38.924  47.129  1.00  0.00     0.007 C 
ENDBRANCH  25  26
ENDBRANCH  24  25
ENDBRANCH  22  24
ENDBRANCH   3  22
TORSDOF 7
ENDMDL
