MODEL 1
REMARK VINA RESULT:    -9.871      0.000      0.000
REMARK INTER + INTRA:         -14.171
REMARK INTER:                 -13.333
REMARK INTRA:                  -0.838
REMARK UNBOUND:                -0.838
REMARK SMILES COc1ccc(CNc2nc(Nc3cccc(C)c3C)c3cnn(C)c3n2)cc1
REMARK SMILES IDX 8 1 7 3 6 4 3 5 4 6 29 7 5 8 28 9 2 10 1 11 9 12 10 13 27 14
REMARK SMILES IDX 11 15 26 16 21 17 24 18 22 19 23 20 25 21 12 22 13 24 14 25
REMARK SMILES IDX 19 26 15 27 17 28 16 29 20 30 18 31
REMARK H PARENT 8 2 12 23
ROOT
ATOM      1  N   UNL     1       3.009  44.211  54.156  1.00  0.00    -0.350 N 
ATOM      2  H   UNL     1       3.174  45.116  54.583  1.00  0.00     0.164 HD
ENDROOT
BRANCH   1   3
ATOM      3  C   UNL     1       1.615  43.932  53.873  1.00  0.00     0.152 C 
BRANCH   3   4
ATOM      4  C   UNL     1       0.712  44.505  54.942  1.00  0.00    -0.029 A 
ATOM      5  C   UNL     1      -0.972  45.525  56.957  1.00  0.00     0.118 A 
ATOM      6  C   UNL     1      -1.516  44.855  55.862  1.00  0.00     0.047 A 
ATOM      7  C   UNL     1       0.413  45.678  57.044  1.00  0.00     0.047 A 
ATOM      8  C   UNL     1      -0.678  44.344  54.863  1.00  0.00     0.009 A 
ATOM      9  C   UNL     1       1.251  45.171  56.048  1.00  0.00     0.009 A 
BRANCH   5  10
ATOM     10  O   UNL     1      -1.674  46.070  57.997  1.00  0.00    -0.497 OA
ATOM     11  C   UNL     1      -1.659  47.487  58.109  1.00  0.00     0.278 C 
ENDBRANCH   5  10
ENDBRANCH   3   4
ENDBRANCH   1   3
BRANCH   1  12
ATOM     12  C   UNL     1       3.873  44.149  53.071  1.00  0.00     0.227 A 
ATOM     13  N   UNL     1       4.699  45.207  52.957  1.00  0.00    -0.195 NA
ATOM     14  N   UNL     1       3.845  43.085  52.256  1.00  0.00    -0.193 NA
ATOM     15  C   UNL     1       5.605  45.258  51.948  1.00  0.00     0.147 A 
ATOM     16  C   UNL     1       4.736  43.171  51.257  1.00  0.00     0.165 A 
ATOM     17  C   UNL     1       5.626  44.202  51.036  1.00  0.00     0.082 A 
ATOM     18  N   UNL     1       4.950  42.268  50.251  1.00  0.00    -0.250 N 
ATOM     19  C   UNL     1       6.312  43.829  49.862  1.00  0.00     0.149 A 
ATOM     20  N   UNL     1       5.911  42.647  49.378  1.00  0.00    -0.179 NA
ATOM     21  C   UNL     1       4.267  41.014  50.053  1.00  0.00     0.176 C 
BRANCH  15  22
ATOM     22  N   UNL     1       6.422  46.398  51.878  1.00  0.00    -0.339 N 
ATOM     23  H   UNL     1       5.933  47.132  52.388  1.00  0.00     0.168 HD
BRANCH  22  24
ATOM     24  C   UNL     1       7.813  46.468  52.135  1.00  0.00     0.043 A 
ATOM     25  C   UNL     1       8.744  46.094  51.154  1.00  0.00     0.026 A 
ATOM     26  C   UNL     1       8.271  46.801  53.432  1.00  0.00    -0.025 A 
ATOM     27  C   UNL     1      10.110  46.114  51.418  1.00  0.00     0.002 A 
ATOM     28  C   UNL     1       9.663  46.851  53.688  1.00  0.00    -0.046 A 
ATOM     29  C   UNL     1      10.566  46.496  52.675  1.00  0.00     0.004 A 
ATOM     30  C   UNL     1       7.286  47.190  54.507  1.00  0.00     0.047 C 
ATOM     31  C   UNL     1      10.210  47.253  55.032  1.00  0.00     0.044 C 
ENDBRANCH  22  24
ENDBRANCH  15  22
ENDBRANCH   1  12
TORSDOF 6
ENDMDL
MODEL 2
REMARK VINA RESULT:    -9.792      3.591      7.300
REMARK INTER + INTRA:         -14.064
REMARK INTER:                 -12.955
REMARK INTRA:                  -1.110
REMARK UNBOUND:                -0.838
REMARK SMILES COc1ccc(CNc2nc(Nc3cccc(C)c3C)c3cnn(C)c3n2)cc1
REMARK SMILES IDX 8 1 7 3 6 4 3 5 4 6 29 7 5 8 28 9 2 10 1 11 9 12 10 13 27 14
REMARK SMILES IDX 11 15 26 16 21 17 24 18 22 19 23 20 25 21 12 22 13 24 14 25
REMARK SMILES IDX 19 26 15 27 17 28 16 29 20 30 18 31
REMARK H PARENT 8 2 12 23
ROOT
ATOM      1  N   UNL     1       4.248  41.474  50.969  1.00  0.00    -0.350 N 
ATOM      2  H   UNL     1       3.412  41.145  50.497  1.00  0.00     0.164 HD
ENDROOT
BRANCH   1   3
ATOM      3  C   UNL     1       5.425  41.524  50.125  1.00  0.00     0.152 C 
BRANCH   3   4
ATOM      4  C   UNL     1       5.071  41.290  48.673  1.00  0.00    -0.029 A 
ATOM      5  C   UNL     1       4.378  40.891  45.971  1.00  0.00     0.118 A 
ATOM      6  C   UNL     1       3.605  40.325  46.985  1.00  0.00     0.047 A 
ATOM      7  C   UNL     1       5.493  41.659  46.313  1.00  0.00     0.047 A 
ATOM      8  C   UNL     1       3.947  40.527  48.327  1.00  0.00     0.009 A 
ATOM      9  C   UNL     1       5.838  41.861  47.651  1.00  0.00     0.009 A 
BRANCH   5  10
ATOM     10  O   UNL     1       4.156  40.772  44.627  1.00  0.00    -0.497 OA
ATOM     11  C   UNL     1       5.295  40.556  43.804  1.00  0.00     0.278 C 
ENDBRANCH   5  10
ENDBRANCH   3   4
ENDBRANCH   1   3
BRANCH   1  12
ATOM     12  C   UNL     1       3.886  42.669  51.575  1.00  0.00     0.227 A 
ATOM     13  N   UNL     1       4.714  43.698  51.316  1.00  0.00    -0.195 NA
ATOM     14  N   UNL     1       2.778  42.725  52.330  1.00  0.00    -0.193 NA
ATOM     15  C   UNL     1       4.460  44.926  51.836  1.00  0.00     0.147 A 
ATOM     16  C   UNL     1       2.561  43.944  52.847  1.00  0.00     0.165 A 
ATOM     17  C   UNL     1       3.339  45.067  52.657  1.00  0.00     0.082 A 
ATOM     18  N   UNL     1       1.537  44.330  53.667  1.00  0.00    -0.250 N 
ATOM     19  C   UNL     1       2.707  46.068  53.422  1.00  0.00     0.149 A 
ATOM     20  N   UNL     1       1.602  45.630  54.039  1.00  0.00    -0.179 NA
ATOM     21  C   UNL     1       0.455  43.510  54.148  1.00  0.00     0.176 C 
BRANCH  15  22
ATOM     22  N   UNL     1       5.375  45.948  51.540  1.00  0.00    -0.339 N 
ATOM     23  H   UNL     1       4.825  46.795  51.405  1.00  0.00     0.168 HD
BRANCH  22  24
ATOM     24  C   UNL     1       6.572  46.249  52.236  1.00  0.00     0.043 A 
ATOM     25  C   UNL     1       6.534  46.864  53.497  1.00  0.00     0.026 A 
ATOM     26  C   UNL     1       7.821  46.041  51.605  1.00  0.00    -0.025 A 
ATOM     27  C   UNL     1       7.708  47.207  54.162  1.00  0.00     0.002 A 
ATOM     28  C   UNL     1       9.014  46.362  52.298  1.00  0.00    -0.046 A 
ATOM     29  C   UNL     1       8.939  46.951  53.569  1.00  0.00     0.004 A 
ATOM     30  C   UNL     1       7.884  45.396  50.242  1.00  0.00     0.047 C 
ATOM     31  C   UNL     1      10.372  46.110  51.700  1.00  0.00     0.044 C 
ENDBRANCH  22  24
ENDBRANCH  15  22
ENDBRANCH   1  12
TORSDOF 6
ENDMDL
MODEL 3
REMARK VINA RESULT:    -9.761      2.221      5.134
REMARK INTER + INTRA:         -14.022
REMARK INTER:                 -13.075
REMARK INTRA:                  -0.946
REMARK UNBOUND:                -0.838
REMARK SMILES COc1ccc(CNc2nc(Nc3cccc(C)c3C)c3cnn(C)c3n2)cc1
REMARK SMILES IDX 8 1 7 3 6 4 3 5 4 6 29 7 5 8 28 9 2 10 1 11 9 12 10 13 27 14
REMARK SMILES IDX 11 15 26 16 21 17 24 18 22 19 23 20 25 21 12 22 13 24 14 25
REMARK SMILES IDX 19 26 15 27 17 28 16 29 20 30 18 31
REMARK H PARENT 8 2 12 23
ROOT
ATOM      1  N   UNL     1       4.512  47.185  54.915  1.00  0.00    -0.350 N 
ATOM      2  H   UNL     1       3.858  47.659  54.302  1.00  0.00     0.164 HD
ENDROOT
BRANCH   1   3
ATOM      3  C   UNL     1       3.986  45.982  55.530  1.00  0.00     0.152 C 
BRANCH   3   4
ATOM      4  C   UNL     1       2.648  45.602  54.937  1.00  0.00    -0.029 A 
ATOM      5  C   UNL     1       0.133  44.934  53.855  1.00  0.00     0.118 A 
ATOM      6  C   UNL     1       0.464  44.547  55.153  1.00  0.00     0.047 A 
ATOM      7  C   UNL     1       1.060  45.660  53.103  1.00  0.00     0.047 A 
ATOM      8  C   UNL     1       1.711  44.883  55.692  1.00  0.00     0.009 A 
ATOM      9  C   UNL     1       2.307  45.994  53.638  1.00  0.00     0.009 A 
BRANCH   5  10
ATOM     10  O   UNL     1      -1.045  44.673  53.211  1.00  0.00    -0.497 OA
ATOM     11  C   UNL     1      -1.230  45.281  51.940  1.00  0.00     0.278 C 
ENDBRANCH   5  10
ENDBRANCH   3   4
ENDBRANCH   1   3
BRANCH   1  12
ATOM     12  C   UNL     1       5.673  47.028  54.171  1.00  0.00     0.227 A 
ATOM     13  N   UNL     1       5.477  46.544  52.930  1.00  0.00    -0.195 NA
ATOM     14  N   UNL     1       6.857  47.370  54.701  1.00  0.00    -0.193 NA
ATOM     15  C   UNL     1       6.531  46.362  52.095  1.00  0.00     0.147 A 
ATOM     16  C   UNL     1       7.882  47.161  53.862  1.00  0.00     0.165 A 
ATOM     17  C   UNL     1       7.805  46.667  52.577  1.00  0.00     0.082 A 
ATOM     18  N   UNL     1       9.211  47.387  54.099  1.00  0.00    -0.250 N 
ATOM     19  C   UNL     1       9.144  46.616  52.137  1.00  0.00     0.149 A 
ATOM     20  N   UNL     1      10.010  47.059  53.057  1.00  0.00    -0.179 NA
ATOM     21  C   UNL     1       9.800  47.913  55.304  1.00  0.00     0.176 C 
BRANCH  15  22
ATOM     22  N   UNL     1       6.256  45.836  50.822  1.00  0.00    -0.339 N 
ATOM     23  H   UNL     1       6.708  46.456  50.152  1.00  0.00     0.168 HD
BRANCH  22  24
ATOM     24  C   UNL     1       6.391  44.488  50.409  1.00  0.00     0.043 A 
ATOM     25  C   UNL     1       7.535  44.061  49.717  1.00  0.00     0.026 A 
ATOM     26  C   UNL     1       5.314  43.588  50.587  1.00  0.00    -0.025 A 
ATOM     27  C   UNL     1       7.650  42.749  49.265  1.00  0.00     0.002 A 
ATOM     28  C   UNL     1       5.448  42.246  50.155  1.00  0.00    -0.046 A 
ATOM     29  C   UNL     1       6.616  41.847  49.489  1.00  0.00     0.004 A 
ATOM     30  C   UNL     1       4.068  44.032  51.315  1.00  0.00     0.047 C 
ATOM     31  C   UNL     1       4.357  41.230  50.368  1.00  0.00     0.044 C 
ENDBRANCH  22  24
ENDBRANCH  15  22
ENDBRANCH   1  12
TORSDOF 6
ENDMDL
MODEL 4
REMARK VINA RESULT:    -9.716      3.626      8.362
REMARK INTER + INTRA:         -13.962
REMARK INTER:                 -13.027
REMARK INTRA:                  -0.935
REMARK UNBOUND:                -0.838
REMARK SMILES COc1ccc(CNc2nc(Nc3cccc(C)c3C)c3cnn(C)c3n2)cc1
REMARK SMILES IDX 8 1 7 3 6 4 3 5 4 6 29 7 5 8 28 9 2 10 1 11 9 12 10 13 27 14
REMARK SMILES IDX 11 15 26 16 21 17 24 18 22 19 23 20 25 21 12 22 13 24 14 25
REMARK SMILES IDX 19 26 15 27 17 28 16 29 20 30 18 31
REMARK H PARENT 8 2 12 23
ROOT
ATOM      1  N   UNL     1       8.011  44.941  50.262  1.00  0.00    -0.350 N 
ATOM      2  H   UNL     1       8.385  44.750  49.338  1.00  0.00     0.164 HD
ENDROOT
BRANCH   1   3
ATOM      3  C   UNL     1       7.805  46.348  50.541  1.00  0.00     0.152 C 
BRANCH   3   4
ATOM      4  C   UNL     1       8.355  46.725  51.898  1.00  0.00    -0.029 A 
ATOM      5  C   UNL     1       9.400  47.469  54.407  1.00  0.00     0.118 A 
ATOM      6  C   UNL     1      10.204  46.803  53.482  1.00  0.00     0.047 A 
ATOM      7  C   UNL     1       8.078  47.766  54.072  1.00  0.00     0.047 A 
ATOM      8  C   UNL     1       9.686  46.438  52.234  1.00  0.00     0.009 A 
ATOM      9  C   UNL     1       7.557  47.401  52.828  1.00  0.00     0.009 A 
BRANCH   5  10
ATOM     10  O   UNL     1       9.780  47.881  55.655  1.00  0.00    -0.497 OA
ATOM     11  C   UNL     1      11.069  47.479  56.100  1.00  0.00     0.278 C 
ENDBRANCH   5  10
ENDBRANCH   3   4
ENDBRANCH   1   3
BRANCH   1  12
ATOM     12  C   UNL     1       6.892  44.129  50.384  1.00  0.00     0.227 A 
ATOM     13  N   UNL     1       6.846  43.109  49.506  1.00  0.00    -0.195 NA
ATOM     14  N   UNL     1       5.982  44.386  51.334  1.00  0.00    -0.193 NA
ATOM     15  C   UNL     1       5.812  42.231  49.535  1.00  0.00     0.147 A 
ATOM     16  C   UNL     1       4.961  43.516  51.327  1.00  0.00     0.165 A 
ATOM     17  C   UNL     1       4.803  42.441  50.477  1.00  0.00     0.082 A 
ATOM     18  N   UNL     1       3.867  43.508  52.149  1.00  0.00    -0.250 N 
ATOM     19  C   UNL     1       3.574  41.867  50.858  1.00  0.00     0.149 A 
ATOM     20  N   UNL     1       2.996  42.507  51.882  1.00  0.00    -0.179 NA
ATOM     21  C   UNL     1       3.577  44.433  53.216  1.00  0.00     0.176 C 
BRANCH  15  22
ATOM     22  N   UNL     1       5.818  41.203  48.578  1.00  0.00    -0.339 N 
ATOM     23  H   UNL     1       5.573  40.348  49.075  1.00  0.00     0.168 HD
BRANCH  22  24
ATOM     24  C   UNL     1       5.203  41.221  47.303  1.00  0.00     0.043 A 
ATOM     25  C   UNL     1       5.701  42.038  46.277  1.00  0.00     0.026 A 
ATOM     26  C   UNL     1       4.001  40.503  47.093  1.00  0.00    -0.025 A 
ATOM     27  C   UNL     1       5.070  42.097  45.038  1.00  0.00     0.002 A 
ATOM     28  C   UNL     1       3.380  40.540  45.821  1.00  0.00    -0.046 A 
ATOM     29  C   UNL     1       3.921  41.347  44.810  1.00  0.00     0.004 A 
ATOM     30  C   UNL     1       3.439  39.630  48.189  1.00  0.00     0.047 C 
ATOM     31  C   UNL     1       2.132  39.751  45.524  1.00  0.00     0.044 C 
ENDBRANCH  22  24
ENDBRANCH  15  22
ENDBRANCH   1  12
TORSDOF 6
ENDMDL
MODEL 5
REMARK VINA RESULT:    -9.644      2.530      5.692
REMARK INTER + INTRA:         -13.865
REMARK INTER:                 -13.058
REMARK INTRA:                  -0.806
REMARK UNBOUND:                -0.838
REMARK SMILES COc1ccc(CNc2nc(Nc3cccc(C)c3C)c3cnn(C)c3n2)cc1
REMARK SMILES IDX 8 1 7 3 6 4 3 5 4 6 29 7 5 8 28 9 2 10 1 11 9 12 10 13 27 14
REMARK SMILES IDX 11 15 26 16 21 17 24 18 22 19 23 20 25 21 12 22 13 24 14 25
REMARK SMILES IDX 19 26 15 27 17 28 16 29 20 30 18 31
REMARK H PARENT 8 2 12 23
ROOT
ATOM      1  N   UNL     1       4.631  47.217  54.927  1.00  0.00    -0.350 N 
ATOM      2  H   UNL     1       4.091  47.769  54.269  1.00  0.00     0.164 HD
ENDROOT
BRANCH   1   3
ATOM      3  C   UNL     1       3.935  46.053  55.438  1.00  0.00     0.152 C 
BRANCH   3   4
ATOM      4  C   UNL     1       2.791  45.655  54.532  1.00  0.00    -0.029 A 
ATOM      5  C   UNL     1       0.694  44.889  52.812  1.00  0.00     0.118 A 
ATOM      6  C   UNL     1       1.474  46.005  52.513  1.00  0.00     0.047 A 
ATOM      7  C   UNL     1       0.969  44.155  53.968  1.00  0.00     0.047 A 
ATOM      8  C   UNL     1       2.519  46.383  53.365  1.00  0.00     0.009 A 
ATOM      9  C   UNL     1       2.010  44.531  54.821  1.00  0.00     0.009 A 
BRANCH   5  10
ATOM     10  O   UNL     1      -0.351  44.413  52.069  1.00  0.00    -0.497 OA
ATOM     11  C   UNL     1      -0.060  43.374  51.143  1.00  0.00     0.278 C 
ENDBRANCH   5  10
ENDBRANCH   3   4
ENDBRANCH   1   3
BRANCH   1  12
ATOM     12  C   UNL     1       5.844  46.971  54.299  1.00  0.00     0.227 A 
ATOM     13  N   UNL     1       5.741  46.308  53.131  1.00  0.00    -0.195 NA
ATOM     14  N   UNL     1       6.984  47.404  54.857  1.00  0.00    -0.193 NA
ATOM     15  C   UNL     1       6.854  46.023  52.409  1.00  0.00     0.147 A 
ATOM     16  C   UNL     1       8.069  47.091  54.133  1.00  0.00     0.165 A 
ATOM     17  C   UNL     1       8.088  46.414  52.931  1.00  0.00     0.082 A 
ATOM     18  N   UNL     1       9.376  47.369  54.429  1.00  0.00    -0.250 N 
ATOM     19  C   UNL     1       9.456  46.319  52.601  1.00  0.00     0.149 A 
ATOM     20  N   UNL     1      10.250  46.905  53.506  1.00  0.00    -0.179 NA
ATOM     21  C   UNL     1       9.873  48.073  55.583  1.00  0.00     0.176 C 
BRANCH  15  22
ATOM     22  N   UNL     1       6.675  45.313  51.211  1.00  0.00    -0.339 N 
ATOM     23  H   UNL     1       7.608  45.126  50.847  1.00  0.00     0.168 HD
BRANCH  22  24
ATOM     24  C   UNL     1       5.835  44.192  51.001  1.00  0.00     0.043 A 
ATOM     25  C   UNL     1       4.725  43.962  51.828  1.00  0.00     0.026 A 
ATOM     26  C   UNL     1       6.184  43.226  50.027  1.00  0.00    -0.025 A 
ATOM     27  C   UNL     1       3.926  42.835  51.657  1.00  0.00     0.002 A 
ATOM     28  C   UNL     1       5.350  42.098  49.834  1.00  0.00    -0.046 A 
ATOM     29  C   UNL     1       4.233  41.913  50.662  1.00  0.00     0.004 A 
ATOM     30  C   UNL     1       7.383  43.446  49.137  1.00  0.00     0.047 C 
ATOM     31  C   UNL     1       5.640  41.068  48.775  1.00  0.00     0.044 C 
ENDBRANCH  22  24
ENDBRANCH  15  22
ENDBRANCH   1  12
TORSDOF 6
ENDMDL
MODEL 6
REMARK VINA RESULT:    -9.628      3.696      7.046
REMARK INTER + INTRA:         -13.842
REMARK INTER:                 -12.937
REMARK INTRA:                  -0.905
REMARK UNBOUND:                -0.838
REMARK SMILES COc1ccc(CNc2nc(Nc3cccc(C)c3C)c3cnn(C)c3n2)cc1
REMARK SMILES IDX 8 1 7 3 6 4 3 5 4 6 29 7 5 8 28 9 2 10 1 11 9 12 10 13 27 14
REMARK SMILES IDX 11 15 26 16 21 17 24 18 22 19 23 20 25 21 12 22 13 24 14 25
REMARK SMILES IDX 19 26 15 27 17 28 16 29 20 30 18 31
REMARK H PARENT 8 2 12 23
ROOT
ATOM      1  N   UNL     1       5.442  41.629  50.390  1.00  0.00    -0.350 N 
ATOM      2  H   UNL     1       4.665  40.989  50.265  1.00  0.00     0.164 HD
ENDROOT
BRANCH   1   3
ATOM      3  C   UNL     1       6.150  41.951  49.167  1.00  0.00     0.152 C 
BRANCH   3   4
ATOM      4  C   UNL     1       5.357  41.537  47.948  1.00  0.00    -0.029 A 
ATOM      5  C   UNL     1       3.911  40.730  45.668  1.00  0.00     0.118 A 
ATOM      6  C   UNL     1       5.036  41.542  45.533  1.00  0.00     0.047 A 
ATOM      7  C   UNL     1       3.515  40.319  46.942  1.00  0.00     0.047 A 
ATOM      8  C   UNL     1       5.757  41.939  46.665  1.00  0.00     0.009 A 
ATOM      9  C   UNL     1       4.231  40.716  48.074  1.00  0.00     0.009 A 
BRANCH   5  10
ATOM     10  O   UNL     1       3.121  40.271  44.649  1.00  0.00    -0.497 OA
ATOM     11  C   UNL     1       1.781  40.745  44.613  1.00  0.00     0.278 C 
ENDBRANCH   5  10
ENDBRANCH   3   4
ENDBRANCH   1   3
BRANCH   1  12
ATOM     12  C   UNL     1       4.925  42.708  51.093  1.00  0.00     0.227 A 
ATOM     13  N   UNL     1       5.655  43.836  50.997  1.00  0.00    -0.195 NA
ATOM     14  N   UNL     1       3.779  42.572  51.775  1.00  0.00    -0.193 NA
ATOM     15  C   UNL     1       5.246  44.968  51.624  1.00  0.00     0.147 A 
ATOM     16  C   UNL     1       3.409  43.700  52.401  1.00  0.00     0.165 A 
ATOM     17  C   UNL     1       4.075  44.908  52.380  1.00  0.00     0.082 A 
ATOM     18  N   UNL     1       2.307  43.892  53.190  1.00  0.00    -0.250 N 
ATOM     19  C   UNL     1       3.301  45.751  53.204  1.00  0.00     0.149 A 
ATOM     20  N   UNL     1       2.216  45.142  53.698  1.00  0.00    -0.179 NA
ATOM     21  C   UNL     1       1.291  42.921  53.511  1.00  0.00     0.176 C 
BRANCH  15  22
ATOM     22  N   UNL     1       6.065  46.101  51.496  1.00  0.00    -0.339 N 
ATOM     23  H   UNL     1       5.576  46.862  51.966  1.00  0.00     0.168 HD
BRANCH  22  24
ATOM     24  C   UNL     1       7.455  46.182  51.753  1.00  0.00     0.043 A 
ATOM     25  C   UNL     1       8.387  45.718  50.812  1.00  0.00     0.026 A 
ATOM     26  C   UNL     1       7.911  46.622  53.018  1.00  0.00    -0.025 A 
ATOM     27  C   UNL     1       9.752  45.750  51.080  1.00  0.00     0.002 A 
ATOM     28  C   UNL     1       9.303  46.682  53.276  1.00  0.00    -0.046 A 
ATOM     29  C   UNL     1      10.207  46.235  52.302  1.00  0.00     0.004 A 
ATOM     30  C   UNL     1       6.925  47.110  54.052  1.00  0.00     0.047 C 
ATOM     31  C   UNL     1       9.847  47.195  54.583  1.00  0.00     0.044 C 
ENDBRANCH  22  24
ENDBRANCH  15  22
ENDBRANCH   1  12
TORSDOF 6
ENDMDL
MODEL 7
REMARK VINA RESULT:    -9.617      3.053      7.543
REMARK INTER + INTRA:         -13.828
REMARK INTER:                 -12.871
REMARK INTRA:                  -0.957
REMARK UNBOUND:                -0.838
REMARK SMILES COc1ccc(CNc2nc(Nc3cccc(C)c3C)c3cnn(C)c3n2)cc1
REMARK SMILES IDX 8 1 7 3 6 4 3 5 4 6 29 7 5 8 28 9 2 10 1 11 9 12 10 13 27 14
REMARK SMILES IDX 11 15 26 16 21 17 24 18 22 19 23 20 25 21 12 22 13 24 14 25
REMARK SMILES IDX 19 26 15 27 17 28 16 29 20 30 18 31
REMARK H PARENT 8 2 12 23
ROOT
ATOM      1  N   UNL     1       5.604  45.659  55.327  1.00  0.00    -0.350 N 
ATOM      2  H   UNL     1       6.205  44.886  55.063  1.00  0.00     0.164 HD
ENDROOT
BRANCH   1   3
ATOM      3  C   UNL     1       6.093  46.960  54.919  1.00  0.00     0.152 C 
BRANCH   3   4
ATOM      4  C   UNL     1       7.342  46.837  54.074  1.00  0.00    -0.029 A 
ATOM      5  C   UNL     1       9.681  46.566  52.526  1.00  0.00     0.118 A 
ATOM      6  C   UNL     1       9.735  47.180  53.777  1.00  0.00     0.047 A 
ATOM      7  C   UNL     1       8.457  46.085  52.055  1.00  0.00     0.047 A 
ATOM      8  C   UNL     1       8.574  47.311  54.548  1.00  0.00     0.009 A 
ATOM      9  C   UNL     1       7.296  46.216  52.821  1.00  0.00     0.009 A 
BRANCH   5  10
ATOM     10  O   UNL     1      10.735  46.375  51.676  1.00  0.00    -0.497 OA
ATOM     11  C   UNL     1      10.907  45.065  51.151  1.00  0.00     0.278 C 
ENDBRANCH   5  10
ENDBRANCH   3   4
ENDBRANCH   1   3
BRANCH   1  12
ATOM     12  C   UNL     1       4.338  45.317  54.872  1.00  0.00     0.227 A 
ATOM     13  N   UNL     1       4.303  44.889  53.596  1.00  0.00    -0.195 NA
ATOM     14  N   UNL     1       3.284  45.412  55.696  1.00  0.00    -0.193 NA
ATOM     15  C   UNL     1       3.126  44.506  53.038  1.00  0.00     0.147 A 
ATOM     16  C   UNL     1       2.133  45.047  55.114  1.00  0.00     0.165 A 
ATOM     17  C   UNL     1       1.973  44.599  53.819  1.00  0.00     0.082 A 
ATOM     18  N   UNL     1       0.882  45.044  55.669  1.00  0.00    -0.250 N 
ATOM     19  C   UNL     1       0.587  44.375  53.691  1.00  0.00     0.149 A 
ATOM     20  N   UNL     1      -0.088  44.638  54.818  1.00  0.00    -0.179 NA
ATOM     21  C   UNL     1       0.530  45.424  57.014  1.00  0.00     0.176 C 
BRANCH  15  22
ATOM     22  N   UNL     1       3.159  44.089  51.698  1.00  0.00    -0.339 N 
ATOM     23  H   UNL     1       2.949  44.912  51.136  1.00  0.00     0.168 HD
BRANCH  22  24
ATOM     24  C   UNL     1       4.165  43.313  51.070  1.00  0.00     0.043 A 
ATOM     25  C   UNL     1       4.132  41.912  51.129  1.00  0.00     0.026 A 
ATOM     26  C   UNL     1       5.281  43.955  50.482  1.00  0.00    -0.025 A 
ATOM     27  C   UNL     1       5.145  41.147  50.557  1.00  0.00     0.002 A 
ATOM     28  C   UNL     1       6.293  43.173  49.873  1.00  0.00    -0.046 A 
ATOM     29  C   UNL     1       6.214  41.774  49.928  1.00  0.00     0.004 A 
ATOM     30  C   UNL     1       5.344  45.462  50.422  1.00  0.00     0.047 C 
ATOM     31  C   UNL     1       7.474  43.802  49.182  1.00  0.00     0.044 C 
ENDBRANCH  22  24
ENDBRANCH  15  22
ENDBRANCH   1  12
TORSDOF 6
ENDMDL
MODEL 8
REMARK VINA RESULT:    -9.531      3.902      7.237
REMARK INTER + INTRA:         -13.711
REMARK INTER:                 -12.963
REMARK INTRA:                  -0.748
REMARK UNBOUND:                -0.838
REMARK SMILES COc1ccc(CNc2nc(Nc3cccc(C)c3C)c3cnn(C)c3n2)cc1
REMARK SMILES IDX 8 1 7 3 6 4 3 5 4 6 29 7 5 8 28 9 2 10 1 11 9 12 10 13 27 14
REMARK SMILES IDX 11 15 26 16 21 17 24 18 22 19 23 20 25 21 12 22 13 24 14 25
REMARK SMILES IDX 19 26 15 27 17 28 16 29 20 30 18 31
REMARK H PARENT 8 2 12 23
ROOT
ATOM      1  N   UNL     1       3.911  41.279  50.901  1.00  0.00    -0.350 N 
ATOM      2  H   UNL     1       3.155  40.807  50.416  1.00  0.00     0.164 HD
ENDROOT
BRANCH   1   3
ATOM      3  C   UNL     1       5.145  41.357  50.145  1.00  0.00     0.152 C 
BRANCH   3   4
ATOM      4  C   UNL     1       4.891  41.198  48.662  1.00  0.00    -0.029 A 
ATOM      5  C   UNL     1       4.385  40.940  45.902  1.00  0.00     0.118 A 
ATOM      6  C   UNL     1       3.539  40.333  46.830  1.00  0.00     0.047 A 
ATOM      7  C   UNL     1       5.479  41.679  46.358  1.00  0.00     0.047 A 
ATOM      8  C   UNL     1       3.788  40.465  48.201  1.00  0.00     0.009 A 
ATOM      9  C   UNL     1       5.731  41.811  47.725  1.00  0.00     0.009 A 
BRANCH   5  10
ATOM     10  O   UNL     1       4.256  40.891  44.541  1.00  0.00    -0.497 OA
ATOM     11  C   UNL     1       5.414  40.529  43.800  1.00  0.00     0.278 C 
ENDBRANCH   5  10
ENDBRANCH   3   4
ENDBRANCH   1   3
BRANCH   1  12
ATOM     12  C   UNL     1       3.381  42.490  51.325  1.00  0.00     0.227 A 
ATOM     13  N   UNL     1       4.282  43.331  51.868  1.00  0.00    -0.195 NA
ATOM     14  N   UNL     1       2.074  42.741  51.159  1.00  0.00    -0.193 NA
ATOM     15  C   UNL     1       3.894  44.556  52.304  1.00  0.00     0.147 A 
ATOM     16  C   UNL     1       1.714  43.949  51.617  1.00  0.00     0.165 A 
ATOM     17  C   UNL     1       2.543  44.889  52.195  1.00  0.00     0.082 A 
ATOM     18  N   UNL     1       0.462  44.502  51.615  1.00  0.00    -0.250 N 
ATOM     19  C   UNL     1       1.686  45.961  52.522  1.00  0.00     0.149 A 
ATOM     20  N   UNL     1       0.415  45.737  52.167  1.00  0.00    -0.179 NA
ATOM     21  C   UNL     1      -0.747  43.907  51.106  1.00  0.00     0.176 C 
BRANCH  15  22
ATOM     22  N   UNL     1       4.881  45.374  52.876  1.00  0.00    -0.339 N 
ATOM     23  H   UNL     1       4.979  45.071  53.844  1.00  0.00     0.168 HD
BRANCH  22  24
ATOM     24  C   UNL     1       6.150  45.687  52.331  1.00  0.00     0.043 A 
ATOM     25  C   UNL     1       6.467  45.346  51.007  1.00  0.00     0.026 A 
ATOM     26  C   UNL     1       7.154  46.240  53.162  1.00  0.00    -0.025 A 
ATOM     27  C   UNL     1       7.730  45.607  50.483  1.00  0.00     0.002 A 
ATOM     28  C   UNL     1       8.427  46.534  52.616  1.00  0.00    -0.046 A 
ATOM     29  C   UNL     1       8.701  46.203  51.281  1.00  0.00     0.004 A 
ATOM     30  C   UNL     1       6.839  46.599  54.594  1.00  0.00     0.047 C 
ATOM     31  C   UNL     1       9.515  47.174  53.437  1.00  0.00     0.044 C 
ENDBRANCH  22  24
ENDBRANCH  15  22
ENDBRANCH   1  12
TORSDOF 6
ENDMDL
MODEL 9
REMARK VINA RESULT:    -9.492      1.818      2.448
REMARK INTER + INTRA:         -13.659
REMARK INTER:                 -12.620
REMARK INTRA:                  -1.039
REMARK UNBOUND:                -0.838
REMARK SMILES COc1ccc(CNc2nc(Nc3cccc(C)c3C)c3cnn(C)c3n2)cc1
REMARK SMILES IDX 8 1 7 3 6 4 3 5 4 6 29 7 5 8 28 9 2 10 1 11 9 12 10 13 27 14
REMARK SMILES IDX 11 15 26 16 21 17 24 18 22 19 23 20 25 21 12 22 13 24 14 25
REMARK SMILES IDX 19 26 15 27 17 28 16 29 20 30 18 31
REMARK H PARENT 8 2 12 23
ROOT
ATOM      1  N   UNL     1       3.034  44.576  54.382  1.00  0.00    -0.350 N 
ATOM      2  H   UNL     1       3.653  44.734  55.170  1.00  0.00     0.164 HD
ENDROOT
BRANCH   1   3
ATOM      3  C   UNL     1       1.978  45.560  54.250  1.00  0.00     0.152 C 
BRANCH   3   4
ATOM      4  C   UNL     1       0.680  44.918  53.814  1.00  0.00    -0.029 A 
ATOM      5  C   UNL     1      -1.712  43.685  52.978  1.00  0.00     0.118 A 
ATOM      6  C   UNL     1      -1.052  44.578  52.135  1.00  0.00     0.047 A 
ATOM      7  C   UNL     1      -1.172  43.407  54.235  1.00  0.00     0.047 A 
ATOM      8  C   UNL     1       0.139  45.187  52.549  1.00  0.00     0.009 A 
ATOM      9  C   UNL     1       0.015  44.015  54.652  1.00  0.00     0.009 A 
BRANCH   5  10
ATOM     10  O   UNL     1      -2.877  43.025  52.699  1.00  0.00    -0.497 OA
ATOM     11  C   UNL     1      -3.311  43.033  51.345  1.00  0.00     0.278 C 
ENDBRANCH   5  10
ENDBRANCH   3   4
ENDBRANCH   1   3
BRANCH   1  12
ATOM     12  C   UNL     1       3.865  44.426  53.281  1.00  0.00     0.227 A 
ATOM     13  N   UNL     1       4.726  45.444  53.091  1.00  0.00    -0.195 NA
ATOM     14  N   UNL     1       3.775  43.323  52.523  1.00  0.00    -0.193 NA
ATOM     15  C   UNL     1       5.606  45.408  52.059  1.00  0.00     0.147 A 
ATOM     16  C   UNL     1       4.641  43.324  51.498  1.00  0.00     0.165 A 
ATOM     17  C   UNL     1       5.562  44.307  51.202  1.00  0.00     0.082 A 
ATOM     18  N   UNL     1       4.794  42.363  50.536  1.00  0.00    -0.250 N 
ATOM     19  C   UNL     1       6.203  43.849  50.032  1.00  0.00     0.149 A 
ATOM     20  N   UNL     1       5.745  42.660  49.620  1.00  0.00    -0.179 NA
ATOM     21  C   UNL     1       4.060  41.129  50.419  1.00  0.00     0.176 C 
BRANCH  15  22
ATOM     22  N   UNL     1       6.462  46.511  51.909  1.00  0.00    -0.339 N 
ATOM     23  H   UNL     1       5.991  47.301  52.347  1.00  0.00     0.168 HD
BRANCH  22  24
ATOM     24  C   UNL     1       7.851  46.556  52.184  1.00  0.00     0.043 A 
ATOM     25  C   UNL     1       8.787  46.134  51.228  1.00  0.00     0.026 A 
ATOM     26  C   UNL     1       8.298  46.915  53.478  1.00  0.00    -0.025 A 
ATOM     27  C   UNL     1      10.149  46.129  51.512  1.00  0.00     0.002 A 
ATOM     28  C   UNL     1       9.688  46.940  53.753  1.00  0.00    -0.046 A 
ATOM     29  C   UNL     1      10.596  46.536  52.764  1.00  0.00     0.004 A 
ATOM     30  C   UNL     1       7.307  47.357  54.527  1.00  0.00     0.047 C 
ATOM     31  C   UNL     1      10.224  47.368  55.093  1.00  0.00     0.044 C 
ENDBRANCH  22  24
ENDBRANCH  15  22
ENDBRANCH   1  12
TORSDOF 6
ENDMDL
MODEL 10
REMARK VINA RESULT:    -9.423      2.706      7.626
REMARK INTER + INTRA:         -13.566
REMARK INTER:                 -12.537
REMARK INTRA:                  -1.029
REMARK UNBOUND:                -0.838
REMARK SMILES COc1ccc(CNc2nc(Nc3cccc(C)c3C)c3cnn(C)c3n2)cc1
REMARK SMILES IDX 8 1 7 3 6 4 3 5 4 6 29 7 5 8 28 9 2 10 1 11 9 12 10 13 27 14
REMARK SMILES IDX 11 15 26 16 21 17 24 18 22 19 23 20 25 21 12 22 13 24 14 25
REMARK SMILES IDX 19 26 15 27 17 28 16 29 20 30 18 31
REMARK H PARENT 8 2 12 23
ROOT
ATOM      1  N   UNL     1       6.772  46.431  50.760  1.00  0.00    -0.350 N 
ATOM      2  H   UNL     1       6.402  47.166  51.352  1.00  0.00     0.164 HD
ENDROOT
BRANCH   1   3
ATOM      3  C   UNL     1       8.161  46.104  51.016  1.00  0.00     0.152 C 
BRANCH   3   4
ATOM      4  C   UNL     1       8.617  46.649  52.350  1.00  0.00    -0.029 A 
ATOM      5  C   UNL     1       9.456  47.620  54.859  1.00  0.00     0.118 A 
ATOM      6  C   UNL     1       8.101  47.602  54.532  1.00  0.00     0.047 A 
ATOM      7  C   UNL     1      10.387  47.147  53.932  1.00  0.00     0.047 A 
ATOM      8  C   UNL     1       7.683  47.115  53.287  1.00  0.00     0.009 A 
ATOM      9  C   UNL     1       9.974  46.663  52.689  1.00  0.00     0.009 A 
BRANCH   5  10
ATOM     10  O   UNL     1       9.995  48.066  56.034  1.00  0.00    -0.497 OA
ATOM     11  C   UNL     1      11.249  47.515  56.415  1.00  0.00     0.278 C 
ENDBRANCH   5  10
ENDBRANCH   3   4
ENDBRANCH   1   3
BRANCH   1  12
ATOM     12  C   UNL     1       5.872  45.380  50.866  1.00  0.00     0.227 A 
ATOM     13  N   UNL     1       4.647  45.738  51.294  1.00  0.00    -0.195 NA
ATOM     14  N   UNL     1       6.254  44.138  50.535  1.00  0.00    -0.193 NA
ATOM     15  C   UNL     1       3.669  44.805  51.422  1.00  0.00     0.147 A 
ATOM     16  C   UNL     1       5.276  43.233  50.690  1.00  0.00     0.165 A 
ATOM     17  C   UNL     1       3.990  43.479  51.124  1.00  0.00     0.082 A 
ATOM     18  N   UNL     1       5.343  41.886  50.459  1.00  0.00    -0.250 N 
ATOM     19  C   UNL     1       3.373  42.212  51.137  1.00  0.00     0.149 A 
ATOM     20  N   UNL     1       4.189  41.232  50.727  1.00  0.00    -0.179 NA
ATOM     21  C   UNL     1       6.483  41.143  49.984  1.00  0.00     0.176 C 
BRANCH  15  22
ATOM     22  N   UNL     1       2.421  45.245  51.891  1.00  0.00    -0.339 N 
ATOM     23  H   UNL     1       1.728  44.896  51.231  1.00  0.00     0.168 HD
BRANCH  22  24
ATOM     24  C   UNL     1       1.926  45.152  53.215  1.00  0.00     0.043 A 
ATOM     25  C   UNL     1       2.712  45.556  54.305  1.00  0.00     0.026 A 
ATOM     26  C   UNL     1       0.677  44.533  53.455  1.00  0.00    -0.025 A 
ATOM     27  C   UNL     1       2.249  45.420  55.611  1.00  0.00     0.002 A 
ATOM     28  C   UNL     1       0.195  44.425  54.782  1.00  0.00    -0.046 A 
ATOM     29  C   UNL     1       0.996  44.864  55.847  1.00  0.00     0.004 A 
ATOM     30  C   UNL     1      -0.177  44.076  52.297  1.00  0.00     0.047 C 
ATOM     31  C   UNL     1      -1.151  43.828  55.093  1.00  0.00     0.044 C 
ENDBRANCH  22  24
ENDBRANCH  15  22
ENDBRANCH   1  12
TORSDOF 6
ENDMDL
MODEL 11
REMARK VINA RESULT:    -9.314      3.052      6.834
REMARK INTER + INTRA:         -13.419
REMARK INTER:                 -11.753
REMARK INTRA:                  -1.666
REMARK UNBOUND:                -0.838
REMARK SMILES COc1ccc(CNc2nc(Nc3cccc(C)c3C)c3cnn(C)c3n2)cc1
REMARK SMILES IDX 8 1 7 3 6 4 3 5 4 6 29 7 5 8 28 9 2 10 1 11 9 12 10 13 27 14
REMARK SMILES IDX 11 15 26 16 21 17 24 18 22 19 23 20 25 21 12 22 13 24 14 25
REMARK SMILES IDX 19 26 15 27 17 28 16 29 20 30 18 31
REMARK H PARENT 8 2 12 23
ROOT
ATOM      1  N   UNL     1       3.156  45.880  55.740  1.00  0.00    -0.350 N 
ATOM      2  H   UNL     1       2.769  45.981  56.672  1.00  0.00     0.164 HD
ENDROOT
BRANCH   1   3
ATOM      3  C   UNL     1       4.476  45.280  55.706  1.00  0.00     0.152 C 
BRANCH   3   4
ATOM      4  C   UNL     1       5.359  45.955  54.681  1.00  0.00    -0.029 A 
ATOM      5  C   UNL     1       7.032  47.235  52.809  1.00  0.00     0.118 A 
ATOM      6  C   UNL     1       5.925  47.902  53.332  1.00  0.00     0.047 A 
ATOM      7  C   UNL     1       7.302  45.931  53.227  1.00  0.00     0.047 A 
ATOM      8  C   UNL     1       5.097  47.268  54.266  1.00  0.00     0.009 A 
ATOM      9  C   UNL     1       6.476  45.294  54.157  1.00  0.00     0.009 A 
BRANCH   5  10
ATOM     10  O   UNL     1       7.917  47.737  51.895  1.00  0.00    -0.497 OA
ATOM     11  C   UNL     1       9.189  47.106  51.820  1.00  0.00     0.278 C 
ENDBRANCH   5  10
ENDBRANCH   3   4
ENDBRANCH   1   3
BRANCH   1  12
ATOM     12  C   UNL     1       2.177  45.233  54.999  1.00  0.00     0.227 A 
ATOM     13  N   UNL     1       2.530  44.962  53.728  1.00  0.00    -0.195 NA
ATOM     14  N   UNL     1       1.006  44.918  55.572  1.00  0.00    -0.193 NA
ATOM     15  C   UNL     1       1.667  44.315  52.905  1.00  0.00     0.147 A 
ATOM     16  C   UNL     1       0.165  44.298  54.731  1.00  0.00     0.165 A 
ATOM     17  C   UNL     1       0.412  43.974  53.413  1.00  0.00     0.082 A 
ATOM     18  N   UNL     1      -1.105  43.863  54.993  1.00  0.00    -0.250 N 
ATOM     19  C   UNL     1      -0.780  43.366  52.970  1.00  0.00     0.149 A 
ATOM     20  N   UNL     1      -1.711  43.288  53.929  1.00  0.00    -0.179 NA
ATOM     21  C   UNL     1      -1.816  43.966  56.242  1.00  0.00     0.176 C 
BRANCH  15  22
ATOM     22  N   UNL     1       2.092  44.081  51.587  1.00  0.00    -0.339 N 
ATOM     23  H   UNL     1       1.937  44.949  51.078  1.00  0.00     0.168 HD
BRANCH  22  24
ATOM     24  C   UNL     1       3.310  43.485  51.177  1.00  0.00     0.043 A 
ATOM     25  C   UNL     1       3.470  42.091  51.200  1.00  0.00     0.026 A 
ATOM     26  C   UNL     1       4.419  44.303  50.857  1.00  0.00    -0.025 A 
ATOM     27  C   UNL     1       4.681  41.504  50.846  1.00  0.00     0.002 A 
ATOM     28  C   UNL     1       5.640  43.701  50.466  1.00  0.00    -0.046 A 
ATOM     29  C   UNL     1       5.757  42.304  50.475  1.00  0.00     0.004 A 
ATOM     30  C   UNL     1       4.273  45.806  50.841  1.00  0.00     0.047 C 
ATOM     31  C   UNL     1       6.835  44.522  50.059  1.00  0.00     0.044 C 
ENDBRANCH  22  24
ENDBRANCH  15  22
ENDBRANCH   1  12
TORSDOF 6
ENDMDL
MODEL 12
REMARK VINA RESULT:    -9.287      2.987      6.772
REMARK INTER + INTRA:         -13.382
REMARK INTER:                 -12.070
REMARK INTRA:                  -1.312
REMARK UNBOUND:                -0.838
REMARK SMILES COc1ccc(CNc2nc(Nc3cccc(C)c3C)c3cnn(C)c3n2)cc1
REMARK SMILES IDX 8 1 7 3 6 4 3 5 4 6 29 7 5 8 28 9 2 10 1 11 9 12 10 13 27 14
REMARK SMILES IDX 11 15 26 16 21 17 24 18 22 19 23 20 25 21 12 22 13 24 14 25
REMARK SMILES IDX 19 26 15 27 17 28 16 29 20 30 18 31
REMARK H PARENT 8 2 12 23
ROOT
ATOM      1  N   UNL     1       3.378  45.364  55.678  1.00  0.00    -0.350 N 
ATOM      2  H   UNL     1       4.133  44.690  55.753  1.00  0.00     0.164 HD
ENDROOT
BRANCH   1   3
ATOM      3  C   UNL     1       3.804  46.693  55.287  1.00  0.00     0.152 C 
BRANCH   3   4
ATOM      4  C   UNL     1       5.099  46.647  54.506  1.00  0.00    -0.029 A 
ATOM      5  C   UNL     1       7.530  46.600  53.082  1.00  0.00     0.118 A 
ATOM      6  C   UNL     1       6.549  47.537  52.763  1.00  0.00     0.047 A 
ATOM      7  C   UNL     1       7.295  45.692  54.117  1.00  0.00     0.047 A 
ATOM      8  C   UNL     1       5.343  47.563  53.474  1.00  0.00     0.009 A 
ATOM      9  C   UNL     1       6.092  45.714  54.827  1.00  0.00     0.009 A 
BRANCH   5  10
ATOM     10  O   UNL     1       8.746  46.466  52.471  1.00  0.00    -0.497 OA
ATOM     11  C   UNL     1       9.887  46.878  53.213  1.00  0.00     0.278 C 
ENDBRANCH   5  10
ENDBRANCH   3   4
ENDBRANCH   1   3
BRANCH   1  12
ATOM     12  C   UNL     1       2.427  44.767  54.862  1.00  0.00     0.227 A 
ATOM     13  N   UNL     1       2.876  44.433  53.638  1.00  0.00    -0.195 NA
ATOM     14  N   UNL     1       1.188  44.555  55.328  1.00  0.00    -0.193 NA
ATOM     15  C   UNL     1       2.048  43.824  52.751  1.00  0.00     0.147 A 
ATOM     16  C   UNL     1       0.385  43.971  54.425  1.00  0.00     0.165 A 
ATOM     17  C   UNL     1       0.730  43.589  53.145  1.00  0.00     0.082 A 
ATOM     18  N   UNL     1      -0.933  43.636  54.575  1.00  0.00    -0.250 N 
ATOM     19  C   UNL     1      -0.458  43.055  52.605  1.00  0.00     0.149 A 
ATOM     20  N   UNL     1      -1.478  43.073  53.472  1.00  0.00    -0.179 NA
ATOM     21  C   UNL     1      -1.748  43.828  55.748  1.00  0.00     0.176 C 
BRANCH  15  22
ATOM     22  N   UNL     1       2.577  43.520  51.486  1.00  0.00    -0.339 N 
ATOM     23  H   UNL     1       1.952  43.947  50.805  1.00  0.00     0.168 HD
BRANCH  22  24
ATOM     24  C   UNL     1       3.923  43.658  51.069  1.00  0.00     0.043 A 
ATOM     25  C   UNL     1       4.506  44.927  50.932  1.00  0.00     0.026 A 
ATOM     26  C   UNL     1       4.654  42.515  50.667  1.00  0.00    -0.025 A 
ATOM     27  C   UNL     1       5.812  45.070  50.474  1.00  0.00     0.002 A 
ATOM     28  C   UNL     1       5.994  42.661  50.232  1.00  0.00    -0.046 A 
ATOM     29  C   UNL     1       6.553  43.943  50.133  1.00  0.00     0.004 A 
ATOM     30  C   UNL     1       4.040  41.141  50.790  1.00  0.00     0.047 C 
ATOM     31  C   UNL     1       6.838  41.475  49.847  1.00  0.00     0.044 C 
ENDBRANCH  22  24
ENDBRANCH  15  22
ENDBRANCH   1  12
TORSDOF 6
ENDMDL
MODEL 13
REMARK VINA RESULT:    -9.260      3.293      6.740
REMARK INTER + INTRA:         -13.346
REMARK INTER:                 -11.513
REMARK INTRA:                  -1.833
REMARK UNBOUND:                -0.838
REMARK SMILES COc1ccc(CNc2nc(Nc3cccc(C)c3C)c3cnn(C)c3n2)cc1
REMARK SMILES IDX 8 1 7 3 6 4 3 5 4 6 29 7 5 8 28 9 2 10 1 11 9 12 10 13 27 14
REMARK SMILES IDX 11 15 26 16 21 17 24 18 22 19 23 20 25 21 12 22 13 24 14 25
REMARK SMILES IDX 19 26 15 27 17 28 16 29 20 30 18 31
REMARK H PARENT 8 2 12 23
ROOT
ATOM      1  N   UNL     1       1.322  43.223  52.648  1.00  0.00    -0.350 N 
ATOM      2  H   UNL     1       0.525  42.597  52.599  1.00  0.00     0.164 HD
ENDROOT
BRANCH   1   3
ATOM      3  C   UNL     1       1.519  44.028  51.458  1.00  0.00     0.152 C 
BRANCH   3   4
ATOM      4  C   UNL     1       2.989  44.271  51.197  1.00  0.00    -0.029 A 
ATOM      5  C   UNL     1       5.720  44.710  50.661  1.00  0.00     0.118 A 
ATOM      6  C   UNL     1       5.260  43.427  50.954  1.00  0.00     0.047 A 
ATOM      7  C   UNL     1       4.811  45.770  50.632  1.00  0.00     0.047 A 
ATOM      8  C   UNL     1       3.903  43.208  51.215  1.00  0.00     0.009 A 
ATOM      9  C   UNL     1       3.456  45.555  50.895  1.00  0.00     0.009 A 
BRANCH   5  10
ATOM     10  O   UNL     1       7.014  45.060  50.387  1.00  0.00    -0.497 OA
ATOM     11  C   UNL     1       7.773  44.149  49.603  1.00  0.00     0.278 C 
ENDBRANCH   5  10
ENDBRANCH   3   4
ENDBRANCH   1   3
BRANCH   1  12
ATOM     12  C   UNL     1       1.173  43.923  53.836  1.00  0.00     0.227 A 
ATOM     13  N   UNL     1       2.246  44.657  54.188  1.00  0.00    -0.195 NA
ATOM     14  N   UNL     1       0.021  43.843  54.518  1.00  0.00    -0.193 NA
ATOM     15  C   UNL     1       2.219  45.404  55.321  1.00  0.00     0.147 A 
ATOM     16  C   UNL     1       0.029  44.573  55.643  1.00  0.00     0.165 A 
ATOM     17  C   UNL     1       1.066  45.357  56.106  1.00  0.00     0.082 A 
ATOM     18  N   UNL     1      -0.974  44.695  56.565  1.00  0.00    -0.250 N 
ATOM     19  C   UNL     1       0.590  45.889  57.322  1.00  0.00     0.149 A 
ATOM     20  N   UNL     1      -0.657  45.495  57.609  1.00  0.00    -0.179 NA
ATOM     21  C   UNL     1      -2.271  44.069  56.522  1.00  0.00     0.176 C 
BRANCH  15  22
ATOM     22  N   UNL     1       3.378  46.131  55.636  1.00  0.00    -0.339 N 
ATOM     23  H   UNL     1       3.455  46.121  56.652  1.00  0.00     0.168 HD
BRANCH  22  24
ATOM     24  C   UNL     1       4.659  45.991  55.047  1.00  0.00     0.043 A 
ATOM     25  C   UNL     1       5.506  44.933  55.413  1.00  0.00     0.026 A 
ATOM     26  C   UNL     1       5.143  46.993  54.173  1.00  0.00    -0.025 A 
ATOM     27  C   UNL     1       6.784  44.820  54.874  1.00  0.00     0.002 A 
ATOM     28  C   UNL     1       6.432  46.857  53.602  1.00  0.00    -0.046 A 
ATOM     29  C   UNL     1       7.241  45.772  53.970  1.00  0.00     0.004 A 
ATOM     30  C   UNL     1       4.255  48.148  53.779  1.00  0.00     0.047 C 
ATOM     31  C   UNL     1       6.976  47.862  52.622  1.00  0.00     0.044 C 
ENDBRANCH  22  24
ENDBRANCH  15  22
ENDBRANCH   1  12
TORSDOF 6
ENDMDL
MODEL 14
REMARK VINA RESULT:    -9.229      1.751      2.975
REMARK INTER + INTRA:         -13.304
REMARK INTER:                 -12.490
REMARK INTRA:                  -0.814
REMARK UNBOUND:                -0.838
REMARK SMILES COc1ccc(CNc2nc(Nc3cccc(C)c3C)c3cnn(C)c3n2)cc1
REMARK SMILES IDX 8 1 7 3 6 4 3 5 4 6 29 7 5 8 28 9 2 10 1 11 9 12 10 13 27 14
REMARK SMILES IDX 11 15 26 16 21 17 24 18 22 19 23 20 25 21 12 22 13 24 14 25
REMARK SMILES IDX 19 26 15 27 17 28 16 29 20 30 18 31
REMARK H PARENT 8 2 12 23
ROOT
ATOM      1  N   UNL     1       2.847  46.062  56.272  1.00  0.00    -0.350 N 
ATOM      2  H   UNL     1       2.749  47.072  56.280  1.00  0.00     0.164 HD
ENDROOT
BRANCH   1   3
ATOM      3  C   UNL     1       1.672  45.347  56.730  1.00  0.00     0.152 C 
BRANCH   3   4
ATOM      4  C   UNL     1       0.766  46.243  57.544  1.00  0.00    -0.029 A 
ATOM      5  C   UNL     1      -0.903  47.954  59.037  1.00  0.00     0.118 A 
ATOM      6  C   UNL     1       0.410  47.721  59.447  1.00  0.00     0.047 A 
ATOM      7  C   UNL     1      -1.375  47.334  57.878  1.00  0.00     0.047 A 
ATOM      8  C   UNL     1       1.240  46.875  58.702  1.00  0.00     0.009 A 
ATOM      9  C   UNL     1      -0.550  46.487  57.134  1.00  0.00     0.009 A 
BRANCH   5  10
ATOM     10  O   UNL     1      -1.814  48.754  59.669  1.00  0.00    -0.497 OA
ATOM     11  C   UNL     1      -2.399  48.245  60.861  1.00  0.00     0.278 C 
ENDBRANCH   5  10
ENDBRANCH   3   4
ENDBRANCH   1   3
BRANCH   1  12
ATOM     12  C   UNL     1       3.294  45.742  54.998  1.00  0.00     0.227 A 
ATOM     13  N   UNL     1       4.296  46.520  54.548  1.00  0.00    -0.195 NA
ATOM     14  N   UNL     1       2.739  44.717  54.335  1.00  0.00    -0.193 NA
ATOM     15  C   UNL     1       4.835  46.297  53.322  1.00  0.00     0.147 A 
ATOM     16  C   UNL     1       3.276  44.532  53.119  1.00  0.00     0.165 A 
ATOM     17  C   UNL     1       4.297  45.265  52.552  1.00  0.00     0.082 A 
ATOM     18  N   UNL     1       2.928  43.590  52.189  1.00  0.00    -0.250 N 
ATOM     19  C   UNL     1       4.472  44.696  51.274  1.00  0.00     0.149 A 
ATOM     20  N   UNL     1       3.645  43.668  51.045  1.00  0.00    -0.179 NA
ATOM     21  C   UNL     1       1.910  42.578  52.320  1.00  0.00     0.176 C 
BRANCH  15  22
ATOM     22  N   UNL     1       5.864  47.158  52.909  1.00  0.00    -0.339 N 
ATOM     23  H   UNL     1       5.530  48.106  53.078  1.00  0.00     0.168 HD
BRANCH  22  24
ATOM     24  C   UNL     1       7.239  47.060  53.232  1.00  0.00     0.043 A 
ATOM     25  C   UNL     1       7.729  47.562  54.448  1.00  0.00     0.026 A 
ATOM     26  C   UNL     1       8.152  46.562  52.272  1.00  0.00    -0.025 A 
ATOM     27  C   UNL     1       9.087  47.512  54.747  1.00  0.00     0.002 A 
ATOM     28  C   UNL     1       9.529  46.484  52.593  1.00  0.00    -0.046 A 
ATOM     29  C   UNL     1       9.980  46.971  53.828  1.00  0.00     0.004 A 
ATOM     30  C   UNL     1       7.648  46.033  50.951  1.00  0.00     0.047 C 
ATOM     31  C   UNL     1      10.537  45.911  51.633  1.00  0.00     0.044 C 
ENDBRANCH  22  24
ENDBRANCH  15  22
ENDBRANCH   1  12
TORSDOF 6
ENDMDL
MODEL 15
REMARK VINA RESULT:    -9.096      3.214      6.792
REMARK INTER + INTRA:         -13.124
REMARK INTER:                 -11.263
REMARK INTRA:                  -1.861
REMARK UNBOUND:                -0.838
REMARK SMILES COc1ccc(CNc2nc(Nc3cccc(C)c3C)c3cnn(C)c3n2)cc1
REMARK SMILES IDX 8 1 7 3 6 4 3 5 4 6 29 7 5 8 28 9 2 10 1 11 9 12 10 13 27 14
REMARK SMILES IDX 11 15 26 16 21 17 24 18 22 19 23 20 25 21 12 22 13 24 14 25
REMARK SMILES IDX 19 26 15 27 17 28 16 29 20 30 18 31
REMARK H PARENT 8 2 12 23
ROOT
ATOM      1  N   UNL     1       1.436  43.242  52.594  1.00  0.00    -0.350 N 
ATOM      2  H   UNL     1       0.629  42.633  52.505  1.00  0.00     0.164 HD
ENDROOT
BRANCH   1   3
ATOM      3  C   UNL     1       1.678  44.081  51.437  1.00  0.00     0.152 C 
BRANCH   3   4
ATOM      4  C   UNL     1       3.159  44.227  51.164  1.00  0.00    -0.029 A 
ATOM      5  C   UNL     1       5.909  44.484  50.607  1.00  0.00     0.118 A 
ATOM      6  C   UNL     1       5.365  43.232  50.891  1.00  0.00     0.047 A 
ATOM      7  C   UNL     1       5.074  45.604  50.597  1.00  0.00     0.047 A 
ATOM      8  C   UNL     1       3.998  43.104  51.163  1.00  0.00     0.009 A 
ATOM      9  C   UNL     1       3.710  45.479  50.870  1.00  0.00     0.009 A 
BRANCH   5  10
ATOM     10  O   UNL     1       7.221  44.748  50.325  1.00  0.00    -0.497 OA
ATOM     11  C   UNL     1       7.862  43.891  49.389  1.00  0.00     0.278 C 
ENDBRANCH   5  10
ENDBRANCH   3   4
ENDBRANCH   1   3
BRANCH   1  12
ATOM     12  C   UNL     1       1.269  43.907  53.800  1.00  0.00     0.227 A 
ATOM     13  N   UNL     1       2.351  44.594  54.212  1.00  0.00    -0.195 NA
ATOM     14  N   UNL     1       0.092  43.841  54.440  1.00  0.00    -0.193 NA
ATOM     15  C   UNL     1       2.310  45.303  55.368  1.00  0.00     0.147 A 
ATOM     16  C   UNL     1       0.085  44.533  55.590  1.00  0.00     0.165 A 
ATOM     17  C   UNL     1       1.129  45.267  56.113  1.00  0.00     0.082 A 
ATOM     18  N   UNL     1      -0.945  44.656  56.482  1.00  0.00    -0.250 N 
ATOM     19  C   UNL     1       0.630  45.773  57.331  1.00  0.00     0.149 A 
ATOM     20  N   UNL     1      -0.638  45.410  57.563  1.00  0.00    -0.179 NA
ATOM     21  C   UNL     1      -2.259  44.074  56.375  1.00  0.00     0.176 C 
BRANCH  15  22
ATOM     22  N   UNL     1       3.480  45.980  55.746  1.00  0.00    -0.339 N 
ATOM     23  H   UNL     1       3.918  45.413  56.470  1.00  0.00     0.168 HD
BRANCH  22  24
ATOM     24  C   UNL     1       4.466  46.524  54.887  1.00  0.00     0.043 A 
ATOM     25  C   UNL     1       4.202  47.677  54.131  1.00  0.00     0.026 A 
ATOM     26  C   UNL     1       5.686  45.834  54.693  1.00  0.00    -0.025 A 
ATOM     27  C   UNL     1       5.150  48.186  53.248  1.00  0.00     0.002 A 
ATOM     28  C   UNL     1       6.660  46.373  53.818  1.00  0.00    -0.046 A 
ATOM     29  C   UNL     1       6.374  47.541  53.098  1.00  0.00     0.004 A 
ATOM     30  C   UNL     1       5.982  44.583  55.484  1.00  0.00     0.047 C 
ATOM     31  C   UNL     1       7.998  45.712  53.616  1.00  0.00     0.044 C 
ENDBRANCH  22  24
ENDBRANCH  15  22
ENDBRANCH   1  12
TORSDOF 6
ENDMDL
MODEL 16
REMARK VINA RESULT:    -9.000      3.119      7.918
REMARK INTER + INTRA:         -12.995
REMARK INTER:                 -11.620
REMARK INTRA:                  -1.375
REMARK UNBOUND:                -0.838
REMARK SMILES COc1ccc(CNc2nc(Nc3cccc(C)c3C)c3cnn(C)c3n2)cc1
REMARK SMILES IDX 8 1 7 3 6 4 3 5 4 6 29 7 5 8 28 9 2 10 1 11 9 12 10 13 27 14
REMARK SMILES IDX 11 15 26 16 21 17 24 18 22 19 23 20 25 21 12 22 13 24 14 25
REMARK SMILES IDX 19 26 15 27 17 28 16 29 20 30 18 31
REMARK H PARENT 8 2 12 23
ROOT
ATOM      1  N   UNL     1       7.127  44.817  49.614  1.00  0.00    -0.350 N 
ATOM      2  H   UNL     1       7.773  45.416  49.111  1.00  0.00     0.164 HD
ENDROOT
BRANCH   1   3
ATOM      3  C   UNL     1       7.541  43.430  49.692  1.00  0.00     0.152 C 
BRANCH   3   4
ATOM      4  C   UNL     1       6.385  42.496  49.414  1.00  0.00    -0.029 A 
ATOM      5  C   UNL     1       4.201  40.794  48.891  1.00  0.00     0.118 A 
ATOM      6  C   UNL     1       4.420  41.278  50.180  1.00  0.00     0.047 A 
ATOM      7  C   UNL     1       5.072  41.167  47.866  1.00  0.00     0.047 A 
ATOM      8  C   UNL     1       5.503  42.127  50.439  1.00  0.00     0.009 A 
ATOM      9  C   UNL     1       6.155  42.012  48.121  1.00  0.00     0.009 A 
BRANCH   5  10
ATOM     10  O   UNL     1       3.186  39.963  48.504  1.00  0.00    -0.497 OA
ATOM     11  C   UNL     1       3.192  39.529  47.150  1.00  0.00     0.278 C 
ENDBRANCH   5  10
ENDBRANCH   3   4
ENDBRANCH   1   3
BRANCH   1  12
ATOM     12  C   UNL     1       6.900  45.452  50.826  1.00  0.00     0.227 A 
ATOM     13  N   UNL     1       5.601  45.678  51.101  1.00  0.00    -0.195 NA
ATOM     14  N   UNL     1       7.935  45.768  51.619  1.00  0.00    -0.193 NA
ATOM     15  C   UNL     1       5.244  46.276  52.266  1.00  0.00     0.147 A 
ATOM     16  C   UNL     1       7.556  46.375  52.753  1.00  0.00     0.165 A 
ATOM     17  C   UNL     1       6.263  46.663  53.139  1.00  0.00     0.082 A 
ATOM     18  N   UNL     1       8.359  46.838  53.759  1.00  0.00    -0.250 N 
ATOM     19  C   UNL     1       6.402  47.317  54.380  1.00  0.00     0.149 A 
ATOM     20  N   UNL     1       7.678  47.423  54.771  1.00  0.00    -0.179 NA
ATOM     21  C   UNL     1       9.797  46.763  53.824  1.00  0.00     0.176 C 
BRANCH  15  22
ATOM     22  N   UNL     1       3.874  46.498  52.478  1.00  0.00    -0.339 N 
ATOM     23  H   UNL     1       3.464  46.657  51.560  1.00  0.00     0.168 HD
BRANCH  22  24
ATOM     24  C   UNL     1       2.998  45.722  53.277  1.00  0.00     0.043 A 
ATOM     25  C   UNL     1       2.963  45.885  54.670  1.00  0.00     0.026 A 
ATOM     26  C   UNL     1       2.238  44.687  52.682  1.00  0.00    -0.025 A 
ATOM     27  C   UNL     1       2.140  45.090  55.463  1.00  0.00     0.002 A 
ATOM     28  C   UNL     1       1.378  43.902  53.488  1.00  0.00    -0.046 A 
ATOM     29  C   UNL     1       1.348  44.110  54.875  1.00  0.00     0.004 A 
ATOM     30  C   UNL     1       2.274  44.484  51.186  1.00  0.00     0.047 C 
ATOM     31  C   UNL     1       0.503  42.826  52.902  1.00  0.00     0.044 C 
ENDBRANCH  22  24
ENDBRANCH  15  22
ENDBRANCH   1  12
TORSDOF 6
ENDMDL
MODEL 17
REMARK VINA RESULT:    -8.985      0.734      1.586
REMARK INTER + INTRA:         -12.974
REMARK INTER:                 -12.485
REMARK INTRA:                  -0.489
REMARK UNBOUND:                -0.838
REMARK SMILES COc1ccc(CNc2nc(Nc3cccc(C)c3C)c3cnn(C)c3n2)cc1
REMARK SMILES IDX 8 1 7 3 6 4 3 5 4 6 29 7 5 8 28 9 2 10 1 11 9 12 10 13 27 14
REMARK SMILES IDX 11 15 26 16 21 17 24 18 22 19 23 20 25 21 12 22 13 24 14 25
REMARK SMILES IDX 19 26 15 27 17 28 16 29 20 30 18 31
REMARK H PARENT 8 2 12 23
ROOT
ATOM      1  N   UNL     1       2.360  44.173  54.142  1.00  0.00    -0.350 N 
ATOM      2  H   UNL     1       2.510  45.086  54.559  1.00  0.00     0.164 HD
ENDROOT
BRANCH   1   3
ATOM      3  C   UNL     1       0.983  43.904  53.779  1.00  0.00     0.152 C 
BRANCH   3   4
ATOM      4  C   UNL     1       0.031  44.351  54.866  1.00  0.00    -0.029 A 
ATOM      5  C   UNL     1      -1.729  45.143  56.919  1.00  0.00     0.118 A 
ATOM      6  C   UNL     1      -2.123  44.180  55.991  1.00  0.00     0.047 A 
ATOM      7  C   UNL     1      -0.453  45.703  56.821  1.00  0.00     0.047 A 
ATOM      8  C   UNL     1      -1.247  43.784  54.973  1.00  0.00     0.009 A 
ATOM      9  C   UNL     1       0.422  45.311  55.806  1.00  0.00     0.009 A 
BRANCH   5  10
ATOM     10  O   UNL     1      -2.483  45.618  57.957  1.00  0.00    -0.497 OA
ATOM     11  C   UNL     1      -2.372  47.005  58.249  1.00  0.00     0.278 C 
ENDBRANCH   5  10
ENDBRANCH   3   4
ENDBRANCH   1   3
BRANCH   1  12
ATOM     12  C   UNL     1       3.288  44.078  53.114  1.00  0.00     0.227 A 
ATOM     13  N   UNL     1       4.116  45.135  53.012  1.00  0.00    -0.195 NA
ATOM     14  N   UNL     1       3.312  42.985  52.337  1.00  0.00    -0.193 NA
ATOM     15  C   UNL     1       5.081  45.155  52.059  1.00  0.00     0.147 A 
ATOM     16  C   UNL     1       4.262  43.041  51.391  1.00  0.00     0.165 A 
ATOM     17  C   UNL     1       5.160  44.068  51.187  1.00  0.00     0.082 A 
ATOM     18  N   UNL     1       4.538  42.104  50.432  1.00  0.00    -0.250 N 
ATOM     19  C   UNL     1       5.917  43.658  50.071  1.00  0.00     0.149 A 
ATOM     20  N   UNL     1       5.550  42.457  49.606  1.00  0.00    -0.179 NA
ATOM     21  C   UNL     1       3.873  40.841  50.237  1.00  0.00     0.176 C 
BRANCH  15  22
ATOM     22  N   UNL     1       5.897  46.296  51.998  1.00  0.00    -0.339 N 
ATOM     23  H   UNL     1       5.294  47.091  52.203  1.00  0.00     0.168 HD
BRANCH  22  24
ATOM     24  C   UNL     1       7.163  46.473  52.608  1.00  0.00     0.043 A 
ATOM     25  C   UNL     1       7.267  46.987  53.910  1.00  0.00     0.026 A 
ATOM     26  C   UNL     1       8.341  46.247  51.858  1.00  0.00    -0.025 A 
ATOM     27  C   UNL     1       8.510  47.210  54.494  1.00  0.00     0.002 A 
ATOM     28  C   UNL     1       9.605  46.444  52.467  1.00  0.00    -0.046 A 
ATOM     29  C   UNL     1       9.671  46.934  53.780  1.00  0.00     0.004 A 
ATOM     30  C   UNL     1       8.252  45.710  50.450  1.00  0.00     0.047 C 
ATOM     31  C   UNL     1      10.891  46.165  51.737  1.00  0.00     0.044 C 
ENDBRANCH  22  24
ENDBRANCH  15  22
ENDBRANCH   1  12
TORSDOF 6
ENDMDL
MODEL 18
REMARK VINA RESULT:    -8.976      3.399      6.955
REMARK INTER + INTRA:         -12.962
REMARK INTER:                 -11.987
REMARK INTRA:                  -0.975
REMARK UNBOUND:                -0.838
REMARK SMILES COc1ccc(CNc2nc(Nc3cccc(C)c3C)c3cnn(C)c3n2)cc1
REMARK SMILES IDX 8 1 7 3 6 4 3 5 4 6 29 7 5 8 28 9 2 10 1 11 9 12 10 13 27 14
REMARK SMILES IDX 11 15 26 16 21 17 24 18 22 19 23 20 25 21 12 22 13 24 14 25
REMARK SMILES IDX 19 26 15 27 17 28 16 29 20 30 18 31
REMARK H PARENT 8 2 12 23
ROOT
ATOM      1  N   UNL     1       3.240  46.443  54.133  1.00  0.00    -0.350 N 
ATOM      2  H   UNL     1       3.812  45.920  54.787  1.00  0.00     0.164 HD
ENDROOT
BRANCH   1   3
ATOM      3  C   UNL     1       3.969  47.430  53.361  1.00  0.00     0.152 C 
BRANCH   3   4
ATOM      4  C   UNL     1       5.454  47.142  53.366  1.00  0.00    -0.029 A 
ATOM      5  C   UNL     1       8.210  46.557  53.369  1.00  0.00     0.118 A 
ATOM      6  C   UNL     1       7.466  46.436  54.542  1.00  0.00     0.047 A 
ATOM      7  C   UNL     1       7.572  46.966  52.196  1.00  0.00     0.047 A 
ATOM      8  C   UNL     1       6.096  46.722  54.539  1.00  0.00     0.009 A 
ATOM      9  C   UNL     1       6.206  47.254  52.191  1.00  0.00     0.009 A 
BRANCH   5  10
ATOM     10  O   UNL     1       9.549  46.309  53.235  1.00  0.00    -0.497 OA
ATOM     11  C   UNL     1      10.109  46.491  51.941  1.00  0.00     0.278 C 
ENDBRANCH   5  10
ENDBRANCH   3   4
ENDBRANCH   1   3
BRANCH   1  12
ATOM     12  C   UNL     1       2.548  45.490  53.399  1.00  0.00     0.227 A 
ATOM     13  N   UNL     1       3.272  44.400  53.081  1.00  0.00    -0.195 NA
ATOM     14  N   UNL     1       1.260  45.695  53.084  1.00  0.00    -0.193 NA
ATOM     15  C   UNL     1       2.704  43.385  52.381  1.00  0.00     0.147 A 
ATOM     16  C   UNL     1       0.731  44.687  52.376  1.00  0.00     0.165 A 
ATOM     17  C   UNL     1       1.372  43.529  51.988  1.00  0.00     0.082 A 
ATOM     18  N   UNL     1      -0.544  44.592  51.886  1.00  0.00    -0.250 N 
ATOM     19  C   UNL     1       0.402  42.816  51.254  1.00  0.00     0.149 A 
ATOM     20  N   UNL     1      -0.774  43.454  51.191  1.00  0.00    -0.179 NA
ATOM     21  C   UNL     1      -1.604  45.556  52.037  1.00  0.00     0.176 C 
BRANCH  15  22
ATOM     22  N   UNL     1       3.522  42.288  52.067  1.00  0.00    -0.339 N 
ATOM     23  H   UNL     1       3.003  41.456  52.344  1.00  0.00     0.168 HD
BRANCH  22  24
ATOM     24  C   UNL     1       4.206  42.054  50.849  1.00  0.00     0.043 A 
ATOM     25  C   UNL     1       3.798  41.029  49.982  1.00  0.00     0.026 A 
ATOM     26  C   UNL     1       5.386  42.779  50.558  1.00  0.00    -0.025 A 
ATOM     27  C   UNL     1       4.498  40.764  48.809  1.00  0.00     0.002 A 
ATOM     28  C   UNL     1       6.077  42.527  49.347  1.00  0.00    -0.046 A 
ATOM     29  C   UNL     1       5.626  41.513  48.490  1.00  0.00     0.004 A 
ATOM     30  C   UNL     1       5.852  43.875  51.486  1.00  0.00     0.047 C 
ATOM     31  C   UNL     1       7.306  43.306  48.958  1.00  0.00     0.044 C 
ENDBRANCH  22  24
ENDBRANCH  15  22
ENDBRANCH   1  12
TORSDOF 6
ENDMDL
MODEL 19
REMARK VINA RESULT:    -8.899      3.277      8.064
REMARK INTER + INTRA:         -12.858
REMARK INTER:                 -11.548
REMARK INTRA:                  -1.310
REMARK UNBOUND:                -0.838
REMARK SMILES COc1ccc(CNc2nc(Nc3cccc(C)c3C)c3cnn(C)c3n2)cc1
REMARK SMILES IDX 8 1 7 3 6 4 3 5 4 6 29 7 5 8 28 9 2 10 1 11 9 12 10 13 27 14
REMARK SMILES IDX 11 15 26 16 21 17 24 18 22 19 23 20 25 21 12 22 13 24 14 25
REMARK SMILES IDX 19 26 15 27 17 28 16 29 20 30 18 31
REMARK H PARENT 8 2 12 23
ROOT
ATOM      1  N   UNL     1       7.014  43.752  49.308  1.00  0.00    -0.350 N 
ATOM      2  H   UNL     1       7.919  44.010  48.928  1.00  0.00     0.164 HD
ENDROOT
BRANCH   1   3
ATOM      3  C   UNL     1       6.918  42.368  49.726  1.00  0.00     0.152 C 
BRANCH   3   4
ATOM      4  C   UNL     1       5.776  41.662  49.030  1.00  0.00    -0.029 A 
ATOM      5  C   UNL     1       3.621  40.389  47.736  1.00  0.00     0.118 A 
ATOM      6  C   UNL     1       3.645  40.486  49.126  1.00  0.00     0.047 A 
ATOM      7  C   UNL     1       4.673  40.933  46.996  1.00  0.00     0.047 A 
ATOM      8  C   UNL     1       4.713  41.123  49.769  1.00  0.00     0.009 A 
ATOM      9  C   UNL     1       5.742  41.567  47.634  1.00  0.00     0.009 A 
BRANCH   5  10
ATOM     10  O   UNL     1       2.642  39.796  46.986  1.00  0.00    -0.497 OA
ATOM     11  C   UNL     1       2.670  38.377  46.900  1.00  0.00     0.278 C 
ENDBRANCH   5  10
ENDBRANCH   3   4
ENDBRANCH   1   3
BRANCH   1  12
ATOM     12  C   UNL     1       6.736  44.701  50.281  1.00  0.00     0.227 A 
ATOM     13  N   UNL     1       5.424  44.877  50.527  1.00  0.00    -0.195 NA
ATOM     14  N   UNL     1       7.741  45.339  50.898  1.00  0.00    -0.193 NA
ATOM     15  C   UNL     1       5.020  45.764  51.471  1.00  0.00     0.147 A 
ATOM     16  C   UNL     1       7.314  46.223  51.812  1.00  0.00     0.165 A 
ATOM     17  C   UNL     1       6.002  46.492  52.144  1.00  0.00     0.082 A 
ATOM     18  N   UNL     1       8.077  47.043  52.598  1.00  0.00    -0.250 N 
ATOM     19  C   UNL     1       6.087  47.502  53.125  1.00  0.00     0.149 A 
ATOM     20  N   UNL     1       7.350  47.842  53.413  1.00  0.00    -0.179 NA
ATOM     21  C   UNL     1       9.515  47.126  52.624  1.00  0.00     0.176 C 
BRANCH  15  22
ATOM     22  N   UNL     1       3.637  45.911  51.662  1.00  0.00    -0.339 N 
ATOM     23  H   UNL     1       3.200  45.694  50.768  1.00  0.00     0.168 HD
BRANCH  22  24
ATOM     24  C   UNL     1       2.862  45.385  52.725  1.00  0.00     0.043 A 
ATOM     25  C   UNL     1       2.885  45.982  53.994  1.00  0.00     0.026 A 
ATOM     26  C   UNL     1       2.152  44.174  52.543  1.00  0.00    -0.025 A 
ATOM     27  C   UNL     1       2.164  45.440  55.054  1.00  0.00     0.002 A 
ATOM     28  C   UNL     1       1.394  43.643  53.615  1.00  0.00    -0.046 A 
ATOM     29  C   UNL     1       1.418  44.281  54.864  1.00  0.00     0.004 A 
ATOM     30  C   UNL     1       2.127  43.506  51.190  1.00  0.00     0.047 C 
ATOM     31  C   UNL     1       0.573  42.390  53.463  1.00  0.00     0.044 C 
ENDBRANCH  22  24
ENDBRANCH  15  22
ENDBRANCH   1  12
TORSDOF 6
ENDMDL
