MODEL 1
REMARK VINA RESULT:    -9.629      0.000      0.000
REMARK INTER + INTRA:         -13.896
REMARK INTER:                 -13.007
REMARK INTRA:                  -0.889
REMARK UNBOUND:                -0.889
REMARK SMILES COc1ccc(CNc2nc(Nc3cccc(Cl)c3Cl)c3cnn(C)c3n2)cc1
REMARK SMILES IDX 8 1 7 3 6 4 3 5 4 6 29 7 5 8 28 9 2 10 1 11 9 12 10 13 27 14
REMARK SMILES IDX 11 15 26 16 21 17 24 18 22 19 23 20 25 21 12 22 13 24 14 25
REMARK SMILES IDX 19 26 15 27 17 28 16 29 20 30 18 31
REMARK H PARENT 8 2 12 23
ROOT
ATOM      1  N   UNL     1       7.931  44.937  50.394  1.00  0.00    -0.350 N 
ATOM      2  H   UNL     1       8.635  44.536  51.003  1.00  0.00     0.164 HD
ENDROOT
BRANCH   1   3
ATOM      3  C   UNL     1       7.608  46.322  50.664  1.00  0.00     0.152 C 
BRANCH   3   4
ATOM      4  C   UNL     1       8.206  46.719  51.994  1.00  0.00    -0.029 A 
ATOM      5  C   UNL     1       9.311  47.485  54.472  1.00  0.00     0.118 A 
ATOM      6  C   UNL     1       7.926  47.444  54.294  1.00  0.00     0.047 A 
ATOM      7  C   UNL     1      10.144  47.148  53.406  1.00  0.00     0.047 A 
ATOM      8  C   UNL     1       7.375  47.068  53.067  1.00  0.00     0.009 A 
ATOM      9  C   UNL     1       9.595  46.769  52.173  1.00  0.00     0.009 A 
BRANCH   5  10
ATOM     10  O   UNL     1       9.715  47.870  55.720  1.00  0.00    -0.497 OA
ATOM     11  C   UNL     1      11.031  47.502  56.110  1.00  0.00     0.278 C 
ENDBRANCH   5  10
ENDBRANCH   3   4
ENDBRANCH   1   3
BRANCH   1  12
ATOM     12  C   UNL     1       6.841  44.080  50.412  1.00  0.00     0.227 A 
ATOM     13  N   UNL     1       6.790  43.054  49.543  1.00  0.00    -0.195 NA
ATOM     14  N   UNL     1       5.909  44.371  51.326  1.00  0.00    -0.193 NA
ATOM     15  C   UNL     1       5.740  42.193  49.550  1.00  0.00     0.147 A 
ATOM     16  C   UNL     1       4.882  43.509  51.318  1.00  0.00     0.165 A 
ATOM     17  C   UNL     1       4.723  42.419  50.482  1.00  0.00     0.082 A 
ATOM     18  N   UNL     1       3.785  43.527  52.135  1.00  0.00    -0.250 N 
ATOM     19  C   UNL     1       3.492  41.859  50.882  1.00  0.00     0.149 A 
ATOM     20  N   UNL     1       2.908  42.529  51.882  1.00  0.00    -0.179 NA
ATOM     21  C   UNL     1       3.501  44.470  53.187  1.00  0.00     0.176 C 
BRANCH  15  22
ATOM     22  N   UNL     1       5.805  41.151  48.597  1.00  0.00    -0.338 N 
ATOM     23  H   UNL     1       5.555  40.327  49.147  1.00  0.00     0.168 HD
BRANCH  22  24
ATOM     24  C   UNL     1       5.124  41.148  47.354  1.00  0.00     0.060 A 
ATOM     25  C   UNL     1       5.634  41.941  46.316  1.00  0.00     0.028 A 
ATOM     26  C   UNL     1       3.932  40.423  47.144  1.00  0.00     0.083 A 
ATOM     27  C   UNL     1       4.982  42.012  45.085  1.00  0.00     0.004 A 
ATOM     28  C   UNL     1       3.279  40.498  45.904  1.00  0.00     0.061 A 
ATOM     29  C   UNL     1       3.806  41.293  44.881  1.00  0.00     0.022 A 
ATOM     30  Cl  UNL     1       3.309  39.431  48.425  1.00  0.00    -0.080 Cl
ATOM     31  Cl  UNL     1       1.819  39.636  45.568  1.00  0.00    -0.083 Cl
ENDBRANCH  22  24
ENDBRANCH  15  22
ENDBRANCH   1  12
TORSDOF 6
ENDMDL
MODEL 2
REMARK VINA RESULT:    -9.454      4.696      8.308
REMARK INTER + INTRA:         -13.659
REMARK INTER:                 -12.768
REMARK INTRA:                  -0.891
REMARK UNBOUND:                -0.889
REMARK SMILES COc1ccc(CNc2nc(Nc3cccc(Cl)c3Cl)c3cnn(C)c3n2)cc1
REMARK SMILES IDX 8 1 7 3 6 4 3 5 4 6 29 7 5 8 28 9 2 10 1 11 9 12 10 13 27 14
REMARK SMILES IDX 11 15 26 16 21 17 24 18 22 19 23 20 25 21 12 22 13 24 14 25
REMARK SMILES IDX 19 26 15 27 17 28 16 29 20 30 18 31
REMARK H PARENT 8 2 12 23
ROOT
ATOM      1  N   UNL     1       2.959  44.180  54.175  1.00  0.00    -0.350 N 
ATOM      2  H   UNL     1       3.331  43.530  54.858  1.00  0.00     0.164 HD
ENDROOT
BRANCH   1   3
ATOM      3  C   UNL     1       1.576  43.957  53.812  1.00  0.00     0.152 C 
BRANCH   3   4
ATOM      4  C   UNL     1       0.684  44.540  54.884  1.00  0.00    -0.029 A 
ATOM      5  C   UNL     1      -0.968  45.609  56.903  1.00  0.00     0.118 A 
ATOM      6  C   UNL     1       0.420  45.745  56.975  1.00  0.00     0.047 A 
ATOM      7  C   UNL     1      -1.530  44.931  55.821  1.00  0.00     0.047 A 
ATOM      8  C   UNL     1       1.241  45.215  55.978  1.00  0.00     0.009 A 
ATOM      9  C   UNL     1      -0.709  44.398  54.819  1.00  0.00     0.009 A 
BRANCH   5  10
ATOM     10  O   UNL     1      -1.653  46.174  57.943  1.00  0.00    -0.497 OA
ATOM     11  C   UNL     1      -1.319  47.514  58.279  1.00  0.00     0.278 C 
ENDBRANCH   5  10
ENDBRANCH   3   4
ENDBRANCH   1   3
BRANCH   1  12
ATOM     12  C   UNL     1       3.838  44.193  53.103  1.00  0.00     0.227 A 
ATOM     13  N   UNL     1       4.653  45.250  52.926  1.00  0.00    -0.195 NA
ATOM     14  N   UNL     1       3.788  43.112  52.317  1.00  0.00    -0.193 NA
ATOM     15  C   UNL     1       5.533  45.280  51.893  1.00  0.00     0.147 A 
ATOM     16  C   UNL     1       4.664  43.161  51.304  1.00  0.00     0.165 A 
ATOM     17  C   UNL     1       5.552  44.184  51.025  1.00  0.00     0.082 A 
ATOM     18  N   UNL     1       4.865  42.210  50.341  1.00  0.00    -0.250 N 
ATOM     19  C   UNL     1       6.230  43.743  49.870  1.00  0.00     0.149 A 
ATOM     20  N   UNL     1       5.815  42.546  49.440  1.00  0.00    -0.179 NA
ATOM     21  C   UNL     1       4.184  40.946  50.214  1.00  0.00     0.176 C 
BRANCH  15  22
ATOM     22  N   UNL     1       6.339  46.439  51.818  1.00  0.00    -0.338 N 
ATOM     23  H   UNL     1       5.822  47.110  52.391  1.00  0.00     0.168 HD
BRANCH  22  24
ATOM     24  C   UNL     1       7.723  46.483  52.123  1.00  0.00     0.060 A 
ATOM     25  C   UNL     1       8.635  46.141  51.114  1.00  0.00     0.028 A 
ATOM     26  C   UNL     1       8.207  46.805  53.408  1.00  0.00     0.083 A 
ATOM     27  C   UNL     1      10.006  46.123  51.367  1.00  0.00     0.004 A 
ATOM     28  C   UNL     1       9.587  46.786  53.658  1.00  0.00     0.061 A 
ATOM     29  C   UNL     1      10.481  46.444  52.637  1.00  0.00     0.022 A 
ATOM     30  Cl  UNL     1       7.078  47.243  54.652  1.00  0.00    -0.080 Cl
ATOM     31  Cl  UNL     1      10.258  47.174  55.204  1.00  0.00    -0.083 Cl
ENDBRANCH  22  24
ENDBRANCH  15  22
ENDBRANCH   1  12
TORSDOF 6
ENDMDL
MODEL 3
REMARK VINA RESULT:    -9.399      3.870      8.265
REMARK INTER + INTRA:         -13.585
REMARK INTER:                 -12.486
REMARK INTRA:                  -1.100
REMARK UNBOUND:                -0.889
REMARK SMILES COc1ccc(CNc2nc(Nc3cccc(Cl)c3Cl)c3cnn(C)c3n2)cc1
REMARK SMILES IDX 8 1 7 3 6 4 3 5 4 6 29 7 5 8 28 9 2 10 1 11 9 12 10 13 27 14
REMARK SMILES IDX 11 15 26 16 21 17 24 18 22 19 23 20 25 21 12 22 13 24 14 25
REMARK SMILES IDX 19 26 15 27 17 28 16 29 20 30 18 31
REMARK H PARENT 8 2 12 23
ROOT
ATOM      1  N   UNL     1       4.268  41.524  50.986  1.00  0.00    -0.350 N 
ATOM      2  H   UNL     1       4.268  40.841  51.735  1.00  0.00     0.164 HD
ENDROOT
BRANCH   1   3
ATOM      3  C   UNL     1       5.458  41.526  50.162  1.00  0.00     0.152 C 
BRANCH   3   4
ATOM      4  C   UNL     1       5.062  41.296  48.722  1.00  0.00    -0.029 A 
ATOM      5  C   UNL     1       4.318  40.893  46.033  1.00  0.00     0.118 A 
ATOM      6  C   UNL     1       5.454  41.642  46.351  1.00  0.00     0.047 A 
ATOM      7  C   UNL     1       3.551  40.350  47.062  1.00  0.00     0.047 A 
ATOM      8  C   UNL     1       5.823  41.846  47.682  1.00  0.00     0.009 A 
ATOM      9  C   UNL     1       3.919  40.551  48.399  1.00  0.00     0.009 A 
BRANCH   5  10
ATOM     10  O   UNL     1       4.071  40.772  44.693  1.00  0.00    -0.497 OA
ATOM     11  C   UNL     1       5.181  40.464  43.860  1.00  0.00     0.278 C 
ENDBRANCH   5  10
ENDBRANCH   3   4
ENDBRANCH   1   3
BRANCH   1  12
ATOM     12  C   UNL     1       3.961  42.752  51.553  1.00  0.00     0.227 A 
ATOM     13  N   UNL     1       4.758  43.810  51.316  1.00  0.00    -0.195 NA
ATOM     14  N   UNL     1       2.859  42.764  52.312  1.00  0.00    -0.193 NA
ATOM     15  C   UNL     1       4.470  45.026  51.847  1.00  0.00     0.147 A 
ATOM     16  C   UNL     1       2.592  43.973  52.826  1.00  0.00     0.165 A 
ATOM     17  C   UNL     1       3.329  45.130  52.648  1.00  0.00     0.082 A 
ATOM     18  N   UNL     1       1.536  44.313  53.626  1.00  0.00    -0.250 N 
ATOM     19  C   UNL     1       2.627  46.100  53.393  1.00  0.00     0.149 A 
ATOM     20  N   UNL     1       1.538  45.613  53.998  1.00  0.00    -0.179 NA
ATOM     21  C   UNL     1       0.478  43.447  54.082  1.00  0.00     0.176 C 
BRANCH  15  22
ATOM     22  N   UNL     1       5.376  46.059  51.519  1.00  0.00    -0.338 N 
ATOM     23  H   UNL     1       4.787  46.894  51.553  1.00  0.00     0.168 HD
BRANCH  22  24
ATOM     24  C   UNL     1       6.611  46.292  52.176  1.00  0.00     0.060 A 
ATOM     25  C   UNL     1       6.584  46.866  53.455  1.00  0.00     0.028 A 
ATOM     26  C   UNL     1       7.855  46.017  51.572  1.00  0.00     0.083 A 
ATOM     27  C   UNL     1       7.767  47.159  54.132  1.00  0.00     0.004 A 
ATOM     28  C   UNL     1       9.043  46.314  52.257  1.00  0.00     0.061 A 
ATOM     29  C   UNL     1       8.994  46.885  53.533  1.00  0.00     0.022 A 
ATOM     30  Cl  UNL     1       7.888  45.293  49.994  1.00  0.00    -0.080 Cl
ATOM     31  Cl  UNL     1      10.606  46.002  51.586  1.00  0.00    -0.083 Cl
ENDBRANCH  22  24
ENDBRANCH  15  22
ENDBRANCH   1  12
TORSDOF 6
ENDMDL
MODEL 4
REMARK VINA RESULT:    -9.361      3.119      5.586
REMARK INTER + INTRA:         -13.534
REMARK INTER:                 -12.600
REMARK INTRA:                  -0.934
REMARK UNBOUND:                -0.889
REMARK SMILES COc1ccc(CNc2nc(Nc3cccc(Cl)c3Cl)c3cnn(C)c3n2)cc1
REMARK SMILES IDX 8 1 7 3 6 4 3 5 4 6 29 7 5 8 28 9 2 10 1 11 9 12 10 13 27 14
REMARK SMILES IDX 11 15 26 16 21 17 24 18 22 19 23 20 25 21 12 22 13 24 14 25
REMARK SMILES IDX 19 26 15 27 17 28 16 29 20 30 18 31
REMARK H PARENT 8 2 12 23
ROOT
ATOM      1  N   UNL     1       6.883  46.397  50.500  1.00  0.00    -0.350 N 
ATOM      2  H   UNL     1       6.744  46.751  49.561  1.00  0.00     0.164 HD
ENDROOT
BRANCH   1   3
ATOM      3  C   UNL     1       8.238  45.988  50.804  1.00  0.00     0.152 C 
BRANCH   3   4
ATOM      4  C   UNL     1       8.644  46.574  52.137  1.00  0.00    -0.029 A 
ATOM      5  C   UNL     1       9.405  47.640  54.633  1.00  0.00     0.118 A 
ATOM      6  C   UNL     1      10.315  46.911  53.866  1.00  0.00     0.047 A 
ATOM      7  C   UNL     1       8.110  47.831  54.153  1.00  0.00     0.047 A 
ATOM      8  C   UNL     1       9.941  46.379  52.630  1.00  0.00     0.009 A 
ATOM      9  C   UNL     1       7.731  47.300  52.913  1.00  0.00     0.009 A 
BRANCH   5  10
ATOM     10  O   UNL     1       9.900  48.103  55.820  1.00  0.00    -0.497 OA
ATOM     11  C   UNL     1      11.093  47.496  56.299  1.00  0.00     0.278 C 
ENDBRANCH   5  10
ENDBRANCH   3   4
ENDBRANCH   1   3
BRANCH   1  12
ATOM     12  C   UNL     1       5.927  45.416  50.713  1.00  0.00     0.227 A 
ATOM     13  N   UNL     1       4.709  45.764  51.170  1.00  0.00    -0.195 NA
ATOM     14  N   UNL     1       6.324  44.170  50.434  1.00  0.00    -0.193 NA
ATOM     15  C   UNL     1       3.752  44.823  51.372  1.00  0.00     0.147 A 
ATOM     16  C   UNL     1       5.364  43.257  50.638  1.00  0.00     0.165 A 
ATOM     17  C   UNL     1       4.081  43.493  51.097  1.00  0.00     0.082 A 
ATOM     18  N   UNL     1       5.454  41.907  50.434  1.00  0.00    -0.250 N 
ATOM     19  C   UNL     1       3.491  42.213  51.134  1.00  0.00     0.149 A 
ATOM     20  N   UNL     1       4.319  41.239  50.740  1.00  0.00    -0.179 NA
ATOM     21  C   UNL     1       6.595  41.177  49.944  1.00  0.00     0.176 C 
BRANCH  15  22
ATOM     22  N   UNL     1       2.513  45.313  51.846  1.00  0.00    -0.338 N 
ATOM     23  H   UNL     1       1.842  44.890  51.201  1.00  0.00     0.168 HD
BRANCH  22  24
ATOM     24  C   UNL     1       2.057  45.203  53.184  1.00  0.00     0.060 A 
ATOM     25  C   UNL     1       2.950  45.524  54.217  1.00  0.00     0.028 A 
ATOM     26  C   UNL     1       0.767  44.736  53.510  1.00  0.00     0.083 A 
ATOM     27  C   UNL     1       2.573  45.393  55.553  1.00  0.00     0.004 A 
ATOM     28  C   UNL     1       0.392  44.606  54.855  1.00  0.00     0.061 A 
ATOM     29  C   UNL     1       1.296  44.933  55.871  1.00  0.00     0.022 A 
ATOM     30  Cl  UNL     1      -0.342  44.353  52.230  1.00  0.00    -0.080 Cl
ATOM     31  Cl  UNL     1      -1.173  44.047  55.335  1.00  0.00    -0.083 Cl
ENDBRANCH  22  24
ENDBRANCH  15  22
ENDBRANCH   1  12
TORSDOF 6
ENDMDL
MODEL 5
REMARK VINA RESULT:    -9.349      3.440      4.835
REMARK INTER + INTRA:         -13.518
REMARK INTER:                 -12.503
REMARK INTRA:                  -1.015
REMARK UNBOUND:                -0.889
REMARK SMILES COc1ccc(CNc2nc(Nc3cccc(Cl)c3Cl)c3cnn(C)c3n2)cc1
REMARK SMILES IDX 8 1 7 3 6 4 3 5 4 6 29 7 5 8 28 9 2 10 1 11 9 12 10 13 27 14
REMARK SMILES IDX 11 15 26 16 21 17 24 18 22 19 23 20 25 21 12 22 13 24 14 25
REMARK SMILES IDX 19 26 15 27 17 28 16 29 20 30 18 31
REMARK H PARENT 8 2 12 23
ROOT
ATOM      1  N   UNL     1       5.562  45.659  55.281  1.00  0.00    -0.350 N 
ATOM      2  H   UNL     1       5.537  45.497  56.281  1.00  0.00     0.164 HD
ENDROOT
BRANCH   1   3
ATOM      3  C   UNL     1       6.012  46.977  54.887  1.00  0.00     0.152 C 
BRANCH   3   4
ATOM      4  C   UNL     1       7.274  46.843  54.066  1.00  0.00    -0.029 A 
ATOM      5  C   UNL     1       9.625  46.566  52.535  1.00  0.00     0.118 A 
ATOM      6  C   UNL     1       8.397  46.126  52.036  1.00  0.00     0.047 A 
ATOM      7  C   UNL     1       9.677  47.141  53.804  1.00  0.00     0.047 A 
ATOM      8  C   UNL     1       7.231  46.259  52.793  1.00  0.00     0.009 A 
ATOM      9  C   UNL     1       8.509  47.277  54.566  1.00  0.00     0.009 A 
BRANCH   5  10
ATOM     10  O   UNL     1      10.685  46.375  51.693  1.00  0.00    -0.497 OA
ATOM     11  C   UNL     1      10.838  45.077  51.137  1.00  0.00     0.278 C 
ENDBRANCH   5  10
ENDBRANCH   3   4
ENDBRANCH   1   3
BRANCH   1  12
ATOM     12  C   UNL     1       4.320  45.303  54.778  1.00  0.00     0.227 A 
ATOM     13  N   UNL     1       4.221  44.851  53.514  1.00  0.00    -0.195 NA
ATOM     14  N   UNL     1       3.302  45.449  55.633  1.00  0.00    -0.193 NA
ATOM     15  C   UNL     1       3.018  44.482  53.004  1.00  0.00     0.147 A 
ATOM     16  C   UNL     1       2.124  45.079  55.111  1.00  0.00     0.165 A 
ATOM     17  C   UNL     1       1.899  44.597  53.834  1.00  0.00     0.082 A 
ATOM     18  N   UNL     1       0.905  45.097  55.732  1.00  0.00    -0.250 N 
ATOM     19  C   UNL     1       0.509  44.365  53.797  1.00  0.00     0.149 A 
ATOM     20  N   UNL     1      -0.108  44.672  54.943  1.00  0.00    -0.179 NA
ATOM     21  C   UNL     1       0.626  45.509  57.084  1.00  0.00     0.176 C 
BRANCH  15  22
ATOM     22  N   UNL     1       3.044  44.018  51.669  1.00  0.00    -0.338 N 
ATOM     23  H   UNL     1       2.834  44.863  51.133  1.00  0.00     0.168 HD
BRANCH  22  24
ATOM     24  C   UNL     1       4.119  43.306  51.081  1.00  0.00     0.060 A 
ATOM     25  C   UNL     1       4.103  41.905  51.149  1.00  0.00     0.028 A 
ATOM     26  C   UNL     1       5.219  43.953  50.480  1.00  0.00     0.083 A 
ATOM     27  C   UNL     1       5.155  41.153  50.627  1.00  0.00     0.004 A 
ATOM     28  C   UNL     1       6.274  43.192  49.956  1.00  0.00     0.061 A 
ATOM     29  C   UNL     1       6.239  41.796  50.033  1.00  0.00     0.022 A 
ATOM     30  Cl  UNL     1       5.230  45.686  50.383  1.00  0.00    -0.080 Cl
ATOM     31  Cl  UNL     1       7.654  43.911  49.201  1.00  0.00    -0.083 Cl
ENDBRANCH  22  24
ENDBRANCH  15  22
ENDBRANCH   1  12
TORSDOF 6
ENDMDL
MODEL 6
REMARK VINA RESULT:    -9.341      4.822      8.519
REMARK INTER + INTRA:         -13.507
REMARK INTER:                 -12.721
REMARK INTRA:                  -0.786
REMARK UNBOUND:                -0.889
REMARK SMILES COc1ccc(CNc2nc(Nc3cccc(Cl)c3Cl)c3cnn(C)c3n2)cc1
REMARK SMILES IDX 8 1 7 3 6 4 3 5 4 6 29 7 5 8 28 9 2 10 1 11 9 12 10 13 27 14
REMARK SMILES IDX 11 15 26 16 21 17 24 18 22 19 23 20 25 21 12 22 13 24 14 25
REMARK SMILES IDX 19 26 15 27 17 28 16 29 20 30 18 31
REMARK H PARENT 8 2 12 23
ROOT
ATOM      1  N   UNL     1       2.755  44.161  54.071  1.00  0.00    -0.350 N 
ATOM      2  H   UNL     1       3.032  43.420  54.704  1.00  0.00     0.164 HD
ENDROOT
BRANCH   1   3
ATOM      3  C   UNL     1       1.386  44.087  53.606  1.00  0.00     0.152 C 
BRANCH   3   4
ATOM      4  C   UNL     1       0.455  44.368  54.763  1.00  0.00    -0.029 A 
ATOM      5  C   UNL     1      -1.297  44.908  56.904  1.00  0.00     0.118 A 
ATOM      6  C   UNL     1      -1.734  44.180  55.796  1.00  0.00     0.047 A 
ATOM      7  C   UNL     1       0.018  45.371  56.939  1.00  0.00     0.047 A 
ATOM      8  C   UNL     1      -0.870  43.913  54.732  1.00  0.00     0.009 A 
ATOM      9  C   UNL     1       0.888  45.105  55.874  1.00  0.00     0.009 A 
BRANCH   5  10
ATOM     10  O   UNL     1      -2.243  45.098  57.873  1.00  0.00    -0.497 OA
ATOM     11  C   UNL     1      -2.925  46.345  57.869  1.00  0.00     0.278 C 
ENDBRANCH   5  10
ENDBRANCH   3   4
ENDBRANCH   1   3
BRANCH   1  12
ATOM     12  C   UNL     1       3.702  44.210  53.060  1.00  0.00     0.227 A 
ATOM     13  N   UNL     1       4.497  45.291  52.946  1.00  0.00    -0.195 NA
ATOM     14  N   UNL     1       3.735  43.136  52.264  1.00  0.00    -0.193 NA
ATOM     15  C   UNL     1       5.442  45.356  51.974  1.00  0.00     0.147 A 
ATOM     16  C   UNL     1       4.675  43.218  51.312  1.00  0.00     0.165 A 
ATOM     17  C   UNL     1       5.549  44.269  51.101  1.00  0.00     0.082 A 
ATOM     18  N   UNL     1       4.965  42.283  50.358  1.00  0.00    -0.250 N 
ATOM     19  C   UNL     1       6.314  43.858  49.990  1.00  0.00     0.149 A 
ATOM     20  N   UNL     1       5.963  42.654  49.524  1.00  0.00    -0.179 NA
ATOM     21  C   UNL     1       4.331  41.002  50.176  1.00  0.00     0.176 C 
BRANCH  15  22
ATOM     22  N   UNL     1       6.218  46.537  51.962  1.00  0.00    -0.338 N 
ATOM     23  H   UNL     1       5.708  47.147  52.604  1.00  0.00     0.168 HD
BRANCH  22  24
ATOM     24  C   UNL     1       7.610  46.593  52.219  1.00  0.00     0.060 A 
ATOM     25  C   UNL     1       8.492  46.344  51.156  1.00  0.00     0.028 A 
ATOM     26  C   UNL     1       8.136  46.836  53.505  1.00  0.00     0.083 A 
ATOM     27  C   UNL     1       9.871  46.342  51.358  1.00  0.00     0.004 A 
ATOM     28  C   UNL     1       9.524  46.833  53.703  1.00  0.00     0.061 A 
ATOM     29  C   UNL     1      10.386  46.584  52.630  1.00  0.00     0.022 A 
ATOM     30  Cl  UNL     1       7.044  47.158  54.817  1.00  0.00    -0.080 Cl
ATOM     31  Cl  UNL     1      10.244  47.127  55.248  1.00  0.00    -0.083 Cl
ENDBRANCH  22  24
ENDBRANCH  15  22
ENDBRANCH   1  12
TORSDOF 6
ENDMDL
MODEL 7
REMARK VINA RESULT:    -9.214      4.221      8.388
REMARK INTER + INTRA:         -13.335
REMARK INTER:                 -12.368
REMARK INTRA:                  -0.966
REMARK UNBOUND:                -0.889
REMARK SMILES COc1ccc(CNc2nc(Nc3cccc(Cl)c3Cl)c3cnn(C)c3n2)cc1
REMARK SMILES IDX 8 1 7 3 6 4 3 5 4 6 29 7 5 8 28 9 2 10 1 11 9 12 10 13 27 14
REMARK SMILES IDX 11 15 26 16 21 17 24 18 22 19 23 20 25 21 12 22 13 24 14 25
REMARK SMILES IDX 19 26 15 27 17 28 16 29 20 30 18 31
REMARK H PARENT 8 2 12 23
ROOT
ATOM      1  N   UNL     1       5.221  41.413  50.453  1.00  0.00    -0.350 N 
ATOM      2  H   UNL     1       5.569  40.819  51.196  1.00  0.00     0.164 HD
ENDROOT
BRANCH   1   3
ATOM      3  C   UNL     1       6.113  41.563  49.323  1.00  0.00     0.152 C 
BRANCH   3   4
ATOM      4  C   UNL     1       5.333  41.351  48.045  1.00  0.00    -0.029 A 
ATOM      5  C   UNL     1       3.884  40.928  45.665  1.00  0.00     0.118 A 
ATOM      6  C   UNL     1       3.443  40.379  46.871  1.00  0.00     0.047 A 
ATOM      7  C   UNL     1       5.054  41.685  45.649  1.00  0.00     0.047 A 
ATOM      8  C   UNL     1       4.160  40.584  48.052  1.00  0.00     0.009 A 
ATOM      9  C   UNL     1       5.776  41.894  46.832  1.00  0.00     0.009 A 
BRANCH   5  10
ATOM     10  O   UNL     1       3.090  40.650  44.587  1.00  0.00    -0.497 OA
ATOM     11  C   UNL     1       1.717  41.004  44.692  1.00  0.00     0.278 C 
ENDBRANCH   5  10
ENDBRANCH   3   4
ENDBRANCH   1   3
BRANCH   1  12
ATOM     12  C   UNL     1       4.827  42.609  51.035  1.00  0.00     0.227 A 
ATOM     13  N   UNL     1       5.547  43.724  50.811  1.00  0.00    -0.195 NA
ATOM     14  N   UNL     1       3.728  42.533  51.793  1.00  0.00    -0.193 NA
ATOM     15  C   UNL     1       5.173  44.909  51.358  1.00  0.00     0.147 A 
ATOM     16  C   UNL     1       3.376  43.713  52.323  1.00  0.00     0.165 A 
ATOM     17  C   UNL     1       4.029  44.921  52.160  1.00  0.00     0.082 A 
ATOM     18  N   UNL     1       2.299  43.966  53.127  1.00  0.00    -0.250 N 
ATOM     19  C   UNL     1       3.259  45.829  52.917  1.00  0.00     0.149 A 
ATOM     20  N   UNL     1       2.209  45.258  53.516  1.00  0.00    -0.179 NA
ATOM     21  C   UNL     1       1.306  43.022  53.572  1.00  0.00     0.176 C 
BRANCH  15  22
ATOM     22  N   UNL     1       6.004  46.009  51.043  1.00  0.00    -0.338 N 
ATOM     23  H   UNL     1       5.398  46.810  51.233  1.00  0.00     0.168 HD
BRANCH  22  24
ATOM     24  C   UNL     1       7.299  46.224  51.577  1.00  0.00     0.060 A 
ATOM     25  C   UNL     1       8.399  45.706  50.879  1.00  0.00     0.028 A 
ATOM     26  C   UNL     1       7.513  46.891  52.802  1.00  0.00     0.083 A 
ATOM     27  C   UNL     1       9.693  45.848  51.379  1.00  0.00     0.004 A 
ATOM     28  C   UNL     1       8.817  47.031  53.300  1.00  0.00     0.061 A 
ATOM     29  C   UNL     1       9.901  46.508  52.588  1.00  0.00     0.022 A 
ATOM     30  Cl  UNL     1       6.152  47.545  53.658  1.00  0.00    -0.080 Cl
ATOM     31  Cl  UNL     1       9.161  47.839  54.790  1.00  0.00    -0.083 Cl
ENDBRANCH  22  24
ENDBRANCH  15  22
ENDBRANCH   1  12
TORSDOF 6
ENDMDL
MODEL 8
REMARK VINA RESULT:    -9.125      4.855      8.781
REMARK INTER + INTRA:         -13.215
REMARK INTER:                 -12.185
REMARK INTRA:                  -1.030
REMARK UNBOUND:                -0.889
REMARK SMILES COc1ccc(CNc2nc(Nc3cccc(Cl)c3Cl)c3cnn(C)c3n2)cc1
REMARK SMILES IDX 8 1 7 3 6 4 3 5 4 6 29 7 5 8 28 9 2 10 1 11 9 12 10 13 27 14
REMARK SMILES IDX 11 15 26 16 21 17 24 18 22 19 23 20 25 21 12 22 13 24 14 25
REMARK SMILES IDX 19 26 15 27 17 28 16 29 20 30 18 31
REMARK H PARENT 8 2 12 23
ROOT
ATOM      1  N   UNL     1       2.910  44.515  54.343  1.00  0.00    -0.350 N 
ATOM      2  H   UNL     1       2.534  43.579  54.439  1.00  0.00     0.164 HD
ENDROOT
BRANCH   1   3
ATOM      3  C   UNL     1       1.917  45.566  54.269  1.00  0.00     0.152 C 
BRANCH   3   4
ATOM      4  C   UNL     1       0.555  44.945  54.060  1.00  0.00    -0.029 A 
ATOM      5  C   UNL     1      -1.996  43.812  53.662  1.00  0.00     0.118 A 
ATOM      6  C   UNL     1      -1.282  44.349  52.588  1.00  0.00     0.047 A 
ATOM      7  C   UNL     1      -1.434  43.848  54.937  1.00  0.00     0.047 A 
ATOM      8  C   UNL     1      -0.020  44.913  52.782  1.00  0.00     0.009 A 
ATOM      9  C   UNL     1      -0.167  44.412  55.136  1.00  0.00     0.009 A 
BRANCH   5  10
ATOM     10  O   UNL     1      -3.217  43.292  53.333  1.00  0.00    -0.497 OA
ATOM     11  C   UNL     1      -3.443  43.003  51.960  1.00  0.00     0.278 C 
ENDBRANCH   5  10
ENDBRANCH   3   4
ENDBRANCH   1   3
BRANCH   1  12
ATOM     12  C   UNL     1       3.800  44.491  53.281  1.00  0.00     0.227 A 
ATOM     13  N   UNL     1       4.628  45.533  53.085  1.00  0.00    -0.195 NA
ATOM     14  N   UNL     1       3.745  43.390  52.523  1.00  0.00    -0.193 NA
ATOM     15  C   UNL     1       5.519  45.527  52.061  1.00  0.00     0.147 A 
ATOM     16  C   UNL     1       4.633  43.402  51.518  1.00  0.00     0.165 A 
ATOM     17  C   UNL     1       5.534  44.408  51.222  1.00  0.00     0.082 A 
ATOM     18  N   UNL     1       4.832  42.424  50.583  1.00  0.00    -0.250 N 
ATOM     19  C   UNL     1       6.219  43.929  50.086  1.00  0.00     0.149 A 
ATOM     20  N   UNL     1       5.796  42.726  49.684  1.00  0.00    -0.179 NA
ATOM     21  C   UNL     1       4.138  41.165  50.482  1.00  0.00     0.176 C 
BRANCH  15  22
ATOM     22  N   UNL     1       6.339  46.674  51.964  1.00  0.00    -0.338 N 
ATOM     23  H   UNL     1       5.834  47.360  52.530  1.00  0.00     0.168 HD
BRANCH  22  24
ATOM     24  C   UNL     1       7.725  46.705  52.260  1.00  0.00     0.060 A 
ATOM     25  C   UNL     1       8.630  46.403  51.232  1.00  0.00     0.028 A 
ATOM     26  C   UNL     1       8.219  46.976  53.553  1.00  0.00     0.083 A 
ATOM     27  C   UNL     1      10.003  46.375  51.474  1.00  0.00     0.004 A 
ATOM     28  C   UNL     1       9.600  46.947  53.792  1.00  0.00     0.061 A 
ATOM     29  C   UNL     1      10.486  46.645  52.753  1.00  0.00     0.022 A 
ATOM     30  Cl  UNL     1       7.098  47.364  54.822  1.00  0.00    -0.080 Cl
ATOM     31  Cl  UNL     1      10.283  47.272  55.348  1.00  0.00    -0.083 Cl
ENDBRANCH  22  24
ENDBRANCH  15  22
ENDBRANCH   1  12
TORSDOF 6
ENDMDL
MODEL 9
REMARK VINA RESULT:    -9.113      3.631      6.905
REMARK INTER + INTRA:         -13.198
REMARK INTER:                 -12.053
REMARK INTRA:                  -1.145
REMARK UNBOUND:                -0.889
REMARK SMILES COc1ccc(CNc2nc(Nc3cccc(Cl)c3Cl)c3cnn(C)c3n2)cc1
REMARK SMILES IDX 8 1 7 3 6 4 3 5 4 6 29 7 5 8 28 9 2 10 1 11 9 12 10 13 27 14
REMARK SMILES IDX 11 15 26 16 21 17 24 18 22 19 23 20 25 21 12 22 13 24 14 25
REMARK SMILES IDX 19 26 15 27 17 28 16 29 20 30 18 31
REMARK H PARENT 8 2 12 23
ROOT
ATOM      1  N   UNL     1       4.322  46.923  54.974  1.00  0.00    -0.350 N 
ATOM      2  H   UNL     1       4.504  47.742  55.541  1.00  0.00     0.164 HD
ENDROOT
BRANCH   1   3
ATOM      3  C   UNL     1       4.015  45.720  55.719  1.00  0.00     0.152 C 
BRANCH   3   4
ATOM      4  C   UNL     1       2.585  45.317  55.439  1.00  0.00    -0.029 A 
ATOM      5  C   UNL     1      -0.080  44.549  54.940  1.00  0.00     0.118 A 
ATOM      6  C   UNL     1       0.248  45.266  56.093  1.00  0.00     0.047 A 
ATOM      7  C   UNL     1       0.929  44.211  54.039  1.00  0.00     0.047 A 
ATOM      8  C   UNL     1       1.567  45.646  56.345  1.00  0.00     0.009 A 
ATOM      9  C   UNL     1       2.254  44.591  54.288  1.00  0.00     0.009 A 
BRANCH   5  10
ATOM     10  O   UNL     1      -1.407  44.241  54.817  1.00  0.00    -0.497 OA
ATOM     11  C   UNL     1      -2.120  43.981  56.018  1.00  0.00     0.278 C 
ENDBRANCH   5  10
ENDBRANCH   3   4
ENDBRANCH   1   3
BRANCH   1  12
ATOM     12  C   UNL     1       5.383  46.794  54.091  1.00  0.00     0.227 A 
ATOM     13  N   UNL     1       5.169  46.279  52.866  1.00  0.00    -0.195 NA
ATOM     14  N   UNL     1       6.564  47.211  54.562  1.00  0.00    -0.193 NA
ATOM     15  C   UNL     1       6.189  46.158  51.978  1.00  0.00     0.147 A 
ATOM     16  C   UNL     1       7.557  47.084  53.670  1.00  0.00     0.165 A 
ATOM     17  C   UNL     1       7.458  46.577  52.387  1.00  0.00     0.082 A 
ATOM     18  N   UNL     1       8.869  47.430  53.844  1.00  0.00    -0.250 N 
ATOM     19  C   UNL     1       8.773  46.662  51.884  1.00  0.00     0.149 A 
ATOM     20  N   UNL     1       9.641  47.172  52.764  1.00  0.00    -0.179 NA
ATOM     21  C   UNL     1       9.465  48.016  55.018  1.00  0.00     0.176 C 
BRANCH  15  22
ATOM     22  N   UNL     1       5.837  45.611  50.723  1.00  0.00    -0.338 N 
ATOM     23  H   UNL     1       6.363  46.193  50.068  1.00  0.00     0.168 HD
BRANCH  22  24
ATOM     24  C   UNL     1       5.951  44.241  50.376  1.00  0.00     0.060 A 
ATOM     25  C   UNL     1       7.160  43.795  49.826  1.00  0.00     0.028 A 
ATOM     26  C   UNL     1       4.881  43.332  50.516  1.00  0.00     0.083 A 
ATOM     27  C   UNL     1       7.317  42.468  49.424  1.00  0.00     0.004 A 
ATOM     28  C   UNL     1       5.043  41.998  50.111  1.00  0.00     0.061 A 
ATOM     29  C   UNL     1       6.259  41.573  49.565  1.00  0.00     0.022 A 
ATOM     30  Cl  UNL     1       3.389  43.882  51.211  1.00  0.00    -0.080 Cl
ATOM     31  Cl  UNL     1       3.782  40.823  50.254  1.00  0.00    -0.083 Cl
ENDBRANCH  22  24
ENDBRANCH  15  22
ENDBRANCH   1  12
TORSDOF 6
ENDMDL
MODEL 10
REMARK VINA RESULT:    -9.086      3.248      5.349
REMARK INTER + INTRA:         -13.162
REMARK INTER:                 -12.550
REMARK INTRA:                  -0.612
REMARK UNBOUND:                -0.889
REMARK SMILES COc1ccc(CNc2nc(Nc3cccc(Cl)c3Cl)c3cnn(C)c3n2)cc1
REMARK SMILES IDX 8 1 7 3 6 4 3 5 4 6 29 7 5 8 28 9 2 10 1 11 9 12 10 13 27 14
REMARK SMILES IDX 11 15 26 16 21 17 24 18 22 19 23 20 25 21 12 22 13 24 14 25
REMARK SMILES IDX 19 26 15 27 17 28 16 29 20 30 18 31
REMARK H PARENT 8 2 12 23
ROOT
ATOM      1  N   UNL     1       6.370  46.128  50.895  1.00  0.00    -0.350 N 
ATOM      2  H   UNL     1       5.986  46.582  50.074  1.00  0.00     0.164 HD
ENDROOT
BRANCH   1   3
ATOM      3  C   UNL     1       7.805  45.942  50.875  1.00  0.00     0.152 C 
BRANCH   3   4
ATOM      4  C   UNL     1       8.392  46.479  52.160  1.00  0.00    -0.029 A 
ATOM      5  C   UNL     1       9.477  47.506  54.550  1.00  0.00     0.118 A 
ATOM      6  C   UNL     1       8.102  47.563  54.313  1.00  0.00     0.047 A 
ATOM      7  C   UNL     1      10.311  46.939  53.587  1.00  0.00     0.047 A 
ATOM      8  C   UNL     1       7.561  47.057  53.129  1.00  0.00     0.009 A 
ATOM      9  C   UNL     1       9.772  46.430  52.398  1.00  0.00     0.009 A 
BRANCH   5  10
ATOM     10  O   UNL     1       9.873  48.036  55.747  1.00  0.00    -0.497 OA
ATOM     11  C   UNL     1      11.078  47.531  56.307  1.00  0.00     0.278 C 
ENDBRANCH   5  10
ENDBRANCH   3   4
ENDBRANCH   1   3
BRANCH   1  12
ATOM     12  C   UNL     1       5.643  44.965  51.096  1.00  0.00     0.227 A 
ATOM     13  N   UNL     1       4.794  44.883  52.137  1.00  0.00    -0.195 NA
ATOM     14  N   UNL     1       5.867  43.997  50.200  1.00  0.00    -0.193 NA
ATOM     15  C   UNL     1       4.060  43.761  52.345  1.00  0.00     0.147 A 
ATOM     16  C   UNL     1       5.133  42.898  50.422  1.00  0.00     0.165 A 
ATOM     17  C   UNL     1       4.227  42.701  51.449  1.00  0.00     0.082 A 
ATOM     18  N   UNL     1       5.124  41.749  49.681  1.00  0.00    -0.250 N 
ATOM     19  C   UNL     1       3.740  41.397  51.228  1.00  0.00     0.149 A 
ATOM     20  N   UNL     1       4.283  40.804  50.159  1.00  0.00    -0.179 NA
ATOM     21  C   UNL     1       5.895  41.475  48.494  1.00  0.00     0.176 C 
BRANCH  15  22
ATOM     22  N   UNL     1       3.199  43.800  53.466  1.00  0.00    -0.338 N 
ATOM     23  H   UNL     1       3.594  44.557  54.027  1.00  0.00     0.168 HD
BRANCH  22  24
ATOM     24  C   UNL     1       1.787  43.912  53.398  1.00  0.00     0.060 A 
ATOM     25  C   UNL     1       1.153  43.581  52.192  1.00  0.00     0.028 A 
ATOM     26  C   UNL     1       1.012  44.390  54.475  1.00  0.00     0.083 A 
ATOM     27  C   UNL     1      -0.229  43.713  52.052  1.00  0.00     0.004 A 
ATOM     28  C   UNL     1      -0.377  44.522  54.329  1.00  0.00     0.061 A 
ATOM     29  C   UNL     1      -0.991  44.184  53.118  1.00  0.00     0.022 A 
ATOM     30  Cl  UNL     1       1.797  44.785  55.972  1.00  0.00    -0.080 Cl
ATOM     31  Cl  UNL     1      -1.396  45.095  55.604  1.00  0.00    -0.083 Cl
ENDBRANCH  22  24
ENDBRANCH  15  22
ENDBRANCH   1  12
TORSDOF 6
ENDMDL
MODEL 11
REMARK VINA RESULT:    -9.043      4.406      8.214
REMARK INTER + INTRA:         -13.105
REMARK INTER:                 -12.441
REMARK INTRA:                  -0.664
REMARK UNBOUND:                -0.889
REMARK SMILES COc1ccc(CNc2nc(Nc3cccc(Cl)c3Cl)c3cnn(C)c3n2)cc1
REMARK SMILES IDX 8 1 7 3 6 4 3 5 4 6 29 7 5 8 28 9 2 10 1 11 9 12 10 13 27 14
REMARK SMILES IDX 11 15 26 16 21 17 24 18 22 19 23 20 25 21 12 22 13 24 14 25
REMARK SMILES IDX 19 26 15 27 17 28 16 29 20 30 18 31
REMARK H PARENT 8 2 12 23
ROOT
ATOM      1  N   UNL     1       3.704  41.187  50.755  1.00  0.00    -0.350 N 
ATOM      2  H   UNL     1       3.568  40.484  51.472  1.00  0.00     0.164 HD
ENDROOT
BRANCH   1   3
ATOM      3  C   UNL     1       5.012  41.182  50.134  1.00  0.00     0.152 C 
BRANCH   3   4
ATOM      4  C   UNL     1       4.845  41.136  48.632  1.00  0.00    -0.029 A 
ATOM      5  C   UNL     1       4.530  41.078  45.832  1.00  0.00     0.118 A 
ATOM      6  C   UNL     1       5.571  41.804  46.414  1.00  0.00     0.047 A 
ATOM      7  C   UNL     1       3.642  40.384  46.653  1.00  0.00     0.047 A 
ATOM      8  C   UNL     1       5.728  41.838  47.801  1.00  0.00     0.009 A 
ATOM      9  C   UNL     1       3.798  40.414  48.045  1.00  0.00     0.009 A 
BRANCH   5  10
ATOM     10  O   UNL     1       4.491  41.130  44.466  1.00  0.00    -0.497 OA
ATOM     11  C   UNL     1       5.462  40.365  43.766  1.00  0.00     0.278 C 
ENDBRANCH   5  10
ENDBRANCH   3   4
ENDBRANCH   1   3
BRANCH   1  12
ATOM     12  C   UNL     1       3.335  42.406  51.303  1.00  0.00     0.227 A 
ATOM     13  N   UNL     1       4.253  43.149  51.949  1.00  0.00    -0.195 NA
ATOM     14  N   UNL     1       2.050  42.737  51.131  1.00  0.00    -0.193 NA
ATOM     15  C   UNL     1       3.920  44.352  52.481  1.00  0.00     0.147 A 
ATOM     16  C   UNL     1       1.742  43.929  51.662  1.00  0.00     0.165 A 
ATOM     17  C   UNL     1       2.596  44.780  52.339  1.00  0.00     0.082 A 
ATOM     18  N   UNL     1       0.523  44.549  51.642  1.00  0.00    -0.250 N 
ATOM     19  C   UNL     1       1.782  45.877  52.685  1.00  0.00     0.149 A 
ATOM     20  N   UNL     1       0.516  45.745  52.272  1.00  0.00    -0.179 NA
ATOM     21  C   UNL     1      -0.690  44.061  51.035  1.00  0.00     0.176 C 
BRANCH  15  22
ATOM     22  N   UNL     1       4.972  45.040  53.127  1.00  0.00    -0.338 N 
ATOM     23  H   UNL     1       5.207  44.416  53.902  1.00  0.00     0.168 HD
BRANCH  22  24
ATOM     24  C   UNL     1       6.147  45.506  52.487  1.00  0.00     0.060 A 
ATOM     25  C   UNL     1       6.329  45.202  51.130  1.00  0.00     0.028 A 
ATOM     26  C   UNL     1       7.156  46.214  53.174  1.00  0.00     0.083 A 
ATOM     27  C   UNL     1       7.486  45.595  50.458  1.00  0.00     0.004 A 
ATOM     28  C   UNL     1       8.318  46.608  52.494  1.00  0.00     0.061 A 
ATOM     29  C   UNL     1       8.479  46.295  51.140  1.00  0.00     0.022 A 
ATOM     30  Cl  UNL     1       6.924  46.604  54.850  1.00  0.00    -0.080 Cl
ATOM     31  Cl  UNL     1       9.596  47.482  53.264  1.00  0.00    -0.083 Cl
ENDBRANCH  22  24
ENDBRANCH  15  22
ENDBRANCH   1  12
TORSDOF 6
ENDMDL
MODEL 12
REMARK VINA RESULT:    -9.021      4.932      7.933
REMARK INTER + INTRA:         -13.074
REMARK INTER:                 -11.550
REMARK INTRA:                  -1.525
REMARK UNBOUND:                -0.889
REMARK SMILES COc1ccc(CNc2nc(Nc3cccc(Cl)c3Cl)c3cnn(C)c3n2)cc1
REMARK SMILES IDX 8 1 7 3 6 4 3 5 4 6 29 7 5 8 28 9 2 10 1 11 9 12 10 13 27 14
REMARK SMILES IDX 11 15 26 16 21 17 24 18 22 19 23 20 25 21 12 22 13 24 14 25
REMARK SMILES IDX 19 26 15 27 17 28 16 29 20 30 18 31
REMARK H PARENT 8 2 12 23
ROOT
ATOM      1  N   UNL     1       1.384  43.206  52.584  1.00  0.00    -0.350 N 
ATOM      2  H   UNL     1       2.111  42.515  52.729  1.00  0.00     0.164 HD
ENDROOT
BRANCH   1   3
ATOM      3  C   UNL     1       1.549  44.027  51.402  1.00  0.00     0.152 C 
BRANCH   3   4
ATOM      4  C   UNL     1       3.023  44.265  51.168  1.00  0.00    -0.029 A 
ATOM      5  C   UNL     1       5.767  44.716  50.705  1.00  0.00     0.118 A 
ATOM      6  C   UNL     1       4.854  45.772  50.648  1.00  0.00     0.047 A 
ATOM      7  C   UNL     1       5.304  43.431  50.988  1.00  0.00     0.047 A 
ATOM      8  C   UNL     1       3.494  45.552  50.875  1.00  0.00     0.009 A 
ATOM      9  C   UNL     1       3.940  43.206  51.216  1.00  0.00     0.009 A 
BRANCH   5  10
ATOM     10  O   UNL     1       7.065  45.070  50.463  1.00  0.00    -0.497 OA
ATOM     11  C   UNL     1       7.813  44.221  49.603  1.00  0.00     0.278 C 
ENDBRANCH   5  10
ENDBRANCH   3   4
ENDBRANCH   1   3
BRANCH   1  12
ATOM     12  C   UNL     1       1.259  43.921  53.765  1.00  0.00     0.227 A 
ATOM     13  N   UNL     1       2.287  44.676  54.197  1.00  0.00    -0.195 NA
ATOM     14  N   UNL     1       0.082  43.785  54.387  1.00  0.00    -0.193 NA
ATOM     15  C   UNL     1       2.184  45.396  55.342  1.00  0.00     0.147 A 
ATOM     16  C   UNL     1      -0.000  44.505  55.514  1.00  0.00     0.165 A 
ATOM     17  C   UNL     1       0.982  45.317  56.051  1.00  0.00     0.082 A 
ATOM     18  N   UNL     1      -1.070  44.588  56.362  1.00  0.00    -0.250 N 
ATOM     19  C   UNL     1       0.394  45.832  57.225  1.00  0.00     0.149 A 
ATOM     20  N   UNL     1      -0.852  45.390  57.429  1.00  0.00    -0.179 NA
ATOM     21  C   UNL     1      -2.343  43.927  56.221  1.00  0.00     0.176 C 
BRANCH  15  22
ATOM     22  N   UNL     1       3.326  46.154  55.685  1.00  0.00    -0.338 N 
ATOM     23  H   UNL     1       3.399  46.007  56.694  1.00  0.00     0.168 HD
BRANCH  22  24
ATOM     24  C   UNL     1       4.596  46.029  55.068  1.00  0.00     0.060 A 
ATOM     25  C   UNL     1       5.395  44.929  55.412  1.00  0.00     0.028 A 
ATOM     26  C   UNL     1       5.101  46.991  54.168  1.00  0.00     0.083 A 
ATOM     27  C   UNL     1       6.671  44.776  54.872  1.00  0.00     0.004 A 
ATOM     28  C   UNL     1       6.385  46.833  53.627  1.00  0.00     0.061 A 
ATOM     29  C   UNL     1       7.165  45.728  53.982  1.00  0.00     0.022 A 
ATOM     30  Cl  UNL     1       4.105  48.345  53.732  1.00  0.00    -0.080 Cl
ATOM     31  Cl  UNL     1       7.071  47.966  52.514  1.00  0.00    -0.083 Cl
ENDBRANCH  22  24
ENDBRANCH  15  22
ENDBRANCH   1  12
TORSDOF 6
ENDMDL
MODEL 13
REMARK VINA RESULT:    -8.996      3.436      6.751
REMARK INTER + INTRA:         -13.041
REMARK INTER:                 -12.206
REMARK INTRA:                  -0.835
REMARK UNBOUND:                -0.889
REMARK SMILES COc1ccc(CNc2nc(Nc3cccc(Cl)c3Cl)c3cnn(C)c3n2)cc1
REMARK SMILES IDX 8 1 7 3 6 4 3 5 4 6 29 7 5 8 28 9 2 10 1 11 9 12 10 13 27 14
REMARK SMILES IDX 11 15 26 16 21 17 24 18 22 19 23 20 25 21 12 22 13 24 14 25
REMARK SMILES IDX 19 26 15 27 17 28 16 29 20 30 18 31
REMARK H PARENT 8 2 12 23
ROOT
ATOM      1  N   UNL     1       5.064  47.147  54.959  1.00  0.00    -0.350 N 
ATOM      2  H   UNL     1       4.840  46.308  55.482  1.00  0.00     0.164 HD
ENDROOT
BRANCH   1   3
ATOM      3  C   UNL     1       3.969  47.694  54.186  1.00  0.00     0.152 C 
BRANCH   3   4
ATOM      4  C   UNL     1       3.023  46.576  53.809  1.00  0.00    -0.029 A 
ATOM      5  C   UNL     1       1.240  44.511  53.106  1.00  0.00     0.118 A 
ATOM      6  C   UNL     1       1.488  45.565  52.224  1.00  0.00     0.047 A 
ATOM      7  C   UNL     1       1.881  44.493  54.343  1.00  0.00     0.047 A 
ATOM      8  C   UNL     1       2.369  46.591  52.570  1.00  0.00     0.009 A 
ATOM      9  C   UNL     1       2.766  45.521  54.694  1.00  0.00     0.009 A 
BRANCH   5  10
ATOM     10  O   UNL     1       0.357  43.574  52.642  1.00  0.00    -0.497 OA
ATOM     11  C   UNL     1       0.227  42.382  53.404  1.00  0.00     0.278 C 
ENDBRANCH   5  10
ENDBRANCH   3   4
ENDBRANCH   1   3
BRANCH   1  12
ATOM     12  C   UNL     1       6.207  46.878  54.223  1.00  0.00     0.227 A 
ATOM     13  N   UNL     1       6.096  46.300  53.012  1.00  0.00    -0.195 NA
ATOM     14  N   UNL     1       7.355  47.231  54.812  1.00  0.00    -0.193 NA
ATOM     15  C   UNL     1       7.200  46.040  52.266  1.00  0.00     0.147 A 
ATOM     16  C   UNL     1       8.432  46.968  54.059  1.00  0.00     0.165 A 
ATOM     17  C   UNL     1       8.443  46.386  52.804  1.00  0.00     0.082 A 
ATOM     18  N   UNL     1       9.739  47.222  54.372  1.00  0.00    -0.250 N 
ATOM     19  C   UNL     1       9.810  46.334  52.464  1.00  0.00     0.149 A 
ATOM     20  N   UNL     1      10.609  46.833  53.413  1.00  0.00    -0.179 NA
ATOM     21  C   UNL     1      10.239  47.837  55.576  1.00  0.00     0.176 C 
BRANCH  15  22
ATOM     22  N   UNL     1       6.953  45.439  51.011  1.00  0.00    -0.338 N 
ATOM     23  H   UNL     1       7.896  45.245  50.665  1.00  0.00     0.168 HD
BRANCH  22  24
ATOM     24  C   UNL     1       6.105  44.323  50.800  1.00  0.00     0.060 A 
ATOM     25  C   UNL     1       5.026  44.135  51.675  1.00  0.00     0.028 A 
ATOM     26  C   UNL     1       6.337  43.375  49.781  1.00  0.00     0.083 A 
ATOM     27  C   UNL     1       4.183  43.032  51.545  1.00  0.00     0.004 A 
ATOM     28  C   UNL     1       5.486  42.267  49.653  1.00  0.00     0.061 A 
ATOM     29  C   UNL     1       4.414  42.099  50.536  1.00  0.00     0.022 A 
ATOM     30  Cl  UNL     1       7.664  43.616  48.688  1.00  0.00    -0.080 Cl
ATOM     31  Cl  UNL     1       5.702  41.066  48.428  1.00  0.00    -0.083 Cl
ENDBRANCH  22  24
ENDBRANCH  15  22
ENDBRANCH   1  12
TORSDOF 6
ENDMDL
MODEL 14
REMARK VINA RESULT:    -8.923      3.405      7.614
REMARK INTER + INTRA:         -12.942
REMARK INTER:                 -11.602
REMARK INTRA:                  -1.340
REMARK UNBOUND:                -0.889
REMARK SMILES COc1ccc(CNc2nc(Nc3cccc(Cl)c3Cl)c3cnn(C)c3n2)cc1
REMARK SMILES IDX 8 1 7 3 6 4 3 5 4 6 29 7 5 8 28 9 2 10 1 11 9 12 10 13 27 14
REMARK SMILES IDX 11 15 26 16 21 17 24 18 22 19 23 20 25 21 12 22 13 24 14 25
REMARK SMILES IDX 19 26 15 27 17 28 16 29 20 30 18 31
REMARK H PARENT 8 2 12 23
ROOT
ATOM      1  N   UNL     1       7.361  44.768  49.466  1.00  0.00    -0.350 N 
ATOM      2  H   UNL     1       6.615  44.945  48.803  1.00  0.00     0.164 HD
ENDROOT
BRANCH   1   3
ATOM      3  C   UNL     1       7.723  43.374  49.617  1.00  0.00     0.152 C 
BRANCH   3   4
ATOM      4  C   UNL     1       6.528  42.513  49.275  1.00  0.00    -0.029 A 
ATOM      5  C   UNL     1       4.313  40.886  48.651  1.00  0.00     0.118 A 
ATOM      6  C   UNL     1       4.611  41.200  49.979  1.00  0.00     0.047 A 
ATOM      7  C   UNL     1       5.128  41.383  47.635  1.00  0.00     0.047 A 
ATOM      8  C   UNL     1       5.710  42.003  50.292  1.00  0.00     0.009 A 
ATOM      9  C   UNL     1       6.230  42.190  47.945  1.00  0.00     0.009 A 
BRANCH   5  10
ATOM     10  O   UNL     1       3.212  40.092  48.485  1.00  0.00    -0.497 OA
ATOM     11  C   UNL     1       3.211  39.223  47.361  1.00  0.00     0.278 C 
ENDBRANCH   5  10
ENDBRANCH   3   4
ENDBRANCH   1   3
BRANCH   1  12
ATOM     12  C   UNL     1       7.016  45.402  50.649  1.00  0.00     0.227 A 
ATOM     13  N   UNL     1       5.721  45.658  50.912  1.00  0.00    -0.195 NA
ATOM     14  N   UNL     1       8.045  45.712  51.445  1.00  0.00    -0.193 NA
ATOM     15  C   UNL     1       5.356  46.265  52.070  1.00  0.00     0.147 A 
ATOM     16  C   UNL     1       7.665  46.309  52.584  1.00  0.00     0.165 A 
ATOM     17  C   UNL     1       6.371  46.616  52.965  1.00  0.00     0.082 A 
ATOM     18  N   UNL     1       8.474  46.732  53.602  1.00  0.00    -0.250 N 
ATOM     19  C   UNL     1       6.524  47.228  54.227  1.00  0.00     0.149 A 
ATOM     20  N   UNL     1       7.799  47.310  54.622  1.00  0.00    -0.179 NA
ATOM     21  C   UNL     1       9.908  46.619  53.675  1.00  0.00     0.176 C 
BRANCH  15  22
ATOM     22  N   UNL     1       3.968  46.472  52.235  1.00  0.00    -0.338 N 
ATOM     23  H   UNL     1       3.613  46.386  51.280  1.00  0.00     0.168 HD
BRANCH  22  24
ATOM     24  C   UNL     1       3.145  45.757  53.140  1.00  0.00     0.060 A 
ATOM     25  C   UNL     1       3.055  46.217  54.462  1.00  0.00     0.028 A 
ATOM     26  C   UNL     1       2.460  44.579  52.775  1.00  0.00     0.083 A 
ATOM     27  C   UNL     1       2.297  45.530  55.408  1.00  0.00     0.004 A 
ATOM     28  C   UNL     1       1.697  43.891  53.731  1.00  0.00     0.061 A 
ATOM     29  C   UNL     1       1.620  44.368  55.043  1.00  0.00     0.022 A 
ATOM     30  Cl  UNL     1       2.559  44.017  51.135  1.00  0.00    -0.080 Cl
ATOM     31  Cl  UNL     1       0.826  42.444  53.359  1.00  0.00    -0.083 Cl
ENDBRANCH  22  24
ENDBRANCH  15  22
ENDBRANCH   1  12
TORSDOF 6
ENDMDL
MODEL 15
REMARK VINA RESULT:    -8.799      3.487      7.961
REMARK INTER + INTRA:         -12.775
REMARK INTER:                 -11.457
REMARK INTRA:                  -1.318
REMARK UNBOUND:                -0.889
REMARK SMILES COc1ccc(CNc2nc(Nc3cccc(Cl)c3Cl)c3cnn(C)c3n2)cc1
REMARK SMILES IDX 8 1 7 3 6 4 3 5 4 6 29 7 5 8 28 9 2 10 1 11 9 12 10 13 27 14
REMARK SMILES IDX 11 15 26 16 21 17 24 18 22 19 23 20 25 21 12 22 13 24 14 25
REMARK SMILES IDX 19 26 15 27 17 28 16 29 20 30 18 31
REMARK H PARENT 8 2 12 23
ROOT
ATOM      1  N   UNL     1       6.953  43.745  49.322  1.00  0.00    -0.350 N 
ATOM      2  H   UNL     1       6.343  43.941  48.537  1.00  0.00     0.164 HD
ENDROOT
BRANCH   1   3
ATOM      3  C   UNL     1       6.887  42.388  49.822  1.00  0.00     0.152 C 
BRANCH   3   4
ATOM      4  C   UNL     1       5.729  41.674  49.162  1.00  0.00    -0.029 A 
ATOM      5  C   UNL     1       3.565  40.367  47.917  1.00  0.00     0.118 A 
ATOM      6  C   UNL     1       4.617  40.880  47.155  1.00  0.00     0.047 A 
ATOM      7  C   UNL     1       3.594  40.513  49.303  1.00  0.00     0.047 A 
ATOM      8  C   UNL     1       5.689  41.531  47.768  1.00  0.00     0.009 A 
ATOM      9  C   UNL     1       4.669  41.165  49.922  1.00  0.00     0.009 A 
BRANCH   5  10
ATOM     10  O   UNL     1       2.580  39.755  47.192  1.00  0.00    -0.497 OA
ATOM     11  C   UNL     1       2.726  39.760  45.778  1.00  0.00     0.278 C 
ENDBRANCH   5  10
ENDBRANCH   3   4
ENDBRANCH   1   3
BRANCH   1  12
ATOM     12  C   UNL     1       6.715  44.721  50.278  1.00  0.00     0.227 A 
ATOM     13  N   UNL     1       5.448  45.038  50.602  1.00  0.00    -0.195 NA
ATOM     14  N   UNL     1       7.812  45.275  50.804  1.00  0.00    -0.193 NA
ATOM     15  C   UNL     1       5.189  45.979  51.545  1.00  0.00     0.147 A 
ATOM     16  C   UNL     1       7.536  46.201  51.734  1.00  0.00     0.165 A 
ATOM     17  C   UNL     1       6.281  46.604  52.153  1.00  0.00     0.082 A 
ATOM     18  N   UNL     1       8.435  46.933  52.460  1.00  0.00    -0.250 N 
ATOM     19  C   UNL     1       6.547  47.587  53.129  1.00  0.00     0.149 A 
ATOM     20  N   UNL     1       7.854  47.800  53.320  1.00  0.00    -0.179 NA
ATOM     21  C   UNL     1       9.872  46.860  52.391  1.00  0.00     0.176 C 
BRANCH  15  22
ATOM     22  N   UNL     1       3.820  46.217  51.803  1.00  0.00    -0.338 N 
ATOM     23  H   UNL     1       3.384  46.023  50.899  1.00  0.00     0.168 HD
BRANCH  22  24
ATOM     24  C   UNL     1       3.079  45.621  52.853  1.00  0.00     0.060 A 
ATOM     25  C   UNL     1       3.193  46.167  54.140  1.00  0.00     0.028 A 
ATOM     26  C   UNL     1       2.278  44.475  52.662  1.00  0.00     0.083 A 
ATOM     27  C   UNL     1       2.523  45.597  55.221  1.00  0.00     0.004 A 
ATOM     28  C   UNL     1       1.605  43.905  53.753  1.00  0.00     0.061 A 
ATOM     29  C   UNL     1       1.732  44.466  55.028  1.00  0.00     0.022 A 
ATOM     30  Cl  UNL     1       2.125  43.808  51.067  1.00  0.00    -0.080 Cl
ATOM     31  Cl  UNL     1       0.602  42.504  53.598  1.00  0.00    -0.083 Cl
ENDBRANCH  22  24
ENDBRANCH  15  22
ENDBRANCH   1  12
TORSDOF 6
ENDMDL
MODEL 16
REMARK VINA RESULT:    -8.785      2.796      4.426
REMARK INTER + INTRA:         -12.756
REMARK INTER:                 -12.169
REMARK INTRA:                  -0.587
REMARK UNBOUND:                -0.889
REMARK SMILES COc1ccc(CNc2nc(Nc3cccc(Cl)c3Cl)c3cnn(C)c3n2)cc1
REMARK SMILES IDX 8 1 7 3 6 4 3 5 4 6 29 7 5 8 28 9 2 10 1 11 9 12 10 13 27 14
REMARK SMILES IDX 11 15 26 16 21 17 24 18 22 19 23 20 25 21 12 22 13 24 14 25
REMARK SMILES IDX 19 26 15 27 17 28 16 29 20 30 18 31
REMARK H PARENT 8 2 12 23
ROOT
ATOM      1  N   UNL     1       3.595  46.378  54.509  1.00  0.00    -0.350 N 
ATOM      2  H   UNL     1       3.058  46.906  55.188  1.00  0.00     0.164 HD
ENDROOT
BRANCH   1   3
ATOM      3  C   UNL     1       4.107  47.155  53.399  1.00  0.00     0.152 C 
BRANCH   3   4
ATOM      4  C   UNL     1       5.614  47.047  53.375  1.00  0.00    -0.029 A 
ATOM      5  C   UNL     1       8.424  46.823  53.315  1.00  0.00     0.118 A 
ATOM      6  C   UNL     1       7.703  47.030  52.137  1.00  0.00     0.047 A 
ATOM      7  C   UNL     1       7.737  46.722  54.524  1.00  0.00     0.047 A 
ATOM      8  C   UNL     1       6.311  47.139  52.163  1.00  0.00     0.009 A 
ATOM      9  C   UNL     1       6.340  46.832  54.554  1.00  0.00     0.009 A 
BRANCH   5  10
ATOM     10  O   UNL     1       9.778  46.735  53.148  1.00  0.00    -0.497 OA
ATOM     11  C   UNL     1      10.242  46.325  51.869  1.00  0.00     0.278 C 
ENDBRANCH   5  10
ENDBRANCH   3   4
ENDBRANCH   1   3
BRANCH   1  12
ATOM     12  C   UNL     1       2.824  45.287  54.138  1.00  0.00     0.227 A 
ATOM     13  N   UNL     1       3.375  44.306  53.398  1.00  0.00    -0.195 NA
ATOM     14  N   UNL     1       1.558  45.317  54.568  1.00  0.00    -0.193 NA
ATOM     15  C   UNL     1       2.646  43.221  53.035  1.00  0.00     0.147 A 
ATOM     16  C   UNL     1       0.855  44.236  54.200  1.00  0.00     0.165 A 
ATOM     17  C   UNL     1       1.312  43.167  53.450  1.00  0.00     0.082 A 
ATOM     18  N   UNL     1      -0.453  43.965  54.493  1.00  0.00    -0.250 N 
ATOM     19  C   UNL     1       0.191  42.318  53.349  1.00  0.00     0.149 A 
ATOM     20  N   UNL     1      -0.891  42.796  53.973  1.00  0.00    -0.179 NA
ATOM     21  C   UNL     1      -1.355  44.778  55.268  1.00  0.00     0.176 C 
BRANCH  15  22
ATOM     22  N   UNL     1       3.337  42.257  52.266  1.00  0.00    -0.338 N 
ATOM     23  H   UNL     1       2.578  41.733  51.826  1.00  0.00     0.168 HD
BRANCH  22  24
ATOM     24  C   UNL     1       4.353  42.551  51.323  1.00  0.00     0.060 A 
ATOM     25  C   UNL     1       5.218  43.622  51.590  1.00  0.00     0.028 A 
ATOM     26  C   UNL     1       4.491  41.843  50.110  1.00  0.00     0.083 A 
ATOM     27  C   UNL     1       6.208  43.987  50.679  1.00  0.00     0.004 A 
ATOM     28  C   UNL     1       5.488  42.213  49.196  1.00  0.00     0.061 A 
ATOM     29  C   UNL     1       6.341  43.284  49.483  1.00  0.00     0.022 A 
ATOM     30  Cl  UNL     1       3.430  40.507  49.786  1.00  0.00    -0.080 Cl
ATOM     31  Cl  UNL     1       5.723  41.391  47.693  1.00  0.00    -0.083 Cl
ENDBRANCH  22  24
ENDBRANCH  15  22
ENDBRANCH   1  12
TORSDOF 6
ENDMDL
MODEL 17
REMARK VINA RESULT:    -8.759      3.926      5.574
REMARK INTER + INTRA:         -12.720
REMARK INTER:                 -11.326
REMARK INTRA:                  -1.394
REMARK UNBOUND:                -0.889
REMARK SMILES COc1ccc(CNc2nc(Nc3cccc(Cl)c3Cl)c3cnn(C)c3n2)cc1
REMARK SMILES IDX 8 1 7 3 6 4 3 5 4 6 29 7 5 8 28 9 2 10 1 11 9 12 10 13 27 14
REMARK SMILES IDX 11 15 26 16 21 17 24 18 22 19 23 20 25 21 12 22 13 24 14 25
REMARK SMILES IDX 19 26 15 27 17 28 16 29 20 30 18 31
REMARK H PARENT 8 2 12 23
ROOT
ATOM      1  N   UNL     1       3.216  45.915  55.709  1.00  0.00    -0.350 N 
ATOM      2  H   UNL     1       3.229  46.885  55.415  1.00  0.00     0.164 HD
ENDROOT
BRANCH   1   3
ATOM      3  C   UNL     1       4.504  45.254  55.688  1.00  0.00     0.152 C 
BRANCH   3   4
ATOM      4  C   UNL     1       5.390  45.931  54.666  1.00  0.00    -0.029 A 
ATOM      5  C   UNL     1       7.062  47.191  52.780  1.00  0.00     0.118 A 
ATOM      6  C   UNL     1       7.347  45.900  53.231  1.00  0.00     0.047 A 
ATOM      7  C   UNL     1       5.942  47.854  53.279  1.00  0.00     0.047 A 
ATOM      8  C   UNL     1       6.523  45.274  54.167  1.00  0.00     0.009 A 
ATOM      9  C   UNL     1       5.111  47.228  54.218  1.00  0.00     0.009 A 
BRANCH   5  10
ATOM     10  O   UNL     1       7.950  47.686  51.866  1.00  0.00    -0.497 OA
ATOM     11  C   UNL     1       9.251  47.113  51.858  1.00  0.00     0.278 C 
ENDBRANCH   5  10
ENDBRANCH   3   4
ENDBRANCH   1   3
BRANCH   1  12
ATOM     12  C   UNL     1       2.232  45.277  54.969  1.00  0.00     0.227 A 
ATOM     13  N   UNL     1       2.476  44.946  53.687  1.00  0.00    -0.195 NA
ATOM     14  N   UNL     1       1.091  45.046  55.626  1.00  0.00    -0.193 NA
ATOM     15  C   UNL     1       1.535  44.307  52.946  1.00  0.00     0.147 A 
ATOM     16  C   UNL     1       0.175  44.413  54.879  1.00  0.00     0.165 A 
ATOM     17  C   UNL     1       0.312  44.019  53.561  1.00  0.00     0.082 A 
ATOM     18  N   UNL     1      -1.079  44.027  55.265  1.00  0.00    -0.250 N 
ATOM     19  C   UNL     1      -0.923  43.410  53.256  1.00  0.00     0.149 A 
ATOM     20  N   UNL     1      -1.780  43.416  54.283  1.00  0.00    -0.179 NA
ATOM     21  C   UNL     1      -1.682  44.206  56.561  1.00  0.00     0.176 C 
BRANCH  15  22
ATOM     22  N   UNL     1       1.912  44.005  51.618  1.00  0.00    -0.338 N 
ATOM     23  H   UNL     1       1.736  44.885  51.129  1.00  0.00     0.168 HD
BRANCH  22  24
ATOM     24  C   UNL     1       3.164  43.462  51.236  1.00  0.00     0.060 A 
ATOM     25  C   UNL     1       3.312  42.068  51.242  1.00  0.00     0.028 A 
ATOM     26  C   UNL     1       4.272  44.270  50.903  1.00  0.00     0.083 A 
ATOM     27  C   UNL     1       4.533  41.477  50.918  1.00  0.00     0.004 A 
ATOM     28  C   UNL     1       5.498  43.672  50.578  1.00  0.00     0.061 A 
ATOM     29  C   UNL     1       5.624  42.279  50.588  1.00  0.00     0.022 A 
ATOM     30  Cl  UNL     1       4.083  45.996  50.882  1.00  0.00    -0.080 Cl
ATOM     31  Cl  UNL     1       6.899  44.593  50.155  1.00  0.00    -0.083 Cl
ENDBRANCH  22  24
ENDBRANCH  15  22
ENDBRANCH   1  12
TORSDOF 6
ENDMDL
MODEL 18
REMARK VINA RESULT:    -8.725      3.002      4.403
REMARK INTER + INTRA:         -12.674
REMARK INTER:                 -11.582
REMARK INTRA:                  -1.092
REMARK UNBOUND:                -0.889
REMARK SMILES COc1ccc(CNc2nc(Nc3cccc(Cl)c3Cl)c3cnn(C)c3n2)cc1
REMARK SMILES IDX 8 1 7 3 6 4 3 5 4 6 29 7 5 8 28 9 2 10 1 11 9 12 10 13 27 14
REMARK SMILES IDX 11 15 26 16 21 17 24 18 22 19 23 20 25 21 12 22 13 24 14 25
REMARK SMILES IDX 19 26 15 27 17 28 16 29 20 30 18 31
REMARK H PARENT 8 2 12 23
ROOT
ATOM      1  N   UNL     1       3.286  46.951  53.454  1.00  0.00    -0.350 N 
ATOM      2  H   UNL     1       3.659  47.433  52.644  1.00  0.00     0.164 HD
ENDROOT
BRANCH   1   3
ATOM      3  C   UNL     1       4.231  46.746  54.531  1.00  0.00     0.152 C 
BRANCH   3   4
ATOM      4  C   UNL     1       5.635  46.905  53.993  1.00  0.00    -0.029 A 
ATOM      5  C   UNL     1       8.259  47.218  53.012  1.00  0.00     0.118 A 
ATOM      6  C   UNL     1       8.027  46.555  54.219  1.00  0.00     0.047 A 
ATOM      7  C   UNL     1       7.176  47.730  52.298  1.00  0.00     0.047 A 
ATOM      8  C   UNL     1       6.729  46.400  54.709  1.00  0.00     0.009 A 
ATOM      9  C   UNL     1       5.872  47.577  52.786  1.00  0.00     0.009 A 
BRANCH   5  10
ATOM     10  O   UNL     1       9.574  47.299  52.648  1.00  0.00    -0.497 OA
ATOM     11  C   UNL     1      10.156  46.134  52.079  1.00  0.00     0.278 C 
ENDBRANCH   5  10
ENDBRANCH   3   4
ENDBRANCH   1   3
BRANCH   1  12
ATOM     12  C   UNL     1       2.678  45.792  52.996  1.00  0.00     0.227 A 
ATOM     13  N   UNL     1       3.427  44.701  52.754  1.00  0.00    -0.195 NA
ATOM     14  N   UNL     1       1.353  45.876  52.832  1.00  0.00    -0.193 NA
ATOM     15  C   UNL     1       2.854  43.550  52.319  1.00  0.00     0.147 A 
ATOM     16  C   UNL     1       0.805  44.730  52.404  1.00  0.00     0.165 A 
ATOM     17  C   UNL     1       1.469  43.548  52.129  1.00  0.00     0.082 A 
ATOM     18  N   UNL     1      -0.518  44.492  52.155  1.00  0.00    -0.250 N 
ATOM     19  C   UNL     1       0.445  42.670  51.716  1.00  0.00     0.149 A 
ATOM     20  N   UNL     1      -0.768  43.235  51.721  1.00  0.00    -0.179 NA
ATOM     21  C   UNL     1      -1.611  45.418  52.309  1.00  0.00     0.176 C 
BRANCH  15  22
ATOM     22  N   UNL     1       3.743  42.472  52.109  1.00  0.00    -0.338 N 
ATOM     23  H   UNL     1       3.184  41.662  52.383  1.00  0.00     0.168 HD
BRANCH  22  24
ATOM     24  C   UNL     1       4.432  42.216  50.897  1.00  0.00     0.060 A 
ATOM     25  C   UNL     1       3.974  41.171  50.081  1.00  0.00     0.028 A 
ATOM     26  C   UNL     1       5.583  42.936  50.511  1.00  0.00     0.083 A 
ATOM     27  C   UNL     1       4.638  40.844  48.899  1.00  0.00     0.004 A 
ATOM     28  C   UNL     1       6.247  42.603  49.321  1.00  0.00     0.061 A 
ATOM     29  C   UNL     1       5.773  41.558  48.521  1.00  0.00     0.022 A 
ATOM     30  Cl  UNL     1       6.140  44.239  51.514  1.00  0.00    -0.080 Cl
ATOM     31  Cl  UNL     1       7.660  43.440  48.779  1.00  0.00    -0.083 Cl
ENDBRANCH  22  24
ENDBRANCH  15  22
ENDBRANCH   1  12
TORSDOF 6
ENDMDL
MODEL 19
REMARK VINA RESULT:    -8.700      3.468      5.506
REMARK INTER + INTRA:         -12.642
REMARK INTER:                 -11.409
REMARK INTRA:                  -1.232
REMARK UNBOUND:                -0.889
REMARK SMILES COc1ccc(CNc2nc(Nc3cccc(Cl)c3Cl)c3cnn(C)c3n2)cc1
REMARK SMILES IDX 8 1 7 3 6 4 3 5 4 6 29 7 5 8 28 9 2 10 1 11 9 12 10 13 27 14
REMARK SMILES IDX 11 15 26 16 21 17 24 18 22 19 23 20 25 21 12 22 13 24 14 25
REMARK SMILES IDX 19 26 15 27 17 28 16 29 20 30 18 31
REMARK H PARENT 8 2 12 23
ROOT
ATOM      1  N   UNL     1       2.132  44.585  55.739  1.00  0.00    -0.350 N 
ATOM      2  H   UNL     1       1.509  44.335  56.499  1.00  0.00     0.164 HD
ENDROOT
BRANCH   1   3
ATOM      3  C   UNL     1       2.576  45.963  55.743  1.00  0.00     0.152 C 
BRANCH   3   4
ATOM      4  C   UNL     1       3.977  46.032  55.178  1.00  0.00    -0.029 A 
ATOM      5  C   UNL     1       6.578  46.161  54.100  1.00  0.00     0.118 A 
ATOM      6  C   UNL     1       5.691  47.228  53.943  1.00  0.00     0.047 A 
ATOM      7  C   UNL     1       6.161  45.026  54.794  1.00  0.00     0.047 A 
ATOM      8  C   UNL     1       4.400  47.166  54.473  1.00  0.00     0.009 A 
ATOM      9  C   UNL     1       4.867  44.960  55.328  1.00  0.00     0.009 A 
BRANCH   5  10
ATOM     10  O   UNL     1       7.807  46.352  53.533  1.00  0.00    -0.497 OA
ATOM     11  C   UNL     1       7.971  47.515  52.732  1.00  0.00     0.278 C 
ENDBRANCH   5  10
ENDBRANCH   3   4
ENDBRANCH   1   3
BRANCH   1  12
ATOM     12  C   UNL     1       1.522  44.181  54.562  1.00  0.00     0.227 A 
ATOM     13  N   UNL     1       2.281  43.783  53.524  1.00  0.00    -0.195 NA
ATOM     14  N   UNL     1       0.186  44.231  54.571  1.00  0.00    -0.193 NA
ATOM     15  C   UNL     1       1.708  43.369  52.366  1.00  0.00     0.147 A 
ATOM     16  C   UNL     1      -0.362  43.818  53.419  1.00  0.00     0.165 A 
ATOM     17  C   UNL     1       0.312  43.382  52.293  1.00  0.00     0.082 A 
ATOM     18  N   UNL     1      -1.694  43.739  53.122  1.00  0.00    -0.250 N 
ATOM     19  C   UNL     1      -0.717  43.073  51.379  1.00  0.00     0.149 A 
ATOM     20  N   UNL     1      -1.942  43.293  51.870  1.00  0.00    -0.179 NA
ATOM     21  C   UNL     1      -2.798  44.073  53.987  1.00  0.00     0.176 C 
BRANCH  15  22
ATOM     22  N   UNL     1       2.609  42.967  51.353  1.00  0.00    -0.338 N 
ATOM     23  H   UNL     1       2.008  42.908  50.528  1.00  0.00     0.168 HD
BRANCH  22  24
ATOM     24  C   UNL     1       3.823  43.629  51.042  1.00  0.00     0.060 A 
ATOM     25  C   UNL     1       3.873  45.023  51.180  1.00  0.00     0.028 A 
ATOM     26  C   UNL     1       4.956  42.945  50.552  1.00  0.00     0.083 A 
ATOM     27  C   UNL     1       5.026  45.734  50.846  1.00  0.00     0.004 A 
ATOM     28  C   UNL     1       6.113  43.663  50.218  1.00  0.00     0.061 A 
ATOM     29  C   UNL     1       6.143  45.054  50.364  1.00  0.00     0.022 A 
ATOM     30  Cl  UNL     1       4.898  41.217  50.396  1.00  0.00    -0.080 Cl
ATOM     31  Cl  UNL     1       7.542  42.897  49.617  1.00  0.00    -0.083 Cl
ENDBRANCH  22  24
ENDBRANCH  15  22
ENDBRANCH   1  12
TORSDOF 6
ENDMDL
MODEL 20
REMARK VINA RESULT:    -8.681      5.186      8.722
REMARK INTER + INTRA:         -12.615
REMARK INTER:                 -11.850
REMARK INTRA:                  -0.765
REMARK UNBOUND:                -0.889
REMARK SMILES COc1ccc(CNc2nc(Nc3cccc(Cl)c3Cl)c3cnn(C)c3n2)cc1
REMARK SMILES IDX 8 1 7 3 6 4 3 5 4 6 29 7 5 8 28 9 2 10 1 11 9 12 10 13 27 14
REMARK SMILES IDX 11 15 26 16 21 17 24 18 22 19 23 20 25 21 12 22 13 24 14 25
REMARK SMILES IDX 19 26 15 27 17 28 16 29 20 30 18 31
REMARK H PARENT 8 2 12 23
ROOT
ATOM      1  N   UNL     1       2.733  45.972  56.175  1.00  0.00    -0.350 N 
ATOM      2  H   UNL     1       3.457  45.856  56.874  1.00  0.00     0.164 HD
ENDROOT
BRANCH   1   3
ATOM      3  C   UNL     1       1.516  45.229  56.427  1.00  0.00     0.152 C 
BRANCH   3   4
ATOM      4  C   UNL     1       0.569  46.090  57.232  1.00  0.00    -0.029 A 
ATOM      5  C   UNL     1      -1.192  47.678  58.755  1.00  0.00     0.118 A 
ATOM      6  C   UNL     1       0.162  47.601  59.088  1.00  0.00     0.047 A 
ATOM      7  C   UNL     1      -1.666  46.956  57.661  1.00  0.00     0.047 A 
ATOM      8  C   UNL     1       1.037  46.812  58.338  1.00  0.00     0.009 A 
ATOM      9  C   UNL     1      -0.791  46.164  56.905  1.00  0.00     0.009 A 
BRANCH   5  10
ATOM     10  O   UNL     1      -1.936  48.484  59.571  1.00  0.00    -0.497 OA
ATOM     11  C   UNL     1      -1.310  49.668  60.049  1.00  0.00     0.278 C 
ENDBRANCH   5  10
ENDBRANCH   3   4
ENDBRANCH   1   3
BRANCH   1  12
ATOM     12  C   UNL     1       3.312  45.721  54.941  1.00  0.00     0.227 A 
ATOM     13  N   UNL     1       4.285  46.534  54.487  1.00  0.00    -0.195 NA
ATOM     14  N   UNL     1       2.828  44.655  54.295  1.00  0.00    -0.193 NA
ATOM     15  C   UNL     1       4.878  46.300  53.289  1.00  0.00     0.147 A 
ATOM     16  C   UNL     1       3.427  44.440  53.116  1.00  0.00     0.165 A 
ATOM     17  C   UNL     1       4.437  45.198  52.550  1.00  0.00     0.082 A 
ATOM     18  N   UNL     1       3.168  43.430  52.232  1.00  0.00    -0.250 N 
ATOM     19  C   UNL     1       4.701  44.554  51.324  1.00  0.00     0.149 A 
ATOM     20  N   UNL     1       3.931  43.480  51.116  1.00  0.00    -0.179 NA
ATOM     21  C   UNL     1       2.202  42.371  52.382  1.00  0.00     0.176 C 
BRANCH  15  22
ATOM     22  N   UNL     1       5.890  47.217  52.926  1.00  0.00    -0.338 N 
ATOM     23  H   UNL     1       5.558  48.093  53.336  1.00  0.00     0.168 HD
BRANCH  22  24
ATOM     24  C   UNL     1       7.273  47.039  53.180  1.00  0.00     0.060 A 
ATOM     25  C   UNL     1       7.779  47.458  54.419  1.00  0.00     0.028 A 
ATOM     26  C   UNL     1       8.159  46.508  52.219  1.00  0.00     0.083 A 
ATOM     27  C   UNL     1       9.139  47.349  54.709  1.00  0.00     0.004 A 
ATOM     28  C   UNL     1       9.526  46.401  52.516  1.00  0.00     0.061 A 
ATOM     29  C   UNL     1      10.010  46.823  53.758  1.00  0.00     0.022 A 
ATOM     30  Cl  UNL     1       7.530  45.977  50.691  1.00  0.00    -0.080 Cl
ATOM     31  Cl  UNL     1      10.673  45.756  51.393  1.00  0.00    -0.083 Cl
ENDBRANCH  22  24
ENDBRANCH  15  22
ENDBRANCH   1  12
TORSDOF 6
ENDMDL
