MODEL 1
REMARK VINA RESULT:    -9.541      0.000      0.000
REMARK INTER + INTRA:         -13.839
REMARK INTER:                 -12.887
REMARK INTRA:                  -0.952
REMARK UNBOUND:                -0.952
REMARK SMILES COc1ccc(CNc2nc(Nc3cccc(Cl)c3C)c3cnn(C)c3n2)cc1
REMARK SMILES IDX 8 1 7 3 6 4 3 5 4 6 29 7 5 8 28 9 2 10 1 11 9 12 10 13 27 14
REMARK SMILES IDX 11 15 26 16 21 17 24 18 22 19 23 20 25 21 12 22 13 24 14 25
REMARK SMILES IDX 19 26 15 27 17 28 16 29 20 30 18 31
REMARK H PARENT 8 2 12 23
ROOT
ATOM      1  N   UNL     1       8.024  44.913  50.254  1.00  0.00    -0.350 N 
ATOM      2  H   UNL     1       8.441  44.685  49.358  1.00  0.00     0.164 HD
ENDROOT
BRANCH   1   3
ATOM      3  C   UNL     1       7.773  46.324  50.458  1.00  0.00     0.152 C 
BRANCH   3   4
ATOM      4  C   UNL     1       8.310  46.730  51.813  1.00  0.00    -0.029 A 
ATOM      5  C   UNL     1       9.337  47.500  54.321  1.00  0.00     0.118 A 
ATOM      6  C   UNL     1       8.019  47.801  53.970  1.00  0.00     0.047 A 
ATOM      7  C   UNL     1      10.144  46.816  53.414  1.00  0.00     0.047 A 
ATOM      8  C   UNL     1       7.507  47.424  52.725  1.00  0.00     0.009 A 
ATOM      9  C   UNL     1       9.634  46.436  52.168  1.00  0.00     0.009 A 
BRANCH   5  10
ATOM     10  O   UNL     1       9.707  47.928  55.567  1.00  0.00    -0.497 OA
ATOM     11  C   UNL     1      11.005  47.554  56.013  1.00  0.00     0.278 C 
ENDBRANCH   5  10
ENDBRANCH   3   4
ENDBRANCH   1   3
BRANCH   1  12
ATOM     12  C   UNL     1       6.899  44.111  50.382  1.00  0.00     0.227 A 
ATOM     13  N   UNL     1       6.838  43.087  49.511  1.00  0.00    -0.195 NA
ATOM     14  N   UNL     1       5.988  44.391  51.325  1.00  0.00    -0.193 NA
ATOM     15  C   UNL     1       5.795  42.221  49.546  1.00  0.00     0.147 A 
ATOM     16  C   UNL     1       4.965  43.525  51.335  1.00  0.00     0.165 A 
ATOM     17  C   UNL     1       4.795  42.440  50.497  1.00  0.00     0.082 A 
ATOM     18  N   UNL     1       3.880  43.529  52.170  1.00  0.00    -0.250 N 
ATOM     19  C   UNL     1       3.575  41.868  50.908  1.00  0.00     0.149 A 
ATOM     20  N   UNL     1       3.006  42.526  51.925  1.00  0.00    -0.179 NA
ATOM     21  C   UNL     1       3.607  44.465  53.231  1.00  0.00     0.176 C 
BRANCH  15  22
ATOM     22  N   UNL     1       5.813  41.173  48.605  1.00  0.00    -0.339 N 
ATOM     23  H   UNL     1       5.624  40.327  49.143  1.00  0.00     0.168 HD
BRANCH  22  24
ATOM     24  C   UNL     1       5.104  41.176  47.382  1.00  0.00     0.044 A 
ATOM     25  C   UNL     1       5.632  41.963  46.344  1.00  0.00     0.026 A 
ATOM     26  C   UNL     1       3.938  40.410  47.161  1.00  0.00    -0.009 A 
ATOM     27  C   UNL     1       4.993  42.046  45.111  1.00  0.00     0.004 A 
ATOM     28  C   UNL     1       3.291  40.531  45.915  1.00  0.00     0.046 A 
ATOM     29  C   UNL     1       3.816  41.338  44.901  1.00  0.00     0.021 A 
ATOM     30  C   UNL     1       3.364  39.529  48.242  1.00  0.00     0.048 C 
ATOM     31  Cl  UNL     1       1.810  39.704  45.568  1.00  0.00    -0.084 Cl
ENDBRANCH  22  24
ENDBRANCH  15  22
ENDBRANCH   1  12
TORSDOF 6
ENDMDL
MODEL 2
REMARK VINA RESULT:    -9.519      3.583      6.716
REMARK INTER + INTRA:         -13.809
REMARK INTER:                 -12.702
REMARK INTRA:                  -1.107
REMARK UNBOUND:                -0.952
REMARK SMILES COc1ccc(CNc2nc(Nc3cccc(Cl)c3C)c3cnn(C)c3n2)cc1
REMARK SMILES IDX 8 1 7 3 6 4 3 5 4 6 29 7 5 8 28 9 2 10 1 11 9 12 10 13 27 14
REMARK SMILES IDX 11 15 26 16 21 17 24 18 22 19 23 20 25 21 12 22 13 24 14 25
REMARK SMILES IDX 19 26 15 27 17 28 16 29 20 30 18 31
REMARK H PARENT 8 2 12 23
ROOT
ATOM      1  N   UNL     1       4.954  47.135  54.953  1.00  0.00    -0.350 N 
ATOM      2  H   UNL     1       5.226  47.784  55.684  1.00  0.00     0.164 HD
ENDROOT
BRANCH   1   3
ATOM      3  C   UNL     1       3.788  47.538  54.195  1.00  0.00     0.152 C 
BRANCH   3   4
ATOM      4  C   UNL     1       2.778  46.414  54.210  1.00  0.00    -0.029 A 
ATOM      5  C   UNL     1       0.882  44.329  54.268  1.00  0.00     0.118 A 
ATOM      6  C   UNL     1       0.992  45.159  53.150  1.00  0.00     0.047 A 
ATOM      7  C   UNL     1       1.720  44.544  55.361  1.00  0.00     0.047 A 
ATOM      8  C   UNL     1       1.928  46.196  53.118  1.00  0.00     0.009 A 
ATOM      9  C   UNL     1       2.659  45.581  55.332  1.00  0.00     0.009 A 
BRANCH   5  10
ATOM     10  O   UNL     1      -0.074  43.356  54.164  1.00  0.00    -0.497 OA
ATOM     11  C   UNL     1       0.185  42.297  53.252  1.00  0.00     0.278 C 
ENDBRANCH   5  10
ENDBRANCH   3   4
ENDBRANCH   1   3
BRANCH   1  12
ATOM     12  C   UNL     1       6.085  46.915  54.181  1.00  0.00     0.227 A 
ATOM     13  N   UNL     1       5.837  46.473  52.935  1.00  0.00    -0.195 NA
ATOM     14  N   UNL     1       7.300  47.152  54.699  1.00  0.00    -0.193 NA
ATOM     15  C   UNL     1       6.860  46.237  52.076  1.00  0.00     0.147 A 
ATOM     16  C   UNL     1       8.293  46.905  53.833  1.00  0.00     0.165 A 
ATOM     17  C   UNL     1       8.161  46.453  52.535  1.00  0.00     0.082 A 
ATOM     18  N   UNL     1       9.637  47.048  54.047  1.00  0.00    -0.250 N 
ATOM     19  C   UNL     1       9.486  46.350  52.064  1.00  0.00     0.149 A 
ATOM     20  N   UNL     1      10.394  46.707  52.980  1.00  0.00    -0.179 NA
ATOM     21  C   UNL     1      10.279  47.506  55.254  1.00  0.00     0.176 C 
BRANCH  15  22
ATOM     22  N   UNL     1       6.512  45.783  50.788  1.00  0.00    -0.339 N 
ATOM     23  H   UNL     1       7.086  46.329  50.147  1.00  0.00     0.168 HD
BRANCH  22  24
ATOM     24  C   UNL     1       6.454  44.425  50.400  1.00  0.00     0.044 A 
ATOM     25  C   UNL     1       7.555  43.920  49.688  1.00  0.00     0.026 A 
ATOM     26  C   UNL     1       5.375  43.573  50.724  1.00  0.00    -0.009 A 
ATOM     27  C   UNL     1       7.580  42.601  49.245  1.00  0.00     0.004 A 
ATOM     28  C   UNL     1       5.407  42.249  50.242  1.00  0.00     0.046 A 
ATOM     29  C   UNL     1       6.500  41.769  49.514  1.00  0.00     0.021 A 
ATOM     30  C   UNL     1       4.193  44.073  51.515  1.00  0.00     0.048 C 
ATOM     31  Cl  UNL     1       4.099  41.145  50.508  1.00  0.00    -0.084 Cl
ENDBRANCH  22  24
ENDBRANCH  15  22
ENDBRANCH   1  12
TORSDOF 6
ENDMDL
MODEL 3
REMARK VINA RESULT:    -9.483      4.540      8.350
REMARK INTER + INTRA:         -13.761
REMARK INTER:                 -12.881
REMARK INTRA:                  -0.880
REMARK UNBOUND:                -0.952
REMARK SMILES COc1ccc(CNc2nc(Nc3cccc(Cl)c3C)c3cnn(C)c3n2)cc1
REMARK SMILES IDX 8 1 7 3 6 4 3 5 4 6 29 7 5 8 28 9 2 10 1 11 9 12 10 13 27 14
REMARK SMILES IDX 11 15 26 16 21 17 24 18 22 19 23 20 25 21 12 22 13 24 14 25
REMARK SMILES IDX 19 26 15 27 17 28 16 29 20 30 18 31
REMARK H PARENT 8 2 12 23
ROOT
ATOM      1  N   UNL     1       2.999  44.259  54.176  1.00  0.00    -0.350 N 
ATOM      2  H   UNL     1       3.138  45.173  54.591  1.00  0.00     0.164 HD
ENDROOT
BRANCH   1   3
ATOM      3  C   UNL     1       1.619  43.940  53.877  1.00  0.00     0.152 C 
BRANCH   3   4
ATOM      4  C   UNL     1       0.731  44.538  54.945  1.00  0.00    -0.029 A 
ATOM      5  C   UNL     1      -0.941  45.623  56.937  1.00  0.00     0.118 A 
ATOM      6  C   UNL     1       0.448  45.692  57.060  1.00  0.00     0.047 A 
ATOM      7  C   UNL     1      -1.496  45.007  55.816  1.00  0.00     0.047 A 
ATOM      8  C   UNL     1       1.281  45.152  56.076  1.00  0.00     0.009 A 
ATOM      9  C   UNL     1      -0.665  44.466  54.829  1.00  0.00     0.009 A 
BRANCH   5  10
ATOM     10  O   UNL     1      -1.635  46.190  57.971  1.00  0.00    -0.497 OA
ATOM     11  C   UNL     1      -1.446  47.584  58.181  1.00  0.00     0.278 C 
ENDBRANCH   5  10
ENDBRANCH   3   4
ENDBRANCH   1   3
BRANCH   1  12
ATOM     12  C   UNL     1       3.848  44.188  53.082  1.00  0.00     0.227 A 
ATOM     13  N   UNL     1       4.654  45.254  52.927  1.00  0.00    -0.195 NA
ATOM     14  N   UNL     1       3.818  43.108  52.287  1.00  0.00    -0.193 NA
ATOM     15  C   UNL     1       5.544  45.296  51.904  1.00  0.00     0.147 A 
ATOM     16  C   UNL     1       4.701  43.177  51.280  1.00  0.00     0.165 A 
ATOM     17  C   UNL     1       5.577  44.213  51.022  1.00  0.00     0.082 A 
ATOM     18  N   UNL     1       4.922  42.245  50.303  1.00  0.00    -0.250 N 
ATOM     19  C   UNL     1       6.271  43.805  49.865  1.00  0.00     0.149 A 
ATOM     20  N   UNL     1       5.876  42.608  49.415  1.00  0.00    -0.179 NA
ATOM     21  C   UNL     1       4.256  40.976  50.149  1.00  0.00     0.176 C 
BRANCH  15  22
ATOM     22  N   UNL     1       6.355  46.444  51.819  1.00  0.00    -0.339 N 
ATOM     23  H   UNL     1       5.831  47.178  52.295  1.00  0.00     0.168 HD
BRANCH  22  24
ATOM     24  C   UNL     1       7.728  46.488  52.158  1.00  0.00     0.044 A 
ATOM     25  C   UNL     1       8.642  46.142  51.148  1.00  0.00     0.026 A 
ATOM     26  C   UNL     1       8.199  46.889  53.427  1.00  0.00    -0.009 A 
ATOM     27  C   UNL     1      10.012  46.134  51.393  1.00  0.00     0.004 A 
ATOM     28  C   UNL     1       9.588  46.847  53.663  1.00  0.00     0.046 A 
ATOM     29  C   UNL     1      10.483  46.477  52.655  1.00  0.00     0.021 A 
ATOM     30  C   UNL     1       7.247  47.299  54.522  1.00  0.00     0.048 C 
ATOM     31  Cl  UNL     1      10.267  47.236  55.207  1.00  0.00    -0.084 Cl
ENDBRANCH  22  24
ENDBRANCH  15  22
ENDBRANCH   1  12
TORSDOF 6
ENDMDL
MODEL 4
REMARK VINA RESULT:    -9.406      4.662      8.582
REMARK INTER + INTRA:         -13.657
REMARK INTER:                 -12.838
REMARK INTRA:                  -0.819
REMARK UNBOUND:                -0.952
REMARK SMILES COc1ccc(CNc2nc(Nc3cccc(Cl)c3C)c3cnn(C)c3n2)cc1
REMARK SMILES IDX 8 1 7 3 6 4 3 5 4 6 29 7 5 8 28 9 2 10 1 11 9 12 10 13 27 14
REMARK SMILES IDX 11 15 26 16 21 17 24 18 22 19 23 20 25 21 12 22 13 24 14 25
REMARK SMILES IDX 19 26 15 27 17 28 16 29 20 30 18 31
REMARK H PARENT 8 2 12 23
ROOT
ATOM      1  N   UNL     1       2.927  44.264  54.126  1.00  0.00    -0.350 N 
ATOM      2  H   UNL     1       3.491  44.286  54.969  1.00  0.00     0.164 HD
ENDROOT
BRANCH   1   3
ATOM      3  C   UNL     1       1.950  45.328  54.029  1.00  0.00     0.152 C 
BRANCH   3   4
ATOM      4  C   UNL     1       0.813  45.042  54.984  1.00  0.00    -0.029 A 
ATOM      5  C   UNL     1      -1.305  44.477  56.756  1.00  0.00     0.118 A 
ATOM      6  C   UNL     1      -0.180  45.180  57.194  1.00  0.00     0.047 A 
ATOM      7  C   UNL     1      -1.369  44.052  55.430  1.00  0.00     0.047 A 
ATOM      8  C   UNL     1       0.874  45.460  56.319  1.00  0.00     0.009 A 
ATOM      9  C   UNL     1      -0.316  44.331  54.551  1.00  0.00     0.009 A 
BRANCH   5  10
ATOM     10  O   UNL     1      -2.259  44.273  57.715  1.00  0.00    -0.497 OA
ATOM     11  C   UNL     1      -3.162  43.195  57.501  1.00  0.00     0.278 C 
ENDBRANCH   5  10
ENDBRANCH   3   4
ENDBRANCH   1   3
BRANCH   1  12
ATOM     12  C   UNL     1       3.812  44.207  53.060  1.00  0.00     0.227 A 
ATOM     13  N   UNL     1       4.604  45.288  52.930  1.00  0.00    -0.195 NA
ATOM     14  N   UNL     1       3.827  43.127  52.265  1.00  0.00    -0.193 NA
ATOM     15  C   UNL     1       5.525  45.345  51.936  1.00  0.00     0.147 A 
ATOM     16  C   UNL     1       4.741  43.211  51.287  1.00  0.00     0.165 A 
ATOM     17  C   UNL     1       5.607  44.263  51.057  1.00  0.00     0.082 A 
ATOM     18  N   UNL     1       5.010  42.283  50.319  1.00  0.00    -0.250 N 
ATOM     19  C   UNL     1       6.344  43.867  49.923  1.00  0.00     0.149 A 
ATOM     20  N   UNL     1       5.986  42.662  49.462  1.00  0.00    -0.179 NA
ATOM     21  C   UNL     1       4.372  41.002  50.145  1.00  0.00     0.176 C 
BRANCH  15  22
ATOM     22  N   UNL     1       6.319  46.508  51.877  1.00  0.00    -0.339 N 
ATOM     23  H   UNL     1       5.781  47.224  52.363  1.00  0.00     0.168 HD
BRANCH  22  24
ATOM     24  C   UNL     1       7.689  46.567  52.222  1.00  0.00     0.044 A 
ATOM     25  C   UNL     1       8.612  46.244  51.214  1.00  0.00     0.026 A 
ATOM     26  C   UNL     1       8.149  46.961  53.498  1.00  0.00    -0.009 A 
ATOM     27  C   UNL     1       9.981  46.253  51.465  1.00  0.00     0.004 A 
ATOM     28  C   UNL     1       9.537  46.935  53.740  1.00  0.00     0.046 A 
ATOM     29  C   UNL     1      10.442  46.589  52.733  1.00  0.00     0.021 A 
ATOM     30  C   UNL     1       7.186  47.345  54.593  1.00  0.00     0.048 C 
ATOM     31  Cl  UNL     1      10.203  47.317  55.292  1.00  0.00    -0.084 Cl
ENDBRANCH  22  24
ENDBRANCH  15  22
ENDBRANCH   1  12
TORSDOF 6
ENDMDL
MODEL 5
REMARK VINA RESULT:    -9.401      3.325      4.899
REMARK INTER + INTRA:         -13.651
REMARK INTER:                 -12.598
REMARK INTRA:                  -1.053
REMARK UNBOUND:                -0.952
REMARK SMILES COc1ccc(CNc2nc(Nc3cccc(Cl)c3C)c3cnn(C)c3n2)cc1
REMARK SMILES IDX 8 1 7 3 6 4 3 5 4 6 29 7 5 8 28 9 2 10 1 11 9 12 10 13 27 14
REMARK SMILES IDX 11 15 26 16 21 17 24 18 22 19 23 20 25 21 12 22 13 24 14 25
REMARK SMILES IDX 19 26 15 27 17 28 16 29 20 30 18 31
REMARK H PARENT 8 2 12 23
ROOT
ATOM      1  N   UNL     1       5.556  45.633  55.323  1.00  0.00    -0.350 N 
ATOM      2  H   UNL     1       6.150  44.870  55.015  1.00  0.00     0.164 HD
ENDROOT
BRANCH   1   3
ATOM      3  C   UNL     1       6.017  46.948  54.930  1.00  0.00     0.152 C 
BRANCH   3   4
ATOM      4  C   UNL     1       7.274  46.803  54.102  1.00  0.00    -0.029 A 
ATOM      5  C   UNL     1       9.633  46.521  52.588  1.00  0.00     0.118 A 
ATOM      6  C   UNL     1       8.420  46.016  52.114  1.00  0.00     0.047 A 
ATOM      7  C   UNL     1       9.667  47.166  53.823  1.00  0.00     0.047 A 
ATOM      8  C   UNL     1       7.248  46.151  52.864  1.00  0.00     0.009 A 
ATOM      9  C   UNL     1       8.496  47.303  54.576  1.00  0.00     0.009 A 
BRANCH   5  10
ATOM     10  O   UNL     1      10.700  46.320  51.754  1.00  0.00    -0.497 OA
ATOM     11  C   UNL     1      10.729  45.092  51.037  1.00  0.00     0.278 C 
ENDBRANCH   5  10
ENDBRANCH   3   4
ENDBRANCH   1   3
BRANCH   1  12
ATOM     12  C   UNL     1       4.272  45.330  54.895  1.00  0.00     0.227 A 
ATOM     13  N   UNL     1       4.194  44.875  53.631  1.00  0.00    -0.195 NA
ATOM     14  N   UNL     1       3.236  45.497  55.731  1.00  0.00    -0.193 NA
ATOM     15  C   UNL     1       2.994  44.527  53.102  1.00  0.00     0.147 A 
ATOM     16  C   UNL     1       2.062  45.153  55.182  1.00  0.00     0.165 A 
ATOM     17  C   UNL     1       1.859  44.673  53.903  1.00  0.00     0.082 A 
ATOM     18  N   UNL     1       0.826  45.201  55.767  1.00  0.00    -0.250 N 
ATOM     19  C   UNL     1       0.466  44.475  53.821  1.00  0.00     0.149 A 
ATOM     20  N   UNL     1      -0.174  44.797  54.951  1.00  0.00    -0.179 NA
ATOM     21  C   UNL     1       0.518  45.626  57.109  1.00  0.00     0.176 C 
BRANCH  15  22
ATOM     22  N   UNL     1       3.002  44.052  51.776  1.00  0.00    -0.339 N 
ATOM     23  H   UNL     1       2.723  44.849  51.203  1.00  0.00     0.168 HD
BRANCH  22  24
ATOM     24  C   UNL     1       4.069  43.339  51.182  1.00  0.00     0.044 A 
ATOM     25  C   UNL     1       4.005  41.937  51.238  1.00  0.00     0.026 A 
ATOM     26  C   UNL     1       5.149  43.969  50.524  1.00  0.00    -0.009 A 
ATOM     27  C   UNL     1       5.019  41.150  50.700  1.00  0.00     0.004 A 
ATOM     28  C   UNL     1       6.180  43.155  50.012  1.00  0.00     0.046 A 
ATOM     29  C   UNL     1       6.112  41.760  50.097  1.00  0.00     0.021 A 
ATOM     30  C   UNL     1       5.233  45.470  50.417  1.00  0.00     0.048 C 
ATOM     31  Cl  UNL     1       7.589  43.824  49.262  1.00  0.00    -0.084 Cl
ENDBRANCH  22  24
ENDBRANCH  15  22
ENDBRANCH   1  12
TORSDOF 6
ENDMDL
MODEL 6
REMARK VINA RESULT:    -9.383      3.838      8.238
REMARK INTER + INTRA:         -13.626
REMARK INTER:                 -12.525
REMARK INTRA:                  -1.101
REMARK UNBOUND:                -0.952
REMARK SMILES COc1ccc(CNc2nc(Nc3cccc(Cl)c3C)c3cnn(C)c3n2)cc1
REMARK SMILES IDX 8 1 7 3 6 4 3 5 4 6 29 7 5 8 28 9 2 10 1 11 9 12 10 13 27 14
REMARK SMILES IDX 11 15 26 16 21 17 24 18 22 19 23 20 25 21 12 22 13 24 14 25
REMARK SMILES IDX 19 26 15 27 17 28 16 29 20 30 18 31
REMARK H PARENT 8 2 12 23
ROOT
ATOM      1  N   UNL     1       4.226  41.487  50.903  1.00  0.00    -0.350 N 
ATOM      2  H   UNL     1       3.394  41.167  50.419  1.00  0.00     0.164 HD
ENDROOT
BRANCH   1   3
ATOM      3  C   UNL     1       5.413  41.551  50.078  1.00  0.00     0.152 C 
BRANCH   3   4
ATOM      4  C   UNL     1       5.030  41.285  48.640  1.00  0.00    -0.029 A 
ATOM      5  C   UNL     1       4.284  40.798  45.966  1.00  0.00     0.118 A 
ATOM      6  C   UNL     1       5.405  41.577  46.261  1.00  0.00     0.047 A 
ATOM      7  C   UNL     1       3.532  40.264  47.011  1.00  0.00     0.047 A 
ATOM      8  C   UNL     1       5.777  41.824  47.585  1.00  0.00     0.009 A 
ATOM      9  C   UNL     1       3.901  40.509  48.339  1.00  0.00     0.009 A 
BRANCH   5  10
ATOM     10  O   UNL     1       4.035  40.638  44.630  1.00  0.00    -0.497 OA
ATOM     11  C   UNL     1       5.158  40.389  43.795  1.00  0.00     0.278 C 
ENDBRANCH   5  10
ENDBRANCH   3   4
ENDBRANCH   1   3
BRANCH   1  12
ATOM     12  C   UNL     1       3.890  42.688  51.511  1.00  0.00     0.227 A 
ATOM     13  N   UNL     1       4.706  43.715  51.212  1.00  0.00    -0.195 NA
ATOM     14  N   UNL     1       2.821  42.748  52.318  1.00  0.00    -0.193 NA
ATOM     15  C   UNL     1       4.473  44.947  51.731  1.00  0.00     0.147 A 
ATOM     16  C   UNL     1       2.616  43.973  52.822  1.00  0.00     0.165 A 
ATOM     17  C   UNL     1       3.380  45.099  52.586  1.00  0.00     0.082 A 
ATOM     18  N   UNL     1       1.616  44.367  53.668  1.00  0.00    -0.250 N 
ATOM     19  C   UNL     1       2.757  46.110  53.346  1.00  0.00     0.149 A 
ATOM     20  N   UNL     1       1.682  45.674  54.013  1.00  0.00    -0.179 NA
ATOM     21  C   UNL     1       0.555  43.548  54.197  1.00  0.00     0.176 C 
BRANCH  15  22
ATOM     22  N   UNL     1       5.371  45.968  51.360  1.00  0.00    -0.339 N 
ATOM     23  H   UNL     1       4.798  46.806  51.264  1.00  0.00     0.168 HD
BRANCH  22  24
ATOM     24  C   UNL     1       6.590  46.248  52.019  1.00  0.00     0.044 A 
ATOM     25  C   UNL     1       6.503  46.830  53.295  1.00  0.00     0.026 A 
ATOM     26  C   UNL     1       7.854  45.940  51.470  1.00  0.00    -0.009 A 
ATOM     27  C   UNL     1       7.649  47.161  54.012  1.00  0.00     0.004 A 
ATOM     28  C   UNL     1       9.002  46.310  52.199  1.00  0.00     0.046 A 
ATOM     29  C   UNL     1       8.899  46.910  53.458  1.00  0.00     0.021 A 
ATOM     30  C   UNL     1       7.983  45.285  50.118  1.00  0.00     0.048 C 
ATOM     31  Cl  UNL     1      10.601  46.057  51.583  1.00  0.00    -0.084 Cl
ENDBRANCH  22  24
ENDBRANCH  15  22
ENDBRANCH   1  12
TORSDOF 6
ENDMDL
MODEL 7
REMARK VINA RESULT:    -9.350      2.638      5.084
REMARK INTER + INTRA:         -13.581
REMARK INTER:                 -12.673
REMARK INTRA:                  -0.908
REMARK UNBOUND:                -0.952
REMARK SMILES COc1ccc(CNc2nc(Nc3cccc(Cl)c3C)c3cnn(C)c3n2)cc1
REMARK SMILES IDX 8 1 7 3 6 4 3 5 4 6 29 7 5 8 28 9 2 10 1 11 9 12 10 13 27 14
REMARK SMILES IDX 11 15 26 16 21 17 24 18 22 19 23 20 25 21 12 22 13 24 14 25
REMARK SMILES IDX 19 26 15 27 17 28 16 29 20 30 18 31
REMARK H PARENT 8 2 12 23
ROOT
ATOM      1  N   UNL     1       6.514  46.063  51.047  1.00  0.00    -0.350 N 
ATOM      2  H   UNL     1       6.137  46.666  51.770  1.00  0.00     0.164 HD
ENDROOT
BRANCH   1   3
ATOM      3  C   UNL     1       7.947  45.868  51.115  1.00  0.00     0.152 C 
BRANCH   3   4
ATOM      4  C   UNL     1       8.467  46.471  52.400  1.00  0.00    -0.029 A 
ATOM      5  C   UNL     1       9.414  47.574  54.814  1.00  0.00     0.118 A 
ATOM      6  C   UNL     1      10.307  47.109  53.846  1.00  0.00     0.047 A 
ATOM      7  C   UNL     1       8.044  47.483  54.576  1.00  0.00     0.047 A 
ATOM      8  C   UNL     1       9.841  46.558  52.649  1.00  0.00     0.009 A 
ATOM      9  C   UNL     1       7.574  46.934  53.379  1.00  0.00     0.009 A 
BRANCH   5  10
ATOM     10  O   UNL     1      10.005  48.087  55.937  1.00  0.00    -0.497 OA
ATOM     11  C   UNL     1      11.195  47.448  56.384  1.00  0.00     0.278 C 
ENDBRANCH   5  10
ENDBRANCH   3   4
ENDBRANCH   1   3
BRANCH   1  12
ATOM     12  C   UNL     1       5.779  44.887  51.091  1.00  0.00     0.227 A 
ATOM     13  N   UNL     1       4.892  44.816  52.100  1.00  0.00    -0.195 NA
ATOM     14  N   UNL     1       5.984  43.941  50.163  1.00  0.00    -0.193 NA
ATOM     15  C   UNL     1       4.101  43.724  52.240  1.00  0.00     0.147 A 
ATOM     16  C   UNL     1       5.195  42.870  50.327  1.00  0.00     0.165 A 
ATOM     17  C   UNL     1       4.251  42.686  51.319  1.00  0.00     0.082 A 
ATOM     18  N   UNL     1       5.154  41.741  49.554  1.00  0.00    -0.250 N 
ATOM     19  C   UNL     1       3.709  41.412  51.054  1.00  0.00     0.149 A 
ATOM     20  N   UNL     1       4.255  40.825  49.982  1.00  0.00    -0.179 NA
ATOM     21  C   UNL     1       5.949  41.462  48.385  1.00  0.00     0.176 C 
BRANCH  15  22
ATOM     22  N   UNL     1       3.195  43.735  53.319  1.00  0.00    -0.339 N 
ATOM     23  H   UNL     1       3.445  44.554  53.872  1.00  0.00     0.168 HD
BRANCH  22  24
ATOM     24  C   UNL     1       1.792  43.606  53.195  1.00  0.00     0.044 A 
ATOM     25  C   UNL     1       1.237  42.358  53.526  1.00  0.00     0.026 A 
ATOM     26  C   UNL     1       0.950  44.667  52.794  1.00  0.00    -0.009 A 
ATOM     27  C   UNL     1      -0.131  42.129  53.415  1.00  0.00     0.004 A 
ATOM     28  C   UNL     1      -0.429  44.405  52.660  1.00  0.00     0.046 A 
ATOM     29  C   UNL     1      -0.962  43.151  52.971  1.00  0.00     0.021 A 
ATOM     30  C   UNL     1       1.508  46.027  52.463  1.00  0.00     0.048 C 
ATOM     31  Cl  UNL     1      -1.539  45.608  52.095  1.00  0.00    -0.084 Cl
ENDBRANCH  22  24
ENDBRANCH  15  22
ENDBRANCH   1  12
TORSDOF 6
ENDMDL
MODEL 8
REMARK VINA RESULT:    -9.305      3.187      5.626
REMARK INTER + INTRA:         -13.520
REMARK INTER:                 -12.419
REMARK INTRA:                  -1.102
REMARK UNBOUND:                -0.952
REMARK SMILES COc1ccc(CNc2nc(Nc3cccc(Cl)c3C)c3cnn(C)c3n2)cc1
REMARK SMILES IDX 8 1 7 3 6 4 3 5 4 6 29 7 5 8 28 9 2 10 1 11 9 12 10 13 27 14
REMARK SMILES IDX 11 15 26 16 21 17 24 18 22 19 23 20 25 21 12 22 13 24 14 25
REMARK SMILES IDX 19 26 15 27 17 28 16 29 20 30 18 31
REMARK H PARENT 8 2 12 23
ROOT
ATOM      1  N   UNL     1       7.057  46.482  50.528  1.00  0.00    -0.350 N 
ATOM      2  H   UNL     1       6.739  47.296  51.041  1.00  0.00     0.164 HD
ENDROOT
BRANCH   1   3
ATOM      3  C   UNL     1       8.409  46.068  50.839  1.00  0.00     0.152 C 
BRANCH   3   4
ATOM      4  C   UNL     1       8.810  46.652  52.174  1.00  0.00    -0.029 A 
ATOM      5  C   UNL     1       9.524  47.736  54.675  1.00  0.00     0.118 A 
ATOM      6  C   UNL     1      10.288  46.721  54.097  1.00  0.00     0.047 A 
ATOM      7  C   UNL     1       8.398  48.208  54.004  1.00  0.00     0.047 A 
ATOM      8  C   UNL     1       9.936  46.178  52.858  1.00  0.00     0.009 A 
ATOM      9  C   UNL     1       8.042  47.668  52.763  1.00  0.00     0.009 A 
BRANCH   5  10
ATOM     10  O   UNL     1       9.982  48.175  55.888  1.00  0.00    -0.497 OA
ATOM     11  C   UNL     1      11.113  47.502  56.427  1.00  0.00     0.278 C 
ENDBRANCH   5  10
ENDBRANCH   3   4
ENDBRANCH   1   3
BRANCH   1  12
ATOM     12  C   UNL     1       6.102  45.494  50.723  1.00  0.00     0.227 A 
ATOM     13  N   UNL     1       4.927  45.938  51.205  1.00  0.00    -0.195 NA
ATOM     14  N   UNL     1       6.395  44.219  50.427  1.00  0.00    -0.193 NA
ATOM     15  C   UNL     1       3.906  45.071  51.421  1.00  0.00     0.147 A 
ATOM     16  C   UNL     1       5.373  43.383  50.655  1.00  0.00     0.165 A 
ATOM     17  C   UNL     1       4.125  43.720  51.143  1.00  0.00     0.082 A 
ATOM     18  N   UNL     1       5.345  42.030  50.455  1.00  0.00    -0.250 N 
ATOM     19  C   UNL     1       3.431  42.496  51.206  1.00  0.00     0.149 A 
ATOM     20  N   UNL     1       4.167  41.457  50.792  1.00  0.00    -0.179 NA
ATOM     21  C   UNL     1       6.412  41.207  49.943  1.00  0.00     0.176 C 
BRANCH  15  22
ATOM     22  N   UNL     1       2.708  45.620  51.919  1.00  0.00    -0.339 N 
ATOM     23  H   UNL     1       2.000  45.398  51.219  1.00  0.00     0.168 HD
BRANCH  22  24
ATOM     24  C   UNL     1       2.215  45.425  53.230  1.00  0.00     0.044 A 
ATOM     25  C   UNL     1       3.122  45.624  54.285  1.00  0.00     0.026 A 
ATOM     26  C   UNL     1       0.874  45.081  53.510  1.00  0.00    -0.009 A 
ATOM     27  C   UNL     1       2.735  45.434  55.609  1.00  0.00     0.004 A 
ATOM     28  C   UNL     1       0.511  44.866  54.854  1.00  0.00     0.046 A 
ATOM     29  C   UNL     1       1.431  45.045  55.891  1.00  0.00     0.021 A 
ATOM     30  C   UNL     1      -0.133  44.892  52.403  1.00  0.00     0.048 C 
ATOM     31  Cl  UNL     1      -1.083  44.359  55.303  1.00  0.00    -0.084 Cl
ENDBRANCH  22  24
ENDBRANCH  15  22
ENDBRANCH   1  12
TORSDOF 6
ENDMDL
MODEL 9
REMARK VINA RESULT:    -9.255      4.041      8.349
REMARK INTER + INTRA:         -13.452
REMARK INTER:                 -12.444
REMARK INTRA:                  -1.009
REMARK UNBOUND:                -0.952
REMARK SMILES COc1ccc(CNc2nc(Nc3cccc(Cl)c3C)c3cnn(C)c3n2)cc1
REMARK SMILES IDX 8 1 7 3 6 4 3 5 4 6 29 7 5 8 28 9 2 10 1 11 9 12 10 13 27 14
REMARK SMILES IDX 11 15 26 16 21 17 24 18 22 19 23 20 25 21 12 22 13 24 14 25
REMARK SMILES IDX 19 26 15 27 17 28 16 29 20 30 18 31
REMARK H PARENT 8 2 12 23
ROOT
ATOM      1  N   UNL     1       5.117  41.567  50.536  1.00  0.00    -0.350 N 
ATOM      2  H   UNL     1       4.264  41.070  50.307  1.00  0.00     0.164 HD
ENDROOT
BRANCH   1   3
ATOM      3  C   UNL     1       6.010  41.776  49.415  1.00  0.00     0.152 C 
BRANCH   3   4
ATOM      4  C   UNL     1       5.286  41.423  48.135  1.00  0.00    -0.029 A 
ATOM      5  C   UNL     1       3.966  40.756  45.736  1.00  0.00     0.118 A 
ATOM      6  C   UNL     1       3.506  40.266  46.961  1.00  0.00     0.047 A 
ATOM      7  C   UNL     1       5.091  41.578  45.711  1.00  0.00     0.047 A 
ATOM      8  C   UNL     1       4.159  40.592  48.152  1.00  0.00     0.009 A 
ATOM      9  C   UNL     1       5.747  41.907  46.902  1.00  0.00     0.009 A 
BRANCH   5  10
ATOM     10  O   UNL     1       3.234  40.359  44.651  1.00  0.00    -0.497 OA
ATOM     11  C   UNL     1       1.932  40.916  44.517  1.00  0.00     0.278 C 
ENDBRANCH   5  10
ENDBRANCH   3   4
ENDBRANCH   1   3
BRANCH   1  12
ATOM     12  C   UNL     1       4.734  42.734  51.181  1.00  0.00     0.227 A 
ATOM     13  N   UNL     1       5.531  43.792  50.948  1.00  0.00    -0.195 NA
ATOM     14  N   UNL     1       3.640  42.735  51.957  1.00  0.00    -0.193 NA
ATOM     15  C   UNL     1       5.251  44.995  51.508  1.00  0.00     0.147 A 
ATOM     16  C   UNL     1       3.389  43.933  52.503  1.00  0.00     0.165 A 
ATOM     17  C   UNL     1       4.130  45.086  52.336  1.00  0.00     0.082 A 
ATOM     18  N   UNL     1       2.355  44.267  53.334  1.00  0.00    -0.250 N 
ATOM     19  C   UNL     1       3.460  46.050  53.116  1.00  0.00     0.149 A 
ATOM     20  N   UNL     1       2.377  45.560  53.733  1.00  0.00    -0.179 NA
ATOM     21  C   UNL     1       1.300  43.401  53.798  1.00  0.00     0.176 C 
BRANCH  15  22
ATOM     22  N   UNL     1       6.132  46.052  51.206  1.00  0.00    -0.339 N 
ATOM     23  H   UNL     1       5.628  46.902  51.457  1.00  0.00     0.168 HD
BRANCH  22  24
ATOM     24  C   UNL     1       7.485  46.116  51.613  1.00  0.00     0.044 A 
ATOM     25  C   UNL     1       8.445  45.645  50.702  1.00  0.00     0.026 A 
ATOM     26  C   UNL     1       7.895  46.652  52.854  1.00  0.00    -0.009 A 
ATOM     27  C   UNL     1       9.800  45.647  51.021  1.00  0.00     0.004 A 
ATOM     28  C   UNL     1       9.268  46.618  53.170  1.00  0.00     0.046 A 
ATOM     29  C   UNL     1      10.209  46.125  52.261  1.00  0.00     0.021 A 
ATOM     30  C   UNL     1       6.894  47.195  53.841  1.00  0.00     0.048 C 
ATOM     31  Cl  UNL     1       9.871  47.171  54.696  1.00  0.00    -0.084 Cl
ENDBRANCH  22  24
ENDBRANCH  15  22
ENDBRANCH   1  12
TORSDOF 6
ENDMDL
MODEL 10
REMARK VINA RESULT:    -9.224      4.631      7.918
REMARK INTER + INTRA:         -13.411
REMARK INTER:                 -11.698
REMARK INTRA:                  -1.712
REMARK UNBOUND:                -0.952
REMARK SMILES COc1ccc(CNc2nc(Nc3cccc(Cl)c3C)c3cnn(C)c3n2)cc1
REMARK SMILES IDX 8 1 7 3 6 4 3 5 4 6 29 7 5 8 28 9 2 10 1 11 9 12 10 13 27 14
REMARK SMILES IDX 11 15 26 16 21 17 24 18 22 19 23 20 25 21 12 22 13 24 14 25
REMARK SMILES IDX 19 26 15 27 17 28 16 29 20 30 18 31
REMARK H PARENT 8 2 12 23
ROOT
ATOM      1  N   UNL     1       1.420  43.309  52.554  1.00  0.00    -0.350 N 
ATOM      2  H   UNL     1       0.652  42.654  52.453  1.00  0.00     0.164 HD
ENDROOT
BRANCH   1   3
ATOM      3  C   UNL     1       1.608  44.193  51.423  1.00  0.00     0.152 C 
BRANCH   3   4
ATOM      4  C   UNL     1       3.089  44.349  51.160  1.00  0.00    -0.029 A 
ATOM      5  C   UNL     1       5.847  44.614  50.646  1.00  0.00     0.118 A 
ATOM      6  C   UNL     1       5.006  45.728  50.604  1.00  0.00     0.047 A 
ATOM      7  C   UNL     1       5.307  43.363  50.943  1.00  0.00     0.047 A 
ATOM      8  C   UNL     1       3.637  45.600  50.854  1.00  0.00     0.009 A 
ATOM      9  C   UNL     1       3.937  43.232  51.195  1.00  0.00     0.009 A 
BRANCH   5  10
ATOM     10  O   UNL     1       7.163  44.881  50.381  1.00  0.00    -0.497 OA
ATOM     11  C   UNL     1       7.826  44.003  49.480  1.00  0.00     0.278 C 
ENDBRANCH   5  10
ENDBRANCH   3   4
ENDBRANCH   1   3
BRANCH   1  12
ATOM     12  C   UNL     1       1.224  43.965  53.761  1.00  0.00     0.227 A 
ATOM     13  N   UNL     1       2.276  44.688  54.184  1.00  0.00    -0.195 NA
ATOM     14  N   UNL     1       0.050  43.846  54.398  1.00  0.00    -0.193 NA
ATOM     15  C   UNL     1       2.203  45.390  55.342  1.00  0.00     0.147 A 
ATOM     16  C   UNL     1       0.005  44.543  55.542  1.00  0.00     0.165 A 
ATOM     17  C   UNL     1       1.015  45.320  56.074  1.00  0.00     0.082 A 
ATOM     18  N   UNL     1      -1.042  44.635  56.419  1.00  0.00    -0.250 N 
ATOM     19  C   UNL     1       0.474  45.825  57.273  1.00  0.00     0.149 A 
ATOM     20  N   UNL     1      -0.779  45.411  57.496  1.00  0.00    -0.179 NA
ATOM     21  C   UNL     1      -2.333  44.006  56.297  1.00  0.00     0.176 C 
BRANCH  15  22
ATOM     22  N   UNL     1       3.346  46.128  55.707  1.00  0.00    -0.339 N 
ATOM     23  H   UNL     1       3.441  45.995  56.714  1.00  0.00     0.168 HD
BRANCH  22  24
ATOM     24  C   UNL     1       4.598  46.049  55.055  1.00  0.00     0.044 A 
ATOM     25  C   UNL     1       5.392  44.925  55.339  1.00  0.00     0.026 A 
ATOM     26  C   UNL     1       5.051  47.015  54.129  1.00  0.00    -0.009 A 
ATOM     27  C   UNL     1       6.649  44.770  54.762  1.00  0.00     0.004 A 
ATOM     28  C   UNL     1       6.338  46.854  53.579  1.00  0.00     0.046 A 
ATOM     29  C   UNL     1       7.126  45.741  53.890  1.00  0.00     0.021 A 
ATOM     30  C   UNL     1       4.211  48.216  53.778  1.00  0.00     0.048 C 
ATOM     31  Cl  UNL     1       7.026  48.021  52.500  1.00  0.00    -0.084 Cl
ENDBRANCH  22  24
ENDBRANCH  15  22
ENDBRANCH   1  12
TORSDOF 6
ENDMDL
MODEL 11
REMARK VINA RESULT:    -9.216      4.066      8.169
REMARK INTER + INTRA:         -13.400
REMARK INTER:                 -12.754
REMARK INTRA:                  -0.646
REMARK UNBOUND:                -0.952
REMARK SMILES COc1ccc(CNc2nc(Nc3cccc(Cl)c3C)c3cnn(C)c3n2)cc1
REMARK SMILES IDX 8 1 7 3 6 4 3 5 4 6 29 7 5 8 28 9 2 10 1 11 9 12 10 13 27 14
REMARK SMILES IDX 11 15 26 16 21 17 24 18 22 19 23 20 25 21 12 22 13 24 14 25
REMARK SMILES IDX 19 26 15 27 17 28 16 29 20 30 18 31
REMARK H PARENT 8 2 12 23
ROOT
ATOM      1  N   UNL     1       3.838  41.222  50.828  1.00  0.00    -0.350 N 
ATOM      2  H   UNL     1       3.102  40.793  50.277  1.00  0.00     0.164 HD
ENDROOT
BRANCH   1   3
ATOM      3  C   UNL     1       5.104  41.353  50.138  1.00  0.00     0.152 C 
BRANCH   3   4
ATOM      4  C   UNL     1       4.871  41.223  48.650  1.00  0.00    -0.029 A 
ATOM      5  C   UNL     1       4.404  40.990  45.880  1.00  0.00     0.118 A 
ATOM      6  C   UNL     1       5.482  41.738  46.359  1.00  0.00     0.047 A 
ATOM      7  C   UNL     1       3.556  40.359  46.789  1.00  0.00     0.047 A 
ATOM      8  C   UNL     1       5.715  41.859  47.732  1.00  0.00     0.009 A 
ATOM      9  C   UNL     1       3.787  40.478  48.164  1.00  0.00     0.009 A 
BRANCH   5  10
ATOM     10  O   UNL     1       4.294  40.955  44.517  1.00  0.00    -0.497 OA
ATOM     11  C   UNL     1       5.412  40.455  43.796  1.00  0.00     0.278 C 
ENDBRANCH   5  10
ENDBRANCH   3   4
ENDBRANCH   1   3
BRANCH   1  12
ATOM     12  C   UNL     1       3.326  42.419  51.307  1.00  0.00     0.227 A 
ATOM     13  N   UNL     1       4.224  43.205  51.928  1.00  0.00    -0.195 NA
ATOM     14  N   UNL     1       2.028  42.706  51.126  1.00  0.00    -0.193 NA
ATOM     15  C   UNL     1       3.849  44.411  52.425  1.00  0.00     0.147 A 
ATOM     16  C   UNL     1       1.682  43.899  51.632  1.00  0.00     0.165 A 
ATOM     17  C   UNL     1       2.513  44.789  52.284  1.00  0.00     0.082 A 
ATOM     18  N   UNL     1       0.446  44.484  51.609  1.00  0.00    -0.250 N 
ATOM     19  C   UNL     1       1.673  45.870  52.619  1.00  0.00     0.149 A 
ATOM     20  N   UNL     1       0.409  45.693  52.215  1.00  0.00    -0.179 NA
ATOM     21  C   UNL     1      -0.757  43.947  51.027  1.00  0.00     0.176 C 
BRANCH  15  22
ATOM     22  N   UNL     1       4.854  45.174  53.052  1.00  0.00    -0.339 N 
ATOM     23  H   UNL     1       5.004  44.730  53.957  1.00  0.00     0.168 HD
BRANCH  22  24
ATOM     24  C   UNL     1       6.079  45.544  52.450  1.00  0.00     0.044 A 
ATOM     25  C   UNL     1       6.249  45.207  51.096  1.00  0.00     0.026 A 
ATOM     26  C   UNL     1       7.094  46.251  53.132  1.00  0.00    -0.009 A 
ATOM     27  C   UNL     1       7.429  45.510  50.424  1.00  0.00     0.004 A 
ATOM     28  C   UNL     1       8.292  46.523  52.441  1.00  0.00     0.046 A 
ATOM     29  C   UNL     1       8.455  46.159  51.101  1.00  0.00     0.021 A 
ATOM     30  C   UNL     1       6.931  46.657  54.575  1.00  0.00     0.048 C 
ATOM     31  Cl  UNL     1       9.633  47.307  53.206  1.00  0.00    -0.084 Cl
ENDBRANCH  22  24
ENDBRANCH  15  22
ENDBRANCH   1  12
TORSDOF 6
ENDMDL
MODEL 12
REMARK VINA RESULT:    -9.161      4.640      8.734
REMARK INTER + INTRA:         -13.326
REMARK INTER:                 -12.267
REMARK INTRA:                  -1.059
REMARK UNBOUND:                -0.952
REMARK SMILES COc1ccc(CNc2nc(Nc3cccc(Cl)c3C)c3cnn(C)c3n2)cc1
REMARK SMILES IDX 8 1 7 3 6 4 3 5 4 6 29 7 5 8 28 9 2 10 1 11 9 12 10 13 27 14
REMARK SMILES IDX 11 15 26 16 21 17 24 18 22 19 23 20 25 21 12 22 13 24 14 25
REMARK SMILES IDX 19 26 15 27 17 28 16 29 20 30 18 31
REMARK H PARENT 8 2 12 23
ROOT
ATOM      1  N   UNL     1       2.960  44.586  54.376  1.00  0.00    -0.350 N 
ATOM      2  H   UNL     1       3.559  44.694  55.187  1.00  0.00     0.164 HD
ENDROOT
BRANCH   1   3
ATOM      3  C   UNL     1       1.948  45.612  54.237  1.00  0.00     0.152 C 
BRANCH   3   4
ATOM      4  C   UNL     1       0.631  44.961  53.880  1.00  0.00    -0.029 A 
ATOM      5  C   UNL     1      -1.809  43.734  53.187  1.00  0.00     0.118 A 
ATOM      6  C   UNL     1      -1.292  43.608  54.478  1.00  0.00     0.047 A 
ATOM      7  C   UNL     1      -1.103  44.472  52.239  1.00  0.00     0.047 A 
ATOM      8  C   UNL     1      -0.080  44.212  54.825  1.00  0.00     0.009 A 
ATOM      9  C   UNL     1       0.110  45.079  52.583  1.00  0.00     0.009 A 
BRANCH   5  10
ATOM     10  O   UNL     1      -3.001  43.092  52.985  1.00  0.00    -0.497 OA
ATOM     11  C   UNL     1      -3.373  42.842  51.635  1.00  0.00     0.278 C 
ENDBRANCH   5  10
ENDBRANCH   3   4
ENDBRANCH   1   3
BRANCH   1  12
ATOM     12  C   UNL     1       3.799  44.463  53.279  1.00  0.00     0.227 A 
ATOM     13  N   UNL     1       4.618  45.512  53.078  1.00  0.00    -0.195 NA
ATOM     14  N   UNL     1       3.749  43.355  52.524  1.00  0.00    -0.193 NA
ATOM     15  C   UNL     1       5.500  45.504  52.047  1.00  0.00     0.147 A 
ATOM     16  C   UNL     1       4.624  43.375  51.509  1.00  0.00     0.165 A 
ATOM     17  C   UNL     1       5.512  44.389  51.206  1.00  0.00     0.082 A 
ATOM     18  N   UNL     1       4.825  42.405  50.565  1.00  0.00    -0.250 N 
ATOM     19  C   UNL     1       6.190  43.929  50.059  1.00  0.00     0.149 A 
ATOM     20  N   UNL     1       5.776  42.722  49.657  1.00  0.00    -0.179 NA
ATOM     21  C   UNL     1       4.141  41.140  50.463  1.00  0.00     0.176 C 
BRANCH  15  22
ATOM     22  N   UNL     1       6.326  46.637  51.914  1.00  0.00    -0.339 N 
ATOM     23  H   UNL     1       5.825  47.391  52.384  1.00  0.00     0.168 HD
BRANCH  22  24
ATOM     24  C   UNL     1       7.707  46.668  52.218  1.00  0.00     0.044 A 
ATOM     25  C   UNL     1       8.594  46.373  51.169  1.00  0.00     0.026 A 
ATOM     26  C   UNL     1       8.211  47.010  53.492  1.00  0.00    -0.009 A 
ATOM     27  C   UNL     1       9.970  46.357  51.377  1.00  0.00     0.004 A 
ATOM     28  C   UNL     1       9.606  46.960  53.689  1.00  0.00     0.046 A 
ATOM     29  C   UNL     1      10.475  46.640  52.640  1.00  0.00     0.021 A 
ATOM     30  C   UNL     1       7.288  47.364  54.630  1.00  0.00     0.048 C 
ATOM     31  Cl  UNL     1      10.326  47.276  55.231  1.00  0.00    -0.084 Cl
ENDBRANCH  22  24
ENDBRANCH  15  22
ENDBRANCH   1  12
TORSDOF 6
ENDMDL
MODEL 13
REMARK VINA RESULT:    -9.034      3.781      5.627
REMARK INTER + INTRA:         -13.155
REMARK INTER:                 -11.543
REMARK INTRA:                  -1.612
REMARK UNBOUND:                -0.952
REMARK SMILES COc1ccc(CNc2nc(Nc3cccc(Cl)c3C)c3cnn(C)c3n2)cc1
REMARK SMILES IDX 8 1 7 3 6 4 3 5 4 6 29 7 5 8 28 9 2 10 1 11 9 12 10 13 27 14
REMARK SMILES IDX 11 15 26 16 21 17 24 18 22 19 23 20 25 21 12 22 13 24 14 25
REMARK SMILES IDX 19 26 15 27 17 28 16 29 20 30 18 31
REMARK H PARENT 8 2 12 23
ROOT
ATOM      1  N   UNL     1       3.245  45.968  55.765  1.00  0.00    -0.350 N 
ATOM      2  H   UNL     1       2.891  46.149  56.698  1.00  0.00     0.164 HD
ENDROOT
BRANCH   1   3
ATOM      3  C   UNL     1       4.507  45.261  55.729  1.00  0.00     0.152 C 
BRANCH   3   4
ATOM      4  C   UNL     1       5.413  45.921  54.713  1.00  0.00    -0.029 A 
ATOM      5  C   UNL     1       7.104  47.178  52.843  1.00  0.00     0.118 A 
ATOM      6  C   UNL     1       7.353  45.868  53.258  1.00  0.00     0.047 A 
ATOM      7  C   UNL     1       6.009  47.863  53.367  1.00  0.00     0.047 A 
ATOM      8  C   UNL     1       6.519  45.242  54.188  1.00  0.00     0.009 A 
ATOM      9  C   UNL     1       5.172  47.239  54.298  1.00  0.00     0.009 A 
BRANCH   5  10
ATOM     10  O   UNL     1       7.999  47.668  51.930  1.00  0.00    -0.497 OA
ATOM     11  C   UNL     1       9.281  47.054  51.898  1.00  0.00     0.278 C 
ENDBRANCH   5  10
ENDBRANCH   3   4
ENDBRANCH   1   3
BRANCH   1  12
ATOM     12  C   UNL     1       2.222  45.340  55.070  1.00  0.00     0.227 A 
ATOM     13  N   UNL     1       2.504  45.065  53.784  1.00  0.00    -0.195 NA
ATOM     14  N   UNL     1       1.071  45.055  55.697  1.00  0.00    -0.193 NA
ATOM     15  C   UNL     1       1.590  44.435  53.003  1.00  0.00     0.147 A 
ATOM     16  C   UNL     1       0.183  44.439  54.902  1.00  0.00     0.165 A 
ATOM     17  C   UNL     1       0.360  44.104  53.574  1.00  0.00     0.082 A 
ATOM     18  N   UNL     1      -1.075  44.014  55.234  1.00  0.00    -0.250 N 
ATOM     19  C   UNL     1      -0.854  43.491  53.203  1.00  0.00     0.149 A 
ATOM     20  N   UNL     1      -1.738  43.435  54.207  1.00  0.00    -0.179 NA
ATOM     21  C   UNL     1      -1.718  44.129  56.518  1.00  0.00     0.176 C 
BRANCH  15  22
ATOM     22  N   UNL     1       1.969  44.177  51.671  1.00  0.00    -0.339 N 
ATOM     23  H   UNL     1       1.766  45.038  51.162  1.00  0.00     0.168 HD
BRANCH  22  24
ATOM     24  C   UNL     1       3.212  43.627  51.278  1.00  0.00     0.044 A 
ATOM     25  C   UNL     1       3.311  42.226  51.268  1.00  0.00     0.026 A 
ATOM     26  C   UNL     1       4.313  44.414  50.876  1.00  0.00    -0.009 A 
ATOM     27  C   UNL     1       4.500  41.593  50.917  1.00  0.00     0.004 A 
ATOM     28  C   UNL     1       5.517  43.756  50.552  1.00  0.00     0.046 A 
ATOM     29  C   UNL     1       5.606  42.360  50.569  1.00  0.00     0.021 A 
ATOM     30  C   UNL     1       4.230  45.919  50.844  1.00  0.00     0.048 C 
ATOM     31  Cl  UNL     1       6.952  44.626  50.127  1.00  0.00    -0.084 Cl
ENDBRANCH  22  24
ENDBRANCH  15  22
ENDBRANCH   1  12
TORSDOF 6
ENDMDL
MODEL 14
REMARK VINA RESULT:    -8.955      3.459      5.289
REMARK INTER + INTRA:         -13.047
REMARK INTER:                 -11.718
REMARK INTRA:                  -1.329
REMARK UNBOUND:                -0.952
REMARK SMILES COc1ccc(CNc2nc(Nc3cccc(Cl)c3C)c3cnn(C)c3n2)cc1
REMARK SMILES IDX 8 1 7 3 6 4 3 5 4 6 29 7 5 8 28 9 2 10 1 11 9 12 10 13 27 14
REMARK SMILES IDX 11 15 26 16 21 17 24 18 22 19 23 20 25 21 12 22 13 24 14 25
REMARK SMILES IDX 19 26 15 27 17 28 16 29 20 30 18 31
REMARK H PARENT 8 2 12 23
ROOT
ATOM      1  N   UNL     1       3.080  45.010  55.687  1.00  0.00    -0.350 N 
ATOM      2  H   UNL     1       3.853  44.355  55.636  1.00  0.00     0.164 HD
ENDROOT
BRANCH   1   3
ATOM      3  C   UNL     1       3.449  46.393  55.468  1.00  0.00     0.152 C 
BRANCH   3   4
ATOM      4  C   UNL     1       4.753  46.440  54.704  1.00  0.00    -0.029 A 
ATOM      5  C   UNL     1       7.187  46.561  53.289  1.00  0.00     0.118 A 
ATOM      6  C   UNL     1       6.945  45.530  54.199  1.00  0.00     0.047 A 
ATOM      7  C   UNL     1       6.211  47.537  53.088  1.00  0.00     0.047 A 
ATOM      8  C   UNL     1       5.740  45.468  54.905  1.00  0.00     0.009 A 
ATOM      9  C   UNL     1       5.004  47.477  53.793  1.00  0.00     0.009 A 
BRANCH   5  10
ATOM     10  O   UNL     1       8.405  46.501  52.668  1.00  0.00    -0.497 OA
ATOM     11  C   UNL     1       9.486  47.161  53.313  1.00  0.00     0.278 C 
ENDBRANCH   5  10
ENDBRANCH   3   4
ENDBRANCH   1   3
BRANCH   1  12
ATOM     12  C   UNL     1       2.105  44.539  54.821  1.00  0.00     0.227 A 
ATOM     13  N   UNL     1       2.542  44.268  53.577  1.00  0.00    -0.195 NA
ATOM     14  N   UNL     1       0.846  44.384  55.258  1.00  0.00    -0.193 NA
ATOM     15  C   UNL     1       1.687  43.784  52.642  1.00  0.00     0.147 A 
ATOM     16  C   UNL     1       0.021  43.911  54.313  1.00  0.00     0.165 A 
ATOM     17  C   UNL     1       0.353  43.596  53.011  1.00  0.00     0.082 A 
ATOM     18  N   UNL     1      -1.315  43.641  54.437  1.00  0.00    -0.250 N 
ATOM     19  C   UNL     1      -0.856  43.154  52.437  1.00  0.00     0.149 A 
ATOM     20  N   UNL     1      -1.882  43.181  53.298  1.00  0.00    -0.179 NA
ATOM     21  C   UNL     1      -2.126  43.798  55.618  1.00  0.00     0.176 C 
BRANCH  15  22
ATOM     22  N   UNL     1       2.229  43.519  51.369  1.00  0.00    -0.339 N 
ATOM     23  H   UNL     1       1.626  44.014  50.712  1.00  0.00     0.168 HD
BRANCH  22  24
ATOM     24  C   UNL     1       3.593  43.665  51.027  1.00  0.00     0.044 A 
ATOM     25  C   UNL     1       4.101  44.974  50.986  1.00  0.00     0.026 A 
ATOM     26  C   UNL     1       4.447  42.570  50.767  1.00  0.00    -0.009 A 
ATOM     27  C   UNL     1       5.426  45.220  50.638  1.00  0.00     0.004 A 
ATOM     28  C   UNL     1       5.777  42.841  50.389  1.00  0.00     0.046 A 
ATOM     29  C   UNL     1       6.261  44.152  50.330  1.00  0.00     0.021 A 
ATOM     30  C   UNL     1       3.943  41.151  50.835  1.00  0.00     0.048 C 
ATOM     31  Cl  UNL     1       6.885  41.579  49.967  1.00  0.00    -0.084 Cl
ENDBRANCH  22  24
ENDBRANCH  15  22
ENDBRANCH   1  12
TORSDOF 6
ENDMDL
MODEL 15
REMARK VINA RESULT:    -8.902      3.400      7.583
REMARK INTER + INTRA:         -12.977
REMARK INTER:                 -11.609
REMARK INTRA:                  -1.367
REMARK UNBOUND:                -0.952
REMARK SMILES COc1ccc(CNc2nc(Nc3cccc(Cl)c3C)c3cnn(C)c3n2)cc1
REMARK SMILES IDX 8 1 7 3 6 4 3 5 4 6 29 7 5 8 28 9 2 10 1 11 9 12 10 13 27 14
REMARK SMILES IDX 11 15 26 16 21 17 24 18 22 19 23 20 25 21 12 22 13 24 14 25
REMARK SMILES IDX 19 26 15 27 17 28 16 29 20 30 18 31
REMARK H PARENT 8 2 12 23
ROOT
ATOM      1  N   UNL     1       7.157  44.790  49.510  1.00  0.00    -0.350 N 
ATOM      2  H   UNL     1       7.792  45.389  48.994  1.00  0.00     0.164 HD
ENDROOT
BRANCH   1   3
ATOM      3  C   UNL     1       7.602  43.419  49.643  1.00  0.00     0.152 C 
BRANCH   3   4
ATOM      4  C   UNL     1       6.433  42.494  49.389  1.00  0.00    -0.029 A 
ATOM      5  C   UNL     1       4.233  40.793  48.930  1.00  0.00     0.118 A 
ATOM      6  C   UNL     1       5.080  41.158  47.882  1.00  0.00     0.047 A 
ATOM      7  C   UNL     1       4.485  41.282  50.211  1.00  0.00     0.047 A 
ATOM      8  C   UNL     1       6.170  42.004  48.104  1.00  0.00     0.009 A 
ATOM      9  C   UNL     1       5.576  42.129  50.438  1.00  0.00     0.009 A 
BRANCH   5  10
ATOM     10  O   UNL     1       3.207  39.961  48.573  1.00  0.00    -0.497 OA
ATOM     11  C   UNL     1       3.185  39.516  47.223  1.00  0.00     0.278 C 
ENDBRANCH   5  10
ENDBRANCH   3   4
ENDBRANCH   1   3
BRANCH   1  12
ATOM     12  C   UNL     1       6.907  45.426  50.717  1.00  0.00     0.227 A 
ATOM     13  N   UNL     1       5.608  45.676  50.961  1.00  0.00    -0.195 NA
ATOM     14  N   UNL     1       7.929  45.733  51.530  1.00  0.00    -0.193 NA
ATOM     15  C   UNL     1       5.233  46.279  52.117  1.00  0.00     0.147 A 
ATOM     16  C   UNL     1       7.532  46.333  52.661  1.00  0.00     0.165 A 
ATOM     17  C   UNL     1       6.234  46.638  53.021  1.00  0.00     0.082 A 
ATOM     18  N   UNL     1       8.321  46.767  53.692  1.00  0.00    -0.250 N 
ATOM     19  C   UNL     1       6.357  47.259  54.280  1.00  0.00     0.149 A 
ATOM     20  N   UNL     1       7.626  47.347  54.698  1.00  0.00    -0.179 NA
ATOM     21  C   UNL     1       9.755  46.664  53.789  1.00  0.00     0.176 C 
BRANCH  15  22
ATOM     22  N   UNL     1       3.852  46.495  52.297  1.00  0.00    -0.339 N 
ATOM     23  H   UNL     1       3.467  46.568  51.355  1.00  0.00     0.168 HD
BRANCH  22  24
ATOM     24  C   UNL     1       3.018  45.723  53.137  1.00  0.00     0.044 A 
ATOM     25  C   UNL     1       2.941  46.111  54.485  1.00  0.00     0.026 A 
ATOM     26  C   UNL     1       2.255  44.628  52.675  1.00  0.00    -0.009 A 
ATOM     27  C   UNL     1       2.163  45.399  55.394  1.00  0.00     0.004 A 
ATOM     28  C   UNL     1       1.496  43.903  53.616  1.00  0.00     0.046 A 
ATOM     29  C   UNL     1       1.449  44.288  54.960  1.00  0.00     0.021 A 
ATOM     30  C   UNL     1       2.289  44.205  51.228  1.00  0.00     0.048 C 
ATOM     31  Cl  UNL     1       0.591  42.494  53.174  1.00  0.00    -0.084 Cl
ENDBRANCH  22  24
ENDBRANCH  15  22
ENDBRANCH   1  12
TORSDOF 6
ENDMDL
MODEL 16
REMARK VINA RESULT:    -8.880      1.397      2.050
REMARK INTER + INTRA:         -12.947
REMARK INTER:                 -12.144
REMARK INTRA:                  -0.803
REMARK UNBOUND:                -0.952
REMARK SMILES COc1ccc(CNc2nc(Nc3cccc(Cl)c3C)c3cnn(C)c3n2)cc1
REMARK SMILES IDX 8 1 7 3 6 4 3 5 4 6 29 7 5 8 28 9 2 10 1 11 9 12 10 13 27 14
REMARK SMILES IDX 11 15 26 16 21 17 24 18 22 19 23 20 25 21 12 22 13 24 14 25
REMARK SMILES IDX 19 26 15 27 17 28 16 29 20 30 18 31
REMARK H PARENT 8 2 12 23
ROOT
ATOM      1  N   UNL     1       6.357  46.200  50.837  1.00  0.00    -0.350 N 
ATOM      2  H   UNL     1       6.106  47.004  51.401  1.00  0.00     0.164 HD
ENDROOT
BRANCH   1   3
ATOM      3  C   UNL     1       7.751  45.817  50.926  1.00  0.00     0.152 C 
BRANCH   3   4
ATOM      4  C   UNL     1       8.342  46.396  52.192  1.00  0.00    -0.029 A 
ATOM      5  C   UNL     1       9.466  47.492  54.532  1.00  0.00     0.118 A 
ATOM      6  C   UNL     1       8.083  47.498  54.337  1.00  0.00     0.047 A 
ATOM      7  C   UNL     1      10.289  46.940  53.552  1.00  0.00     0.047 A 
ATOM      8  C   UNL     1       7.522  46.959  53.176  1.00  0.00     0.009 A 
ATOM      9  C   UNL     1       9.731  46.398  52.389  1.00  0.00     0.009 A 
BRANCH   5  10
ATOM     10  O   UNL     1       9.879  48.052  55.710  1.00  0.00    -0.497 OA
ATOM     11  C   UNL     1      11.059  47.516  56.295  1.00  0.00     0.278 C 
ENDBRANCH   5  10
ENDBRANCH   3   4
ENDBRANCH   1   3
BRANCH   1  12
ATOM     12  C   UNL     1       5.469  45.189  51.173  1.00  0.00     0.227 A 
ATOM     13  N   UNL     1       5.745  43.993  50.622  1.00  0.00    -0.195 NA
ATOM     14  N   UNL     1       4.440  45.454  51.992  1.00  0.00    -0.193 NA
ATOM     15  C   UNL     1       4.959  42.920  50.888  1.00  0.00     0.147 A 
ATOM     16  C   UNL     1       3.676  44.379  52.233  1.00  0.00     0.165 A 
ATOM     17  C   UNL     1       3.861  43.106  51.730  1.00  0.00     0.082 A 
ATOM     18  N   UNL     1       2.561  44.313  53.024  1.00  0.00    -0.250 N 
ATOM     19  C   UNL     1       2.797  42.357  52.273  1.00  0.00     0.149 A 
ATOM     20  N   UNL     1       1.996  43.084  53.061  1.00  0.00    -0.179 NA
ATOM     21  C   UNL     1       1.969  45.388  53.779  1.00  0.00     0.176 C 
BRANCH  15  22
ATOM     22  N   UNL     1       5.324  41.704  50.277  1.00  0.00    -0.339 N 
ATOM     23  H   UNL     1       5.240  40.999  51.009  1.00  0.00     0.168 HD
BRANCH  22  24
ATOM     24  C   UNL     1       4.808  41.233  49.047  1.00  0.00     0.044 A 
ATOM     25  C   UNL     1       3.700  40.372  49.111  1.00  0.00     0.026 A 
ATOM     26  C   UNL     1       5.332  41.615  47.792  1.00  0.00    -0.009 A 
ATOM     27  C   UNL     1       3.137  39.840  47.954  1.00  0.00     0.004 A 
ATOM     28  C   UNL     1       4.766  41.043  46.635  1.00  0.00     0.046 A 
ATOM     29  C   UNL     1       3.678  40.168  46.717  1.00  0.00     0.021 A 
ATOM     30  C   UNL     1       6.499  42.563  47.686  1.00  0.00     0.048 C 
ATOM     31  Cl  UNL     1       5.384  41.375  45.052  1.00  0.00    -0.084 Cl
ENDBRANCH  22  24
ENDBRANCH  15  22
ENDBRANCH   1  12
TORSDOF 6
ENDMDL
MODEL 17
REMARK VINA RESULT:    -8.785      2.776      4.367
REMARK INTER + INTRA:         -12.818
REMARK INTER:                 -11.596
REMARK INTRA:                  -1.222
REMARK UNBOUND:                -0.952
REMARK SMILES COc1ccc(CNc2nc(Nc3cccc(Cl)c3C)c3cnn(C)c3n2)cc1
REMARK SMILES IDX 8 1 7 3 6 4 3 5 4 6 29 7 5 8 28 9 2 10 1 11 9 12 10 13 27 14
REMARK SMILES IDX 11 15 26 16 21 17 24 18 22 19 23 20 25 21 12 22 13 24 14 25
REMARK SMILES IDX 19 26 15 27 17 28 16 29 20 30 18 31
REMARK H PARENT 8 2 12 23
ROOT
ATOM      1  N   UNL     1       3.409  46.402  54.313  1.00  0.00    -0.350 N 
ATOM      2  H   UNL     1       4.035  45.878  54.914  1.00  0.00     0.164 HD
ENDROOT
BRANCH   1   3
ATOM      3  C   UNL     1       4.052  47.440  53.536  1.00  0.00     0.152 C 
BRANCH   3   4
ATOM      4  C   UNL     1       5.529  47.134  53.430  1.00  0.00    -0.029 A 
ATOM      5  C   UNL     1       8.287  46.596  53.220  1.00  0.00     0.118 A 
ATOM      6  C   UNL     1       7.613  46.392  54.426  1.00  0.00     0.047 A 
ATOM      7  C   UNL     1       7.581  47.074  52.117  1.00  0.00     0.047 A 
ATOM      8  C   UNL     1       6.246  46.661  54.535  1.00  0.00     0.009 A 
ATOM      9  C   UNL     1       6.212  47.343  52.223  1.00  0.00     0.009 A 
BRANCH   5  10
ATOM     10  O   UNL     1       9.621  46.293  53.253  1.00  0.00    -0.497 OA
ATOM     11  C   UNL     1      10.296  46.231  52.003  1.00  0.00     0.278 C 
ENDBRANCH   5  10
ENDBRANCH   3   4
ENDBRANCH   1   3
BRANCH   1  12
ATOM     12  C   UNL     1       2.718  45.469  53.554  1.00  0.00     0.227 A 
ATOM     13  N   UNL     1       3.430  44.376  53.224  1.00  0.00    -0.195 NA
ATOM     14  N   UNL     1       1.441  45.701  53.216  1.00  0.00    -0.193 NA
ATOM     15  C   UNL     1       2.860  43.382  52.497  1.00  0.00     0.147 A 
ATOM     16  C   UNL     1       0.903  44.708  52.494  1.00  0.00     0.165 A 
ATOM     17  C   UNL     1       1.531  43.543  52.099  1.00  0.00     0.082 A 
ATOM     18  N   UNL     1      -0.371  44.636  51.999  1.00  0.00    -0.250 N 
ATOM     19  C   UNL     1       0.549  42.847  51.366  1.00  0.00     0.149 A 
ATOM     20  N   UNL     1      -0.614  43.507  51.295  1.00  0.00    -0.179 NA
ATOM     21  C   UNL     1      -1.418  45.613  52.156  1.00  0.00     0.176 C 
BRANCH  15  22
ATOM     22  N   UNL     1       3.673  42.269  52.203  1.00  0.00    -0.339 N 
ATOM     23  H   UNL     1       3.137  41.457  52.508  1.00  0.00     0.168 HD
BRANCH  22  24
ATOM     24  C   UNL     1       4.299  42.036  50.957  1.00  0.00     0.044 A 
ATOM     25  C   UNL     1       3.749  41.027  50.149  1.00  0.00     0.026 A 
ATOM     26  C   UNL     1       5.405  42.783  50.495  1.00  0.00    -0.009 A 
ATOM     27  C   UNL     1       4.310  40.710  48.915  1.00  0.00     0.004 A 
ATOM     28  C   UNL     1       5.976  42.427  49.257  1.00  0.00     0.046 A 
ATOM     29  C   UNL     1       5.430  41.404  48.475  1.00  0.00     0.021 A 
ATOM     30  C   UNL     1       6.000  43.894  51.323  1.00  0.00     0.048 C 
ATOM     31  Cl  UNL     1       7.384  43.220  48.635  1.00  0.00    -0.084 Cl
ENDBRANCH  22  24
ENDBRANCH  15  22
ENDBRANCH   1  12
TORSDOF 6
ENDMDL
MODEL 18
REMARK VINA RESULT:    -8.716      3.474      7.906
REMARK INTER + INTRA:         -12.725
REMARK INTER:                 -11.386
REMARK INTRA:                  -1.339
REMARK UNBOUND:                -0.952
REMARK SMILES COc1ccc(CNc2nc(Nc3cccc(Cl)c3C)c3cnn(C)c3n2)cc1
REMARK SMILES IDX 8 1 7 3 6 4 3 5 4 6 29 7 5 8 28 9 2 10 1 11 9 12 10 13 27 14
REMARK SMILES IDX 11 15 26 16 21 17 24 18 22 19 23 20 25 21 12 22 13 24 14 25
REMARK SMILES IDX 19 26 15 27 17 28 16 29 20 30 18 31
REMARK H PARENT 8 2 12 23
ROOT
ATOM      1  N   UNL     1       7.058  43.564  49.247  1.00  0.00    -0.350 N 
ATOM      2  H   UNL     1       7.980  43.706  48.847  1.00  0.00     0.164 HD
ENDROOT
BRANCH   1   3
ATOM      3  C   UNL     1       6.823  42.229  49.754  1.00  0.00     0.152 C 
BRANCH   3   4
ATOM      4  C   UNL     1       5.686  41.600  48.980  1.00  0.00    -0.029 A 
ATOM      5  C   UNL     1       3.545  40.449  47.556  1.00  0.00     0.118 A 
ATOM      6  C   UNL     1       4.645  40.980  46.879  1.00  0.00     0.047 A 
ATOM      7  C   UNL     1       3.513  40.497  48.949  1.00  0.00     0.047 A 
ATOM      8  C   UNL     1       5.707  41.555  47.581  1.00  0.00     0.009 A 
ATOM      9  C   UNL     1       4.576  41.071  49.655  1.00  0.00     0.009 A 
BRANCH   5  10
ATOM     10  O   UNL     1       2.578  39.918  46.746  1.00  0.00    -0.497 OA
ATOM     11  C   UNL     1       2.328  40.593  45.519  1.00  0.00     0.278 C 
ENDBRANCH   5  10
ENDBRANCH   3   4
ENDBRANCH   1   3
BRANCH   1  12
ATOM     12  C   UNL     1       6.878  44.568  50.187  1.00  0.00     0.227 A 
ATOM     13  N   UNL     1       5.592  44.862  50.455  1.00  0.00    -0.195 NA
ATOM     14  N   UNL     1       7.946  45.153  50.748  1.00  0.00    -0.193 NA
ATOM     15  C   UNL     1       5.284  45.815  51.370  1.00  0.00     0.147 A 
ATOM     16  C   UNL     1       7.615  46.095  51.643  1.00  0.00     0.165 A 
ATOM     17  C   UNL     1       6.338  46.479  52.001  1.00  0.00     0.082 A 
ATOM     18  N   UNL     1       8.464  46.868  52.388  1.00  0.00    -0.250 N 
ATOM     19  C   UNL     1       6.533  47.494  52.959  1.00  0.00     0.149 A 
ATOM     20  N   UNL     1       7.826  47.743  53.200  1.00  0.00    -0.179 NA
ATOM     21  C   UNL     1       9.904  46.832  52.377  1.00  0.00     0.176 C 
BRANCH  15  22
ATOM     22  N   UNL     1       3.914  46.054  51.596  1.00  0.00    -0.339 N 
ATOM     23  H   UNL     1       3.461  45.886  50.698  1.00  0.00     0.168 HD
BRANCH  22  24
ATOM     24  C   UNL     1       3.166  45.504  52.662  1.00  0.00     0.044 A 
ATOM     25  C   UNL     1       3.224  46.179  53.893  1.00  0.00     0.026 A 
ATOM     26  C   UNL     1       2.358  44.353  52.528  1.00  0.00    -0.009 A 
ATOM     27  C   UNL     1       2.538  45.702  55.006  1.00  0.00     0.004 A 
ATOM     28  C   UNL     1       1.695  43.870  53.674  1.00  0.00     0.046 A 
ATOM     29  C   UNL     1       1.782  44.540  54.898  1.00  0.00     0.021 A 
ATOM     30  C   UNL     1       2.247  43.624  51.213  1.00  0.00     0.048 C 
ATOM     31  Cl  UNL     1       0.747  42.421  53.642  1.00  0.00    -0.084 Cl
ENDBRANCH  22  24
ENDBRANCH  15  22
ENDBRANCH   1  12
TORSDOF 6
ENDMDL
MODEL 19
REMARK VINA RESULT:    -8.656      4.195      7.490
REMARK INTER + INTRA:         -12.644
REMARK INTER:                 -11.217
REMARK INTRA:                  -1.427
REMARK UNBOUND:                -0.952
REMARK SMILES COc1ccc(CNc2nc(Nc3cccc(Cl)c3C)c3cnn(C)c3n2)cc1
REMARK SMILES IDX 8 1 7 3 6 4 3 5 4 6 29 7 5 8 28 9 2 10 1 11 9 12 10 13 27 14
REMARK SMILES IDX 11 15 26 16 21 17 24 18 22 19 23 20 25 21 12 22 13 24 14 25
REMARK SMILES IDX 19 26 15 27 17 28 16 29 20 30 18 31
REMARK H PARENT 8 2 12 23
ROOT
ATOM      1  N   UNL     1       2.472  42.377  50.894  1.00  0.00    -0.350 N 
ATOM      2  H   UNL     1       2.664  43.008  50.124  1.00  0.00     0.164 HD
ENDROOT
BRANCH   1   3
ATOM      3  C   UNL     1       3.652  41.843  51.542  1.00  0.00     0.152 C 
BRANCH   3   4
ATOM      4  C   UNL     1       4.882  42.382  50.847  1.00  0.00    -0.029 A 
ATOM      5  C   UNL     1       7.186  43.399  49.582  1.00  0.00     0.118 A 
ATOM      6  C   UNL     1       6.809  42.065  49.408  1.00  0.00     0.047 A 
ATOM      7  C   UNL     1       6.410  44.225  50.394  1.00  0.00     0.047 A 
ATOM      8  C   UNL     1       5.669  41.556  50.036  1.00  0.00     0.009 A 
ATOM      9  C   UNL     1       5.268  43.719  51.023  1.00  0.00     0.009 A 
BRANCH   5  10
ATOM     10  O   UNL     1       8.321  43.764  48.911  1.00  0.00    -0.497 OA
ATOM     11  C   UNL     1       9.292  44.498  49.645  1.00  0.00     0.278 C 
ENDBRANCH   5  10
ENDBRANCH   3   4
ENDBRANCH   1   3
BRANCH   1  12
ATOM     12  C   UNL     1       1.610  43.048  51.749  1.00  0.00     0.227 A 
ATOM     13  N   UNL     1       2.211  43.907  52.592  1.00  0.00    -0.195 NA
ATOM     14  N   UNL     1       0.291  42.813  51.681  1.00  0.00    -0.193 NA
ATOM     15  C   UNL     1       1.473  44.637  53.466  1.00  0.00     0.147 A 
ATOM     16  C   UNL     1      -0.415  43.540  52.559  1.00  0.00     0.165 A 
ATOM     17  C   UNL     1       0.089  44.452  53.466  1.00  0.00     0.082 A 
ATOM     18  N   UNL     1      -1.771  43.538  52.740  1.00  0.00    -0.250 N 
ATOM     19  C   UNL     1      -1.048  44.932  54.147  1.00  0.00     0.149 A 
ATOM     20  N   UNL     1      -2.187  44.378  53.715  1.00  0.00    -0.179 NA
ATOM     21  C   UNL     1      -2.741  42.755  52.017  1.00  0.00     0.176 C 
BRANCH  15  22
ATOM     22  N   UNL     1       2.180  45.519  54.306  1.00  0.00    -0.339 N 
ATOM     23  H   UNL     1       1.812  45.352  55.242  1.00  0.00     0.168 HD
BRANCH  22  24
ATOM     24  C   UNL     1       3.587  45.662  54.323  1.00  0.00     0.044 A 
ATOM     25  C   UNL     1       4.288  44.934  55.300  1.00  0.00     0.026 A 
ATOM     26  C   UNL     1       4.295  46.460  53.397  1.00  0.00    -0.009 A 
ATOM     27  C   UNL     1       5.672  45.027  55.409  1.00  0.00     0.004 A 
ATOM     28  C   UNL     1       5.693  46.563  53.542  1.00  0.00     0.046 A 
ATOM     29  C   UNL     1       6.373  45.851  54.535  1.00  0.00     0.021 A 
ATOM     30  C   UNL     1       3.577  47.228  52.316  1.00  0.00     0.048 C 
ATOM     31  Cl  UNL     1       6.648  47.579  52.516  1.00  0.00    -0.084 Cl
ENDBRANCH  22  24
ENDBRANCH  15  22
ENDBRANCH   1  12
TORSDOF 6
ENDMDL
MODEL 20
REMARK VINA RESULT:    -8.643      3.866      8.180
REMARK INTER + INTRA:         -12.627
REMARK INTER:                 -11.604
REMARK INTRA:                  -1.023
REMARK UNBOUND:                -0.952
REMARK SMILES COc1ccc(CNc2nc(Nc3cccc(Cl)c3C)c3cnn(C)c3n2)cc1
REMARK SMILES IDX 8 1 7 3 6 4 3 5 4 6 29 7 5 8 28 9 2 10 1 11 9 12 10 13 27 14
REMARK SMILES IDX 11 15 26 16 21 17 24 18 22 19 23 20 25 21 12 22 13 24 14 25
REMARK SMILES IDX 19 26 15 27 17 28 16 29 20 30 18 31
REMARK H PARENT 8 2 12 23
ROOT
ATOM      1  N   UNL     1       7.083  42.950  48.952  1.00  0.00    -0.350 N 
ATOM      2  H   UNL     1       8.066  42.706  48.903  1.00  0.00     0.164 HD
ENDROOT
BRANCH   1   3
ATOM      3  C   UNL     1       6.207  41.848  49.290  1.00  0.00     0.152 C 
BRANCH   3   4
ATOM      4  C   UNL     1       5.405  41.462  48.068  1.00  0.00    -0.029 A 
ATOM      5  C   UNL     1       3.881  40.754  45.806  1.00  0.00     0.118 A 
ATOM      6  C   UNL     1       5.019  41.553  45.675  1.00  0.00     0.047 A 
ATOM      7  C   UNL     1       3.502  40.311  47.072  1.00  0.00     0.047 A 
ATOM      8  C   UNL     1       5.776  41.909  46.794  1.00  0.00     0.009 A 
ATOM      9  C   UNL     1       4.257  40.665  48.195  1.00  0.00     0.009 A 
BRANCH   5  10
ATOM     10  O   UNL     1       3.235  40.483  44.630  1.00  0.00    -0.497 OA
ATOM     11  C   UNL     1       3.908  39.633  43.710  1.00  0.00     0.278 C 
ENDBRANCH   5  10
ENDBRANCH   3   4
ENDBRANCH   1   3
BRANCH   1  12
ATOM     12  C   UNL     1       6.987  44.035  49.811  1.00  0.00     0.227 A 
ATOM     13  N   UNL     1       5.729  44.401  50.115  1.00  0.00    -0.195 NA
ATOM     14  N   UNL     1       8.104  44.622  50.267  1.00  0.00    -0.193 NA
ATOM     15  C   UNL     1       5.503  45.438  50.960  1.00  0.00     0.147 A 
ATOM     16  C   UNL     1       7.854  45.647  51.094  1.00  0.00     0.165 A 
ATOM     17  C   UNL     1       6.612  46.110  51.480  1.00  0.00     0.082 A 
ATOM     18  N   UNL     1       8.767  46.445  51.728  1.00  0.00    -0.250 N 
ATOM     19  C   UNL     1       6.893  47.192  52.338  1.00  0.00     0.149 A 
ATOM     20  N   UNL     1       8.205  47.408  52.493  1.00  0.00    -0.179 NA
ATOM     21  C   UNL     1      10.203  46.350  51.650  1.00  0.00     0.176 C 
BRANCH  15  22
ATOM     22  N   UNL     1       4.157  45.749  51.232  1.00  0.00    -0.339 N 
ATOM     23  H   UNL     1       3.733  45.929  50.322  1.00  0.00     0.168 HD
BRANCH  22  24
ATOM     24  C   UNL     1       3.302  44.980  52.056  1.00  0.00     0.044 A 
ATOM     25  C   UNL     1       2.742  43.824  51.486  1.00  0.00     0.026 A 
ATOM     26  C   UNL     1       3.028  45.304  53.403  1.00  0.00    -0.009 A 
ATOM     27  C   UNL     1       1.872  43.016  52.211  1.00  0.00     0.004 A 
ATOM     28  C   UNL     1       2.122  44.489  54.111  1.00  0.00     0.046 A 
ATOM     29  C   UNL     1       1.554  43.355  53.521  1.00  0.00     0.021 A 
ATOM     30  C   UNL     1       3.639  46.519  54.055  1.00  0.00     0.048 C 
ATOM     31  Cl  UNL     1       1.650  44.843  55.739  1.00  0.00    -0.084 Cl
ENDBRANCH  22  24
ENDBRANCH  15  22
ENDBRANCH   1  12
TORSDOF 6
ENDMDL
