MODEL 1
REMARK VINA RESULT:    -9.050      0.000      0.000
REMARK INTER + INTRA:         -13.040
REMARK INTER:                 -12.224
REMARK INTRA:                  -0.815
REMARK UNBOUND:                -0.815
REMARK SMILES CC(C)CCNc1nc(Nc2ccc(F)c(F)c2F)c2cnn(C)c2n1
REMARK SMILES IDX 6 1 5 3 4 4 2 5 1 6 3 7 7 8 8 9 26 10 9 11 25 12 20 13 23 14
REMARK SMILES IDX 21 15 22 16 24 17 10 18 11 20 12 21 18 22 13 23 16 24 14 25
REMARK SMILES IDX 19 26 17 27 15 28
REMARK H PARENT 6 2 10 19
ROOT
ATOM      1  N   UNL     1       6.249  41.565  49.368  1.00  0.00    -0.354 N 
ATOM      2  H   UNL     1       7.214  41.789  49.146  1.00  0.00     0.163 HD
ENDROOT
BRANCH   1   3
ATOM      3  C   UNL     1       5.420  41.215  48.229  1.00  0.00     0.116 C 
BRANCH   3   4
ATOM      4  C   UNL     1       5.824  42.038  46.999  1.00  0.00     0.024 C 
BRANCH   4   5
ATOM      5  C   UNL     1       5.275  41.505  45.660  1.00  0.00    -0.016 C 
ATOM      6  C   UNL     1       5.143  42.585  44.586  1.00  0.00     0.007 C 
ATOM      7  C   UNL     1       3.913  40.843  45.891  1.00  0.00     0.007 C 
ENDBRANCH   4   5
ENDBRANCH   3   4
ENDBRANCH   1   3
BRANCH   1   8
ATOM      8  C   UNL     1       5.780  42.639  50.117  1.00  0.00     0.226 A 
ATOM      9  N   UNL     1       6.523  43.758  50.214  1.00  0.00    -0.195 NA
ATOM     10  N   UNL     1       4.587  42.443  50.693  1.00  0.00    -0.193 NA
ATOM     11  C   UNL     1       6.087  44.827  50.930  1.00  0.00     0.147 A 
ATOM     12  C   UNL     1       4.173  43.503  51.402  1.00  0.00     0.165 A 
ATOM     13  C   UNL     1       4.847  44.696  51.567  1.00  0.00     0.082 A 
ATOM     14  N   UNL     1       3.005  43.627  52.103  1.00  0.00    -0.250 N 
ATOM     15  C   UNL     1       3.998  45.465  52.389  1.00  0.00     0.149 A 
ATOM     16  N   UNL     1       2.875  44.822  52.726  1.00  0.00    -0.179 NA
ATOM     17  C   UNL     1       1.959  42.644  52.228  1.00  0.00     0.176 C 
BRANCH  11  18
ATOM     18  N   UNL     1       6.850  45.996  51.047  1.00  0.00    -0.337 N 
ATOM     19  H   UNL     1       6.600  46.727  50.391  1.00  0.00     0.168 HD
BRANCH  18  20
ATOM     20  C   UNL     1       7.897  46.366  51.912  1.00  0.00     0.079 A 
ATOM     21  C   UNL     1       9.251  46.099  51.668  1.00  0.00     0.032 A 
ATOM     22  C   UNL     1       7.571  47.029  53.111  1.00  0.00     0.185 A 
ATOM     23  C   UNL     1      10.238  46.482  52.585  1.00  0.00     0.045 A 
ATOM     24  C   UNL     1       8.546  47.410  54.024  1.00  0.00     0.196 A 
ATOM     25  C   UNL     1       9.877  47.134  53.759  1.00  0.00     0.162 A 
ATOM     26  F   UNL     1       6.280  47.298  53.371  1.00  0.00    -0.201 F 
ATOM     27  F   UNL     1       8.199  48.040  55.155  1.00  0.00    -0.200 F 
ATOM     28  F   UNL     1      10.829  47.496  54.628  1.00  0.00    -0.204 F 
ENDBRANCH  18  20
ENDBRANCH  11  18
ENDBRANCH   1   8
TORSDOF 6
ENDMDL
MODEL 2
REMARK VINA RESULT:    -8.984      3.740      7.758
REMARK INTER + INTRA:         -12.951
REMARK INTER:                 -12.089
REMARK INTRA:                  -0.862
REMARK UNBOUND:                -0.815
REMARK SMILES CC(C)CCNc1nc(Nc2ccc(F)c(F)c2F)c2cnn(C)c2n1
REMARK SMILES IDX 6 1 5 3 4 4 2 5 1 6 3 7 7 8 8 9 26 10 9 11 25 12 20 13 23 14
REMARK SMILES IDX 21 15 22 16 24 17 10 18 11 20 12 21 18 22 13 23 16 24 14 25
REMARK SMILES IDX 19 26 17 27 15 28
REMARK H PARENT 6 2 10 19
ROOT
ATOM      1  N   UNL     1       7.294  45.955  50.790  1.00  0.00    -0.354 N 
ATOM      2  H   UNL     1       8.206  45.525  50.681  1.00  0.00     0.163 HD
ENDROOT
BRANCH   1   3
ATOM      3  C   UNL     1       7.199  46.934  51.858  1.00  0.00     0.116 C 
BRANCH   3   4
ATOM      4  C   UNL     1       8.582  47.516  52.177  1.00  0.00     0.024 C 
BRANCH   4   5
ATOM      5  C   UNL     1       9.536  46.547  52.905  1.00  0.00    -0.016 C 
ATOM      6  C   UNL     1      10.161  47.144  54.165  1.00  0.00     0.007 C 
ATOM      7  C   UNL     1      10.643  46.100  51.945  1.00  0.00     0.007 C 
ENDBRANCH   4   5
ENDBRANCH   3   4
ENDBRANCH   1   3
BRANCH   1   8
ATOM      8  C   UNL     1       6.392  44.901  50.890  1.00  0.00     0.226 A 
ATOM      9  N   UNL     1       6.518  43.838  50.073  1.00  0.00    -0.195 NA
ATOM     10  N   UNL     1       5.448  45.056  51.827  1.00  0.00    -0.193 NA
ATOM     11  C   UNL     1       5.659  42.789  50.153  1.00  0.00     0.147 A 
ATOM     12  C   UNL     1       4.605  44.017  51.890  1.00  0.00     0.165 A 
ATOM     13  C   UNL     1       4.639  42.880  51.108  1.00  0.00     0.082 A 
ATOM     14  N   UNL     1       3.540  43.862  52.737  1.00  0.00    -0.250 N 
ATOM     15  C   UNL     1       3.549  42.109  51.564  1.00  0.00     0.149 A 
ATOM     16  N   UNL     1       2.870  42.701  52.552  1.00  0.00    -0.179 NA
ATOM     17  C   UNL     1       3.097  44.784  53.751  1.00  0.00     0.176 C 
BRANCH  11  18
ATOM     18  N   UNL     1       5.772  41.679  49.306  1.00  0.00    -0.337 N 
ATOM     19  H   UNL     1       6.317  40.913  49.688  1.00  0.00     0.168 HD
BRANCH  18  20
ATOM     20  C   UNL     1       5.261  41.406  48.023  1.00  0.00     0.079 A 
ATOM     21  C   UNL     1       5.795  41.928  46.837  1.00  0.00     0.032 A 
ATOM     22  C   UNL     1       4.131  40.572  47.916  1.00  0.00     0.185 A 
ATOM     23  C   UNL     1       5.222  41.626  45.595  1.00  0.00     0.045 A 
ATOM     24  C   UNL     1       3.559  40.271  46.687  1.00  0.00     0.196 A 
ATOM     25  C   UNL     1       4.105  40.800  45.529  1.00  0.00     0.162 A 
ATOM     26  F   UNL     1       3.599  40.057  49.037  1.00  0.00    -0.201 F 
ATOM     27  F   UNL     1       2.483  39.474  46.622  1.00  0.00    -0.200 F 
ATOM     28  F   UNL     1       3.566  40.519  44.336  1.00  0.00    -0.204 F 
ENDBRANCH  18  20
ENDBRANCH  11  18
ENDBRANCH   1   8
TORSDOF 6
ENDMDL
MODEL 3
REMARK VINA RESULT:    -8.983      1.659      2.594
REMARK INTER + INTRA:         -12.950
REMARK INTER:                 -12.238
REMARK INTRA:                  -0.712
REMARK UNBOUND:                -0.815
REMARK SMILES CC(C)CCNc1nc(Nc2ccc(F)c(F)c2F)c2cnn(C)c2n1
REMARK SMILES IDX 6 1 5 3 4 4 2 5 1 6 3 7 7 8 8 9 26 10 9 11 25 12 20 13 23 14
REMARK SMILES IDX 21 15 22 16 24 17 10 18 11 20 12 21 18 22 13 23 16 24 14 25
REMARK SMILES IDX 19 26 17 27 15 28
REMARK H PARENT 6 2 10 19
ROOT
ATOM      1  N   UNL     1       4.125  41.696  51.488  1.00  0.00    -0.354 N 
ATOM      2  H   UNL     1       4.941  41.426  52.029  1.00  0.00     0.163 HD
ENDROOT
BRANCH   1   3
ATOM      3  C   UNL     1       4.131  41.257  50.104  1.00  0.00     0.116 C 
BRANCH   3   4
ATOM      4  C   UNL     1       5.564  41.229  49.557  1.00  0.00     0.024 C 
BRANCH   4   5
ATOM      5  C   UNL     1       5.905  42.377  48.585  1.00  0.00    -0.016 C 
ATOM      6  C   UNL     1       5.925  41.944  47.119  1.00  0.00     0.007 C 
ATOM      7  C   UNL     1       7.262  42.980  48.960  1.00  0.00     0.007 C 
ENDBRANCH   4   5
ENDBRANCH   3   4
ENDBRANCH   1   3
BRANCH   1   8
ATOM      8  C   UNL     1       4.002  43.071  51.658  1.00  0.00     0.226 A 
ATOM      9  N   UNL     1       5.067  43.866  51.439  1.00  0.00    -0.195 NA
ATOM     10  N   UNL     1       2.787  43.483  52.040  1.00  0.00    -0.193 NA
ATOM     11  C   UNL     1       4.976  45.213  51.587  1.00  0.00     0.147 A 
ATOM     12  C   UNL     1       2.714  44.813  52.189  1.00  0.00     0.165 A 
ATOM     13  C   UNL     1       3.734  45.721  51.990  1.00  0.00     0.082 A 
ATOM     14  N   UNL     1       1.621  45.547  52.563  1.00  0.00    -0.250 N 
ATOM     15  C   UNL     1       3.150  46.972  52.277  1.00  0.00     0.149 A 
ATOM     16  N   UNL     1       1.864  46.877  52.632  1.00  0.00    -0.179 NA
ATOM     17  C   UNL     1       0.306  45.049  52.875  1.00  0.00     0.176 C 
BRANCH  11  18
ATOM     18  N   UNL     1       6.075  46.054  51.369  1.00  0.00    -0.337 N 
ATOM     19  H   UNL     1       6.068  46.531  50.474  1.00  0.00     0.168 HD
BRANCH  18  20
ATOM     20  C   UNL     1       7.191  46.384  52.161  1.00  0.00     0.079 A 
ATOM     21  C   UNL     1       7.108  46.922  53.452  1.00  0.00     0.032 A 
ATOM     22  C   UNL     1       8.476  46.182  51.623  1.00  0.00     0.185 A 
ATOM     23  C   UNL     1       8.264  47.243  54.175  1.00  0.00     0.045 A 
ATOM     24  C   UNL     1       9.626  46.499  52.334  1.00  0.00     0.196 A 
ATOM     25  C   UNL     1       9.516  47.030  53.609  1.00  0.00     0.162 A 
ATOM     26  F   UNL     1       8.586  45.666  50.386  1.00  0.00    -0.201 F 
ATOM     27  F   UNL     1      10.833  46.293  51.790  1.00  0.00    -0.200 F 
ATOM     28  F   UNL     1      10.615  47.341  54.309  1.00  0.00    -0.204 F 
ENDBRANCH  18  20
ENDBRANCH  11  18
ENDBRANCH   1   8
TORSDOF 6
ENDMDL
MODEL 4
REMARK VINA RESULT:    -8.970      2.253      5.170
REMARK INTER + INTRA:         -12.931
REMARK INTER:                 -11.589
REMARK INTRA:                  -1.342
REMARK UNBOUND:                -0.815
REMARK SMILES CC(C)CCNc1nc(Nc2ccc(F)c(F)c2F)c2cnn(C)c2n1
REMARK SMILES IDX 6 1 5 3 4 4 2 5 1 6 3 7 7 8 8 9 26 10 9 11 25 12 20 13 23 14
REMARK SMILES IDX 21 15 22 16 24 17 10 18 11 20 12 21 18 22 13 23 16 24 14 25
REMARK SMILES IDX 19 26 17 27 15 28
REMARK H PARENT 6 2 10 19
ROOT
ATOM      1  N   UNL     1       1.934  45.126  52.447  1.00  0.00    -0.354 N 
ATOM      2  H   UNL     1       1.341  45.464  51.696  1.00  0.00     0.163 HD
ENDROOT
BRANCH   1   3
ATOM      3  C   UNL     1       2.073  46.029  53.575  1.00  0.00     0.116 C 
BRANCH   3   4
ATOM      4  C   UNL     1       2.623  45.282  54.796  1.00  0.00     0.024 C 
BRANCH   4   5
ATOM      5  C   UNL     1       3.903  45.893  55.403  1.00  0.00    -0.016 C 
ATOM      6  C   UNL     1       4.264  47.255  54.810  1.00  0.00     0.007 C 
ATOM      7  C   UNL     1       5.075  44.924  55.212  1.00  0.00     0.007 C 
ENDBRANCH   4   5
ENDBRANCH   3   4
ENDBRANCH   1   3
BRANCH   1   8
ATOM      8  C   UNL     1       3.134  44.766  51.844  1.00  0.00     0.226 A 
ATOM      9  N   UNL     1       4.144  45.656  51.787  1.00  0.00    -0.195 NA
ATOM     10  N   UNL     1       3.166  43.519  51.357  1.00  0.00    -0.193 NA
ATOM     11  C   UNL     1       5.331  45.331  51.213  1.00  0.00     0.147 A 
ATOM     12  C   UNL     1       4.341  43.215  50.788  1.00  0.00     0.165 A 
ATOM     13  C   UNL     1       5.440  44.042  50.675  1.00  0.00     0.082 A 
ATOM     14  N   UNL     1       4.698  42.030  50.204  1.00  0.00    -0.250 N 
ATOM     15  C   UNL     1       6.401  43.258  50.004  1.00  0.00     0.149 A 
ATOM     16  N   UNL     1       5.957  42.032  49.708  1.00  0.00    -0.179 NA
ATOM     17  C   UNL     1       3.888  40.845  50.079  1.00  0.00     0.176 C 
BRANCH  11  18
ATOM     18  N   UNL     1       6.388  46.247  51.139  1.00  0.00    -0.337 N 
ATOM     19  H   UNL     1       6.378  46.836  50.314  1.00  0.00     0.168 HD
BRANCH  18  20
ATOM     20  C   UNL     1       7.466  46.525  52.001  1.00  0.00     0.079 A 
ATOM     21  C   UNL     1       7.344  47.207  53.219  1.00  0.00     0.032 A 
ATOM     22  C   UNL     1       8.756  46.114  51.613  1.00  0.00     0.185 A 
ATOM     23  C   UNL     1       8.466  47.465  54.017  1.00  0.00     0.045 A 
ATOM     24  C   UNL     1       9.872  46.368  52.399  1.00  0.00     0.196 A 
ATOM     25  C   UNL     1       9.724  47.044  53.599  1.00  0.00     0.162 A 
ATOM     26  F   UNL     1       8.903  45.458  50.450  1.00  0.00    -0.201 F 
ATOM     27  F   UNL     1      11.085  45.961  51.999  1.00  0.00    -0.200 F 
ATOM     28  F   UNL     1      10.790  47.296  54.370  1.00  0.00    -0.204 F 
ENDBRANCH  18  20
ENDBRANCH  11  18
ENDBRANCH   1   8
TORSDOF 6
ENDMDL
MODEL 5
REMARK VINA RESULT:    -8.956      3.543      7.727
REMARK INTER + INTRA:         -12.913
REMARK INTER:                 -12.077
REMARK INTRA:                  -0.836
REMARK UNBOUND:                -0.815
REMARK SMILES CC(C)CCNc1nc(Nc2ccc(F)c(F)c2F)c2cnn(C)c2n1
REMARK SMILES IDX 6 1 5 3 4 4 2 5 1 6 3 7 7 8 8 9 26 10 9 11 25 12 20 13 23 14
REMARK SMILES IDX 21 15 22 16 24 17 10 18 11 20 12 21 18 22 13 23 16 24 14 25
REMARK SMILES IDX 19 26 17 27 15 28
REMARK H PARENT 6 2 10 19
ROOT
ATOM      1  N   UNL     1       7.297  45.822  50.872  1.00  0.00    -0.354 N 
ATOM      2  H   UNL     1       8.203  45.367  50.914  1.00  0.00     0.163 HD
ENDROOT
BRANCH   1   3
ATOM      3  C   UNL     1       7.100  46.893  51.832  1.00  0.00     0.116 C 
BRANCH   3   4
ATOM      4  C   UNL     1       8.443  47.541  52.195  1.00  0.00     0.024 C 
BRANCH   4   5
ATOM      5  C   UNL     1       9.432  46.609  52.925  1.00  0.00    -0.016 C 
ATOM      6  C   UNL     1      10.020  47.224  54.194  1.00  0.00     0.007 C 
ATOM      7  C   UNL     1      10.565  46.217  51.972  1.00  0.00     0.007 C 
ENDBRANCH   4   5
ENDBRANCH   3   4
ENDBRANCH   1   3
BRANCH   1   8
ATOM      8  C   UNL     1       6.359  44.798  50.948  1.00  0.00     0.226 A 
ATOM      9  N   UNL     1       6.471  43.732  50.132  1.00  0.00    -0.195 NA
ATOM     10  N   UNL     1       5.398  44.983  51.861  1.00  0.00    -0.193 NA
ATOM     11  C   UNL     1       5.577  42.711  50.189  1.00  0.00     0.147 A 
ATOM     12  C   UNL     1       4.520  43.972  51.901  1.00  0.00     0.165 A 
ATOM     13  C   UNL     1       4.537  42.835  51.119  1.00  0.00     0.082 A 
ATOM     14  N   UNL     1       3.430  43.852  52.721  1.00  0.00    -0.250 N 
ATOM     15  C   UNL     1       3.411  42.100  51.546  1.00  0.00     0.149 A 
ATOM     16  N   UNL     1       2.727  42.713  52.518  1.00  0.00    -0.179 NA
ATOM     17  C   UNL     1       2.992  44.786  53.726  1.00  0.00     0.176 C 
BRANCH  11  18
ATOM     18  N   UNL     1       5.674  41.599  49.344  1.00  0.00    -0.337 N 
ATOM     19  H   UNL     1       6.325  40.888  49.659  1.00  0.00     0.168 HD
BRANCH  18  20
ATOM     20  C   UNL     1       5.030  41.261  48.138  1.00  0.00     0.079 A 
ATOM     21  C   UNL     1       3.941  40.384  48.048  1.00  0.00     0.032 A 
ATOM     22  C   UNL     1       5.515  41.819  46.940  1.00  0.00     0.185 A 
ATOM     23  C   UNL     1       3.361  40.079  46.810  1.00  0.00     0.045 A 
ATOM     24  C   UNL     1       4.945  41.520  45.710  1.00  0.00     0.196 A 
ATOM     25  C   UNL     1       3.870  40.650  45.648  1.00  0.00     0.162 A 
ATOM     26  F   UNL     1       6.559  42.664  46.998  1.00  0.00    -0.201 F 
ATOM     27  F   UNL     1       5.433  42.071  44.590  1.00  0.00    -0.200 F 
ATOM     28  F   UNL     1       3.307  40.351  44.470  1.00  0.00    -0.204 F 
ENDBRANCH  18  20
ENDBRANCH  11  18
ENDBRANCH   1   8
TORSDOF 6
ENDMDL
MODEL 6
REMARK VINA RESULT:    -8.861      1.749      2.576
REMARK INTER + INTRA:         -12.784
REMARK INTER:                 -11.802
REMARK INTRA:                  -0.982
REMARK UNBOUND:                -0.815
REMARK SMILES CC(C)CCNc1nc(Nc2ccc(F)c(F)c2F)c2cnn(C)c2n1
REMARK SMILES IDX 6 1 5 3 4 4 2 5 1 6 3 7 7 8 8 9 26 10 9 11 25 12 20 13 23 14
REMARK SMILES IDX 21 15 22 16 24 17 10 18 11 20 12 21 18 22 13 23 16 24 14 25
REMARK SMILES IDX 19 26 17 27 15 28
REMARK H PARENT 6 2 10 19
ROOT
ATOM      1  N   UNL     1       4.263  41.469  51.611  1.00  0.00    -0.354 N 
ATOM      2  H   UNL     1       5.031  41.298  52.253  1.00  0.00     0.163 HD
ENDROOT
BRANCH   1   3
ATOM      3  C   UNL     1       4.566  41.228  50.211  1.00  0.00     0.116 C 
BRANCH   3   4
ATOM      4  C   UNL     1       6.050  41.499  49.930  1.00  0.00     0.024 C 
BRANCH   4   5
ATOM      5  C   UNL     1       6.317  42.652  48.940  1.00  0.00    -0.016 C 
ATOM      6  C   UNL     1       6.128  42.251  47.478  1.00  0.00     0.007 C 
ATOM      7  C   UNL     1       7.739  43.185  49.146  1.00  0.00     0.007 C 
ENDBRANCH   4   5
ENDBRANCH   3   4
ENDBRANCH   1   3
BRANCH   1   8
ATOM      8  C   UNL     1       3.819  42.756  51.893  1.00  0.00     0.226 A 
ATOM      9  N   UNL     1       4.710  43.711  52.220  1.00  0.00    -0.195 NA
ATOM     10  N   UNL     1       2.493  42.922  51.811  1.00  0.00    -0.193 NA
ATOM     11  C   UNL     1       4.308  44.980  52.491  1.00  0.00     0.147 A 
ATOM     12  C   UNL     1       2.110  44.177  52.088  1.00  0.00     0.165 A 
ATOM     13  C   UNL     1       2.932  45.232  52.430  1.00  0.00     0.082 A 
ATOM     14  N   UNL     1       0.835  44.674  52.088  1.00  0.00    -0.250 N 
ATOM     15  C   UNL     1       2.049  46.315  52.620  1.00  0.00     0.149 A 
ATOM     16  N   UNL     1       0.768  45.985  52.419  1.00  0.00    -0.179 NA
ATOM     17  C   UNL     1      -0.377  43.957  51.785  1.00  0.00     0.176 C 
BRANCH  11  18
ATOM     18  N   UNL     1       5.221  45.983  52.839  1.00  0.00    -0.337 N 
ATOM     19  H   UNL     1       4.828  46.734  53.396  1.00  0.00     0.168 HD
BRANCH  18  20
ATOM     20  C   UNL     1       6.594  46.151  52.578  1.00  0.00     0.079 A 
ATOM     21  C   UNL     1       7.168  46.069  51.302  1.00  0.00     0.032 A 
ATOM     22  C   UNL     1       7.456  46.399  53.663  1.00  0.00     0.185 A 
ATOM     23  C   UNL     1       8.548  46.230  51.120  1.00  0.00     0.045 A 
ATOM     24  C   UNL     1       8.825  46.558  53.489  1.00  0.00     0.196 A 
ATOM     25  C   UNL     1       9.367  46.472  52.217  1.00  0.00     0.162 A 
ATOM     26  F   UNL     1       6.933  46.483  54.898  1.00  0.00    -0.201 F 
ATOM     27  F   UNL     1       9.616  46.792  54.546  1.00  0.00    -0.200 F 
ATOM     28  F   UNL     1      10.685  46.623  52.032  1.00  0.00    -0.204 F 
ENDBRANCH  18  20
ENDBRANCH  11  18
ENDBRANCH   1   8
TORSDOF 6
ENDMDL
MODEL 7
REMARK VINA RESULT:    -8.855      3.330      7.315
REMARK INTER + INTRA:         -12.777
REMARK INTER:                 -11.848
REMARK INTRA:                  -0.929
REMARK UNBOUND:                -0.815
REMARK SMILES CC(C)CCNc1nc(Nc2ccc(F)c(F)c2F)c2cnn(C)c2n1
REMARK SMILES IDX 6 1 5 3 4 4 2 5 1 6 3 7 7 8 8 9 26 10 9 11 25 12 20 13 23 14
REMARK SMILES IDX 21 15 22 16 24 17 10 18 11 20 12 21 18 22 13 23 16 24 14 25
REMARK SMILES IDX 19 26 17 27 15 28
REMARK H PARENT 6 2 10 19
ROOT
ATOM      1  N   UNL     1       4.398  47.044  54.942  1.00  0.00    -0.354 N 
ATOM      2  H   UNL     1       4.651  47.808  55.561  1.00  0.00     0.163 HD
ENDROOT
BRANCH   1   3
ATOM      3  C   UNL     1       3.828  45.882  55.600  1.00  0.00     0.116 C 
BRANCH   3   4
ATOM      4  C   UNL     1       2.370  45.682  55.168  1.00  0.00     0.024 C 
BRANCH   4   5
ATOM      5  C   UNL     1       2.194  45.022  53.785  1.00  0.00    -0.016 C 
ATOM      6  C   UNL     1       1.688  45.987  52.713  1.00  0.00     0.007 C 
ATOM      7  C   UNL     1       1.232  43.835  53.902  1.00  0.00     0.007 C 
ENDBRANCH   4   5
ENDBRANCH   3   4
ENDBRANCH   1   3
BRANCH   1   8
ATOM      8  C   UNL     1       5.537  46.781  54.188  1.00  0.00     0.226 A 
ATOM      9  N   UNL     1       5.436  46.038  53.069  1.00  0.00    -0.195 NA
ATOM     10  N   UNL     1       6.666  47.312  54.673  1.00  0.00    -0.193 NA
ATOM     11  C   UNL     1       6.528  45.772  52.306  1.00  0.00     0.147 A 
ATOM     12  C   UNL     1       7.736  47.035  53.914  1.00  0.00     0.165 A 
ATOM     13  C   UNL     1       7.750  46.291  52.751  1.00  0.00     0.082 A 
ATOM     14  N   UNL     1       9.029  47.430  54.127  1.00  0.00    -0.250 N 
ATOM     15  C   UNL     1       9.102  46.296  52.350  1.00  0.00     0.149 A 
ATOM     16  N   UNL     1       9.891  46.983  53.183  1.00  0.00    -0.179 NA
ATOM     17  C   UNL     1       9.522  48.236  55.214  1.00  0.00     0.176 C 
BRANCH  11  18
ATOM     18  N   UNL     1       6.442  44.996  51.143  1.00  0.00    -0.337 N 
ATOM     19  H   UNL     1       7.018  45.325  50.376  1.00  0.00     0.168 HD
BRANCH  18  20
ATOM     20  C   UNL     1       5.719  43.830  50.829  1.00  0.00     0.079 A 
ATOM     21  C   UNL     1       4.544  43.433  51.482  1.00  0.00     0.032 A 
ATOM     22  C   UNL     1       6.209  42.993  49.808  1.00  0.00     0.185 A 
ATOM     23  C   UNL     1       3.887  42.248  51.127  1.00  0.00     0.045 A 
ATOM     24  C   UNL     1       5.562  41.816  49.453  1.00  0.00     0.196 A 
ATOM     25  C   UNL     1       4.403  41.447  50.115  1.00  0.00     0.162 A 
ATOM     26  F   UNL     1       7.334  43.349  49.165  1.00  0.00    -0.201 F 
ATOM     27  F   UNL     1       6.058  41.044  48.476  1.00  0.00    -0.200 F 
ATOM     28  F   UNL     1       3.766  40.316  49.784  1.00  0.00    -0.204 F 
ENDBRANCH  18  20
ENDBRANCH  11  18
ENDBRANCH   1   8
TORSDOF 6
ENDMDL
MODEL 8
REMARK VINA RESULT:    -8.853      3.795      7.881
REMARK INTER + INTRA:         -12.774
REMARK INTER:                 -11.829
REMARK INTRA:                  -0.945
REMARK UNBOUND:                -0.815
REMARK SMILES CC(C)CCNc1nc(Nc2ccc(F)c(F)c2F)c2cnn(C)c2n1
REMARK SMILES IDX 6 1 5 3 4 4 2 5 1 6 3 7 7 8 8 9 26 10 9 11 25 12 20 13 23 14
REMARK SMILES IDX 21 15 22 16 24 17 10 18 11 20 12 21 18 22 13 23 16 24 14 25
REMARK SMILES IDX 19 26 17 27 15 28
REMARK H PARENT 6 2 10 19
ROOT
ATOM      1  N   UNL     1       6.263  46.864  52.820  1.00  0.00    -0.354 N 
ATOM      2  H   UNL     1       5.391  47.376  52.913  1.00  0.00     0.163 HD
ENDROOT
BRANCH   1   3
ATOM      3  C   UNL     1       7.322  47.572  52.124  1.00  0.00     0.116 C 
BRANCH   3   4
ATOM      4  C   UNL     1       8.425  47.987  53.105  1.00  0.00     0.024 C 
BRANCH   4   5
ATOM      5  C   UNL     1       9.367  46.843  53.536  1.00  0.00    -0.016 C 
ATOM      6  C   UNL     1      10.242  47.199  54.737  1.00  0.00     0.007 C 
ATOM      7  C   UNL     1      10.255  46.438  52.356  1.00  0.00     0.007 C 
ENDBRANCH   4   5
ENDBRANCH   3   4
ENDBRANCH   1   3
BRANCH   1   8
ATOM      8  C   UNL     1       5.919  45.639  52.258  1.00  0.00     0.226 A 
ATOM      9  N   UNL     1       4.874  44.949  52.753  1.00  0.00    -0.195 NA
ATOM     10  N   UNL     1       6.696  45.252  51.239  1.00  0.00    -0.193 NA
ATOM     11  C   UNL     1       4.508  43.755  52.220  1.00  0.00     0.147 A 
ATOM     12  C   UNL     1       6.327  44.069  50.727  1.00  0.00     0.165 A 
ATOM     13  C   UNL     1       5.278  43.280  51.150  1.00  0.00     0.082 A 
ATOM     14  N   UNL     1       6.907  43.401  49.682  1.00  0.00    -0.250 N 
ATOM     15  C   UNL     1       5.317  42.158  50.297  1.00  0.00     0.149 A 
ATOM     16  N   UNL     1       6.309  42.218  49.402  1.00  0.00    -0.179 NA
ATOM     17  C   UNL     1       8.040  43.826  48.901  1.00  0.00     0.176 C 
BRANCH  11  18
ATOM     18  N   UNL     1       3.428  43.022  52.727  1.00  0.00    -0.337 N 
ATOM     19  H   UNL     1       3.687  42.150  53.177  1.00  0.00     0.168 HD
BRANCH  18  20
ATOM     20  C   UNL     1       2.041  43.264  52.750  1.00  0.00     0.079 A 
ATOM     21  C   UNL     1       1.340  43.712  53.877  1.00  0.00     0.032 A 
ATOM     22  C   UNL     1       1.300  43.023  51.577  1.00  0.00     0.185 A 
ATOM     23  C   UNL     1      -0.045  43.914  53.831  1.00  0.00     0.045 A 
ATOM     24  C   UNL     1      -0.073  43.221  51.526  1.00  0.00     0.196 A 
ATOM     25  C   UNL     1      -0.743  43.665  52.655  1.00  0.00     0.162 A 
ATOM     26  F   UNL     1       1.947  42.593  50.481  1.00  0.00    -0.201 F 
ATOM     27  F   UNL     1      -0.746  42.982  50.392  1.00  0.00    -0.200 F 
ATOM     28  F   UNL     1      -2.067  43.861  52.622  1.00  0.00    -0.204 F 
ENDBRANCH  18  20
ENDBRANCH  11  18
ENDBRANCH   1   8
TORSDOF 6
ENDMDL
MODEL 9
REMARK VINA RESULT:    -8.838      2.557      5.861
REMARK INTER + INTRA:         -12.753
REMARK INTER:                 -11.929
REMARK INTRA:                  -0.824
REMARK UNBOUND:                -0.815
REMARK SMILES CC(C)CCNc1nc(Nc2ccc(F)c(F)c2F)c2cnn(C)c2n1
REMARK SMILES IDX 6 1 5 3 4 4 2 5 1 6 3 7 7 8 8 9 26 10 9 11 25 12 20 13 23 14
REMARK SMILES IDX 21 15 22 16 24 17 10 18 11 20 12 21 18 22 13 23 16 24 14 25
REMARK SMILES IDX 19 26 17 27 15 28
REMARK H PARENT 6 2 10 19
ROOT
ATOM      1  N   UNL     1       2.209  43.845  53.866  1.00  0.00    -0.354 N 
ATOM      2  H   UNL     1       1.363  43.717  53.320  1.00  0.00     0.163 HD
ENDROOT
BRANCH   1   3
ATOM      3  C   UNL     1       2.167  44.939  54.820  1.00  0.00     0.116 C 
BRANCH   3   4
ATOM      4  C   UNL     1       0.714  45.311  55.145  1.00  0.00     0.024 C 
BRANCH   4   5
ATOM      5  C   UNL     1       0.287  45.025  56.599  1.00  0.00    -0.016 C 
ATOM      6  C   UNL     1      -1.229  44.963  56.784  1.00  0.00     0.007 C 
ATOM      7  C   UNL     1       0.873  46.095  57.526  1.00  0.00     0.007 C 
ENDBRANCH   4   5
ENDBRANCH   3   4
ENDBRANCH   1   3
BRANCH   1   8
ATOM      8  C   UNL     1       3.244  43.926  52.940  1.00  0.00     0.226 A 
ATOM      9  N   UNL     1       4.047  45.006  52.933  1.00  0.00    -0.195 NA
ATOM     10  N   UNL     1       3.339  42.878  52.112  1.00  0.00    -0.193 NA
ATOM     11  C   UNL     1       5.072  45.110  52.047  1.00  0.00     0.147 A 
ATOM     12  C   UNL     1       4.350  42.997  51.240  1.00  0.00     0.165 A 
ATOM     13  C   UNL     1       5.234  44.053  51.143  1.00  0.00     0.082 A 
ATOM     14  N   UNL     1       4.718  42.104  50.270  1.00  0.00    -0.250 N 
ATOM     15  C   UNL     1       6.089  43.696  50.080  1.00  0.00     0.149 A 
ATOM     16  N   UNL     1       5.781  42.513  49.538  1.00  0.00    -0.179 NA
ATOM     17  C   UNL     1       4.101  40.836  49.978  1.00  0.00     0.176 C 
BRANCH  11  18
ATOM     18  N   UNL     1       5.913  46.230  52.022  1.00  0.00    -0.337 N 
ATOM     19  H   UNL     1       5.607  46.971  51.401  1.00  0.00     0.168 HD
BRANCH  18  20
ATOM     20  C   UNL     1       7.104  46.540  52.705  1.00  0.00     0.079 A 
ATOM     21  C   UNL     1       7.156  46.986  54.032  1.00  0.00     0.032 A 
ATOM     22  C   UNL     1       8.324  46.416  52.013  1.00  0.00     0.185 A 
ATOM     23  C   UNL     1       8.379  47.294  54.643  1.00  0.00     0.045 A 
ATOM     24  C   UNL     1       9.539  46.720  52.613  1.00  0.00     0.196 A 
ATOM     25  C   UNL     1       9.563  47.160  53.926  1.00  0.00     0.162 A 
ATOM     26  F   UNL     1       8.304  45.989  50.739  1.00  0.00    -0.201 F 
ATOM     27  F   UNL     1      10.682  46.590  51.924  1.00  0.00    -0.200 F 
ATOM     28  F   UNL     1      10.726  47.457  54.520  1.00  0.00    -0.204 F 
ENDBRANCH  18  20
ENDBRANCH  11  18
ENDBRANCH   1   8
TORSDOF 6
ENDMDL
MODEL 10
REMARK VINA RESULT:    -8.782      3.172      7.563
REMARK INTER + INTRA:         -12.678
REMARK INTER:                 -11.861
REMARK INTRA:                  -0.817
REMARK UNBOUND:                -0.815
REMARK SMILES CC(C)CCNc1nc(Nc2ccc(F)c(F)c2F)c2cnn(C)c2n1
REMARK SMILES IDX 6 1 5 3 4 4 2 5 1 6 3 7 7 8 8 9 26 10 9 11 25 12 20 13 23 14
REMARK SMILES IDX 21 15 22 16 24 17 10 18 11 20 12 21 18 22 13 23 16 24 14 25
REMARK SMILES IDX 19 26 17 27 15 28
REMARK H PARENT 6 2 10 19
ROOT
ATOM      1  N   UNL     1       6.020  46.886  52.331  1.00  0.00    -0.354 N 
ATOM      2  H   UNL     1       6.055  47.436  51.479  1.00  0.00     0.163 HD
ENDROOT
BRANCH   1   3
ATOM      3  C   UNL     1       7.190  46.996  53.183  1.00  0.00     0.116 C 
BRANCH   3   4
ATOM      4  C   UNL     1       8.290  47.805  52.484  1.00  0.00     0.024 C 
BRANCH   4   5
ATOM      5  C   UNL     1       9.728  47.343  52.797  1.00  0.00    -0.016 C 
ATOM      6  C   UNL     1      10.168  46.132  51.976  1.00  0.00     0.007 C 
ATOM      7  C   UNL     1       9.849  47.022  54.290  1.00  0.00     0.007 C 
ENDBRANCH   4   5
ENDBRANCH   3   4
ENDBRANCH   1   3
BRANCH   1   8
ATOM      8  C   UNL     1       5.719  45.589  51.928  1.00  0.00     0.226 A 
ATOM      9  N   UNL     1       4.722  44.918  52.536  1.00  0.00    -0.195 NA
ATOM     10  N   UNL     1       6.483  45.118  50.935  1.00  0.00    -0.193 NA
ATOM     11  C   UNL     1       4.397  43.655  52.159  1.00  0.00     0.147 A 
ATOM     12  C   UNL     1       6.156  43.869  50.578  1.00  0.00     0.165 A 
ATOM     13  C   UNL     1       5.157  43.090  51.126  1.00  0.00     0.082 A 
ATOM     14  N   UNL     1       6.736  43.107  49.600  1.00  0.00    -0.250 N 
ATOM     15  C   UNL     1       5.225  41.878  50.409  1.00  0.00     0.149 A 
ATOM     16  N   UNL     1       6.187  41.875  49.480  1.00  0.00    -0.179 NA
ATOM     17  C   UNL     1       7.825  43.485  48.735  1.00  0.00     0.176 C 
BRANCH  11  18
ATOM     18  N   UNL     1       3.368  42.940  52.785  1.00  0.00    -0.337 N 
ATOM     19  H   UNL     1       3.675  42.110  53.281  1.00  0.00     0.168 HD
BRANCH  18  20
ATOM     20  C   UNL     1       1.980  43.155  52.876  1.00  0.00     0.079 A 
ATOM     21  C   UNL     1       1.045  42.652  51.961  1.00  0.00     0.032 A 
ATOM     22  C   UNL     1       1.492  43.940  53.938  1.00  0.00     0.185 A 
ATOM     23  C   UNL     1      -0.322  42.922  52.105  1.00  0.00     0.045 A 
ATOM     24  C   UNL     1       0.138  44.212  54.085  1.00  0.00     0.196 A 
ATOM     25  C   UNL     1      -0.765  43.703  53.167  1.00  0.00     0.162 A 
ATOM     26  F   UNL     1       2.367  44.435  54.830  1.00  0.00    -0.201 F 
ATOM     27  F   UNL     1      -0.290  44.964  55.109  1.00  0.00    -0.200 F 
ATOM     28  F   UNL     1      -2.074  43.956  53.295  1.00  0.00    -0.204 F 
ENDBRANCH  18  20
ENDBRANCH  11  18
ENDBRANCH   1   8
TORSDOF 6
ENDMDL
MODEL 11
REMARK VINA RESULT:    -8.732      1.149      1.643
REMARK INTER + INTRA:         -12.610
REMARK INTER:                 -11.780
REMARK INTRA:                  -0.830
REMARK UNBOUND:                -0.815
REMARK SMILES CC(C)CCNc1nc(Nc2ccc(F)c(F)c2F)c2cnn(C)c2n1
REMARK SMILES IDX 6 1 5 3 4 4 2 5 1 6 3 7 7 8 8 9 26 10 9 11 25 12 20 13 23 14
REMARK SMILES IDX 21 15 22 16 24 17 10 18 11 20 12 21 18 22 13 23 16 24 14 25
REMARK SMILES IDX 19 26 17 27 15 28
REMARK H PARENT 6 2 10 19
ROOT
ATOM      1  N   UNL     1       5.730  41.434  49.727  1.00  0.00    -0.354 N 
ATOM      2  H   UNL     1       6.737  41.555  49.673  1.00  0.00     0.163 HD
ENDROOT
BRANCH   1   3
ATOM      3  C   UNL     1       5.073  41.175  48.459  1.00  0.00     0.116 C 
BRANCH   3   4
ATOM      4  C   UNL     1       5.770  41.939  47.326  1.00  0.00     0.024 C 
BRANCH   4   5
ATOM      5  C   UNL     1       5.383  41.479  45.905  1.00  0.00    -0.016 C 
ATOM      6  C   UNL     1       5.365  42.617  44.885  1.00  0.00     0.007 C 
ATOM      7  C   UNL     1       4.011  40.800  45.942  1.00  0.00     0.007 C 
ENDBRANCH   4   5
ENDBRANCH   3   4
ENDBRANCH   1   3
BRANCH   1   8
ATOM      8  C   UNL     1       5.255  42.551  50.406  1.00  0.00     0.226 A 
ATOM      9  N   UNL     1       5.995  43.676  50.436  1.00  0.00    -0.195 NA
ATOM     10  N   UNL     1       4.061  42.387  50.989  1.00  0.00    -0.193 NA
ATOM     11  C   UNL     1       5.554  44.786  51.084  1.00  0.00     0.147 A 
ATOM     12  C   UNL     1       3.642  43.488  51.629  1.00  0.00     0.165 A 
ATOM     13  C   UNL     1       4.311  44.691  51.723  1.00  0.00     0.082 A 
ATOM     14  N   UNL     1       2.470  43.652  52.317  1.00  0.00    -0.250 N 
ATOM     15  C   UNL     1       3.457  45.507  52.493  1.00  0.00     0.149 A 
ATOM     16  N   UNL     1       2.335  44.883  52.865  1.00  0.00    -0.179 NA
ATOM     17  C   UNL     1       1.426  42.675  52.499  1.00  0.00     0.176 C 
BRANCH  11  18
ATOM     18  N   UNL     1       6.313  45.961  51.130  1.00  0.00    -0.337 N 
ATOM     19  H   UNL     1       6.048  46.661  50.445  1.00  0.00     0.168 HD
BRANCH  18  20
ATOM     20  C   UNL     1       7.374  46.376  51.958  1.00  0.00     0.079 A 
ATOM     21  C   UNL     1       7.210  47.126  53.130  1.00  0.00     0.032 A 
ATOM     22  C   UNL     1       8.688  46.038  51.582  1.00  0.00     0.185 A 
ATOM     23  C   UNL     1       8.315  47.520  53.895  1.00  0.00     0.045 A 
ATOM     24  C   UNL     1       9.788  46.426  52.336  1.00  0.00     0.196 A 
ATOM     25  C   UNL     1       9.598  47.167  53.491  1.00  0.00     0.162 A 
ATOM     26  F   UNL     1       8.875  45.318  50.462  1.00  0.00    -0.201 F 
ATOM     27  F   UNL     1      11.025  46.085  51.948  1.00  0.00    -0.200 F 
ATOM     28  F   UNL     1      10.648  47.549  54.230  1.00  0.00    -0.204 F 
ENDBRANCH  18  20
ENDBRANCH  11  18
ENDBRANCH   1   8
TORSDOF 6
ENDMDL
MODEL 12
REMARK VINA RESULT:    -8.696      3.109      6.829
REMARK INTER + INTRA:         -12.561
REMARK INTER:                 -11.742
REMARK INTRA:                  -0.820
REMARK UNBOUND:                -0.815
REMARK SMILES CC(C)CCNc1nc(Nc2ccc(F)c(F)c2F)c2cnn(C)c2n1
REMARK SMILES IDX 6 1 5 3 4 4 2 5 1 6 3 7 7 8 8 9 26 10 9 11 25 12 20 13 23 14
REMARK SMILES IDX 21 15 22 16 24 17 10 18 11 20 12 21 18 22 13 23 16 24 14 25
REMARK SMILES IDX 19 26 17 27 15 28
REMARK H PARENT 6 2 10 19
ROOT
ATOM      1  N   UNL     1       5.651  47.176  54.939  1.00  0.00    -0.354 N 
ATOM      2  H   UNL     1       5.442  48.117  54.622  1.00  0.00     0.163 HD
ENDROOT
BRANCH   1   3
ATOM      3  C   UNL     1       6.922  46.641  54.485  1.00  0.00     0.116 C 
BRANCH   3   4
ATOM      4  C   UNL     1       7.516  47.530  53.385  1.00  0.00     0.024 C 
BRANCH   4   5
ATOM      5  C   UNL     1       9.057  47.556  53.339  1.00  0.00    -0.016 C 
ATOM      6  C   UNL     1       9.661  46.379  52.575  1.00  0.00     0.007 C 
ATOM      7  C   UNL     1       9.612  47.580  54.767  1.00  0.00     0.007 C 
ENDBRANCH   4   5
ENDBRANCH   3   4
ENDBRANCH   1   3
BRANCH   1   8
ATOM      8  C   UNL     1       4.544  46.409  54.591  1.00  0.00     0.226 A 
ATOM      9  N   UNL     1       4.509  45.798  53.392  1.00  0.00    -0.195 NA
ATOM     10  N   UNL     1       3.584  46.356  55.522  1.00  0.00    -0.193 NA
ATOM     11  C   UNL     1       3.446  45.035  53.027  1.00  0.00     0.147 A 
ATOM     12  C   UNL     1       2.539  45.605  55.146  1.00  0.00     0.165 A 
ATOM     13  C   UNL     1       2.396  44.934  53.948  1.00  0.00     0.082 A 
ATOM     14  N   UNL     1       1.403  45.345  55.864  1.00  0.00    -0.250 N 
ATOM     15  C   UNL     1       1.137  44.307  54.047  1.00  0.00     0.149 A 
ATOM     16  N   UNL     1       0.521  44.555  55.208  1.00  0.00    -0.179 NA
ATOM     17  C   UNL     1       1.084  45.819  57.187  1.00  0.00     0.176 C 
BRANCH  11  18
ATOM     18  N   UNL     1       3.390  44.398  51.781  1.00  0.00    -0.337 N 
ATOM     19  H   UNL     1       2.604  44.676  51.202  1.00  0.00     0.168 HD
BRANCH  18  20
ATOM     20  C   UNL     1       4.224  43.450  51.159  1.00  0.00     0.079 A 
ATOM     21  C   UNL     1       3.981  42.071  51.155  1.00  0.00     0.032 A 
ATOM     22  C   UNL     1       5.390  43.906  50.514  1.00  0.00     0.185 A 
ATOM     23  C   UNL     1       4.866  41.183  50.530  1.00  0.00     0.045 A 
ATOM     24  C   UNL     1       6.273  43.031  49.894  1.00  0.00     0.196 A 
ATOM     25  C   UNL     1       6.008  41.671  49.905  1.00  0.00     0.162 A 
ATOM     26  F   UNL     1       5.649  45.224  50.502  1.00  0.00    -0.201 F 
ATOM     27  F   UNL     1       7.373  43.500  49.289  1.00  0.00    -0.200 F 
ATOM     28  F   UNL     1       6.848  40.814  49.311  1.00  0.00    -0.204 F 
ENDBRANCH  18  20
ENDBRANCH  11  18
ENDBRANCH   1   8
TORSDOF 6
ENDMDL
MODEL 13
REMARK VINA RESULT:    -8.694      1.868      2.895
REMARK INTER + INTRA:         -12.559
REMARK INTER:                 -11.813
REMARK INTRA:                  -0.746
REMARK UNBOUND:                -0.815
REMARK SMILES CC(C)CCNc1nc(Nc2ccc(F)c(F)c2F)c2cnn(C)c2n1
REMARK SMILES IDX 6 1 5 3 4 4 2 5 1 6 3 7 7 8 8 9 26 10 9 11 25 12 20 13 23 14
REMARK SMILES IDX 21 15 22 16 24 17 10 18 11 20 12 21 18 22 13 23 16 24 14 25
REMARK SMILES IDX 19 26 17 27 15 28
REMARK H PARENT 6 2 10 19
ROOT
ATOM      1  N   UNL     1       3.513  41.606  51.339  1.00  0.00    -0.354 N 
ATOM      2  H   UNL     1       3.245  40.796  51.888  1.00  0.00     0.163 HD
ENDROOT
BRANCH   1   3
ATOM      3  C   UNL     1       4.855  41.559  50.786  1.00  0.00     0.116 C 
BRANCH   3   4
ATOM      4  C   UNL     1       4.811  41.165  49.305  1.00  0.00     0.024 C 
BRANCH   4   5
ATOM      5  C   UNL     1       6.028  41.631  48.478  1.00  0.00    -0.016 C 
ATOM      6  C   UNL     1       6.676  42.904  49.020  1.00  0.00     0.007 C 
ATOM      7  C   UNL     1       5.605  41.851  47.022  1.00  0.00     0.007 C 
ENDBRANCH   4   5
ENDBRANCH   3   4
ENDBRANCH   1   3
BRANCH   1   8
ATOM      8  C   UNL     1       3.260  42.708  52.149  1.00  0.00     0.226 A 
ATOM      9  N   UNL     1       4.229  43.619  52.355  1.00  0.00    -0.195 NA
ATOM     10  N   UNL     1       2.026  42.751  52.668  1.00  0.00    -0.193 NA
ATOM     11  C   UNL     1       4.010  44.711  53.133  1.00  0.00     0.147 A 
ATOM     12  C   UNL     1       1.827  43.829  53.439  1.00  0.00     0.165 A 
ATOM     13  C   UNL     1       2.742  44.824  53.716  1.00  0.00     0.082 A 
ATOM     14  N   UNL     1       0.682  44.170  54.108  1.00  0.00    -0.250 N 
ATOM     15  C   UNL     1       2.047  45.712  54.564  1.00  0.00     0.149 A 
ATOM     16  N   UNL     1       0.793  45.321  54.813  1.00  0.00    -0.179 NA
ATOM     17  C   UNL     1      -0.563  43.445  54.124  1.00  0.00     0.176 C 
BRANCH  11  18
ATOM     18  N   UNL     1       5.009  45.665  53.362  1.00  0.00    -0.337 N 
ATOM     19  H   UNL     1       4.801  46.320  54.107  1.00  0.00     0.168 HD
BRANCH  18  20
ATOM     20  C   UNL     1       6.266  45.888  52.767  1.00  0.00     0.079 A 
ATOM     21  C   UNL     1       6.520  45.758  51.396  1.00  0.00     0.032 A 
ATOM     22  C   UNL     1       7.345  46.246  53.597  1.00  0.00     0.185 A 
ATOM     23  C   UNL     1       7.802  45.979  50.876  1.00  0.00     0.045 A 
ATOM     24  C   UNL     1       8.619  46.465  53.088  1.00  0.00     0.196 A 
ATOM     25  C   UNL     1       8.843  46.329  51.728  1.00  0.00     0.162 A 
ATOM     26  F   UNL     1       7.130  46.378  54.917  1.00  0.00    -0.201 F 
ATOM     27  F   UNL     1       9.623  46.805  53.908  1.00  0.00    -0.200 F 
ATOM     28  F   UNL     1      10.065  46.538  51.220  1.00  0.00    -0.204 F 
ENDBRANCH  18  20
ENDBRANCH  11  18
ENDBRANCH   1   8
TORSDOF 6
ENDMDL
MODEL 14
REMARK VINA RESULT:    -8.676      2.815      6.937
REMARK INTER + INTRA:         -12.535
REMARK INTER:                 -11.745
REMARK INTRA:                  -0.790
REMARK UNBOUND:                -0.815
REMARK SMILES CC(C)CCNc1nc(Nc2ccc(F)c(F)c2F)c2cnn(C)c2n1
REMARK SMILES IDX 6 1 5 3 4 4 2 5 1 6 3 7 7 8 8 9 26 10 9 11 25 12 20 13 23 14
REMARK SMILES IDX 21 15 22 16 24 17 10 18 11 20 12 21 18 22 13 23 16 24 14 25
REMARK SMILES IDX 19 26 17 27 15 28
REMARK H PARENT 6 2 10 19
ROOT
ATOM      1  N   UNL     1       7.059  46.385  51.258  1.00  0.00    -0.354 N 
ATOM      2  H   UNL     1       7.914  45.839  51.211  1.00  0.00     0.163 HD
ENDROOT
BRANCH   1   3
ATOM      3  C   UNL     1       6.999  47.342  52.348  1.00  0.00     0.116 C 
BRANCH   3   4
ATOM      4  C   UNL     1       8.406  47.840  52.702  1.00  0.00     0.024 C 
BRANCH   4   5
ATOM      5  C   UNL     1       9.356  46.754  53.246  1.00  0.00    -0.016 C 
ATOM      6  C   UNL     1      10.076  47.166  54.529  1.00  0.00     0.007 C 
ATOM      7  C   UNL     1      10.386  46.389  52.173  1.00  0.00     0.007 C 
ENDBRANCH   4   5
ENDBRANCH   3   4
ENDBRANCH   1   3
BRANCH   1   8
ATOM      8  C   UNL     1       6.022  45.457  51.245  1.00  0.00     0.226 A 
ATOM      9  N   UNL     1       4.792  45.829  51.649  1.00  0.00    -0.195 NA
ATOM     10  N   UNL     1       6.367  44.236  50.819  1.00  0.00    -0.193 NA
ATOM     11  C   UNL     1       3.758  44.949  51.639  1.00  0.00     0.147 A 
ATOM     12  C   UNL     1       5.338  43.377  50.821  1.00  0.00     0.165 A 
ATOM     13  C   UNL     1       4.041  43.647  51.208  1.00  0.00     0.082 A 
ATOM     14  N   UNL     1       5.354  42.062  50.441  1.00  0.00    -0.250 N 
ATOM     15  C   UNL     1       3.361  42.425  51.027  1.00  0.00     0.149 A 
ATOM     16  N   UNL     1       4.152  41.451  50.564  1.00  0.00    -0.179 NA
ATOM     17  C   UNL     1       6.483  41.315  49.948  1.00  0.00     0.176 C 
BRANCH  11  18
ATOM     18  N   UNL     1       2.474  45.317  52.061  1.00  0.00    -0.337 N 
ATOM     19  H   UNL     1       1.941  45.842  51.376  1.00  0.00     0.168 HD
BRANCH  18  20
ATOM     20  C   UNL     1       1.763  45.088  53.255  1.00  0.00     0.079 A 
ATOM     21  C   UNL     1       0.606  44.303  53.343  1.00  0.00     0.032 A 
ATOM     22  C   UNL     1       2.225  45.699  54.437  1.00  0.00     0.185 A 
ATOM     23  C   UNL     1      -0.060  44.134  54.563  1.00  0.00     0.045 A 
ATOM     24  C   UNL     1       1.569  45.536  55.649  1.00  0.00     0.196 A 
ATOM     25  C   UNL     1       0.426  44.755  55.709  1.00  0.00     0.162 A 
ATOM     26  F   UNL     1       3.334  46.457  54.382  1.00  0.00    -0.201 F 
ATOM     27  F   UNL     1       2.037  46.132  56.755  1.00  0.00    -0.200 F 
ATOM     28  F   UNL     1      -0.219  44.587  56.871  1.00  0.00    -0.204 F 
ENDBRANCH  18  20
ENDBRANCH  11  18
ENDBRANCH   1   8
TORSDOF 6
ENDMDL
MODEL 15
REMARK VINA RESULT:    -8.660      2.234      4.994
REMARK INTER + INTRA:         -12.513
REMARK INTER:                 -11.585
REMARK INTRA:                  -0.928
REMARK UNBOUND:                -0.815
REMARK SMILES CC(C)CCNc1nc(Nc2ccc(F)c(F)c2F)c2cnn(C)c2n1
REMARK SMILES IDX 6 1 5 3 4 4 2 5 1 6 3 7 7 8 8 9 26 10 9 11 25 12 20 13 23 14
REMARK SMILES IDX 21 15 22 16 24 17 10 18 11 20 12 21 18 22 13 23 16 24 14 25
REMARK SMILES IDX 19 26 17 27 15 28
REMARK H PARENT 6 2 10 19
ROOT
ATOM      1  N   UNL     1       2.508  44.140  53.928  1.00  0.00    -0.354 N 
ATOM      2  H   UNL     1       2.070  43.225  53.927  1.00  0.00     0.163 HD
ENDROOT
BRANCH   1   3
ATOM      3  C   UNL     1       1.591  45.261  53.813  1.00  0.00     0.116 C 
BRANCH   3   4
ATOM      4  C   UNL     1       0.268  44.809  53.182  1.00  0.00     0.024 C 
BRANCH   4   5
ATOM      5  C   UNL     1      -0.300  43.492  53.750  1.00  0.00    -0.016 C 
ATOM      6  C   UNL     1      -0.599  42.447  52.676  1.00  0.00     0.007 C 
ATOM      7  C   UNL     1      -1.573  43.785  54.549  1.00  0.00     0.007 C 
ENDBRANCH   4   5
ENDBRANCH   3   4
ENDBRANCH   1   3
BRANCH   1   8
ATOM      8  C   UNL     1       3.486  44.089  52.941  1.00  0.00     0.226 A 
ATOM      9  N   UNL     1       4.387  45.086  52.845  1.00  0.00    -0.195 NA
ATOM     10  N   UNL     1       3.429  43.011  52.150  1.00  0.00    -0.193 NA
ATOM     11  C   UNL     1       5.360  45.060  51.898  1.00  0.00     0.147 A 
ATOM     12  C   UNL     1       4.390  43.003  51.216  1.00  0.00     0.165 A 
ATOM     13  C   UNL     1       5.363  43.963  51.027  1.00  0.00     0.082 A 
ATOM     14  N   UNL     1       4.611  42.047  50.261  1.00  0.00    -0.250 N 
ATOM     15  C   UNL     1       6.113  43.490  49.930  1.00  0.00     0.149 A 
ATOM     16  N   UNL     1       5.661  42.326  49.452  1.00  0.00    -0.179 NA
ATOM     17  C   UNL     1       3.859  40.836  50.055  1.00  0.00     0.176 C 
BRANCH  11  18
ATOM     18  N   UNL     1       6.301  46.091  51.780  1.00  0.00    -0.337 N 
ATOM     19  H   UNL     1       6.149  46.710  50.991  1.00  0.00     0.168 HD
BRANCH  18  20
ATOM     20  C   UNL     1       7.418  46.451  52.557  1.00  0.00     0.079 A 
ATOM     21  C   UNL     1       7.338  46.998  53.844  1.00  0.00     0.032 A 
ATOM     22  C   UNL     1       8.702  46.273  52.005  1.00  0.00     0.185 A 
ATOM     23  C   UNL     1       8.495  47.350  54.552  1.00  0.00     0.045 A 
ATOM     24  C   UNL     1       9.852  46.621  52.702  1.00  0.00     0.196 A 
ATOM     25  C   UNL     1       9.745  47.160  53.973  1.00  0.00     0.162 A 
ATOM     26  F   UNL     1       8.809  45.750  50.772  1.00  0.00    -0.201 F 
ATOM     27  F   UNL     1      11.057  46.438  52.146  1.00  0.00    -0.200 F 
ATOM     28  F   UNL     1      10.844  47.501  54.659  1.00  0.00    -0.204 F 
ENDBRANCH  18  20
ENDBRANCH  11  18
ENDBRANCH   1   8
TORSDOF 6
ENDMDL
MODEL 16
REMARK VINA RESULT:    -8.647      3.928      7.498
REMARK INTER + INTRA:         -12.495
REMARK INTER:                 -12.008
REMARK INTRA:                  -0.487
REMARK UNBOUND:                -0.815
REMARK SMILES CC(C)CCNc1nc(Nc2ccc(F)c(F)c2F)c2cnn(C)c2n1
REMARK SMILES IDX 6 1 5 3 4 4 2 5 1 6 3 7 7 8 8 9 26 10 9 11 25 12 20 13 23 14
REMARK SMILES IDX 21 15 22 16 24 17 10 18 11 20 12 21 18 22 13 23 16 24 14 25
REMARK SMILES IDX 19 26 17 27 15 28
REMARK H PARENT 6 2 10 19
ROOT
ATOM      1  N   UNL     1       5.863  46.811  52.607  1.00  0.00    -0.354 N 
ATOM      2  H   UNL     1       5.795  47.332  51.738  1.00  0.00     0.163 HD
ENDROOT
BRANCH   1   3
ATOM      3  C   UNL     1       7.190  46.763  53.193  1.00  0.00     0.116 C 
BRANCH   3   4
ATOM      4  C   UNL     1       8.200  47.490  52.296  1.00  0.00     0.024 C 
BRANCH   4   5
ATOM      5  C   UNL     1       9.679  47.204  52.627  1.00  0.00    -0.016 C 
ATOM      6  C   UNL     1      10.241  45.989  51.890  1.00  0.00     0.007 C 
ATOM      7  C   UNL     1       9.837  47.006  54.138  1.00  0.00     0.007 C 
ENDBRANCH   4   5
ENDBRANCH   3   4
ENDBRANCH   1   3
BRANCH   1   8
ATOM      8  C   UNL     1       5.304  45.566  52.340  1.00  0.00     0.226 A 
ATOM      9  N   UNL     1       4.226  45.157  53.038  1.00  0.00    -0.195 NA
ATOM     10  N   UNL     1       5.920  44.868  51.378  1.00  0.00    -0.193 NA
ATOM     11  C   UNL     1       3.652  43.951  52.795  1.00  0.00     0.147 A 
ATOM     12  C   UNL     1       5.346  43.677  51.153  1.00  0.00     0.165 A 
ATOM     13  C   UNL     1       4.244  43.159  51.802  1.00  0.00     0.082 A 
ATOM     14  N   UNL     1       5.727  42.732  50.239  1.00  0.00    -0.250 N 
ATOM     15  C   UNL     1       4.049  41.896  51.206  1.00  0.00     0.149 A 
ATOM     16  N   UNL     1       4.950  41.623  50.256  1.00  0.00    -0.179 NA
ATOM     17  C   UNL     1       6.827  42.814  49.313  1.00  0.00     0.176 C 
BRANCH  11  18
ATOM     18  N   UNL     1       2.536  43.508  53.515  1.00  0.00    -0.337 N 
ATOM     19  H   UNL     1       2.317  42.525  53.389  1.00  0.00     0.168 HD
BRANCH  18  20
ATOM     20  C   UNL     1       1.656  44.159  54.401  1.00  0.00     0.079 A 
ATOM     21  C   UNL     1       2.069  44.939  55.489  1.00  0.00     0.032 A 
ATOM     22  C   UNL     1       0.270  44.006  54.200  1.00  0.00     0.185 A 
ATOM     23  C   UNL     1       1.135  45.543  56.340  1.00  0.00     0.045 A 
ATOM     24  C   UNL     1      -0.661  44.602  55.041  1.00  0.00     0.196 A 
ATOM     25  C   UNL     1      -0.225  45.368  56.110  1.00  0.00     0.162 A 
ATOM     26  F   UNL     1      -0.155  43.264  53.164  1.00  0.00    -0.201 F 
ATOM     27  F   UNL     1      -1.972  44.435  54.820  1.00  0.00    -0.200 F 
ATOM     28  F   UNL     1      -1.110  45.950  56.930  1.00  0.00    -0.204 F 
ENDBRANCH  18  20
ENDBRANCH  11  18
ENDBRANCH   1   8
TORSDOF 6
ENDMDL
MODEL 17
REMARK VINA RESULT:    -8.621      3.516      6.644
REMARK INTER + INTRA:         -12.460
REMARK INTER:                 -11.639
REMARK INTRA:                  -0.822
REMARK UNBOUND:                -0.815
REMARK SMILES CC(C)CCNc1nc(Nc2ccc(F)c(F)c2F)c2cnn(C)c2n1
REMARK SMILES IDX 6 1 5 3 4 4 2 5 1 6 3 7 7 8 8 9 26 10 9 11 25 12 20 13 23 14
REMARK SMILES IDX 21 15 22 16 24 17 10 18 11 20 12 21 18 22 13 23 16 24 14 25
REMARK SMILES IDX 19 26 17 27 15 28
REMARK H PARENT 6 2 10 19
ROOT
ATOM      1  N   UNL     1       4.247  46.457  55.340  1.00  0.00    -0.354 N 
ATOM      2  H   UNL     1       3.644  47.085  55.862  1.00  0.00     0.163 HD
ENDROOT
BRANCH   1   3
ATOM      3  C   UNL     1       5.195  47.109  54.454  1.00  0.00     0.116 C 
BRANCH   3   4
ATOM      4  C   UNL     1       6.617  46.599  54.722  1.00  0.00     0.024 C 
BRANCH   4   5
ATOM      5  C   UNL     1       7.539  46.585  53.485  1.00  0.00    -0.016 C 
ATOM      6  C   UNL     1       8.955  47.077  53.780  1.00  0.00     0.007 C 
ATOM      7  C   UNL     1       6.920  47.439  52.374  1.00  0.00     0.007 C 
ENDBRANCH   4   5
ENDBRANCH   3   4
ENDBRANCH   1   3
BRANCH   1   8
ATOM      8  C   UNL     1       3.394  45.556  54.712  1.00  0.00     0.226 A 
ATOM      9  N   UNL     1       3.823  44.876  53.632  1.00  0.00    -0.195 NA
ATOM     10  N   UNL     1       2.179  45.454  55.265  1.00  0.00    -0.193 NA
ATOM     11  C   UNL     1       3.017  43.982  53.002  1.00  0.00     0.147 A 
ATOM     12  C   UNL     1       1.393  44.574  54.630  1.00  0.00     0.165 A 
ATOM     13  C   UNL     1       1.726  43.822  53.521  1.00  0.00     0.082 A 
ATOM     14  N   UNL     1       0.104  44.235  54.943  1.00  0.00    -0.250 N 
ATOM     15  C   UNL     1       0.566  43.069  53.247  1.00  0.00     0.149 A 
ATOM     16  N   UNL     1      -0.431  43.317  54.104  1.00  0.00    -0.179 NA
ATOM     17  C   UNL     1      -0.688  44.748  56.032  1.00  0.00     0.176 C 
BRANCH  11  18
ATOM     18  N   UNL     1       3.446  43.271  51.874  1.00  0.00    -0.337 N 
ATOM     19  H   UNL     1       2.761  42.622  51.501  1.00  0.00     0.168 HD
BRANCH  18  20
ATOM     20  C   UNL     1       4.646  43.289  51.138  1.00  0.00     0.079 A 
ATOM     21  C   UNL     1       5.379  44.449  50.857  1.00  0.00     0.032 A 
ATOM     22  C   UNL     1       5.138  42.071  50.631  1.00  0.00     0.185 A 
ATOM     23  C   UNL     1       6.557  44.393  50.101  1.00  0.00     0.045 A 
ATOM     24  C   UNL     1       6.305  42.009  49.880  1.00  0.00     0.196 A 
ATOM     25  C   UNL     1       7.010  43.172  49.616  1.00  0.00     0.162 A 
ATOM     26  F   UNL     1       4.455  40.942  50.885  1.00  0.00    -0.201 F 
ATOM     27  F   UNL     1       6.744  40.832  49.413  1.00  0.00    -0.200 F 
ATOM     28  F   UNL     1       8.138  43.129  48.895  1.00  0.00    -0.204 F 
ENDBRANCH  18  20
ENDBRANCH  11  18
ENDBRANCH   1   8
TORSDOF 6
ENDMDL
MODEL 18
REMARK VINA RESULT:    -8.563      2.912      7.243
REMARK INTER + INTRA:         -12.382
REMARK INTER:                 -11.809
REMARK INTRA:                  -0.572
REMARK UNBOUND:                -0.815
REMARK SMILES CC(C)CCNc1nc(Nc2ccc(F)c(F)c2F)c2cnn(C)c2n1
REMARK SMILES IDX 6 1 5 3 4 4 2 5 1 6 3 7 7 8 8 9 26 10 9 11 25 12 20 13 23 14
REMARK SMILES IDX 21 15 22 16 24 17 10 18 11 20 12 21 18 22 13 23 16 24 14 25
REMARK SMILES IDX 19 26 17 27 15 28
REMARK H PARENT 6 2 10 19
ROOT
ATOM      1  N   UNL     1       8.994  47.417  51.654  1.00  0.00    -0.354 N 
ATOM      2  H   UNL     1       9.147  47.745  50.706  1.00  0.00     0.163 HD
ENDROOT
BRANCH   1   3
ATOM      3  C   UNL     1      10.113  46.706  52.246  1.00  0.00     0.116 C 
BRANCH   3   4
ATOM      4  C   UNL     1       9.860  46.456  53.739  1.00  0.00     0.024 C 
BRANCH   4   5
ATOM      5  C   UNL     1      10.094  47.681  54.646  1.00  0.00    -0.016 C 
ATOM      6  C   UNL     1      10.847  47.347  55.933  1.00  0.00     0.007 C 
ATOM      7  C   UNL     1       8.749  48.327  54.992  1.00  0.00     0.007 C 
ENDBRANCH   4   5
ENDBRANCH   3   4
ENDBRANCH   1   3
BRANCH   1   8
ATOM      8  C   UNL     1       7.807  46.694  51.613  1.00  0.00     0.226 A 
ATOM      9  N   UNL     1       6.740  47.128  52.310  1.00  0.00    -0.195 NA
ATOM     10  N   UNL     1       7.847  45.591  50.855  1.00  0.00    -0.193 NA
ATOM     11  C   UNL     1       5.563  46.449  52.283  1.00  0.00     0.147 A 
ATOM     12  C   UNL     1       6.682  44.928  50.843  1.00  0.00     0.165 A 
ATOM     13  C   UNL     1       5.528  45.279  51.513  1.00  0.00     0.082 A 
ATOM     14  N   UNL     1       6.391  43.774  50.167  1.00  0.00    -0.250 N 
ATOM     15  C   UNL     1       4.606  44.267  51.176  1.00  0.00     0.149 A 
ATOM     16  N   UNL     1       5.123  43.341  50.361  1.00  0.00    -0.179 NA
ATOM     17  C   UNL     1       7.276  43.020  49.315  1.00  0.00     0.176 C 
BRANCH  11  18
ATOM     18  N   UNL     1       4.446  46.883  53.007  1.00  0.00    -0.337 N 
ATOM     19  H   UNL     1       4.528  47.820  53.386  1.00  0.00     0.168 HD
BRANCH  18  20
ATOM     20  C   UNL     1       3.211  46.275  53.305  1.00  0.00     0.079 A 
ATOM     21  C   UNL     1       2.109  46.269  52.439  1.00  0.00     0.032 A 
ATOM     22  C   UNL     1       3.058  45.649  54.556  1.00  0.00     0.185 A 
ATOM     23  C   UNL     1       0.904  45.659  52.810  1.00  0.00     0.045 A 
ATOM     24  C   UNL     1       1.865  45.044  54.931  1.00  0.00     0.196 A 
ATOM     25  C   UNL     1       0.790  45.052  54.056  1.00  0.00     0.162 A 
ATOM     26  F   UNL     1       4.098  45.640  55.406  1.00  0.00    -0.201 F 
ATOM     27  F   UNL     1       1.754  44.458  56.130  1.00  0.00    -0.200 F 
ATOM     28  F   UNL     1      -0.367  44.473  54.401  1.00  0.00    -0.204 F 
ENDBRANCH  18  20
ENDBRANCH  11  18
ENDBRANCH   1   8
TORSDOF 6
ENDMDL
MODEL 19
REMARK VINA RESULT:    -8.465      1.958      5.229
REMARK INTER + INTRA:         -12.249
REMARK INTER:                 -11.469
REMARK INTRA:                  -0.780
REMARK UNBOUND:                -0.815
REMARK SMILES CC(C)CCNc1nc(Nc2ccc(F)c(F)c2F)c2cnn(C)c2n1
REMARK SMILES IDX 6 1 5 3 4 4 2 5 1 6 3 7 7 8 8 9 26 10 9 11 25 12 20 13 23 14
REMARK SMILES IDX 21 15 22 16 24 17 10 18 11 20 12 21 18 22 13 23 16 24 14 25
REMARK SMILES IDX 19 26 17 27 15 28
REMARK H PARENT 6 2 10 19
ROOT
ATOM      1  N   UNL     1       3.124  43.762  53.395  1.00  0.00    -0.354 N 
ATOM      2  H   UNL     1       2.389  43.165  53.027  1.00  0.00     0.163 HD
ENDROOT
BRANCH   1   3
ATOM      3  C   UNL     1       2.679  45.053  53.887  1.00  0.00     0.116 C 
BRANCH   3   4
ATOM      4  C   UNL     1       2.158  44.929  55.325  1.00  0.00     0.024 C 
BRANCH   4   5
ATOM      5  C   UNL     1       0.672  45.302  55.506  1.00  0.00    -0.016 C 
ATOM      6  C   UNL     1       0.216  45.281  56.964  1.00  0.00     0.007 C 
ATOM      7  C   UNL     1      -0.199  44.349  54.682  1.00  0.00     0.007 C 
ENDBRANCH   4   5
ENDBRANCH   3   4
ENDBRANCH   1   3
BRANCH   1   8
ATOM      8  C   UNL     1       4.090  43.825  52.397  1.00  0.00     0.226 A 
ATOM      9  N   UNL     1       4.949  44.862  52.367  1.00  0.00    -0.195 NA
ATOM     10  N   UNL     1       4.067  42.807  51.528  1.00  0.00    -0.193 NA
ATOM     11  C   UNL     1       5.909  44.947  51.411  1.00  0.00     0.147 A 
ATOM     12  C   UNL     1       5.015  42.907  50.587  1.00  0.00     0.165 A 
ATOM     13  C   UNL     1       5.946  43.919  50.461  1.00  0.00     0.082 A 
ATOM     14  N   UNL     1       5.262  42.036  49.561  1.00  0.00    -0.250 N 
ATOM     15  C   UNL     1       6.700  43.560  49.324  1.00  0.00     0.149 A 
ATOM     16  N   UNL     1       6.289  42.417  48.765  1.00  0.00    -0.179 NA
ATOM     17  C   UNL     1       4.557  40.813  49.272  1.00  0.00     0.176 C 
BRANCH  11  18
ATOM     18  N   UNL     1       6.806  46.022  51.362  1.00  0.00    -0.337 N 
ATOM     19  H   UNL     1       6.646  46.667  50.596  1.00  0.00     0.168 HD
BRANCH  18  20
ATOM     20  C   UNL     1       7.888  46.396  52.181  1.00  0.00     0.079 A 
ATOM     21  C   UNL     1       9.225  46.073  51.915  1.00  0.00     0.032 A 
ATOM     22  C   UNL     1       7.617  47.126  53.355  1.00  0.00     0.185 A 
ATOM     23  C   UNL     1      10.249  46.465  52.787  1.00  0.00     0.045 A 
ATOM     24  C   UNL     1       8.628  47.516  54.224  1.00  0.00     0.196 A 
ATOM     25  C   UNL     1       9.942  47.183  53.937  1.00  0.00     0.162 A 
ATOM     26  F   UNL     1       6.343  47.450  53.635  1.00  0.00    -0.201 F 
ATOM     27  F   UNL     1       8.333  48.210  55.332  1.00  0.00    -0.200 F 
ATOM     28  F   UNL     1      10.929  47.552  54.764  1.00  0.00    -0.204 F 
ENDBRANCH  18  20
ENDBRANCH  11  18
ENDBRANCH   1   8
TORSDOF 6
ENDMDL
MODEL 20
REMARK VINA RESULT:    -8.345      2.790      5.862
REMARK INTER + INTRA:         -12.087
REMARK INTER:                 -10.940
REMARK INTRA:                  -1.147
REMARK UNBOUND:                -0.815
REMARK SMILES CC(C)CCNc1nc(Nc2ccc(F)c(F)c2F)c2cnn(C)c2n1
REMARK SMILES IDX 6 1 5 3 4 4 2 5 1 6 3 7 7 8 8 9 26 10 9 11 25 12 20 13 23 14
REMARK SMILES IDX 21 15 22 16 24 17 10 18 11 20 12 21 18 22 13 23 16 24 14 25
REMARK SMILES IDX 19 26 17 27 15 28
REMARK H PARENT 6 2 10 19
ROOT
ATOM      1  N   UNL     1       7.854  45.119  49.602  1.00  0.00    -0.354 N 
ATOM      2  H   UNL     1       7.275  45.518  48.870  1.00  0.00     0.163 HD
ENDROOT
BRANCH   1   3
ATOM      3  C   UNL     1       7.986  43.674  49.564  1.00  0.00     0.116 C 
BRANCH   3   4
ATOM      4  C   UNL     1       6.894  43.058  48.680  1.00  0.00     0.024 C 
BRANCH   4   5
ATOM      5  C   UNL     1       6.176  41.841  49.298  1.00  0.00    -0.016 C 
ATOM      6  C   UNL     1       5.193  41.168  48.341  1.00  0.00     0.007 C 
ATOM      7  C   UNL     1       5.440  42.271  50.571  1.00  0.00     0.007 C 
ENDBRANCH   4   5
ENDBRANCH   3   4
ENDBRANCH   1   3
BRANCH   1   8
ATOM      8  C   UNL     1       7.345  45.621  50.795  1.00  0.00     0.226 A 
ATOM      9  N   UNL     1       6.012  45.673  50.981  1.00  0.00    -0.195 NA
ATOM     10  N   UNL     1       8.270  46.023  51.676  1.00  0.00    -0.193 NA
ATOM     11  C   UNL     1       5.484  46.149  52.138  1.00  0.00     0.147 A 
ATOM     12  C   UNL     1       7.736  46.496  52.810  1.00  0.00     0.165 A 
ATOM     13  C   UNL     1       6.392  46.593  53.109  1.00  0.00     0.082 A 
ATOM     14  N   UNL     1       8.403  46.977  53.904  1.00  0.00    -0.250 N 
ATOM     15  C   UNL     1       6.361  47.150  54.404  1.00  0.00     0.149 A 
ATOM     16  N   UNL     1       7.580  47.393  54.896  1.00  0.00    -0.179 NA
ATOM     17  C   UNL     1       9.830  47.075  54.077  1.00  0.00     0.176 C 
BRANCH  11  18
ATOM     18  N   UNL     1       4.101  46.216  52.345  1.00  0.00    -0.337 N 
ATOM     19  H   UNL     1       3.695  47.130  52.179  1.00  0.00     0.168 HD
BRANCH  18  20
ATOM     20  C   UNL     1       3.149  45.251  52.726  1.00  0.00     0.079 A 
ATOM     21  C   UNL     1       2.656  44.253  51.875  1.00  0.00     0.032 A 
ATOM     22  C   UNL     1       2.639  45.297  54.038  1.00  0.00     0.185 A 
ATOM     23  C   UNL     1       1.694  43.336  52.319  1.00  0.00     0.045 A 
ATOM     24  C   UNL     1       1.684  44.391  54.484  1.00  0.00     0.196 A 
ATOM     25  C   UNL     1       1.214  43.414  53.622  1.00  0.00     0.162 A 
ATOM     26  F   UNL     1       3.094  46.243  54.876  1.00  0.00    -0.201 F 
ATOM     27  F   UNL     1       1.221  44.464  55.739  1.00  0.00    -0.200 F 
ATOM     28  F   UNL     1       0.294  42.533  54.036  1.00  0.00    -0.204 F 
ENDBRANCH  18  20
ENDBRANCH  11  18
ENDBRANCH   1   8
TORSDOF 6
ENDMDL
