MODEL 1
REMARK VINA RESULT:    -7.572      0.000      0.000
REMARK INTER + INTRA:         -12.276
REMARK INTER:                 -10.891
REMARK INTRA:                  -1.385
REMARK UNBOUND:                -1.385
REMARK SMILES OCCOCCNc1nc(-c2ccncc2)cc2cnccc12
REMARK SMILES IDX 4 1 3 2 2 3 1 4 5 6 6 7 7 8 8 10 9 11 23 12 10 13 22 14
REMARK SMILES IDX 18 15 17 16 21 17 19 18 20 19 11 20 12 21 16 22 13 23 15 24
REMARK SMILES IDX 14 25
REMARK H PARENT 1 5 7 9
ROOT
ATOM      1  O   UNL     1       1.292  44.178  54.941  1.00  0.00    -0.377 OA
ENDROOT
BRANCH   1   2
ATOM      2  C   UNL     1       1.779  45.507  54.724  1.00  0.00     0.188 C 
BRANCH   2   3
ATOM      3  C   UNL     1       3.149  45.774  55.349  1.00  0.00     0.184 C 
BRANCH   3   4
ATOM      4  O   UNL     1       3.926  44.576  55.376  1.00  0.00    -0.394 OA
ATOM      5  H   UNL     1       3.352  43.877  55.736  1.00  0.00     0.210 HD
ENDBRANCH   3   4
ENDBRANCH   2   3
ENDBRANCH   1   2
BRANCH   1   6
ATOM      6  C   UNL     1       0.935  43.436  53.764  1.00  0.00     0.181 C 
BRANCH   6   7
ATOM      7  C   UNL     1       1.922  43.632  52.600  1.00  0.00     0.143 C 
BRANCH   7   8
ATOM      8  N   UNL     1       3.135  42.822  52.789  1.00  0.00    -0.367 N 
ATOM      9  H   UNL     1       2.933  41.860  52.514  1.00  0.00     0.162 HD
BRANCH   8  10
ATOM     10  C   UNL     1       4.273  43.243  52.068  1.00  0.00     0.134 A 
ATOM     11  N   UNL     1       5.002  44.276  52.545  1.00  0.00    -0.230 NA
ATOM     12  C   UNL     1       4.632  42.554  50.885  1.00  0.00     0.027 A 
ATOM     13  C   UNL     1       6.089  44.707  51.861  1.00  0.00     0.073 A 
ATOM     14  C   UNL     1       3.943  41.439  50.365  1.00  0.00     0.032 A 
ATOM     15  C   UNL     1       5.764  43.010  50.189  1.00  0.00     0.006 A 
ATOM     16  C   UNL     1       6.495  44.098  50.681  1.00  0.00     0.039 A 
ATOM     17  C   UNL     1       4.389  40.850  49.194  1.00  0.00     0.112 A 
ATOM     18  C   UNL     1       6.124  42.340  49.017  1.00  0.00     0.119 A 
ATOM     19  N   UNL     1       5.463  41.279  48.503  1.00  0.00    -0.264 NA
BRANCH  13  20
ATOM     20  C   UNL     1       6.801  45.850  52.463  1.00  0.00     0.003 A 
ATOM     21  C   UNL     1       6.833  46.018  53.856  1.00  0.00     0.030 A 
ATOM     22  C   UNL     1       7.459  46.817  51.690  1.00  0.00     0.030 A 
ATOM     23  C   UNL     1       7.509  47.099  54.399  1.00  0.00     0.111 A 
ATOM     24  C   UNL     1       8.107  47.867  52.324  1.00  0.00     0.111 A 
ATOM     25  N   UNL     1       8.152  48.026  53.662  1.00  0.00    -0.265 NA
ENDBRANCH  13  20
ENDBRANCH   8  10
ENDBRANCH   7   8
ENDBRANCH   6   7
ENDBRANCH   1   6
TORSDOF 8
ENDMDL
MODEL 2
REMARK VINA RESULT:    -7.552      0.354      1.038
REMARK INTER + INTRA:         -12.249
REMARK INTER:                 -10.905
REMARK INTRA:                  -1.343
REMARK UNBOUND:                -1.385
REMARK SMILES OCCOCCNc1nc(-c2ccncc2)cc2cnccc12
REMARK SMILES IDX 4 1 3 2 2 3 1 4 5 6 6 7 7 8 8 10 9 11 23 12 10 13 22 14
REMARK SMILES IDX 18 15 17 16 21 17 19 18 20 19 11 20 12 21 16 22 13 23 15 24
REMARK SMILES IDX 14 25
REMARK H PARENT 1 5 7 9
ROOT
ATOM      1  O   UNL     1       1.158  45.183  54.350  1.00  0.00    -0.377 OA
ENDROOT
BRANCH   1   2
ATOM      2  C   UNL     1       1.863  45.331  55.587  1.00  0.00     0.188 C 
BRANCH   2   3
ATOM      3  C   UNL     1       3.325  45.748  55.421  1.00  0.00     0.184 C 
BRANCH   3   4
ATOM      4  O   UNL     1       4.173  44.600  55.431  1.00  0.00    -0.394 OA
ATOM      5  H   UNL     1       3.910  44.063  56.199  1.00  0.00     0.210 HD
ENDBRANCH   3   4
ENDBRANCH   2   3
ENDBRANCH   1   2
BRANCH   1   6
ATOM      6  C   UNL     1       1.081  43.849  53.823  1.00  0.00     0.181 C 
BRANCH   6   7
ATOM      7  C   UNL     1       1.919  43.650  52.549  1.00  0.00     0.143 C 
BRANCH   7   8
ATOM      8  N   UNL     1       3.161  42.918  52.837  1.00  0.00    -0.367 N 
ATOM      9  H   UNL     1       3.002  41.924  52.671  1.00  0.00     0.162 HD
BRANCH   8  10
ATOM     10  C   UNL     1       4.291  43.303  52.083  1.00  0.00     0.134 A 
ATOM     11  N   UNL     1       5.054  44.326  52.526  1.00  0.00    -0.230 NA
ATOM     12  C   UNL     1       4.605  42.589  50.902  1.00  0.00     0.027 A 
ATOM     13  C   UNL     1       6.132  44.723  51.809  1.00  0.00     0.073 A 
ATOM     14  C   UNL     1       3.879  41.482  50.416  1.00  0.00     0.032 A 
ATOM     15  C   UNL     1       5.729  43.009  50.172  1.00  0.00     0.006 A 
ATOM     16  C   UNL     1       6.496  44.087  50.629  1.00  0.00     0.039 A 
ATOM     17  C   UNL     1       4.283  40.867  49.243  1.00  0.00     0.112 A 
ATOM     18  C   UNL     1       6.045  42.315  49.001  1.00  0.00     0.119 A 
ATOM     19  N   UNL     1       5.348  41.261  48.520  1.00  0.00    -0.264 NA
BRANCH  13  20
ATOM     20  C   UNL     1       6.884  45.859  52.377  1.00  0.00     0.003 A 
ATOM     21  C   UNL     1       7.592  46.735  51.541  1.00  0.00     0.030 A 
ATOM     22  C   UNL     1       6.938  46.109  53.755  1.00  0.00     0.030 A 
ATOM     23  C   UNL     1       8.290  47.795  52.097  1.00  0.00     0.111 A 
ATOM     24  C   UNL     1       7.666  47.196  54.219  1.00  0.00     0.111 A 
ATOM     25  N   UNL     1       8.338  48.048  53.420  1.00  0.00    -0.265 NA
ENDBRANCH  13  20
ENDBRANCH   8  10
ENDBRANCH   7   8
ENDBRANCH   6   7
ENDBRANCH   1   6
TORSDOF 8
ENDMDL
MODEL 3
REMARK VINA RESULT:    -7.384      1.561      1.893
REMARK INTER + INTRA:         -12.006
REMARK INTER:                 -10.736
REMARK INTRA:                  -1.270
REMARK UNBOUND:                -1.385
REMARK SMILES OCCOCCNc1nc(-c2ccncc2)cc2cnccc12
REMARK SMILES IDX 4 1 3 2 2 3 1 4 5 6 6 7 7 8 8 10 9 11 23 12 10 13 22 14
REMARK SMILES IDX 18 15 17 16 21 17 19 18 20 19 11 20 12 21 16 22 13 23 15 24
REMARK SMILES IDX 14 25
REMARK H PARENT 1 5 7 9
ROOT
ATOM      1  O   UNL     1       1.021  45.270  51.635  1.00  0.00    -0.377 OA
ENDROOT
BRANCH   1   2
ATOM      2  C   UNL     1       1.633  46.002  52.702  1.00  0.00     0.188 C 
BRANCH   2   3
ATOM      3  C   UNL     1       2.800  46.885  52.258  1.00  0.00     0.184 C 
BRANCH   3   4
ATOM      4  O   UNL     1       3.223  46.526  50.943  1.00  0.00    -0.394 OA
ATOM      5  H   UNL     1       3.538  47.342  50.517  1.00  0.00     0.210 HD
ENDBRANCH   3   4
ENDBRANCH   2   3
ENDBRANCH   1   2
BRANCH   1   6
ATOM      6  C   UNL     1       1.018  43.840  51.771  1.00  0.00     0.181 C 
BRANCH   6   7
ATOM      7  C   UNL     1       1.723  43.350  53.047  1.00  0.00     0.143 C 
BRANCH   7   8
ATOM      8  N   UNL     1       2.770  42.366  52.731  1.00  0.00    -0.367 N 
ATOM      9  H   UNL     1       2.365  41.630  52.152  1.00  0.00     0.162 HD
BRANCH   8  10
ATOM     10  C   UNL     1       3.902  42.870  52.053  1.00  0.00     0.134 A 
ATOM     11  N   UNL     1       4.576  43.910  52.592  1.00  0.00    -0.230 NA
ATOM     12  C   UNL     1       4.312  42.254  50.847  1.00  0.00     0.027 A 
ATOM     13  C   UNL     1       5.654  44.420  51.951  1.00  0.00     0.073 A 
ATOM     14  C   UNL     1       3.682  41.135  50.262  1.00  0.00     0.032 A 
ATOM     15  C   UNL     1       5.435  42.790  50.196  1.00  0.00     0.006 A 
ATOM     16  C   UNL     1       6.108  43.885  50.752  1.00  0.00     0.039 A 
ATOM     17  C   UNL     1       4.175  40.623  49.074  1.00  0.00     0.112 A 
ATOM     18  C   UNL     1       5.845  42.193  49.001  1.00  0.00     0.119 A 
ATOM     19  N   UNL     1       5.240  41.129  48.426  1.00  0.00    -0.264 NA
BRANCH  13  20
ATOM     20  C   UNL     1       6.304  45.563  52.619  1.00  0.00     0.003 A 
ATOM     21  C   UNL     1       7.025  46.509  51.876  1.00  0.00     0.030 A 
ATOM     22  C   UNL     1       6.246  45.752  54.008  1.00  0.00     0.030 A 
ATOM     23  C   UNL     1       7.626  47.575  52.526  1.00  0.00     0.111 A 
ATOM     24  C   UNL     1       6.882  46.850  54.569  1.00  0.00     0.111 A 
ATOM     25  N   UNL     1       7.566  47.769  53.859  1.00  0.00    -0.265 NA
ENDBRANCH  13  20
ENDBRANCH   8  10
ENDBRANCH   7   8
ENDBRANCH   6   7
ENDBRANCH   1   6
TORSDOF 8
ENDMDL
MODEL 4
REMARK VINA RESULT:    -7.177      2.518      5.670
REMARK INTER + INTRA:         -11.709
REMARK INTER:                 -10.771
REMARK INTRA:                  -0.938
REMARK UNBOUND:                -1.385
REMARK SMILES OCCOCCNc1nc(-c2ccncc2)cc2cnccc12
REMARK SMILES IDX 4 1 3 2 2 3 1 4 5 6 6 7 7 8 8 10 9 11 23 12 10 13 22 14
REMARK SMILES IDX 18 15 17 16 21 17 19 18 20 19 11 20 12 21 16 22 13 23 15 24
REMARK SMILES IDX 14 25
REMARK H PARENT 1 5 7 9
ROOT
ATOM      1  O   UNL     1       7.939  47.520  54.954  1.00  0.00    -0.377 OA
ENDROOT
BRANCH   1   2
ATOM      2  C   UNL     1       9.097  47.931  54.219  1.00  0.00     0.188 C 
BRANCH   2   3
ATOM      3  C   UNL     1       9.733  46.814  53.391  1.00  0.00     0.184 C 
BRANCH   3   4
ATOM      4  O   UNL     1       9.614  47.099  51.997  1.00  0.00    -0.394 OA
ATOM      5  H   UNL     1      10.445  47.526  51.726  1.00  0.00     0.210 HD
ENDBRANCH   3   4
ENDBRANCH   2   3
ENDBRANCH   1   2
BRANCH   1   6
ATOM      6  C   UNL     1       7.080  46.573  54.300  1.00  0.00     0.181 C 
BRANCH   6   7
ATOM      7  C   UNL     1       6.062  47.230  53.352  1.00  0.00     0.143 C 
BRANCH   7   8
ATOM      8  N   UNL     1       6.312  46.846  51.955  1.00  0.00    -0.367 N 
ATOM      9  H   UNL     1       7.320  46.830  51.794  1.00  0.00     0.162 HD
BRANCH   8  10
ATOM     10  C   UNL     1       5.796  45.593  51.560  1.00  0.00     0.134 A 
ATOM     11  N   UNL     1       4.591  45.206  52.033  1.00  0.00    -0.230 NA
ATOM     12  C   UNL     1       6.542  44.793  50.663  1.00  0.00     0.027 A 
ATOM     13  C   UNL     1       4.084  44.000  51.681  1.00  0.00     0.073 A 
ATOM     14  C   UNL     1       7.779  45.163  50.096  1.00  0.00     0.032 A 
ATOM     15  C   UNL     1       6.001  43.547  50.303  1.00  0.00     0.006 A 
ATOM     16  C   UNL     1       4.764  43.148  50.821  1.00  0.00     0.039 A 
ATOM     17  C   UNL     1       8.418  44.291  49.230  1.00  0.00     0.112 A 
ATOM     18  C   UNL     1       6.733  42.747  49.422  1.00  0.00     0.119 A 
ATOM     19  N   UNL     1       7.925  43.087  48.883  1.00  0.00    -0.264 NA
BRANCH  13  20
ATOM     20  C   UNL     1       2.770  43.673  52.267  1.00  0.00     0.003 A 
ATOM     21  C   UNL     1       1.835  42.917  51.545  1.00  0.00     0.030 A 
ATOM     22  C   UNL     1       2.390  44.102  53.547  1.00  0.00     0.030 A 
ATOM     23  C   UNL     1       0.607  42.621  52.116  1.00  0.00     0.111 A 
ATOM     24  C   UNL     1       1.137  43.759  54.034  1.00  0.00     0.111 A 
ATOM     25  N   UNL     1       0.240  43.022  53.349  1.00  0.00    -0.265 NA
ENDBRANCH  13  20
ENDBRANCH   8  10
ENDBRANCH   7   8
ENDBRANCH   6   7
ENDBRANCH   1   6
TORSDOF 8
ENDMDL
MODEL 5
REMARK VINA RESULT:    -7.023      2.569      5.536
REMARK INTER + INTRA:         -11.487
REMARK INTER:                 -10.914
REMARK INTRA:                  -0.573
REMARK UNBOUND:                -1.385
REMARK SMILES OCCOCCNc1nc(-c2ccncc2)cc2cnccc12
REMARK SMILES IDX 4 1 3 2 2 3 1 4 5 6 6 7 7 8 8 10 9 11 23 12 10 13 22 14
REMARK SMILES IDX 18 15 17 16 21 17 19 18 20 19 11 20 12 21 16 22 13 23 15 24
REMARK SMILES IDX 14 25
REMARK H PARENT 1 5 7 9
ROOT
ATOM      1  O   UNL     1       8.502  48.166  53.247  1.00  0.00    -0.377 OA
ENDROOT
BRANCH   1   2
ATOM      2  C   UNL     1       9.515  47.289  53.751  1.00  0.00     0.188 C 
BRANCH   2   3
ATOM      3  C   UNL     1       9.977  47.627  55.169  1.00  0.00     0.184 C 
BRANCH   3   4
ATOM      4  O   UNL     1       9.189  48.687  55.709  1.00  0.00    -0.394 OA
ATOM      5  H   UNL     1       9.727  49.496  55.651  1.00  0.00     0.210 HD
ENDBRANCH   3   4
ENDBRANCH   2   3
ENDBRANCH   1   2
BRANCH   1   6
ATOM      6  C   UNL     1       7.786  47.706  52.090  1.00  0.00     0.181 C 
BRANCH   6   7
ATOM      7  C   UNL     1       7.109  46.341  52.299  1.00  0.00     0.143 C 
BRANCH   7   8
ATOM      8  N   UNL     1       6.006  46.143  51.347  1.00  0.00    -0.367 N 
ATOM      9  H   UNL     1       6.397  46.006  50.415  1.00  0.00     0.162 HD
BRANCH   8  10
ATOM     10  C   UNL     1       5.151  45.052  51.616  1.00  0.00     0.134 A 
ATOM     11  N   UNL     1       4.150  45.213  52.510  1.00  0.00    -0.230 NA
ATOM     12  C   UNL     1       5.349  43.835  50.923  1.00  0.00     0.027 A 
ATOM     13  C   UNL     1       3.328  44.174  52.796  1.00  0.00     0.073 A 
ATOM     14  C   UNL     1       6.341  43.622  49.943  1.00  0.00     0.032 A 
ATOM     15  C   UNL     1       4.485  42.769  51.226  1.00  0.00     0.006 A 
ATOM     16  C   UNL     1       3.470  42.941  52.173  1.00  0.00     0.039 A 
ATOM     17  C   UNL     1       6.439  42.382  49.334  1.00  0.00     0.112 A 
ATOM     18  C   UNL     1       4.677  41.560  50.551  1.00  0.00     0.119 A 
ATOM     19  N   UNL     1       5.632  41.342  49.619  1.00  0.00    -0.264 NA
BRANCH  13  20
ATOM     20  C   UNL     1       2.282  44.456  53.797  1.00  0.00     0.003 A 
ATOM     21  C   UNL     1       2.596  45.126  54.989  1.00  0.00     0.030 A 
ATOM     22  C   UNL     1       0.947  44.065  53.618  1.00  0.00     0.030 A 
ATOM     23  C   UNL     1       1.596  45.379  55.914  1.00  0.00     0.111 A 
ATOM     24  C   UNL     1       0.015  44.361  54.603  1.00  0.00     0.111 A 
ATOM     25  N   UNL     1       0.309  45.016  55.744  1.00  0.00    -0.265 NA
ENDBRANCH  13  20
ENDBRANCH   8  10
ENDBRANCH   7   8
ENDBRANCH   6   7
ENDBRANCH   1   6
TORSDOF 8
ENDMDL
MODEL 6
REMARK VINA RESULT:    -6.995      2.746      6.310
REMARK INTER + INTRA:         -11.447
REMARK INTER:                 -10.805
REMARK INTRA:                  -0.642
REMARK UNBOUND:                -1.385
REMARK SMILES OCCOCCNc1nc(-c2ccncc2)cc2cnccc12
REMARK SMILES IDX 4 1 3 2 2 3 1 4 5 6 6 7 7 8 8 10 9 11 23 12 10 13 22 14
REMARK SMILES IDX 18 15 17 16 21 17 19 18 20 19 11 20 12 21 16 22 13 23 15 24
REMARK SMILES IDX 14 25
REMARK H PARENT 1 5 7 9
ROOT
ATOM      1  O   UNL     1       6.744  41.956  49.800  1.00  0.00    -0.377 OA
ENDROOT
BRANCH   1   2
ATOM      2  C   UNL     1       5.557  41.263  49.400  1.00  0.00     0.188 C 
BRANCH   2   3
ATOM      3  C   UNL     1       4.380  41.448  50.359  1.00  0.00     0.184 C 
BRANCH   3   4
ATOM      4  O   UNL     1       3.440  40.385  50.203  1.00  0.00    -0.394 OA
ATOM      5  H   UNL     1       3.829  39.756  49.570  1.00  0.00     0.210 HD
ENDBRANCH   3   4
ENDBRANCH   2   3
ENDBRANCH   1   2
BRANCH   1   6
ATOM      6  C   UNL     1       7.112  43.091  49.001  1.00  0.00     0.181 C 
BRANCH   6   7
ATOM      7  C   UNL     1       8.278  43.900  49.595  1.00  0.00     0.143 C 
BRANCH   7   8
ATOM      8  N   UNL     1       7.935  45.325  49.707  1.00  0.00    -0.367 N 
ATOM      9  H   UNL     1       7.305  45.572  48.942  1.00  0.00     0.162 HD
BRANCH   8  10
ATOM     10  C   UNL     1       7.314  45.715  50.913  1.00  0.00     0.134 A 
ATOM     11  N   UNL     1       5.976  45.571  51.034  1.00  0.00    -0.230 NA
ATOM     12  C   UNL     1       8.113  46.216  51.968  1.00  0.00     0.027 A 
ATOM     13  C   UNL     1       5.357  45.954  52.176  1.00  0.00     0.073 A 
ATOM     14  C   UNL     1       9.517  46.342  51.921  1.00  0.00     0.032 A 
ATOM     15  C   UNL     1       7.458  46.605  53.148  1.00  0.00     0.006 A 
ATOM     16  C   UNL     1       6.068  46.475  53.250  1.00  0.00     0.039 A 
ATOM     17  C   UNL     1      10.190  46.851  53.018  1.00  0.00     0.112 A 
ATOM     18  C   UNL     1       8.237  47.107  54.193  1.00  0.00     0.119 A 
ATOM     19  N   UNL     1       9.582  47.243  54.154  1.00  0.00    -0.264 NA
BRANCH  13  20
ATOM     20  C   UNL     1       3.893  45.768  52.194  1.00  0.00     0.003 A 
ATOM     21  C   UNL     1       3.120  46.290  53.242  1.00  0.00     0.030 A 
ATOM     22  C   UNL     1       3.214  45.063  51.190  1.00  0.00     0.030 A 
ATOM     23  C   UNL     1       1.747  46.103  53.236  1.00  0.00     0.111 A 
ATOM     24  C   UNL     1       1.836  44.926  51.272  1.00  0.00     0.111 A 
ATOM     25  N   UNL     1       1.086  45.436  52.269  1.00  0.00    -0.265 NA
ENDBRANCH  13  20
ENDBRANCH   8  10
ENDBRANCH   7   8
ENDBRANCH   6   7
ENDBRANCH   1   6
TORSDOF 8
ENDMDL
MODEL 7
REMARK VINA RESULT:    -6.955      1.928      5.538
REMARK INTER + INTRA:         -11.389
REMARK INTER:                 -10.319
REMARK INTRA:                  -1.070
REMARK UNBOUND:                -1.385
REMARK SMILES OCCOCCNc1nc(-c2ccncc2)cc2cnccc12
REMARK SMILES IDX 4 1 3 2 2 3 1 4 5 6 6 7 7 8 8 10 9 11 23 12 10 13 22 14
REMARK SMILES IDX 18 15 17 16 21 17 19 18 20 19 11 20 12 21 16 22 13 23 15 24
REMARK SMILES IDX 14 25
REMARK H PARENT 1 5 7 9
ROOT
ATOM      1  O   UNL     1       2.802  47.537  52.745  1.00  0.00    -0.377 OA
ENDROOT
BRANCH   1   2
ATOM      2  C   UNL     1       2.046  46.343  52.512  1.00  0.00     0.188 C 
BRANCH   2   3
ATOM      3  C   UNL     1       2.387  45.641  51.197  1.00  0.00     0.184 C 
BRANCH   3   4
ATOM      4  O   UNL     1       3.454  46.319  50.533  1.00  0.00    -0.394 OA
ATOM      5  H   UNL     1       3.129  47.211  50.318  1.00  0.00     0.210 HD
ENDBRANCH   3   4
ENDBRANCH   2   3
ENDBRANCH   1   2
BRANCH   1   6
ATOM      6  C   UNL     1       3.884  47.426  53.683  1.00  0.00     0.181 C 
BRANCH   6   7
ATOM      7  C   UNL     1       3.949  46.054  54.375  1.00  0.00     0.143 C 
BRANCH   7   8
ATOM      8  N   UNL     1       5.321  45.523  54.376  1.00  0.00    -0.367 N 
ATOM      9  H   UNL     1       5.332  44.646  54.897  1.00  0.00     0.162 HD
BRANCH   8  10
ATOM     10  C   UNL     1       5.884  45.273  53.106  1.00  0.00     0.134 A 
ATOM     11  N   UNL     1       5.391  44.259  52.362  1.00  0.00    -0.230 NA
ATOM     12  C   UNL     1       6.927  46.108  52.640  1.00  0.00     0.027 A 
ATOM     13  C   UNL     1       5.927  43.991  51.147  1.00  0.00     0.073 A 
ATOM     14  C   UNL     1       7.449  47.211  53.347  1.00  0.00     0.032 A 
ATOM     15  C   UNL     1       7.470  45.821  51.376  1.00  0.00     0.006 A 
ATOM     16  C   UNL     1       6.967  44.750  50.627  1.00  0.00     0.039 A 
ATOM     17  C   UNL     1       8.476  47.953  52.786  1.00  0.00     0.112 A 
ATOM     18  C   UNL     1       8.505  46.635  50.909  1.00  0.00     0.119 A 
ATOM     19  N   UNL     1       9.021  47.687  51.584  1.00  0.00    -0.264 NA
BRANCH  13  20
ATOM     20  C   UNL     1       5.323  42.853  50.428  1.00  0.00     0.003 A 
ATOM     21  C   UNL     1       5.961  42.296  49.310  1.00  0.00     0.030 A 
ATOM     22  C   UNL     1       4.098  42.288  50.811  1.00  0.00     0.030 A 
ATOM     23  C   UNL     1       5.374  41.227  48.651  1.00  0.00     0.111 A 
ATOM     24  C   UNL     1       3.588  41.220  50.087  1.00  0.00     0.111 A 
ATOM     25  N   UNL     1       4.203  40.673  49.019  1.00  0.00    -0.265 NA
ENDBRANCH  13  20
ENDBRANCH   8  10
ENDBRANCH   7   8
ENDBRANCH   6   7
ENDBRANCH   1   6
TORSDOF 8
ENDMDL
MODEL 8
REMARK VINA RESULT:    -6.876      2.255      5.865
REMARK INTER + INTRA:         -11.276
REMARK INTER:                 -10.453
REMARK INTRA:                  -0.823
REMARK UNBOUND:                -1.385
REMARK SMILES OCCOCCNc1nc(-c2ccncc2)cc2cnccc12
REMARK SMILES IDX 4 1 3 2 2 3 1 4 5 6 6 7 7 8 8 10 9 11 23 12 10 13 22 14
REMARK SMILES IDX 18 15 17 16 21 17 19 18 20 19 11 20 12 21 16 22 13 23 15 24
REMARK SMILES IDX 14 25
REMARK H PARENT 1 5 7 9
ROOT
ATOM      1  O   UNL     1       5.962  41.923  50.439  1.00  0.00    -0.377 OA
ENDROOT
BRANCH   1   2
ATOM      2  C   UNL     1       4.613  41.497  50.659  1.00  0.00     0.188 C 
BRANCH   2   3
ATOM      3  C   UNL     1       3.721  42.567  51.290  1.00  0.00     0.184 C 
BRANCH   3   4
ATOM      4  O   UNL     1       3.275  42.147  52.579  1.00  0.00    -0.394 OA
ATOM      5  H   UNL     1       3.992  41.615  52.965  1.00  0.00     0.210 HD
ENDBRANCH   3   4
ENDBRANCH   2   3
ENDBRANCH   1   2
BRANCH   1   6
ATOM      6  C   UNL     1       6.131  43.072  49.594  1.00  0.00     0.181 C 
BRANCH   6   7
ATOM      7  C   UNL     1       7.462  43.807  49.829  1.00  0.00     0.143 C 
BRANCH   7   8
ATOM      8  N   UNL     1       7.249  45.252  49.993  1.00  0.00    -0.367 N 
ATOM      9  H   UNL     1       6.514  45.551  49.351  1.00  0.00     0.162 HD
BRANCH   8  10
ATOM     10  C   UNL     1       6.884  45.677  51.289  1.00  0.00     0.134 A 
ATOM     11  N   UNL     1       5.600  45.533  51.684  1.00  0.00    -0.230 NA
ATOM     12  C   UNL     1       7.877  46.213  52.143  1.00  0.00     0.027 A 
ATOM     13  C   UNL     1       5.224  45.948  52.918  1.00  0.00     0.073 A 
ATOM     14  C   UNL     1       9.241  46.341  51.807  1.00  0.00     0.032 A 
ATOM     15  C   UNL     1       7.473  46.635  53.420  1.00  0.00     0.006 A 
ATOM     16  C   UNL     1       6.134  46.504  53.807  1.00  0.00     0.039 A 
ATOM     17  C   UNL     1      10.119  46.886  52.728  1.00  0.00     0.112 A 
ATOM     18  C   UNL     1       8.444  47.172  54.269  1.00  0.00     0.119 A 
ATOM     19  N   UNL     1       9.751  47.310  53.952  1.00  0.00    -0.264 NA
BRANCH  13  20
ATOM     20  C   UNL     1       3.797  45.758  53.239  1.00  0.00     0.003 A 
ATOM     21  C   UNL     1       3.410  45.194  54.464  1.00  0.00     0.030 A 
ATOM     22  C   UNL     1       2.773  46.113  52.349  1.00  0.00     0.030 A 
ATOM     23  C   UNL     1       2.063  45.026  54.744  1.00  0.00     0.111 A 
ATOM     24  C   UNL     1       1.451  45.905  52.718  1.00  0.00     0.111 A 
ATOM     25  N   UNL     1       1.074  45.374  53.898  1.00  0.00    -0.265 NA
ENDBRANCH  13  20
ENDBRANCH   8  10
ENDBRANCH   7   8
ENDBRANCH   6   7
ENDBRANCH   1   6
TORSDOF 8
ENDMDL
MODEL 9
REMARK VINA RESULT:    -6.852      1.142      1.802
REMARK INTER + INTRA:         -11.241
REMARK INTER:                 -10.298
REMARK INTRA:                  -0.943
REMARK UNBOUND:                -1.385
REMARK SMILES OCCOCCNc1nc(-c2ccncc2)cc2cnccc12
REMARK SMILES IDX 4 1 3 2 2 3 1 4 5 6 6 7 7 8 8 10 9 11 23 12 10 13 22 14
REMARK SMILES IDX 18 15 17 16 21 17 19 18 20 19 11 20 12 21 16 22 13 23 15 24
REMARK SMILES IDX 14 25
REMARK H PARENT 1 5 7 9
ROOT
ATOM      1  O   UNL     1       0.374  44.151  54.867  1.00  0.00    -0.377 OA
ENDROOT
BRANCH   1   2
ATOM      2  C   UNL     1      -0.790  43.676  54.182  1.00  0.00     0.188 C 
BRANCH   2   3
ATOM      3  C   UNL     1      -0.487  42.664  53.076  1.00  0.00     0.184 C 
BRANCH   3   4
ATOM      4  O   UNL     1       0.526  41.752  53.500  1.00  0.00    -0.394 OA
ATOM      5  H   UNL     1       0.645  41.889  54.456  1.00  0.00     0.210 HD
ENDBRANCH   3   4
ENDBRANCH   2   3
ENDBRANCH   1   2
BRANCH   1   6
ATOM      6  C   UNL     1       1.201  45.074  54.142  1.00  0.00     0.181 C 
BRANCH   6   7
ATOM      7  C   UNL     1       2.685  44.672  54.120  1.00  0.00     0.143 C 
BRANCH   7   8
ATOM      8  N   UNL     1       2.945  43.650  53.095  1.00  0.00    -0.367 N 
ATOM      9  H   UNL     1       2.167  43.643  52.434  1.00  0.00     0.162 HD
BRANCH   8  10
ATOM     10  C   UNL     1       4.135  43.811  52.354  1.00  0.00     0.134 A 
ATOM     11  N   UNL     1       4.995  44.792  52.707  1.00  0.00    -0.230 NA
ATOM     12  C   UNL     1       4.406  42.925  51.285  1.00  0.00     0.027 A 
ATOM     13  C   UNL     1       6.135  44.976  51.999  1.00  0.00     0.073 A 
ATOM     14  C   UNL     1       3.574  41.852  50.902  1.00  0.00     0.032 A 
ATOM     15  C   UNL     1       5.594  43.125  50.563  1.00  0.00     0.006 A 
ATOM     16  C   UNL     1       6.463  44.162  50.923  1.00  0.00     0.039 A 
ATOM     17  C   UNL     1       3.945  41.054  49.833  1.00  0.00     0.112 A 
ATOM     18  C   UNL     1       5.868  42.259  49.501  1.00  0.00     0.119 A 
ATOM     19  N   UNL     1       5.072  41.235  49.119  1.00  0.00    -0.264 NA
BRANCH  13  20
ATOM     20  C   UNL     1       6.992  46.085  52.460  1.00  0.00     0.003 A 
ATOM     21  C   UNL     1       7.271  46.251  53.825  1.00  0.00     0.030 A 
ATOM     22  C   UNL     1       7.551  47.020  51.576  1.00  0.00     0.030 A 
ATOM     23  C   UNL     1       8.080  47.300  54.234  1.00  0.00     0.111 A 
ATOM     24  C   UNL     1       8.346  48.039  52.081  1.00  0.00     0.111 A 
ATOM     25  N   UNL     1       8.628  48.196  53.389  1.00  0.00    -0.265 NA
ENDBRANCH  13  20
ENDBRANCH   8  10
ENDBRANCH   7   8
ENDBRANCH   6   7
ENDBRANCH   1   6
TORSDOF 8
ENDMDL
MODEL 10
REMARK VINA RESULT:    -6.844      1.380      2.089
REMARK INTER + INTRA:         -11.230
REMARK INTER:                 -10.248
REMARK INTRA:                  -0.982
REMARK UNBOUND:                -1.385
REMARK SMILES OCCOCCNc1nc(-c2ccncc2)cc2cnccc12
REMARK SMILES IDX 4 1 3 2 2 3 1 4 5 6 6 7 7 8 8 10 9 11 23 12 10 13 22 14
REMARK SMILES IDX 18 15 17 16 21 17 19 18 20 19 11 20 12 21 16 22 13 23 15 24
REMARK SMILES IDX 14 25
REMARK H PARENT 1 5 7 9
ROOT
ATOM      1  O   UNL     1       0.363  42.824  52.994  1.00  0.00    -0.377 OA
ENDROOT
BRANCH   1   2
ATOM      2  C   UNL     1      -0.741  43.398  52.285  1.00  0.00     0.188 C 
BRANCH   2   3
ATOM      3  C   UNL     1      -0.548  43.438  50.768  1.00  0.00     0.184 C 
BRANCH   3   4
ATOM      4  O   UNL     1       0.840  43.366  50.441  1.00  0.00    -0.394 OA
ATOM      5  H   UNL     1       1.224  44.235  50.651  1.00  0.00     0.210 HD
ENDBRANCH   3   4
ENDBRANCH   2   3
ENDBRANCH   1   2
BRANCH   1   6
ATOM      6  C   UNL     1       1.031  43.688  53.927  1.00  0.00     0.181 C 
BRANCH   6   7
ATOM      7  C   UNL     1       2.438  44.105  53.467  1.00  0.00     0.143 C 
BRANCH   7   8
ATOM      8  N   UNL     1       3.117  43.004  52.766  1.00  0.00    -0.367 N 
ATOM      9  H   UNL     1       2.458  42.575  52.114  1.00  0.00     0.162 HD
BRANCH   8  10
ATOM     10  C   UNL     1       4.271  43.360  52.034  1.00  0.00     0.134 A 
ATOM     11  N   UNL     1       5.038  44.378  52.483  1.00  0.00    -0.230 NA
ATOM     12  C   UNL     1       4.603  42.625  50.873  1.00  0.00     0.027 A 
ATOM     13  C   UNL     1       6.141  44.748  51.788  1.00  0.00     0.073 A 
ATOM     14  C   UNL     1       3.872  41.522  50.384  1.00  0.00     0.032 A 
ATOM     15  C   UNL     1       5.752  43.016  50.165  1.00  0.00     0.006 A 
ATOM     16  C   UNL     1       6.524  44.089  50.627  1.00  0.00     0.039 A 
ATOM     17  C   UNL     1       4.296  40.883  49.231  1.00  0.00     0.112 A 
ATOM     18  C   UNL     1       6.086  42.300  49.013  1.00  0.00     0.119 A 
ATOM     19  N   UNL     1       5.385  41.250  48.530  1.00  0.00    -0.264 NA
BRANCH  13  20
ATOM     20  C   UNL     1       6.896  45.880  52.358  1.00  0.00     0.003 A 
ATOM     21  C   UNL     1       6.925  46.092  53.745  1.00  0.00     0.030 A 
ATOM     22  C   UNL     1       7.599  46.792  51.559  1.00  0.00     0.030 A 
ATOM     23  C   UNL     1       7.642  47.161  54.257  1.00  0.00     0.111 A 
ATOM     24  C   UNL     1       8.287  47.834  52.164  1.00  0.00     0.111 A 
ATOM     25  N   UNL     1       8.329  48.036  53.496  1.00  0.00    -0.265 NA
ENDBRANCH  13  20
ENDBRANCH   8  10
ENDBRANCH   7   8
ENDBRANCH   6   7
ENDBRANCH   1   6
TORSDOF 8
ENDMDL
MODEL 11
REMARK VINA RESULT:    -6.785      3.004      6.737
REMARK INTER + INTRA:         -11.145
REMARK INTER:                 -10.362
REMARK INTRA:                  -0.783
REMARK UNBOUND:                -1.385
REMARK SMILES OCCOCCNc1nc(-c2ccncc2)cc2cnccc12
REMARK SMILES IDX 4 1 3 2 2 3 1 4 5 6 6 7 7 8 8 10 9 11 23 12 10 13 22 14
REMARK SMILES IDX 18 15 17 16 21 17 19 18 20 19 11 20 12 21 16 22 13 23 15 24
REMARK SMILES IDX 14 25
REMARK H PARENT 1 5 7 9
ROOT
ATOM      1  O   UNL     1       9.701  47.213  52.639  1.00  0.00    -0.377 OA
ENDROOT
BRANCH   1   2
ATOM      2  C   UNL     1       9.931  47.009  54.037  1.00  0.00     0.188 C 
BRANCH   2   3
ATOM      3  C   UNL     1       9.253  48.046  54.934  1.00  0.00     0.184 C 
BRANCH   3   4
ATOM      4  O   UNL     1      10.072  48.335  56.067  1.00  0.00    -0.394 OA
ATOM      5  H   UNL     1       9.471  48.570  56.795  1.00  0.00     0.210 HD
ENDBRANCH   3   4
ENDBRANCH   2   3
ENDBRANCH   1   2
BRANCH   1   6
ATOM      6  C   UNL     1       9.821  46.052  51.803  1.00  0.00     0.181 C 
BRANCH   6   7
ATOM      7  C   UNL     1       8.627  45.862  50.852  1.00  0.00     0.143 C 
BRANCH   7   8
ATOM      8  N   UNL     1       7.413  46.493  51.390  1.00  0.00    -0.367 N 
ATOM      9  H   UNL     1       7.036  47.131  50.688  1.00  0.00     0.162 HD
BRANCH   8  10
ATOM     10  C   UNL     1       6.377  45.611  51.767  1.00  0.00     0.134 A 
ATOM     11  N   UNL     1       6.105  44.550  50.975  1.00  0.00    -0.230 NA
ATOM     12  C   UNL     1       5.674  45.848  52.972  1.00  0.00     0.027 A 
ATOM     13  C   UNL     1       5.103  43.700  51.308  1.00  0.00     0.073 A 
ATOM     14  C   UNL     1       5.946  46.907  53.864  1.00  0.00     0.032 A 
ATOM     15  C   UNL     1       4.643  44.956  53.306  1.00  0.00     0.006 A 
ATOM     16  C   UNL     1       4.354  43.876  52.464  1.00  0.00     0.039 A 
ATOM     17  C   UNL     1       5.185  47.038  55.013  1.00  0.00     0.112 A 
ATOM     18  C   UNL     1       3.939  45.184  54.491  1.00  0.00     0.119 A 
ATOM     19  N   UNL     1       4.183  46.203  55.347  1.00  0.00    -0.264 NA
BRANCH  13  20
ATOM     20  C   UNL     1       4.883  42.586  50.366  1.00  0.00     0.003 A 
ATOM     21  C   UNL     1       3.750  41.767  50.482  1.00  0.00     0.030 A 
ATOM     22  C   UNL     1       5.783  42.287  49.333  1.00  0.00     0.030 A 
ATOM     23  C   UNL     1       3.563  40.728  49.585  1.00  0.00     0.111 A 
ATOM     24  C   UNL     1       5.511  41.223  48.485  1.00  0.00     0.111 A 
ATOM     25  N   UNL     1       4.418  40.440  48.584  1.00  0.00    -0.265 NA
ENDBRANCH  13  20
ENDBRANCH   8  10
ENDBRANCH   7   8
ENDBRANCH   6   7
ENDBRANCH   1   6
TORSDOF 8
ENDMDL
MODEL 12
REMARK VINA RESULT:    -6.780      2.371      5.748
REMARK INTER + INTRA:         -11.138
REMARK INTER:                 -10.675
REMARK INTRA:                  -0.464
REMARK UNBOUND:                -1.385
REMARK SMILES OCCOCCNc1nc(-c2ccncc2)cc2cnccc12
REMARK SMILES IDX 4 1 3 2 2 3 1 4 5 6 6 7 7 8 8 10 9 11 23 12 10 13 22 14
REMARK SMILES IDX 18 15 17 16 21 17 19 18 20 19 11 20 12 21 16 22 13 23 15 24
REMARK SMILES IDX 14 25
REMARK H PARENT 1 5 7 9
ROOT
ATOM      1  O   UNL     1       6.798  47.406  54.764  1.00  0.00    -0.377 OA
ENDROOT
BRANCH   1   2
ATOM      2  C   UNL     1       8.027  46.957  54.184  1.00  0.00     0.188 C 
BRANCH   2   3
ATOM      3  C   UNL     1       9.214  47.882  54.456  1.00  0.00     0.184 C 
BRANCH   3   4
ATOM      4  O   UNL     1       8.949  48.713  55.587  1.00  0.00    -0.394 OA
ATOM      5  H   UNL     1       8.485  48.159  56.238  1.00  0.00     0.210 HD
ENDBRANCH   3   4
ENDBRANCH   2   3
ENDBRANCH   1   2
BRANCH   1   6
ATOM      6  C   UNL     1       5.787  46.404  54.956  1.00  0.00     0.181 C 
BRANCH   6   7
ATOM      7  C   UNL     1       4.399  46.838  54.455  1.00  0.00     0.143 C 
BRANCH   7   8
ATOM      8  N   UNL     1       3.352  45.918  54.925  1.00  0.00    -0.367 N 
ATOM      9  H   UNL     1       2.515  46.459  55.146  1.00  0.00     0.162 HD
BRANCH   8  10
ATOM     10  C   UNL     1       2.978  44.900  54.022  1.00  0.00     0.134 A 
ATOM     11  N   UNL     1       3.879  44.476  53.108  1.00  0.00    -0.230 NA
ATOM     12  C   UNL     1       1.685  44.335  54.119  1.00  0.00     0.027 A 
ATOM     13  C   UNL     1       3.536  43.511  52.221  1.00  0.00     0.073 A 
ATOM     14  C   UNL     1       0.720  44.698  55.082  1.00  0.00     0.032 A 
ATOM     15  C   UNL     1       1.345  43.332  53.195  1.00  0.00     0.006 A 
ATOM     16  C   UNL     1       2.279  42.921  52.237  1.00  0.00     0.039 A 
ATOM     17  C   UNL     1      -0.516  44.075  55.074  1.00  0.00     0.112 A 
ATOM     18  C   UNL     1       0.067  42.773  53.278  1.00  0.00     0.119 A 
ATOM     19  N   UNL     1      -0.868  43.123  54.190  1.00  0.00    -0.264 NA
BRANCH  13  20
ATOM     20  C   UNL     1       4.589  43.136  51.259  1.00  0.00     0.003 A 
ATOM     21  C   UNL     1       4.658  41.831  50.748  1.00  0.00     0.030 A 
ATOM     22  C   UNL     1       5.565  44.044  50.822  1.00  0.00     0.030 A 
ATOM     23  C   UNL     1       5.656  41.503  49.844  1.00  0.00     0.111 A 
ATOM     24  C   UNL     1       6.527  43.621  49.916  1.00  0.00     0.111 A 
ATOM     25  N   UNL     1       6.591  42.373  49.413  1.00  0.00    -0.265 NA
ENDBRANCH  13  20
ENDBRANCH   8  10
ENDBRANCH   7   8
ENDBRANCH   6   7
ENDBRANCH   1   6
TORSDOF 8
ENDMDL
MODEL 13
REMARK VINA RESULT:    -6.764      2.598      5.066
REMARK INTER + INTRA:         -11.115
REMARK INTER:                 -10.386
REMARK INTRA:                  -0.729
REMARK UNBOUND:                -1.385
REMARK SMILES OCCOCCNc1nc(-c2ccncc2)cc2cnccc12
REMARK SMILES IDX 4 1 3 2 2 3 1 4 5 6 6 7 7 8 8 10 9 11 23 12 10 13 22 14
REMARK SMILES IDX 18 15 17 16 21 17 19 18 20 19 11 20 12 21 16 22 13 23 15 24
REMARK SMILES IDX 14 25
REMARK H PARENT 1 5 7 9
ROOT
ATOM      1  O   UNL     1       5.614  41.177  49.914  1.00  0.00    -0.377 OA
ENDROOT
BRANCH   1   2
ATOM      2  C   UNL     1       6.194  42.001  48.897  1.00  0.00     0.188 C 
BRANCH   2   3
ATOM      3  C   UNL     1       6.958  43.209  49.441  1.00  0.00     0.184 C 
BRANCH   3   4
ATOM      4  O   UNL     1       8.285  43.237  48.916  1.00  0.00    -0.394 OA
ATOM      5  H   UNL     1       8.203  43.331  47.951  1.00  0.00     0.210 HD
ENDBRANCH   3   4
ENDBRANCH   2   3
ENDBRANCH   1   2
BRANCH   1   6
ATOM      6  C   UNL     1       4.216  41.381  50.171  1.00  0.00     0.181 C 
BRANCH   6   7
ATOM      7  C   UNL     1       3.942  42.099  51.503  1.00  0.00     0.143 C 
BRANCH   7   8
ATOM      8  N   UNL     1       3.774  43.546  51.303  1.00  0.00    -0.367 N 
ATOM      9  H   UNL     1       2.786  43.743  51.143  1.00  0.00     0.162 HD
BRANCH   8  10
ATOM     10  C   UNL     1       4.207  44.367  52.367  1.00  0.00     0.134 A 
ATOM     11  N   UNL     1       5.438  44.921  52.304  1.00  0.00    -0.230 NA
ATOM     12  C   UNL     1       3.331  44.608  53.451  1.00  0.00     0.027 A 
ATOM     13  C   UNL     1       5.880  45.699  53.321  1.00  0.00     0.073 A 
ATOM     14  C   UNL     1       2.018  44.101  53.550  1.00  0.00     0.032 A 
ATOM     15  C   UNL     1       3.801  45.421  54.496  1.00  0.00     0.006 A 
ATOM     16  C   UNL     1       5.088  45.966  54.430  1.00  0.00     0.039 A 
ATOM     17  C   UNL     1       1.255  44.404  54.665  1.00  0.00     0.112 A 
ATOM     18  C   UNL     1       2.945  45.660  55.574  1.00  0.00     0.119 A 
ATOM     19  N   UNL     1       1.690  45.169  55.684  1.00  0.00    -0.264 NA
BRANCH  13  20
ATOM     20  C   UNL     1       7.243  46.238  53.156  1.00  0.00     0.003 A 
ATOM     21  C   UNL     1       7.907  46.136  51.924  1.00  0.00     0.030 A 
ATOM     22  C   UNL     1       7.937  46.859  54.204  1.00  0.00     0.030 A 
ATOM     23  C   UNL     1       9.187  46.651  51.793  1.00  0.00     0.111 A 
ATOM     24  C   UNL     1       9.218  47.342  53.977  1.00  0.00     0.111 A 
ATOM     25  N   UNL     1       9.856  47.257  52.793  1.00  0.00    -0.265 NA
ENDBRANCH  13  20
ENDBRANCH   8  10
ENDBRANCH   7   8
ENDBRANCH   6   7
ENDBRANCH   1   6
TORSDOF 8
ENDMDL
MODEL 14
REMARK VINA RESULT:    -6.736      2.303      5.536
REMARK INTER + INTRA:         -11.074
REMARK INTER:                 -10.310
REMARK INTRA:                  -0.765
REMARK UNBOUND:                -1.385
REMARK SMILES OCCOCCNc1nc(-c2ccncc2)cc2cnccc12
REMARK SMILES IDX 4 1 3 2 2 3 1 4 5 6 6 7 7 8 8 10 9 11 23 12 10 13 22 14
REMARK SMILES IDX 18 15 17 16 21 17 19 18 20 19 11 20 12 21 16 22 13 23 15 24
REMARK SMILES IDX 14 25
REMARK H PARENT 1 5 7 9
ROOT
ATOM      1  O   UNL     1       5.866  47.920  53.438  1.00  0.00    -0.377 OA
ENDROOT
BRANCH   1   2
ATOM      2  C   UNL     1       6.675  46.789  53.097  1.00  0.00     0.188 C 
BRANCH   2   3
ATOM      3  C   UNL     1       8.068  46.811  53.729  1.00  0.00     0.184 C 
BRANCH   3   4
ATOM      4  O   UNL     1       8.065  47.611  54.911  1.00  0.00    -0.394 OA
ATOM      5  H   UNL     1       7.517  48.392  54.721  1.00  0.00     0.210 HD
ENDBRANCH   3   4
ENDBRANCH   2   3
ENDBRANCH   1   2
BRANCH   1   6
ATOM      6  C   UNL     1       4.512  47.635  53.824  1.00  0.00     0.181 C 
BRANCH   6   7
ATOM      7  C   UNL     1       4.384  46.384  54.709  1.00  0.00     0.143 C 
BRANCH   7   8
ATOM      8  N   UNL     1       3.003  45.878  54.720  1.00  0.00    -0.367 N 
ATOM      9  H   UNL     1       2.373  46.641  54.468  1.00  0.00     0.162 HD
BRANCH   8  10
ATOM     10  C   UNL     1       2.737  44.799  53.849  1.00  0.00     0.134 A 
ATOM     11  N   UNL     1       3.700  44.406  52.986  1.00  0.00    -0.230 NA
ATOM     12  C   UNL     1       1.484  44.147  53.925  1.00  0.00     0.027 A 
ATOM     13  C   UNL     1       3.460  43.383  52.129  1.00  0.00     0.073 A 
ATOM     14  C   UNL     1       0.461  44.477  54.837  1.00  0.00     0.032 A 
ATOM     15  C   UNL     1       1.252  43.085  53.034  1.00  0.00     0.006 A 
ATOM     16  C   UNL     1       2.248  42.705  52.127  1.00  0.00     0.039 A 
ATOM     17  C   UNL     1      -0.727  43.766  54.813  1.00  0.00     0.112 A 
ATOM     18  C   UNL     1       0.016  42.438  53.097  1.00  0.00     0.119 A 
ATOM     19  N   UNL     1      -0.976  42.755  53.959  1.00  0.00    -0.264 NA
BRANCH  13  20
ATOM     20  C   UNL     1       4.573  43.047  51.221  1.00  0.00     0.003 A 
ATOM     21  C   UNL     1       5.495  44.029  50.828  1.00  0.00     0.030 A 
ATOM     22  C   UNL     1       4.756  41.757  50.704  1.00  0.00     0.030 A 
ATOM     23  C   UNL     1       6.533  43.690  49.975  1.00  0.00     0.111 A 
ATOM     24  C   UNL     1       5.825  41.513  49.853  1.00  0.00     0.111 A 
ATOM     25  N   UNL     1       6.721  42.449  49.482  1.00  0.00    -0.265 NA
ENDBRANCH  13  20
ENDBRANCH   8  10
ENDBRANCH   7   8
ENDBRANCH   6   7
ENDBRANCH   1   6
TORSDOF 8
ENDMDL
MODEL 15
REMARK VINA RESULT:    -6.718      1.231      5.235
REMARK INTER + INTRA:         -11.048
REMARK INTER:                  -9.980
REMARK INTRA:                  -1.068
REMARK UNBOUND:                -1.385
REMARK SMILES OCCOCCNc1nc(-c2ccncc2)cc2cnccc12
REMARK SMILES IDX 4 1 3 2 2 3 1 4 5 6 6 7 7 8 8 10 9 11 23 12 10 13 22 14
REMARK SMILES IDX 18 15 17 16 21 17 19 18 20 19 11 20 12 21 16 22 13 23 15 24
REMARK SMILES IDX 14 25
REMARK H PARENT 1 5 7 9
ROOT
ATOM      1  O   UNL     1       0.290  44.848  54.727  1.00  0.00    -0.377 OA
ENDROOT
BRANCH   1   2
ATOM      2  C   UNL     1       0.522  44.181  53.481  1.00  0.00     0.188 C 
BRANCH   2   3
ATOM      3  C   UNL     1       0.659  42.663  53.608  1.00  0.00     0.184 C 
BRANCH   3   4
ATOM      4  O   UNL     1       2.003  42.261  53.345  1.00  0.00    -0.394 OA
ATOM      5  H   UNL     1       2.580  42.952  53.716  1.00  0.00     0.210 HD
ENDBRANCH   3   4
ENDBRANCH   2   3
ENDBRANCH   1   2
BRANCH   1   6
ATOM      6  C   UNL     1       1.455  45.120  55.523  1.00  0.00     0.181 C 
BRANCH   6   7
ATOM      7  C   UNL     1       2.664  45.581  54.692  1.00  0.00     0.143 C 
BRANCH   7   8
ATOM      8  N   UNL     1       3.733  44.572  54.703  1.00  0.00    -0.367 N 
ATOM      9  H   UNL     1       3.308  43.644  54.718  1.00  0.00     0.162 HD
BRANCH   8  10
ATOM     10  C   UNL     1       4.629  44.614  53.614  1.00  0.00     0.134 A 
ATOM     11  N   UNL     1       4.471  43.729  52.605  1.00  0.00    -0.230 NA
ATOM     12  C   UNL     1       5.647  45.596  53.597  1.00  0.00     0.027 A 
ATOM     13  C   UNL     1       5.330  43.740  51.557  1.00  0.00     0.073 A 
ATOM     14  C   UNL     1       5.832  46.578  54.594  1.00  0.00     0.032 A 
ATOM     15  C   UNL     1       6.527  45.599  52.502  1.00  0.00     0.006 A 
ATOM     16  C   UNL     1       6.367  44.660  51.476  1.00  0.00     0.039 A 
ATOM     17  C   UNL     1       6.869  47.486  54.468  1.00  0.00     0.112 A 
ATOM     18  C   UNL     1       7.540  46.561  52.479  1.00  0.00     0.119 A 
ATOM     19  N   UNL     1       7.732  47.498  53.435  1.00  0.00    -0.264 NA
BRANCH  13  20
ATOM     20  C   UNL     1       5.074  42.722  50.521  1.00  0.00     0.003 A 
ATOM     21  C   UNL     1       3.935  41.906  50.588  1.00  0.00     0.030 A 
ATOM     22  C   UNL     1       5.945  42.512  49.442  1.00  0.00     0.030 A 
ATOM     23  C   UNL     1       3.715  40.957  49.602  1.00  0.00     0.111 A 
ATOM     24  C   UNL     1       5.642  41.536  48.505  1.00  0.00     0.111 A 
ATOM     25  N   UNL     1       4.543  40.757  48.558  1.00  0.00    -0.265 NA
ENDBRANCH  13  20
ENDBRANCH   8  10
ENDBRANCH   7   8
ENDBRANCH   6   7
ENDBRANCH   1   6
TORSDOF 8
ENDMDL
MODEL 16
REMARK VINA RESULT:    -6.710      1.956      4.974
REMARK INTER + INTRA:         -11.037
REMARK INTER:                  -9.736
REMARK INTRA:                  -1.301
REMARK UNBOUND:                -1.385
REMARK SMILES OCCOCCNc1nc(-c2ccncc2)cc2cnccc12
REMARK SMILES IDX 4 1 3 2 2 3 1 4 5 6 6 7 7 8 8 10 9 11 23 12 10 13 22 14
REMARK SMILES IDX 18 15 17 16 21 17 19 18 20 19 11 20 12 21 16 22 13 23 15 24
REMARK SMILES IDX 14 25
REMARK H PARENT 1 5 7 9
ROOT
ATOM      1  O   UNL     1       6.304  47.208  54.453  1.00  0.00    -0.377 OA
ENDROOT
BRANCH   1   2
ATOM      2  C   UNL     1       4.886  47.332  54.599  1.00  0.00     0.188 C 
BRANCH   2   3
ATOM      3  C   UNL     1       4.244  48.303  53.607  1.00  0.00     0.184 C 
BRANCH   3   4
ATOM      4  O   UNL     1       3.247  47.636  52.833  1.00  0.00    -0.394 OA
ATOM      5  H   UNL     1       2.391  48.027  53.081  1.00  0.00     0.210 HD
ENDBRANCH   3   4
ENDBRANCH   2   3
ENDBRANCH   1   2
BRANCH   1   6
ATOM      6  C   UNL     1       6.819  47.372  53.122  1.00  0.00     0.181 C 
BRANCH   6   7
ATOM      7  C   UNL     1       6.898  46.053  52.335  1.00  0.00     0.143 C 
BRANCH   7   8
ATOM      8  N   UNL     1       5.780  45.931  51.388  1.00  0.00    -0.367 N 
ATOM      9  H   UNL     1       6.156  45.888  50.440  1.00  0.00     0.162 HD
BRANCH   8  10
ATOM     10  C   UNL     1       4.943  44.808  51.566  1.00  0.00     0.134 A 
ATOM     11  N   UNL     1       3.898  44.902  52.417  1.00  0.00    -0.230 NA
ATOM     12  C   UNL     1       5.207  43.629  50.829  1.00  0.00     0.027 A 
ATOM     13  C   UNL     1       3.092  43.831  52.617  1.00  0.00     0.073 A 
ATOM     14  C   UNL     1       6.249  43.486  49.890  1.00  0.00     0.032 A 
ATOM     15  C   UNL     1       4.360  42.529  51.043  1.00  0.00     0.006 A 
ATOM     16  C   UNL     1       3.297  42.632  51.947  1.00  0.00     0.039 A 
ATOM     17  C   UNL     1       6.410  42.278  49.232  1.00  0.00     0.112 A 
ATOM     18  C   UNL     1       4.615  41.358  50.324  1.00  0.00     0.119 A 
ATOM     19  N   UNL     1       5.619  41.207  49.431  1.00  0.00    -0.264 NA
BRANCH  13  20
ATOM     20  C   UNL     1       1.993  44.040  53.578  1.00  0.00     0.003 A 
ATOM     21  C   UNL     1       0.715  43.520  53.324  1.00  0.00     0.030 A 
ATOM     22  C   UNL     1       2.162  44.765  54.766  1.00  0.00     0.030 A 
ATOM     23  C   UNL     1      -0.302  43.728  54.242  1.00  0.00     0.111 A 
ATOM     24  C   UNL     1       1.082  44.923  55.624  1.00  0.00     0.111 A 
ATOM     25  N   UNL     1      -0.144  44.415  55.391  1.00  0.00    -0.265 NA
ENDBRANCH  13  20
ENDBRANCH   8  10
ENDBRANCH   7   8
ENDBRANCH   6   7
ENDBRANCH   1   6
TORSDOF 8
ENDMDL
MODEL 17
REMARK VINA RESULT:    -6.704      2.420      4.894
REMARK INTER + INTRA:         -11.028
REMARK INTER:                 -10.322
REMARK INTRA:                  -0.705
REMARK UNBOUND:                -1.385
REMARK SMILES OCCOCCNc1nc(-c2ccncc2)cc2cnccc12
REMARK SMILES IDX 4 1 3 2 2 3 1 4 5 6 6 7 7 8 8 10 9 11 23 12 10 13 22 14
REMARK SMILES IDX 18 15 17 16 21 17 19 18 20 19 11 20 12 21 16 22 13 23 15 24
REMARK SMILES IDX 14 25
REMARK H PARENT 1 5 7 9
ROOT
ATOM      1  O   UNL     1       6.045  47.510  53.675  1.00  0.00    -0.377 OA
ENDROOT
BRANCH   1   2
ATOM      2  C   UNL     1       7.272  46.802  53.881  1.00  0.00     0.188 C 
BRANCH   2   3
ATOM      3  C   UNL     1       8.515  47.692  53.839  1.00  0.00     0.184 C 
BRANCH   3   4
ATOM      4  O   UNL     1       8.766  48.256  55.125  1.00  0.00    -0.394 OA
ATOM      5  H   UNL     1       9.430  48.957  55.000  1.00  0.00     0.210 HD
ENDBRANCH   3   4
ENDBRANCH   2   3
ENDBRANCH   1   2
BRANCH   1   6
ATOM      6  C   UNL     1       4.979  47.205  54.588  1.00  0.00     0.181 C 
BRANCH   6   7
ATOM      7  C   UNL     1       5.105  45.811  55.225  1.00  0.00     0.143 C 
BRANCH   7   8
ATOM      8  N   UNL     1       3.871  45.032  55.049  1.00  0.00    -0.367 N 
ATOM      9  H   UNL     1       3.072  45.630  55.261  1.00  0.00     0.162 HD
BRANCH   8  10
ATOM     10  C   UNL     1       3.666  44.487  53.762  1.00  0.00     0.134 A 
ATOM     11  N   UNL     1       4.714  44.411  52.912  1.00  0.00    -0.230 NA
ATOM     12  C   UNL     1       2.381  44.011  53.413  1.00  0.00     0.027 A 
ATOM     13  C   UNL     1       4.537  43.908  51.667  1.00  0.00     0.073 A 
ATOM     14  C   UNL     1       1.262  44.015  54.272  1.00  0.00     0.032 A 
ATOM     15  C   UNL     1       2.214  43.486  52.120  1.00  0.00     0.006 A 
ATOM     16  C   UNL     1       3.301  43.439  51.241  1.00  0.00     0.039 A 
ATOM     17  C   UNL     1       0.051  43.524  53.814  1.00  0.00     0.112 A 
ATOM     18  C   UNL     1       0.946  43.020  51.763  1.00  0.00     0.119 A 
ATOM     19  N   UNL     1      -0.135  43.030  52.575  1.00  0.00    -0.264 NA
BRANCH  13  20
ATOM     20  C   UNL     1       5.743  43.887  50.818  1.00  0.00     0.003 A 
ATOM     21  C   UNL     1       6.577  45.012  50.735  1.00  0.00     0.030 A 
ATOM     22  C   UNL     1       6.105  42.768  50.054  1.00  0.00     0.030 A 
ATOM     23  C   UNL     1       7.705  44.969  49.931  1.00  0.00     0.111 A 
ATOM     24  C   UNL     1       7.253  42.820  49.276  1.00  0.00     0.111 A 
ATOM     25  N   UNL     1       8.064  43.894  49.203  1.00  0.00    -0.265 NA
ENDBRANCH  13  20
ENDBRANCH   8  10
ENDBRANCH   7   8
ENDBRANCH   6   7
ENDBRANCH   1   6
TORSDOF 8
ENDMDL
MODEL 18
REMARK VINA RESULT:    -6.701      2.257      5.198
REMARK INTER + INTRA:         -11.024
REMARK INTER:                  -9.817
REMARK INTRA:                  -1.207
REMARK UNBOUND:                -1.385
REMARK SMILES OCCOCCNc1nc(-c2ccncc2)cc2cnccc12
REMARK SMILES IDX 4 1 3 2 2 3 1 4 5 6 6 7 7 8 8 10 9 11 23 12 10 13 22 14
REMARK SMILES IDX 18 15 17 16 21 17 19 18 20 19 11 20 12 21 16 22 13 23 15 24
REMARK SMILES IDX 14 25
REMARK H PARENT 1 5 7 9
ROOT
ATOM      1  O   UNL     1       5.637  47.470  53.912  1.00  0.00    -0.377 OA
ENDROOT
BRANCH   1   2
ATOM      2  C   UNL     1       6.173  46.457  54.770  1.00  0.00     0.188 C 
BRANCH   2   3
ATOM      3  C   UNL     1       6.168  45.058  54.154  1.00  0.00     0.184 C 
BRANCH   3   4
ATOM      4  O   UNL     1       5.065  44.299  54.651  1.00  0.00    -0.394 OA
ATOM      5  H   UNL     1       4.727  44.773  55.431  1.00  0.00     0.210 HD
ENDBRANCH   3   4
ENDBRANCH   2   3
ENDBRANCH   1   2
BRANCH   1   6
ATOM      6  C   UNL     1       4.216  47.669  53.981  1.00  0.00     0.181 C 
BRANCH   6   7
ATOM      7  C   UNL     1       3.519  47.541  52.616  1.00  0.00     0.143 C 
BRANCH   7   8
ATOM      8  N   UNL     1       2.271  46.770  52.726  1.00  0.00    -0.367 N 
ATOM      9  H   UNL     1       1.608  47.119  52.033  1.00  0.00     0.162 HD
BRANCH   8  10
ATOM     10  C   UNL     1       2.392  45.376  52.540  1.00  0.00     0.134 A 
ATOM     11  N   UNL     1       3.466  44.898  51.873  1.00  0.00    -0.230 NA
ATOM     12  C   UNL     1       1.402  44.521  53.079  1.00  0.00     0.027 A 
ATOM     13  C   UNL     1       3.593  43.565  51.668  1.00  0.00     0.073 A 
ATOM     14  C   UNL     1       0.287  44.956  53.827  1.00  0.00     0.032 A 
ATOM     15  C   UNL     1       1.550  43.141  52.863  1.00  0.00     0.006 A 
ATOM     16  C   UNL     1       2.654  42.662  52.148  1.00  0.00     0.039 A 
ATOM     17  C   UNL     1      -0.618  44.022  54.301  1.00  0.00     0.112 A 
ATOM     18  C   UNL     1       0.575  42.289  53.387  1.00  0.00     0.119 A 
ATOM     19  N   UNL     1      -0.503  42.696  54.094  1.00  0.00    -0.264 NA
BRANCH  13  20
ATOM     20  C   UNL     1       4.794  43.155  50.915  1.00  0.00     0.003 A 
ATOM     21  C   UNL     1       5.778  44.094  50.574  1.00  0.00     0.030 A 
ATOM     22  C   UNL     1       5.004  41.832  50.500  1.00  0.00     0.030 A 
ATOM     23  C   UNL     1       6.898  43.685  49.868  1.00  0.00     0.111 A 
ATOM     24  C   UNL     1       6.156  41.518  49.794  1.00  0.00     0.111 A 
ATOM     25  N   UNL     1       7.111  42.414  49.474  1.00  0.00    -0.265 NA
ENDBRANCH  13  20
ENDBRANCH   8  10
ENDBRANCH   7   8
ENDBRANCH   6   7
ENDBRANCH   1   6
TORSDOF 8
ENDMDL
MODEL 19
REMARK VINA RESULT:    -6.677      2.242      3.110
REMARK INTER + INTRA:         -10.990
REMARK INTER:                 -10.511
REMARK INTRA:                  -0.478
REMARK UNBOUND:                -1.385
REMARK SMILES OCCOCCNc1nc(-c2ccncc2)cc2cnccc12
REMARK SMILES IDX 4 1 3 2 2 3 1 4 5 6 6 7 7 8 8 10 9 11 23 12 10 13 22 14
REMARK SMILES IDX 18 15 17 16 21 17 19 18 20 19 11 20 12 21 16 22 13 23 15 24
REMARK SMILES IDX 14 25
REMARK H PARENT 1 5 7 9
ROOT
ATOM      1  O   UNL     1       0.550  45.505  57.613  1.00  0.00    -0.377 OA
ENDROOT
BRANCH   1   2
ATOM      2  C   UNL     1       0.155  46.840  57.947  1.00  0.00     0.188 C 
BRANCH   2   3
ATOM      3  C   UNL     1       0.779  47.365  59.241  1.00  0.00     0.184 C 
BRANCH   3   4
ATOM      4  O   UNL     1       2.066  46.780  59.446  1.00  0.00    -0.394 OA
ATOM      5  H   UNL     1       2.324  46.984  60.361  1.00  0.00     0.210 HD
ENDBRANCH   3   4
ENDBRANCH   2   3
ENDBRANCH   1   2
BRANCH   1   6
ATOM      6  C   UNL     1       0.796  45.248  56.221  1.00  0.00     0.181 C 
BRANCH   6   7
ATOM      7  C   UNL     1       2.088  45.901  55.703  1.00  0.00     0.143 C 
BRANCH   7   8
ATOM      8  N   UNL     1       3.187  44.927  55.636  1.00  0.00    -0.367 N 
ATOM      9  H   UNL     1       2.815  43.998  55.838  1.00  0.00     0.162 HD
BRANCH   8  10
ATOM     10  C   UNL     1       3.870  44.854  54.402  1.00  0.00     0.134 A 
ATOM     11  N   UNL     1       5.064  45.474  54.280  1.00  0.00    -0.230 NA
ATOM     12  C   UNL     1       3.297  44.113  53.341  1.00  0.00     0.027 A 
ATOM     13  C   UNL     1       5.728  45.432  53.100  1.00  0.00     0.073 A 
ATOM     14  C   UNL     1       2.081  43.402  53.423  1.00  0.00     0.032 A 
ATOM     15  C   UNL     1       4.000  44.073  52.126  1.00  0.00     0.006 A 
ATOM     16  C   UNL     1       5.224  44.743  52.005  1.00  0.00     0.039 A 
ATOM     17  C   UNL     1       1.620  42.715  52.313  1.00  0.00     0.112 A 
ATOM     18  C   UNL     1       3.440  43.349  51.070  1.00  0.00     0.119 A 
ATOM     19  N   UNL     1       2.270  42.675  51.135  1.00  0.00    -0.264 NA
BRANCH  13  20
ATOM     20  C   UNL     1       7.014  46.156  53.073  1.00  0.00     0.003 A 
ATOM     21  C   UNL     1       7.581  46.646  54.259  1.00  0.00     0.030 A 
ATOM     22  C   UNL     1       7.715  46.397  51.883  1.00  0.00     0.030 A 
ATOM     23  C   UNL     1       8.790  47.322  54.209  1.00  0.00     0.111 A 
ATOM     24  C   UNL     1       8.918  47.086  51.933  1.00  0.00     0.111 A 
ATOM     25  N   UNL     1       9.474  47.549  53.070  1.00  0.00    -0.265 NA
ENDBRANCH  13  20
ENDBRANCH   8  10
ENDBRANCH   7   8
ENDBRANCH   6   7
ENDBRANCH   1   6
TORSDOF 8
ENDMDL
MODEL 20
REMARK VINA RESULT:    -6.659      1.864      5.047
REMARK INTER + INTRA:         -10.964
REMARK INTER:                 -10.439
REMARK INTRA:                  -0.524
REMARK UNBOUND:                -1.385
REMARK SMILES OCCOCCNc1nc(-c2ccncc2)cc2cnccc12
REMARK SMILES IDX 4 1 3 2 2 3 1 4 5 6 6 7 7 8 8 10 9 11 23 12 10 13 22 14
REMARK SMILES IDX 18 15 17 16 21 17 19 18 20 19 11 20 12 21 16 22 13 23 15 24
REMARK SMILES IDX 14 25
REMARK H PARENT 1 5 7 9
ROOT
ATOM      1  O   UNL     1       5.650  47.517  54.945  1.00  0.00    -0.377 OA
ENDROOT
BRANCH   1   2
ATOM      2  C   UNL     1       4.271  47.284  54.641  1.00  0.00     0.188 C 
BRANCH   2   3
ATOM      3  C   UNL     1       3.751  45.929  55.123  1.00  0.00     0.184 C 
BRANCH   3   4
ATOM      4  O   UNL     1       3.157  46.055  56.415  1.00  0.00    -0.394 OA
ATOM      5  H   UNL     1       3.864  46.335  57.023  1.00  0.00     0.210 HD
ENDBRANCH   3   4
ENDBRANCH   2   3
ENDBRANCH   1   2
BRANCH   1   6
ATOM      6  C   UNL     1       6.562  46.467  54.588  1.00  0.00     0.181 C 
BRANCH   6   7
ATOM      7  C   UNL     1       7.391  46.783  53.331  1.00  0.00     0.143 C 
BRANCH   7   8
ATOM      8  N   UNL     1       6.529  46.931  52.149  1.00  0.00    -0.367 N 
ATOM      9  H   UNL     1       7.054  47.413  51.419  1.00  0.00     0.162 HD
BRANCH   8  10
ATOM     10  C   UNL     1       6.032  45.731  51.597  1.00  0.00     0.134 A 
ATOM     11  N   UNL     1       4.767  45.354  51.888  1.00  0.00    -0.230 NA
ATOM     12  C   UNL     1       6.860  44.975  50.735  1.00  0.00     0.027 A 
ATOM     13  C   UNL     1       4.275  44.198  51.383  1.00  0.00     0.073 A 
ATOM     14  C   UNL     1       8.168  45.341  50.352  1.00  0.00     0.032 A 
ATOM     15  C   UNL     1       6.334  43.780  50.214  1.00  0.00     0.006 A 
ATOM     16  C   UNL     1       5.032  43.389  50.546  1.00  0.00     0.039 A 
ATOM     17  C   UNL     1       8.884  44.514  49.503  1.00  0.00     0.112 A 
ATOM     18  C   UNL     1       7.146  43.023  49.366  1.00  0.00     0.119 A 
ATOM     19  N   UNL     1       8.405  43.359  49.004  1.00  0.00    -0.264 NA
BRANCH  13  20
ATOM     20  C   UNL     1       2.890  43.876  51.778  1.00  0.00     0.003 A 
ATOM     21  C   UNL     1       1.808  44.574  51.221  1.00  0.00     0.030 A 
ATOM     22  C   UNL     1       2.590  42.883  52.722  1.00  0.00     0.030 A 
ATOM     23  C   UNL     1       0.516  44.253  51.608  1.00  0.00     0.111 A 
ATOM     24  C   UNL     1       1.265  42.634  53.047  1.00  0.00     0.111 A 
ATOM     25  N   UNL     1       0.221  43.293  52.506  1.00  0.00    -0.265 NA
ENDBRANCH  13  20
ENDBRANCH   8  10
ENDBRANCH   7   8
ENDBRANCH   6   7
ENDBRANCH   1   6
TORSDOF 8
ENDMDL
