MODEL 1
REMARK VINA RESULT:    -8.017      0.000      0.000
REMARK INTER + INTRA:         -11.963
REMARK INTER:                 -11.298
REMARK INTRA:                  -0.666
REMARK UNBOUND:                -0.666
REMARK SMILES COCCNc1nc(Nc2ccc(OC)cc2)c2nccnc2n1
REMARK SMILES IDX 6 1 7 2 8 3 18 4 19 5 20 6 21 7 22 8 23 9 24 10 5 11 4 13
REMARK SMILES IDX 3 14 2 15 1 16 9 17 10 19 11 20 17 21 12 22 16 23 13 24
REMARK SMILES IDX 14 25 15 26
REMARK H PARENT 5 12 9 18
ROOT
ATOM      1  C   UNL     1       5.520  46.908  54.323  1.00  0.00     0.226 A 
ATOM      2  N   UNL     1       5.498  46.360  53.111  1.00  0.00    -0.193 NA
ATOM      3  C   UNL     1       6.674  46.176  52.482  1.00  0.00     0.164 A 
ATOM      4  C   UNL     1       7.894  46.530  53.052  1.00  0.00     0.150 A 
ATOM      5  N   UNL     1       9.098  46.327  52.427  1.00  0.00    -0.247 NA
ATOM      6  C   UNL     1      10.189  46.720  53.109  1.00  0.00     0.132 A 
ATOM      7  C   UNL     1      10.090  47.279  54.362  1.00  0.00     0.133 A 
ATOM      8  N   UNL     1       8.900  47.466  54.978  1.00  0.00    -0.233 NA
ATOM      9  C   UNL     1       7.789  47.095  54.329  1.00  0.00     0.185 A 
ATOM     10  N   UNL     1       6.631  47.277  54.951  1.00  0.00    -0.191 NA
ENDROOT
BRANCH   1  11
ATOM     11  N   UNL     1       4.278  47.084  54.918  1.00  0.00    -0.352 N 
ATOM     12  H   UNL     1       3.733  47.630  54.258  1.00  0.00     0.163 HD
BRANCH  11  13
ATOM     13  C   UNL     1       3.647  45.853  55.376  1.00  0.00     0.144 C 
BRANCH  13  14
ATOM     14  C   UNL     1       2.332  45.617  54.618  1.00  0.00     0.181 C 
BRANCH  14  15
ATOM     15  O   UNL     1       2.123  46.571  53.575  1.00  0.00    -0.383 OA
ATOM     16  C   UNL     1       1.854  45.969  52.316  1.00  0.00     0.194 C 
ENDBRANCH  14  15
ENDBRANCH  13  14
ENDBRANCH  11  13
ENDBRANCH   1  11
BRANCH   3  17
ATOM     17  N   UNL     1       6.718  45.633  51.166  1.00  0.00    -0.338 N 
ATOM     18  H   UNL     1       7.435  46.106  50.620  1.00  0.00     0.168 HD
BRANCH  17  19
ATOM     19  C   UNL     1       6.289  44.405  50.640  1.00  0.00     0.040 A 
ATOM     20  C   UNL     1       5.163  43.714  51.096  1.00  0.00     0.030 A 
ATOM     21  C   UNL     1       6.987  43.858  49.554  1.00  0.00     0.030 A 
ATOM     22  C   UNL     1       4.762  42.501  50.516  1.00  0.00     0.048 A 
ATOM     23  C   UNL     1       6.592  42.648  48.972  1.00  0.00     0.048 A 
ATOM     24  C   UNL     1       5.479  41.961  49.452  1.00  0.00     0.119 A 
BRANCH  24  25
ATOM     25  O   UNL     1       5.198  40.793  48.798  1.00  0.00    -0.497 OA
ATOM     26  C   UNL     1       3.824  40.458  48.647  1.00  0.00     0.278 C 
ENDBRANCH  24  25
ENDBRANCH  17  19
ENDBRANCH   3  17
TORSDOF 7
ENDMDL
MODEL 2
REMARK VINA RESULT:    -7.989      0.520      1.109
REMARK INTER + INTRA:         -11.923
REMARK INTER:                 -11.432
REMARK INTRA:                  -0.491
REMARK UNBOUND:                -0.666
REMARK SMILES COCCNc1nc(Nc2ccc(OC)cc2)c2nccnc2n1
REMARK SMILES IDX 6 1 7 2 8 3 18 4 19 5 20 6 21 7 22 8 23 9 24 10 5 11 4 13
REMARK SMILES IDX 3 14 2 15 1 16 9 17 10 19 11 20 17 21 12 22 16 23 13 24
REMARK SMILES IDX 14 25 15 26
REMARK H PARENT 5 12 9 18
ROOT
ATOM      1  C   UNL     1       5.379  46.734  54.347  1.00  0.00     0.226 A 
ATOM      2  N   UNL     1       5.319  46.104  53.178  1.00  0.00    -0.193 NA
ATOM      3  C   UNL     1       6.465  45.943  52.489  1.00  0.00     0.164 A 
ATOM      4  C   UNL     1       7.694  46.403  52.958  1.00  0.00     0.150 A 
ATOM      5  N   UNL     1       8.868  46.225  52.274  1.00  0.00    -0.247 NA
ATOM      6  C   UNL     1       9.973  46.724  52.859  1.00  0.00     0.132 A 
ATOM      7  C   UNL     1       9.914  47.362  54.077  1.00  0.00     0.133 A 
ATOM      8  N   UNL     1       8.753  47.524  54.753  1.00  0.00    -0.233 NA
ATOM      9  C   UNL     1       7.629  47.047  54.200  1.00  0.00     0.185 A 
ATOM     10  N   UNL     1       6.502  47.207  54.879  1.00  0.00    -0.191 NA
ENDROOT
BRANCH   1  11
ATOM     11  N   UNL     1       4.166  46.881  55.006  1.00  0.00    -0.352 N 
ATOM     12  H   UNL     1       3.640  47.559  54.463  1.00  0.00     0.163 HD
BRANCH  11  13
ATOM     13  C   UNL     1       3.471  45.630  55.279  1.00  0.00     0.144 C 
BRANCH  13  14
ATOM     14  C   UNL     1       2.070  45.654  54.651  1.00  0.00     0.181 C 
BRANCH  14  15
ATOM     15  O   UNL     1       2.009  46.470  53.480  1.00  0.00    -0.383 OA
ATOM     16  C   UNL     1       1.527  45.773  52.339  1.00  0.00     0.194 C 
ENDBRANCH  14  15
ENDBRANCH  13  14
ENDBRANCH  11  13
ENDBRANCH   1  11
BRANCH   3  17
ATOM     17  N   UNL     1       6.464  45.313  51.212  1.00  0.00    -0.338 N 
ATOM     18  H   UNL     1       7.231  45.675  50.648  1.00  0.00     0.168 HD
BRANCH  17  19
ATOM     19  C   UNL     1       5.916  44.105  50.758  1.00  0.00     0.040 A 
ATOM     20  C   UNL     1       6.536  43.273  49.822  1.00  0.00     0.030 A 
ATOM     21  C   UNL     1       4.705  43.666  51.311  1.00  0.00     0.030 A 
ATOM     22  C   UNL     1       5.956  42.059  49.423  1.00  0.00     0.048 A 
ATOM     23  C   UNL     1       4.122  42.457  50.916  1.00  0.00     0.048 A 
ATOM     24  C   UNL     1       4.742  41.648  49.966  1.00  0.00     0.119 A 
BRANCH  24  25
ATOM     25  O   UNL     1       4.071  40.495  49.667  1.00  0.00    -0.497 OA
ATOM     26  C   UNL     1       3.722  40.292  48.303  1.00  0.00     0.278 C 
ENDBRANCH  24  25
ENDBRANCH  17  19
ENDBRANCH   3  17
TORSDOF 7
ENDMDL
MODEL 3
REMARK VINA RESULT:    -7.792      2.732      5.900
REMARK INTER + INTRA:         -11.646
REMARK INTER:                 -10.900
REMARK INTRA:                  -0.746
REMARK UNBOUND:                -0.666
REMARK SMILES COCCNc1nc(Nc2ccc(OC)cc2)c2nccnc2n1
REMARK SMILES IDX 6 1 7 2 8 3 18 4 19 5 20 6 21 7 22 8 23 9 24 10 5 11 4 13
REMARK SMILES IDX 3 14 2 15 1 16 9 17 10 19 11 20 17 21 12 22 16 23 13 24
REMARK SMILES IDX 14 25 15 26
REMARK H PARENT 5 12 9 18
ROOT
ATOM      1  C   UNL     1       3.114  43.427  52.563  1.00  0.00     0.226 A 
ATOM      2  N   UNL     1       3.796  44.559  52.420  1.00  0.00    -0.193 NA
ATOM      3  C   UNL     1       4.823  44.571  51.550  1.00  0.00     0.164 A 
ATOM      4  C   UNL     1       5.187  43.454  50.802  1.00  0.00     0.150 A 
ATOM      5  N   UNL     1       6.218  43.462  49.899  1.00  0.00    -0.247 NA
ATOM      6  C   UNL     1       6.444  42.305  49.252  1.00  0.00     0.132 A 
ATOM      7  C   UNL     1       5.672  41.190  49.483  1.00  0.00     0.133 A 
ATOM      8  N   UNL     1       4.647  41.191  50.367  1.00  0.00    -0.233 NA
ATOM      9  C   UNL     1       4.394  42.323  51.038  1.00  0.00     0.185 A 
ATOM     10  N   UNL     1       3.382  42.310  51.894  1.00  0.00    -0.191 NA
ENDROOT
BRANCH   1  11
ATOM     11  N   UNL     1       2.073  43.471  53.481  1.00  0.00    -0.352 N 
ATOM     12  H   UNL     1       2.475  43.170  54.364  1.00  0.00     0.163 HD
BRANCH  11  13
ATOM     13  C   UNL     1       1.359  44.739  53.524  1.00  0.00     0.144 C 
BRANCH  13  14
ATOM     14  C   UNL     1       1.344  45.292  54.957  1.00  0.00     0.181 C 
BRANCH  14  15
ATOM     15  O   UNL     1       2.565  45.037  55.654  1.00  0.00    -0.383 OA
ATOM     16  C   UNL     1       3.541  46.052  55.459  1.00  0.00     0.194 C 
ENDBRANCH  14  15
ENDBRANCH  13  14
ENDBRANCH  11  13
ENDBRANCH   1  11
BRANCH   3  17
ATOM     17  N   UNL     1       5.620  45.740  51.380  1.00  0.00    -0.338 N 
ATOM     18  H   UNL     1       5.044  46.502  51.029  1.00  0.00     0.168 HD
BRANCH  17  19
ATOM     19  C   UNL     1       6.844  46.133  51.939  1.00  0.00     0.040 A 
ATOM     20  C   UNL     1       8.019  46.297  51.200  1.00  0.00     0.030 A 
ATOM     21  C   UNL     1       6.893  46.437  53.307  1.00  0.00     0.030 A 
ATOM     22  C   UNL     1       9.213  46.719  51.805  1.00  0.00     0.048 A 
ATOM     23  C   UNL     1       8.082  46.858  53.915  1.00  0.00     0.048 A 
ATOM     24  C   UNL     1       9.249  46.997  53.169  1.00  0.00     0.119 A 
BRANCH  24  25
ATOM     25  O   UNL     1      10.340  47.414  53.880  1.00  0.00    -0.497 OA
ATOM     26  C   UNL     1      10.222  47.407  55.297  1.00  0.00     0.278 C 
ENDBRANCH  24  25
ENDBRANCH  17  19
ENDBRANCH   3  17
TORSDOF 7
ENDMDL
MODEL 4
REMARK VINA RESULT:    -7.727      3.133      6.080
REMARK INTER + INTRA:         -11.554
REMARK INTER:                 -10.941
REMARK INTRA:                  -0.613
REMARK UNBOUND:                -0.666
REMARK SMILES COCCNc1nc(Nc2ccc(OC)cc2)c2nccnc2n1
REMARK SMILES IDX 6 1 7 2 8 3 18 4 19 5 20 6 21 7 22 8 23 9 24 10 5 11 4 13
REMARK SMILES IDX 3 14 2 15 1 16 9 17 10 19 11 20 17 21 12 22 16 23 13 24
REMARK SMILES IDX 14 25 15 26
REMARK H PARENT 5 12 9 18
ROOT
ATOM      1  C   UNL     1       3.076  43.465  52.708  1.00  0.00     0.226 A 
ATOM      2  N   UNL     1       3.762  44.594  52.555  1.00  0.00    -0.193 NA
ATOM      3  C   UNL     1       4.764  44.604  51.656  1.00  0.00     0.164 A 
ATOM      4  C   UNL     1       5.097  43.490  50.890  1.00  0.00     0.150 A 
ATOM      5  N   UNL     1       6.102  43.497  49.957  1.00  0.00    -0.247 NA
ATOM      6  C   UNL     1       6.300  42.343  49.295  1.00  0.00     0.132 A 
ATOM      7  C   UNL     1       5.525  41.233  49.540  1.00  0.00     0.133 A 
ATOM      8  N   UNL     1       4.527  41.235  50.453  1.00  0.00    -0.233 NA
ATOM      9  C   UNL     1       4.302  42.364  51.139  1.00  0.00     0.185 A 
ATOM     10  N   UNL     1       3.315  42.352  52.024  1.00  0.00    -0.191 NA
ENDROOT
BRANCH   1  11
ATOM     11  N   UNL     1       2.061  43.511  53.656  1.00  0.00    -0.352 N 
ATOM     12  H   UNL     1       1.750  44.477  53.677  1.00  0.00     0.163 HD
BRANCH  11  13
ATOM     13  C   UNL     1       1.008  42.523  53.463  1.00  0.00     0.144 C 
BRANCH  13  14
ATOM     14  C   UNL     1      -0.351  43.220  53.308  1.00  0.00     0.181 C 
BRANCH  14  15
ATOM     15  O   UNL     1      -1.208  43.003  54.430  1.00  0.00    -0.383 OA
ATOM     16  C   UNL     1      -1.506  44.196  55.143  1.00  0.00     0.194 C 
ENDBRANCH  14  15
ENDBRANCH  13  14
ENDBRANCH  11  13
ENDBRANCH   1  11
BRANCH   3  17
ATOM     17  N   UNL     1       5.565  45.768  51.472  1.00  0.00    -0.338 N 
ATOM     18  H   UNL     1       4.988  46.535  51.136  1.00  0.00     0.168 HD
BRANCH  17  19
ATOM     19  C   UNL     1       6.805  46.150  52.005  1.00  0.00     0.040 A 
ATOM     20  C   UNL     1       7.932  46.429  51.228  1.00  0.00     0.030 A 
ATOM     21  C   UNL     1       6.917  46.323  53.392  1.00  0.00     0.030 A 
ATOM     22  C   UNL     1       9.143  46.834  51.811  1.00  0.00     0.048 A 
ATOM     23  C   UNL     1       8.121  46.726  53.979  1.00  0.00     0.048 A 
ATOM     24  C   UNL     1       9.243  46.980  53.192  1.00  0.00     0.119 A 
BRANCH  24  25
ATOM     25  O   UNL     1      10.356  47.367  53.886  1.00  0.00    -0.497 OA
ATOM     26  C   UNL     1      10.232  47.455  55.300  1.00  0.00     0.278 C 
ENDBRANCH  24  25
ENDBRANCH  17  19
ENDBRANCH   3  17
TORSDOF 7
ENDMDL
MODEL 5
REMARK VINA RESULT:    -7.521      2.808      6.848
REMARK INTER + INTRA:         -11.264
REMARK INTER:                 -10.425
REMARK INTRA:                  -0.839
REMARK UNBOUND:                -0.666
REMARK SMILES COCCNc1nc(Nc2ccc(OC)cc2)c2nccnc2n1
REMARK SMILES IDX 6 1 7 2 8 3 18 4 19 5 20 6 21 7 22 8 23 9 24 10 5 11 4 13
REMARK SMILES IDX 3 14 2 15 1 16 9 17 10 19 11 20 17 21 12 22 16 23 13 24
REMARK SMILES IDX 14 25 15 26
REMARK H PARENT 5 12 9 18
ROOT
ATOM      1  C   UNL     1       3.755  42.535  51.545  1.00  0.00     0.226 A 
ATOM      2  N   UNL     1       4.520  43.623  51.523  1.00  0.00    -0.193 NA
ATOM      3  C   UNL     1       4.156  44.664  52.296  1.00  0.00     0.164 A 
ATOM      4  C   UNL     1       3.025  44.637  53.109  1.00  0.00     0.150 A 
ATOM      5  N   UNL     1       2.659  45.684  53.914  1.00  0.00    -0.247 NA
ATOM      6  C   UNL     1       1.543  45.504  54.644  1.00  0.00     0.132 A 
ATOM      7  C   UNL     1       0.828  44.330  54.584  1.00  0.00     0.133 A 
ATOM      8  N   UNL     1       1.201  43.296  53.796  1.00  0.00    -0.233 NA
ATOM      9  C   UNL     1       2.304  43.438  53.049  1.00  0.00     0.185 A 
ATOM     10  N   UNL     1       2.660  42.412  52.288  1.00  0.00    -0.191 NA
ENDROOT
BRANCH   1  11
ATOM     11  N   UNL     1       4.173  41.499  50.721  1.00  0.00    -0.352 N 
ATOM     12  H   UNL     1       3.504  41.471  49.957  1.00  0.00     0.163 HD
BRANCH  11  13
ATOM     13  C   UNL     1       5.571  41.571  50.319  1.00  0.00     0.144 C 
BRANCH  13  14
ATOM     14  C   UNL     1       5.686  41.541  48.788  1.00  0.00     0.181 C 
BRANCH  14  15
ATOM     15  O   UNL     1       6.484  42.610  48.278  1.00  0.00    -0.383 OA
ATOM     16  C   UNL     1       7.263  43.251  49.280  1.00  0.00     0.194 C 
ENDBRANCH  14  15
ENDBRANCH  13  14
ENDBRANCH  11  13
ENDBRANCH   1  11
BRANCH   3  17
ATOM     17  N   UNL     1       4.908  45.874  52.287  1.00  0.00    -0.338 N 
ATOM     18  H   UNL     1       4.282  46.670  52.385  1.00  0.00     0.168 HD
BRANCH  17  19
ATOM     19  C   UNL     1       6.256  46.146  52.559  1.00  0.00     0.040 A 
ATOM     20  C   UNL     1       7.255  46.178  51.582  1.00  0.00     0.030 A 
ATOM     21  C   UNL     1       6.628  46.463  53.873  1.00  0.00     0.030 A 
ATOM     22  C   UNL     1       8.587  46.483  51.904  1.00  0.00     0.048 A 
ATOM     23  C   UNL     1       7.954  46.766  54.200  1.00  0.00     0.048 A 
ATOM     24  C   UNL     1       8.942  46.774  53.219  1.00  0.00     0.119 A 
BRANCH  24  25
ATOM     25  O   UNL     1      10.195  47.086  53.666  1.00  0.00    -0.497 OA
ATOM     26  C   UNL     1      10.329  47.363  55.055  1.00  0.00     0.278 C 
ENDBRANCH  24  25
ENDBRANCH  17  19
ENDBRANCH   3  17
TORSDOF 7
ENDMDL
MODEL 6
REMARK VINA RESULT:    -7.509      2.861      6.925
REMARK INTER + INTRA:         -11.247
REMARK INTER:                 -10.541
REMARK INTRA:                  -0.706
REMARK UNBOUND:                -0.666
REMARK SMILES COCCNc1nc(Nc2ccc(OC)cc2)c2nccnc2n1
REMARK SMILES IDX 6 1 7 2 8 3 18 4 19 5 20 6 21 7 22 8 23 9 24 10 5 11 4 13
REMARK SMILES IDX 3 14 2 15 1 16 9 17 10 19 11 20 17 21 12 22 16 23 13 24
REMARK SMILES IDX 14 25 15 26
REMARK H PARENT 5 12 9 18
ROOT
ATOM      1  C   UNL     1       4.313  42.388  51.208  1.00  0.00     0.226 A 
ATOM      2  N   UNL     1       5.100  43.448  51.056  1.00  0.00    -0.193 NA
ATOM      3  C   UNL     1       4.769  44.578  51.709  1.00  0.00     0.164 A 
ATOM      4  C   UNL     1       3.647  44.669  52.529  1.00  0.00     0.150 A 
ATOM      5  N   UNL     1       3.313  45.809  53.214  1.00  0.00    -0.247 NA
ATOM      6  C   UNL     1       2.202  45.739  53.969  1.00  0.00     0.132 A 
ATOM      7  C   UNL     1       1.461  44.583  54.049  1.00  0.00     0.133 A 
ATOM      8  N   UNL     1       1.802  43.457  53.381  1.00  0.00    -0.233 NA
ATOM      9  C   UNL     1       2.899  43.489  52.612  1.00  0.00     0.185 A 
ATOM     10  N   UNL     1       3.224  42.375  51.970  1.00  0.00    -0.191 NA
ENDROOT
BRANCH   1  11
ATOM     11  N   UNL     1       4.698  41.255  50.503  1.00  0.00    -0.352 N 
ATOM     12  H   UNL     1       3.836  40.834  50.169  1.00  0.00     0.163 HD
BRANCH  11  13
ATOM     13  C   UNL     1       5.709  41.493  49.482  1.00  0.00     0.144 C 
BRANCH  13  14
ATOM     14  C   UNL     1       5.143  41.173  48.091  1.00  0.00     0.181 C 
BRANCH  14  15
ATOM     15  O   UNL     1       5.813  41.887  47.050  1.00  0.00    -0.383 OA
ATOM     16  C   UNL     1       5.296  41.603  45.757  1.00  0.00     0.194 C 
ENDBRANCH  14  15
ENDBRANCH  13  14
ENDBRANCH  11  13
ENDBRANCH   1  11
BRANCH   3  17
ATOM     17  N   UNL     1       5.547  45.762  51.556  1.00  0.00    -0.338 N 
ATOM     18  H   UNL     1       4.946  46.537  51.285  1.00  0.00     0.168 HD
BRANCH  17  19
ATOM     19  C   UNL     1       6.802  46.134  52.058  1.00  0.00     0.040 A 
ATOM     20  C   UNL     1       7.902  46.439  51.253  1.00  0.00     0.030 A 
ATOM     21  C   UNL     1       6.959  46.267  53.445  1.00  0.00     0.030 A 
ATOM     22  C   UNL     1       9.130  46.833  51.807  1.00  0.00     0.048 A 
ATOM     23  C   UNL     1       8.181  46.659  54.003  1.00  0.00     0.048 A 
ATOM     24  C   UNL     1       9.275  46.940  53.188  1.00  0.00     0.119 A 
BRANCH  24  25
ATOM     25  O   UNL     1      10.409  47.312  53.855  1.00  0.00    -0.497 OA
ATOM     26  C   UNL     1      10.317  47.410  55.270  1.00  0.00     0.278 C 
ENDBRANCH  24  25
ENDBRANCH  17  19
ENDBRANCH   3  17
TORSDOF 7
ENDMDL
MODEL 7
REMARK VINA RESULT:    -7.258      2.897      6.705
REMARK INTER + INTRA:         -10.893
REMARK INTER:                 -10.068
REMARK INTRA:                  -0.825
REMARK UNBOUND:                -0.666
REMARK SMILES COCCNc1nc(Nc2ccc(OC)cc2)c2nccnc2n1
REMARK SMILES IDX 6 1 7 2 8 3 18 4 19 5 20 6 21 7 22 8 23 9 24 10 5 11 4 13
REMARK SMILES IDX 3 14 2 15 1 16 9 17 10 19 11 20 17 21 12 22 16 23 13 24
REMARK SMILES IDX 14 25 15 26
REMARK H PARENT 5 12 9 18
ROOT
ATOM      1  C   UNL     1       2.976  42.686  51.702  1.00  0.00     0.226 A 
ATOM      2  N   UNL     1       3.760  43.760  51.711  1.00  0.00    -0.193 NA
ATOM      3  C   UNL     1       3.456  44.754  52.566  1.00  0.00     0.164 A 
ATOM      4  C   UNL     1       2.367  44.693  53.432  1.00  0.00     0.150 A 
ATOM      5  N   UNL     1       2.062  45.692  54.320  1.00  0.00    -0.247 NA
ATOM      6  C   UNL     1       0.980  45.484  55.093  1.00  0.00     0.132 A 
ATOM      7  C   UNL     1       0.240  44.328  54.995  1.00  0.00     0.133 A 
ATOM      8  N   UNL     1       0.553  43.341  54.125  1.00  0.00    -0.233 NA
ATOM      9  C   UNL     1       1.620  43.513  53.332  1.00  0.00     0.185 A 
ATOM     10  N   UNL     1       1.917  42.532  52.491  1.00  0.00    -0.191 NA
ENDROOT
BRANCH   1  11
ATOM     11  N   UNL     1       3.331  41.698  50.793  1.00  0.00    -0.352 N 
ATOM     12  H   UNL     1       2.817  41.910  49.944  1.00  0.00     0.163 HD
BRANCH  11  13
ATOM     13  C   UNL     1       4.767  41.521  50.622  1.00  0.00     0.144 C 
BRANCH  13  14
ATOM     14  C   UNL     1       5.092  41.201  49.156  1.00  0.00     0.181 C 
BRANCH  14  15
ATOM     15  O   UNL     1       6.148  42.013  48.639  1.00  0.00    -0.383 OA
ATOM     16  C   UNL     1       6.542  43.047  49.531  1.00  0.00     0.194 C 
ENDBRANCH  14  15
ENDBRANCH  13  14
ENDBRANCH  11  13
ENDBRANCH   1  11
BRANCH   3  17
ATOM     17  N   UNL     1       4.230  45.950  52.596  1.00  0.00    -0.338 N 
ATOM     18  H   UNL     1       3.636  46.740  52.838  1.00  0.00     0.168 HD
BRANCH  17  19
ATOM     19  C   UNL     1       5.605  46.177  52.748  1.00  0.00     0.040 A 
ATOM     20  C   UNL     1       6.230  46.375  53.982  1.00  0.00     0.030 A 
ATOM     21  C   UNL     1       6.422  46.149  51.608  1.00  0.00     0.030 A 
ATOM     22  C   UNL     1       7.616  46.571  54.080  1.00  0.00     0.048 A 
ATOM     23  C   UNL     1       7.804  46.345  51.700  1.00  0.00     0.048 A 
ATOM     24  C   UNL     1       8.409  46.561  52.936  1.00  0.00     0.119 A 
BRANCH  24  25
ATOM     25  O   UNL     1       9.764  46.738  52.891  1.00  0.00    -0.497 OA
ATOM     26  C   UNL     1      10.459  46.091  51.832  1.00  0.00     0.278 C 
ENDBRANCH  24  25
ENDBRANCH  17  19
ENDBRANCH   3  17
TORSDOF 7
ENDMDL
MODEL 8
REMARK VINA RESULT:    -7.224      3.055      7.246
REMARK INTER + INTRA:         -10.846
REMARK INTER:                 -10.129
REMARK INTRA:                  -0.717
REMARK UNBOUND:                -0.666
REMARK SMILES COCCNc1nc(Nc2ccc(OC)cc2)c2nccnc2n1
REMARK SMILES IDX 6 1 7 2 8 3 18 4 19 5 20 6 21 7 22 8 23 9 24 10 5 11 4 13
REMARK SMILES IDX 3 14 2 15 1 16 9 17 10 19 11 20 17 21 12 22 16 23 13 24
REMARK SMILES IDX 14 25 15 26
REMARK H PARENT 5 12 9 18
ROOT
ATOM      1  C   UNL     1       3.661  42.207  51.240  1.00  0.00     0.226 A 
ATOM      2  N   UNL     1       4.259  43.074  52.050  1.00  0.00    -0.193 NA
ATOM      3  C   UNL     1       3.531  44.107  52.517  1.00  0.00     0.164 A 
ATOM      4  C   UNL     1       2.190  44.290  52.186  1.00  0.00     0.150 A 
ATOM      5  N   UNL     1       1.436  45.325  52.672  1.00  0.00    -0.247 NA
ATOM      6  C   UNL     1       0.154  45.364  52.263  1.00  0.00     0.132 A 
ATOM      7  C   UNL     1      -0.358  44.408  51.417  1.00  0.00     0.133 A 
ATOM      8  N   UNL     1       0.389  43.381  50.950  1.00  0.00    -0.233 NA
ATOM      9  C   UNL     1       1.672  43.311  51.329  1.00  0.00     0.185 A 
ATOM     10  N   UNL     1       2.388  42.294  50.868  1.00  0.00    -0.191 NA
ENDROOT
BRANCH   1  11
ATOM     11  N   UNL     1       4.463  41.170  50.782  1.00  0.00    -0.352 N 
ATOM     12  H   UNL     1       3.870  40.345  50.783  1.00  0.00     0.163 HD
BRANCH  11  13
ATOM     13  C   UNL     1       5.145  41.443  49.524  1.00  0.00     0.144 C 
BRANCH  13  14
ATOM     14  C   UNL     1       6.584  41.906  49.791  1.00  0.00     0.181 C 
BRANCH  14  15
ATOM     15  O   UNL     1       6.728  43.325  49.698  1.00  0.00    -0.383 OA
ATOM     16  C   UNL     1       8.006  43.726  49.223  1.00  0.00     0.194 C 
ENDBRANCH  14  15
ENDBRANCH  13  14
ENDBRANCH  11  13
ENDBRANCH   1  11
BRANCH   3  17
ATOM     17  N   UNL     1       4.122  45.094  53.355  1.00  0.00    -0.338 N 
ATOM     18  H   UNL     1       3.694  45.065  54.278  1.00  0.00     0.168 HD
BRANCH  17  19
ATOM     19  C   UNL     1       5.352  45.765  53.296  1.00  0.00     0.040 A 
ATOM     20  C   UNL     1       5.969  46.154  52.104  1.00  0.00     0.030 A 
ATOM     21  C   UNL     1       5.982  46.124  54.496  1.00  0.00     0.030 A 
ATOM     22  C   UNL     1       7.189  46.849  52.102  1.00  0.00     0.048 A 
ATOM     23  C   UNL     1       7.199  46.815  54.500  1.00  0.00     0.048 A 
ATOM     24  C   UNL     1       7.811  47.178  53.303  1.00  0.00     0.119 A 
BRANCH  24  25
ATOM     25  O   UNL     1       8.994  47.850  53.442  1.00  0.00    -0.497 OA
ATOM     26  C   UNL     1      10.049  47.159  54.100  1.00  0.00     0.278 C 
ENDBRANCH  24  25
ENDBRANCH  17  19
ENDBRANCH   3  17
TORSDOF 7
ENDMDL
MODEL 9
REMARK VINA RESULT:    -7.210      1.397      5.103
REMARK INTER + INTRA:         -10.826
REMARK INTER:                 -10.098
REMARK INTRA:                  -0.728
REMARK UNBOUND:                -0.666
REMARK SMILES COCCNc1nc(Nc2ccc(OC)cc2)c2nccnc2n1
REMARK SMILES IDX 6 1 7 2 8 3 18 4 19 5 20 6 21 7 22 8 23 9 24 10 5 11 4 13
REMARK SMILES IDX 3 14 2 15 1 16 9 17 10 19 11 20 17 21 12 22 16 23 13 24
REMARK SMILES IDX 14 25 15 26
REMARK H PARENT 5 12 9 18
ROOT
ATOM      1  C   UNL     1       7.401  45.681  50.926  1.00  0.00     0.226 A 
ATOM      2  N   UNL     1       6.315  46.100  51.568  1.00  0.00    -0.193 NA
ATOM      3  C   UNL     1       6.481  46.709  52.757  1.00  0.00     0.164 A 
ATOM      4  C   UNL     1       7.736  46.915  53.326  1.00  0.00     0.150 A 
ATOM      5  N   UNL     1       7.917  47.553  54.526  1.00  0.00    -0.247 NA
ATOM      6  C   UNL     1       9.191  47.679  54.941  1.00  0.00     0.132 A 
ATOM      7  C   UNL     1      10.240  47.202  54.189  1.00  0.00     0.133 A 
ATOM      8  N   UNL     1      10.057  46.585  53.000  1.00  0.00    -0.233 NA
ATOM      9  C   UNL     1       8.802  46.433  52.555  1.00  0.00     0.185 A 
ATOM     10  N   UNL     1       8.640  45.833  51.384  1.00  0.00    -0.191 NA
ENDROOT
BRANCH   1  11
ATOM     11  N   UNL     1       7.168  45.051  49.711  1.00  0.00    -0.352 N 
ATOM     12  H   UNL     1       7.519  45.687  49.001  1.00  0.00     0.163 HD
BRANCH  11  13
ATOM     13  C   UNL     1       7.676  43.688  49.629  1.00  0.00     0.144 C 
BRANCH  13  14
ATOM     14  C   UNL     1       6.519  42.703  49.403  1.00  0.00     0.181 C 
BRANCH  14  15
ATOM     15  O   UNL     1       5.573  42.716  50.474  1.00  0.00    -0.383 OA
ATOM     16  C   UNL     1       4.782  41.536  50.532  1.00  0.00     0.194 C 
ENDBRANCH  14  15
ENDBRANCH  13  14
ENDBRANCH  11  13
ENDBRANCH   1  11
BRANCH   3  17
ATOM     17  N   UNL     1       5.357  47.144  53.516  1.00  0.00    -0.338 N 
ATOM     18  H   UNL     1       5.416  48.148  53.675  1.00  0.00     0.168 HD
BRANCH  17  19
ATOM     19  C   UNL     1       4.087  46.587  53.720  1.00  0.00     0.040 A 
ATOM     20  C   UNL     1       3.046  46.661  52.790  1.00  0.00     0.030 A 
ATOM     21  C   UNL     1       3.852  45.861  54.896  1.00  0.00     0.030 A 
ATOM     22  C   UNL     1       1.801  46.062  53.033  1.00  0.00     0.048 A 
ATOM     23  C   UNL     1       2.611  45.261  55.144  1.00  0.00     0.048 A 
ATOM     24  C   UNL     1       1.578  45.362  54.216  1.00  0.00     0.119 A 
BRANCH  24  25
ATOM     25  O   UNL     1       0.418  44.733  54.576  1.00  0.00    -0.497 OA
ATOM     26  C   UNL     1       0.158  43.472  53.972  1.00  0.00     0.278 C 
ENDBRANCH  24  25
ENDBRANCH  17  19
ENDBRANCH   3  17
TORSDOF 7
ENDMDL
MODEL 10
REMARK VINA RESULT:    -7.169      1.821      4.867
REMARK INTER + INTRA:         -10.769
REMARK INTER:                  -9.839
REMARK INTRA:                  -0.930
REMARK UNBOUND:                -0.666
REMARK SMILES COCCNc1nc(Nc2ccc(OC)cc2)c2nccnc2n1
REMARK SMILES IDX 6 1 7 2 8 3 18 4 19 5 20 6 21 7 22 8 23 9 24 10 5 11 4 13
REMARK SMILES IDX 3 14 2 15 1 16 9 17 10 19 11 20 17 21 12 22 16 23 13 24
REMARK SMILES IDX 14 25 15 26
REMARK H PARENT 5 12 9 18
ROOT
ATOM      1  C   UNL     1       7.758  44.581  50.065  1.00  0.00     0.226 A 
ATOM      2  N   UNL     1       6.553  45.024  50.410  1.00  0.00    -0.193 NA
ATOM      3  C   UNL     1       6.478  45.962  51.373  1.00  0.00     0.164 A 
ATOM      4  C   UNL     1       7.605  46.478  52.007  1.00  0.00     0.150 A 
ATOM      5  N   UNL     1       7.540  47.448  52.974  1.00  0.00    -0.247 NA
ATOM      6  C   UNL     1       8.717  47.847  53.490  1.00  0.00     0.132 A 
ATOM      7  C   UNL     1       9.908  47.314  53.055  1.00  0.00     0.133 A 
ATOM      8  N   UNL     1       9.967  46.366  52.091  1.00  0.00    -0.233 NA
ATOM      9  C   UNL     1       8.815  45.937  51.558  1.00  0.00     0.185 A 
ATOM     10  N   UNL     1       8.891  45.013  50.609  1.00  0.00    -0.191 NA
ENDROOT
BRANCH   1  11
ATOM     11  N   UNL     1       7.773  43.608  49.075  1.00  0.00    -0.352 N 
ATOM     12  H   UNL     1       8.602  43.048  49.254  1.00  0.00     0.163 HD
BRANCH  11  13
ATOM     13  C   UNL     1       6.532  42.856  48.947  1.00  0.00     0.144 C 
BRANCH  13  14
ATOM     14  C   UNL     1       6.564  41.620  49.858  1.00  0.00     0.181 C 
BRANCH  14  15
ATOM     15  O   UNL     1       5.257  41.178  50.226  1.00  0.00    -0.383 OA
ATOM     16  C   UNL     1       4.481  42.191  50.852  1.00  0.00     0.194 C 
ENDBRANCH  14  15
ENDBRANCH  13  14
ENDBRANCH  11  13
ENDBRANCH   1  11
BRANCH   3  17
ATOM     17  N   UNL     1       5.215  46.449  51.818  1.00  0.00    -0.338 N 
ATOM     18  H   UNL     1       5.156  47.452  51.657  1.00  0.00     0.168 HD
BRANCH  17  19
ATOM     19  C   UNL     1       3.986  45.812  52.038  1.00  0.00     0.040 A 
ATOM     20  C   UNL     1       2.924  45.835  51.130  1.00  0.00     0.030 A 
ATOM     21  C   UNL     1       3.819  45.056  53.208  1.00  0.00     0.030 A 
ATOM     22  C   UNL     1       1.723  45.157  51.388  1.00  0.00     0.048 A 
ATOM     23  C   UNL     1       2.623  44.379  53.471  1.00  0.00     0.048 A 
ATOM     24  C   UNL     1       1.566  44.429  52.564  1.00  0.00     0.119 A 
BRANCH  24  25
ATOM     25  O   UNL     1       0.455  43.725  52.938  1.00  0.00    -0.497 OA
ATOM     26  C   UNL     1       0.673  42.493  53.613  1.00  0.00     0.278 C 
ENDBRANCH  24  25
ENDBRANCH  17  19
ENDBRANCH   3  17
TORSDOF 7
ENDMDL
MODEL 11
REMARK VINA RESULT:    -7.159      2.858      5.819
REMARK INTER + INTRA:         -10.754
REMARK INTER:                 -10.327
REMARK INTRA:                  -0.427
REMARK UNBOUND:                -0.666
REMARK SMILES COCCNc1nc(Nc2ccc(OC)cc2)c2nccnc2n1
REMARK SMILES IDX 6 1 7 2 8 3 18 4 19 5 20 6 21 7 22 8 23 9 24 10 5 11 4 13
REMARK SMILES IDX 3 14 2 15 1 16 9 17 10 19 11 20 17 21 12 22 16 23 13 24
REMARK SMILES IDX 14 25 15 26
REMARK H PARENT 5 12 9 18
ROOT
ATOM      1  C   UNL     1       3.228  45.112  54.991  1.00  0.00     0.226 A 
ATOM      2  N   UNL     1       3.597  44.483  53.880  1.00  0.00    -0.193 NA
ATOM      3  C   UNL     1       2.649  43.831  53.181  1.00  0.00     0.164 A 
ATOM      4  C   UNL     1       1.314  43.798  53.576  1.00  0.00     0.150 A 
ATOM      5  N   UNL     1       0.339  43.154  52.860  1.00  0.00    -0.247 NA
ATOM      6  C   UNL     1      -0.905  43.215  53.370  1.00  0.00     0.132 A 
ATOM      7  C   UNL     1      -1.170  43.897  54.535  1.00  0.00     0.133 A 
ATOM      8  N   UNL     1      -0.205  44.542  55.231  1.00  0.00    -0.233 NA
ATOM      9  C   UNL     1       1.048  44.498  54.760  1.00  0.00     0.185 A 
ATOM     10  N   UNL     1       1.981  45.141  55.449  1.00  0.00    -0.191 NA
ENDROOT
BRANCH   1  11
ATOM     11  N   UNL     1       4.249  45.758  55.676  1.00  0.00    -0.352 N 
ATOM     12  H   UNL     1       4.163  45.459  56.643  1.00  0.00     0.163 HD
BRANCH  11  13
ATOM     13  C   UNL     1       5.572  45.589  55.090  1.00  0.00     0.144 C 
BRANCH  13  14
ATOM     14  C   UNL     1       6.062  46.916  54.492  1.00  0.00     0.181 C 
BRANCH  14  15
ATOM     15  O   UNL     1       7.396  47.236  54.891  1.00  0.00    -0.383 OA
ATOM     16  C   UNL     1       8.358  46.972  53.878  1.00  0.00     0.194 C 
ENDBRANCH  14  15
ENDBRANCH  13  14
ENDBRANCH  11  13
ENDBRANCH   1  11
BRANCH   3  17
ATOM     17  N   UNL     1       2.985  43.102  52.004  1.00  0.00    -0.338 N 
ATOM     18  H   UNL     1       2.139  42.877  51.484  1.00  0.00     0.168 HD
BRANCH  17  19
ATOM     19  C   UNL     1       4.175  42.997  51.270  1.00  0.00     0.040 A 
ATOM     20  C   UNL     1       4.656  41.798  50.737  1.00  0.00     0.030 A 
ATOM     21  C   UNL     1       4.905  44.163  50.999  1.00  0.00     0.030 A 
ATOM     22  C   UNL     1       5.841  41.753  49.986  1.00  0.00     0.048 A 
ATOM     23  C   UNL     1       6.087  44.123  50.252  1.00  0.00     0.048 A 
ATOM     24  C   UNL     1       6.565  42.917  49.744  1.00  0.00     0.119 A 
BRANCH  24  25
ATOM     25  O   UNL     1       7.728  43.013  49.032  1.00  0.00    -0.497 OA
ATOM     26  C   UNL     1       8.524  44.169  49.258  1.00  0.00     0.278 C 
ENDBRANCH  24  25
ENDBRANCH  17  19
ENDBRANCH   3  17
TORSDOF 7
ENDMDL
MODEL 12
REMARK VINA RESULT:    -7.135      3.432      6.253
REMARK INTER + INTRA:         -10.720
REMARK INTER:                 -10.107
REMARK INTRA:                  -0.613
REMARK UNBOUND:                -0.666
REMARK SMILES COCCNc1nc(Nc2ccc(OC)cc2)c2nccnc2n1
REMARK SMILES IDX 6 1 7 2 8 3 18 4 19 5 20 6 21 7 22 8 23 9 24 10 5 11 4 13
REMARK SMILES IDX 3 14 2 15 1 16 9 17 10 19 11 20 17 21 12 22 16 23 13 24
REMARK SMILES IDX 14 25 15 26
REMARK H PARENT 5 12 9 18
ROOT
ATOM      1  C   UNL     1       1.885  45.281  55.296  1.00  0.00     0.226 A 
ATOM      2  N   UNL     1       2.693  46.034  54.555  1.00  0.00    -0.193 NA
ATOM      3  C   UNL     1       2.819  45.726  53.251  1.00  0.00     0.164 A 
ATOM      4  C   UNL     1       2.137  44.665  52.660  1.00  0.00     0.150 A 
ATOM      5  N   UNL     1       2.244  44.357  51.328  1.00  0.00    -0.247 NA
ATOM      6  C   UNL     1       1.519  43.305  50.906  1.00  0.00     0.132 A 
ATOM      7  C   UNL     1       0.715  42.596  51.769  1.00  0.00     0.133 A 
ATOM      8  N   UNL     1       0.604  42.912  53.079  1.00  0.00    -0.233 NA
ATOM      9  C   UNL     1       1.316  43.950  53.540  1.00  0.00     0.185 A 
ATOM     10  N   UNL     1       1.190  44.251  54.825  1.00  0.00    -0.191 NA
ENDROOT
BRANCH   1  11
ATOM     11  N   UNL     1       1.802  45.639  56.636  1.00  0.00    -0.352 N 
ATOM     12  H   UNL     1       2.183  46.579  56.692  1.00  0.00     0.163 HD
BRANCH  11  13
ATOM     13  C   UNL     1       0.482  45.467  57.227  1.00  0.00     0.144 C 
BRANCH  13  14
ATOM     14  C   UNL     1       0.030  46.770  57.903  1.00  0.00     0.181 C 
BRANCH  14  15
ATOM     15  O   UNL     1       0.831  47.103  59.039  1.00  0.00    -0.383 OA
ATOM     16  C   UNL     1       0.153  47.930  59.975  1.00  0.00     0.194 C 
ENDBRANCH  14  15
ENDBRANCH  13  14
ENDBRANCH  11  13
ENDBRANCH   1  11
BRANCH   3  17
ATOM     17  N   UNL     1       3.700  46.466  52.411  1.00  0.00    -0.338 N 
ATOM     18  H   UNL     1       3.296  47.376  52.203  1.00  0.00     0.168 HD
BRANCH  17  19
ATOM     19  C   UNL     1       5.077  46.361  52.168  1.00  0.00     0.040 A 
ATOM     20  C   UNL     1       5.625  45.698  51.066  1.00  0.00     0.030 A 
ATOM     21  C   UNL     1       5.966  47.003  53.042  1.00  0.00     0.030 A 
ATOM     22  C   UNL     1       7.011  45.646  50.856  1.00  0.00     0.048 A 
ATOM     23  C   UNL     1       7.350  46.954  52.837  1.00  0.00     0.048 A 
ATOM     24  C   UNL     1       7.881  46.271  51.745  1.00  0.00     0.119 A 
BRANCH  24  25
ATOM     25  O   UNL     1       9.245  46.298  51.658  1.00  0.00    -0.497 OA
ATOM     26  C   UNL     1       9.947  46.838  52.770  1.00  0.00     0.278 C 
ENDBRANCH  24  25
ENDBRANCH  17  19
ENDBRANCH   3  17
TORSDOF 7
ENDMDL
MODEL 13
REMARK VINA RESULT:    -7.078      2.620      6.164
REMARK INTER + INTRA:         -10.639
REMARK INTER:                  -9.988
REMARK INTRA:                  -0.651
REMARK UNBOUND:                -0.666
REMARK SMILES COCCNc1nc(Nc2ccc(OC)cc2)c2nccnc2n1
REMARK SMILES IDX 6 1 7 2 8 3 18 4 19 5 20 6 21 7 22 8 23 9 24 10 5 11 4 13
REMARK SMILES IDX 3 14 2 15 1 16 9 17 10 19 11 20 17 21 12 22 16 23 13 24
REMARK SMILES IDX 14 25 15 26
REMARK H PARENT 5 12 9 18
ROOT
ATOM      1  C   UNL     1       8.346  46.619  51.613  1.00  0.00     0.226 A 
ATOM      2  N   UNL     1       7.070  46.763  51.957  1.00  0.00    -0.193 NA
ATOM      3  C   UNL     1       6.178  45.890  51.452  1.00  0.00     0.164 A 
ATOM      4  C   UNL     1       6.544  44.853  50.597  1.00  0.00     0.150 A 
ATOM      5  N   UNL     1       5.647  43.947  50.095  1.00  0.00    -0.247 NA
ATOM      6  C   UNL     1       6.155  43.001  49.285  1.00  0.00     0.132 A 
ATOM      7  C   UNL     1       7.500  42.950  48.995  1.00  0.00     0.133 A 
ATOM      8  N   UNL     1       8.383  43.840  49.504  1.00  0.00    -0.233 NA
ATOM      9  C   UNL     1       7.914  44.803  50.310  1.00  0.00     0.185 A 
ATOM     10  N   UNL     1       8.794  45.662  50.807  1.00  0.00    -0.191 NA
ENDROOT
BRANCH   1  11
ATOM     11  N   UNL     1       9.218  47.554  52.155  1.00  0.00    -0.352 N 
ATOM     12  H   UNL     1       9.218  48.336  51.506  1.00  0.00     0.163 HD
BRANCH  11  13
ATOM     13  C   UNL     1       8.946  47.900  53.544  1.00  0.00     0.144 C 
BRANCH  13  14
ATOM     14  C   UNL     1       9.929  47.176  54.474  1.00  0.00     0.181 C 
BRANCH  14  15
ATOM     15  O   UNL     1      10.015  47.787  55.762  1.00  0.00    -0.383 OA
ATOM     16  C   UNL     1      11.233  47.499  56.436  1.00  0.00     0.194 C 
ENDBRANCH  14  15
ENDBRANCH  13  14
ENDBRANCH  11  13
ENDBRANCH   1  11
BRANCH   3  17
ATOM     17  N   UNL     1       4.790  46.014  51.748  1.00  0.00    -0.338 N 
ATOM     18  H   UNL     1       4.256  46.070  50.884  1.00  0.00     0.168 HD
BRANCH  17  19
ATOM     19  C   UNL     1       4.039  45.690  52.887  1.00  0.00     0.040 A 
ATOM     20  C   UNL     1       4.589  45.525  54.161  1.00  0.00     0.030 A 
ATOM     21  C   UNL     1       2.646  45.579  52.765  1.00  0.00     0.030 A 
ATOM     22  C   UNL     1       3.786  45.227  55.273  1.00  0.00     0.048 A 
ATOM     23  C   UNL     1       1.842  45.281  53.870  1.00  0.00     0.048 A 
ATOM     24  C   UNL     1       2.407  45.099  55.130  1.00  0.00     0.119 A 
BRANCH  24  25
ATOM     25  O   UNL     1       1.515  44.814  56.125  1.00  0.00    -0.497 OA
ATOM     26  C   UNL     1       0.135  44.932  55.802  1.00  0.00     0.278 C 
ENDBRANCH  24  25
ENDBRANCH  17  19
ENDBRANCH   3  17
TORSDOF 7
ENDMDL
MODEL 14
REMARK VINA RESULT:    -7.074      2.909      4.561
REMARK INTER + INTRA:         -10.634
REMARK INTER:                  -9.847
REMARK INTRA:                  -0.787
REMARK UNBOUND:                -0.666
REMARK SMILES COCCNc1nc(Nc2ccc(OC)cc2)c2nccnc2n1
REMARK SMILES IDX 6 1 7 2 8 3 18 4 19 5 20 6 21 7 22 8 23 9 24 10 5 11 4 13
REMARK SMILES IDX 3 14 2 15 1 16 9 17 10 19 11 20 17 21 12 22 16 23 13 24
REMARK SMILES IDX 14 25 15 26
REMARK H PARENT 5 12 9 18
ROOT
ATOM      1  C   UNL     1       3.836  42.692  52.030  1.00  0.00     0.226 A 
ATOM      2  N   UNL     1       4.175  41.874  51.039  1.00  0.00    -0.193 NA
ATOM      3  C   UNL     1       5.216  42.224  50.260  1.00  0.00     0.164 A 
ATOM      4  C   UNL     1       5.942  43.396  50.460  1.00  0.00     0.150 A 
ATOM      5  N   UNL     1       7.016  43.750  49.685  1.00  0.00    -0.247 NA
ATOM      6  C   UNL     1       7.617  44.911  50.005  1.00  0.00     0.132 A 
ATOM      7  C   UNL     1       7.175  45.680  51.057  1.00  0.00     0.133 A 
ATOM      8  N   UNL     1       6.122  45.319  51.826  1.00  0.00    -0.233 NA
ATOM      9  C   UNL     1       5.493  44.173  51.534  1.00  0.00     0.185 A 
ATOM     10  N   UNL     1       4.467  43.830  52.302  1.00  0.00    -0.191 NA
ENDROOT
BRANCH   1  11
ATOM     11  N   UNL     1       2.749  42.285  52.792  1.00  0.00    -0.352 N 
ATOM     12  H   UNL     1       3.069  42.303  53.756  1.00  0.00     0.163 HD
BRANCH  11  13
ATOM     13  C   UNL     1       1.519  43.021  52.533  1.00  0.00     0.144 C 
BRANCH  13  14
ATOM     14  C   UNL     1       0.854  43.426  53.856  1.00  0.00     0.181 C 
BRANCH  14  15
ATOM     15  O   UNL     1       1.672  44.302  54.634  1.00  0.00    -0.383 OA
ATOM     16  C   UNL     1       1.727  45.623  54.114  1.00  0.00     0.194 C 
ENDBRANCH  14  15
ENDBRANCH  13  14
ENDBRANCH  11  13
ENDBRANCH   1  11
BRANCH   3  17
ATOM     17  N   UNL     1       5.604  41.413  49.155  1.00  0.00    -0.338 N 
ATOM     18  H   UNL     1       6.198  40.652  49.477  1.00  0.00     0.168 HD
BRANCH  17  19
ATOM     19  C   UNL     1       5.048  41.229  47.882  1.00  0.00     0.040 A 
ATOM     20  C   UNL     1       5.597  41.755  46.709  1.00  0.00     0.030 A 
ATOM     21  C   UNL     1       3.905  40.425  47.756  1.00  0.00     0.030 A 
ATOM     22  C   UNL     1       5.014  41.518  45.455  1.00  0.00     0.048 A 
ATOM     23  C   UNL     1       3.319  40.186  46.507  1.00  0.00     0.048 A 
ATOM     24  C   UNL     1       3.868  40.734  45.350  1.00  0.00     0.119 A 
BRANCH  24  25
ATOM     25  O   UNL     1       3.202  40.426  44.196  1.00  0.00    -0.497 OA
ATOM     26  C   UNL     1       1.796  40.239  44.298  1.00  0.00     0.278 C 
ENDBRANCH  24  25
ENDBRANCH  17  19
ENDBRANCH   3  17
TORSDOF 7
ENDMDL
MODEL 15
REMARK VINA RESULT:    -7.018      3.201      7.326
REMARK INTER + INTRA:         -10.556
REMARK INTER:                  -9.914
REMARK INTRA:                  -0.642
REMARK UNBOUND:                -0.666
REMARK SMILES COCCNc1nc(Nc2ccc(OC)cc2)c2nccnc2n1
REMARK SMILES IDX 6 1 7 2 8 3 18 4 19 5 20 6 21 7 22 8 23 9 24 10 5 11 4 13
REMARK SMILES IDX 3 14 2 15 1 16 9 17 10 19 11 20 17 21 12 22 16 23 13 24
REMARK SMILES IDX 14 25 15 26
REMARK H PARENT 5 12 9 18
ROOT
ATOM      1  C   UNL     1       3.215  41.843  50.850  1.00  0.00     0.226 A 
ATOM      2  N   UNL     1       4.016  42.370  51.770  1.00  0.00    -0.193 NA
ATOM      3  C   UNL     1       3.563  43.429  52.468  1.00  0.00     0.164 A 
ATOM      4  C   UNL     1       2.299  43.978  52.263  1.00  0.00     0.150 A 
ATOM      5  N   UNL     1       1.821  45.042  52.983  1.00  0.00    -0.247 NA
ATOM      6  C   UNL     1       0.580  45.455  52.671  1.00  0.00     0.132 A 
ATOM      7  C   UNL     1      -0.160  44.830  51.693  1.00  0.00     0.133 A 
ATOM      8  N   UNL     1       0.312  43.772  50.994  1.00  0.00    -0.233 NA
ATOM      9  C   UNL     1       1.548  43.335  51.271  1.00  0.00     0.185 A 
ATOM     10  N   UNL     1       1.993  42.293  50.583  1.00  0.00    -0.191 NA
ENDROOT
BRANCH   1  11
ATOM     11  N   UNL     1       3.739  40.761  50.155  1.00  0.00    -0.352 N 
ATOM     12  H   UNL     1       2.964  40.117  50.025  1.00  0.00     0.163 HD
BRANCH  11  13
ATOM     13  C   UNL     1       4.461  41.115  48.940  1.00  0.00     0.144 C 
BRANCH  13  14
ATOM     14  C   UNL     1       3.872  40.367  47.735  1.00  0.00     0.181 C 
BRANCH  14  15
ATOM     15  O   UNL     1       2.956  39.341  48.123  1.00  0.00    -0.383 OA
ATOM     16  C   UNL     1       2.743  38.371  47.106  1.00  0.00     0.194 C 
ENDBRANCH  14  15
ENDBRANCH  13  14
ENDBRANCH  11  13
ENDBRANCH   1  11
BRANCH   3  17
ATOM     17  N   UNL     1       4.386  44.067  53.439  1.00  0.00    -0.338 N 
ATOM     18  H   UNL     1       4.327  43.568  54.324  1.00  0.00     0.168 HD
BRANCH  17  19
ATOM     19  C   UNL     1       5.486  44.930  53.320  1.00  0.00     0.040 A 
ATOM     20  C   UNL     1       6.112  45.546  54.407  1.00  0.00     0.030 A 
ATOM     21  C   UNL     1       6.033  45.150  52.049  1.00  0.00     0.030 A 
ATOM     22  C   UNL     1       7.227  46.381  54.234  1.00  0.00     0.048 A 
ATOM     23  C   UNL     1       7.145  45.982  51.871  1.00  0.00     0.048 A 
ATOM     24  C   UNL     1       7.746  46.605  52.962  1.00  0.00     0.119 A 
BRANCH  24  25
ATOM     25  O   UNL     1       8.822  47.391  52.655  1.00  0.00    -0.497 OA
ATOM     26  C   UNL     1       9.895  46.765  51.962  1.00  0.00     0.278 C 
ENDBRANCH  24  25
ENDBRANCH  17  19
ENDBRANCH   3  17
TORSDOF 7
ENDMDL
MODEL 16
REMARK VINA RESULT:    -6.981      2.860      6.825
REMARK INTER + INTRA:         -10.503
REMARK INTER:                  -9.966
REMARK INTRA:                  -0.537
REMARK UNBOUND:                -0.666
REMARK SMILES COCCNc1nc(Nc2ccc(OC)cc2)c2nccnc2n1
REMARK SMILES IDX 6 1 7 2 8 3 18 4 19 5 20 6 21 7 22 8 23 9 24 10 5 11 4 13
REMARK SMILES IDX 3 14 2 15 1 16 9 17 10 19 11 20 17 21 12 22 16 23 13 24
REMARK SMILES IDX 14 25 15 26
REMARK H PARENT 5 12 9 18
ROOT
ATOM      1  C   UNL     1       5.237  45.709  52.145  1.00  0.00     0.226 A 
ATOM      2  N   UNL     1       4.215  45.233  52.849  1.00  0.00    -0.193 NA
ATOM      3  C   UNL     1       3.798  43.980  52.586  1.00  0.00     0.164 A 
ATOM      4  C   UNL     1       4.397  43.177  51.618  1.00  0.00     0.150 A 
ATOM      5  N   UNL     1       3.992  41.894  51.357  1.00  0.00    -0.247 NA
ATOM      6  C   UNL     1       4.673  41.244  50.395  1.00  0.00     0.132 A 
ATOM      7  C   UNL     1       5.718  41.842  49.729  1.00  0.00     0.133 A 
ATOM      8  N   UNL     1       6.121  43.104  49.999  1.00  0.00    -0.233 NA
ATOM      9  C   UNL     1       5.463  43.787  50.946  1.00  0.00     0.185 A 
ATOM     10  N   UNL     1       5.875  45.021  51.204  1.00  0.00    -0.191 NA
ENDROOT
BRANCH   1  11
ATOM     11  N   UNL     1       5.617  47.009  52.452  1.00  0.00    -0.352 N 
ATOM     12  H   UNL     1       4.935  47.340  53.128  1.00  0.00     0.163 HD
BRANCH  11  13
ATOM     13  C   UNL     1       7.010  47.154  52.853  1.00  0.00     0.144 C 
BRANCH  13  14
ATOM     14  C   UNL     1       7.167  46.839  54.348  1.00  0.00     0.181 C 
BRANCH  14  15
ATOM     15  O   UNL     1       8.205  47.605  54.962  1.00  0.00    -0.383 OA
ATOM     16  C   UNL     1       9.410  47.615  54.208  1.00  0.00     0.194 C 
ENDBRANCH  14  15
ENDBRANCH  13  14
ENDBRANCH  11  13
ENDBRANCH   1  11
BRANCH   3  17
ATOM     17  N   UNL     1       2.681  43.425  53.274  1.00  0.00    -0.338 N 
ATOM     18  H   UNL     1       2.849  42.440  53.468  1.00  0.00     0.168 HD
BRANCH  17  19
ATOM     19  C   UNL     1       1.659  44.010  54.036  1.00  0.00     0.040 A 
ATOM     20  C   UNL     1       0.313  44.008  53.663  1.00  0.00     0.030 A 
ATOM     21  C   UNL     1       1.986  44.584  55.273  1.00  0.00     0.030 A 
ATOM     22  C   UNL     1      -0.675  44.586  54.476  1.00  0.00     0.048 A 
ATOM     23  C   UNL     1       1.006  45.162  56.087  1.00  0.00     0.048 A 
ATOM     24  C   UNL     1      -0.330  45.170  55.692  1.00  0.00     0.119 A 
BRANCH  24  25
ATOM     25  O   UNL     1      -1.188  45.764  56.575  1.00  0.00    -0.497 OA
ATOM     26  C   UNL     1      -0.640  46.761  57.428  1.00  0.00     0.278 C 
ENDBRANCH  24  25
ENDBRANCH  17  19
ENDBRANCH   3  17
TORSDOF 7
ENDMDL
MODEL 17
REMARK VINA RESULT:    -6.963      3.085      6.358
REMARK INTER + INTRA:         -10.478
REMARK INTER:                  -9.803
REMARK INTRA:                  -0.675
REMARK UNBOUND:                -0.666
REMARK SMILES COCCNc1nc(Nc2ccc(OC)cc2)c2nccnc2n1
REMARK SMILES IDX 6 1 7 2 8 3 18 4 19 5 20 6 21 7 22 8 23 9 24 10 5 11 4 13
REMARK SMILES IDX 3 14 2 15 1 16 9 17 10 19 11 20 17 21 12 22 16 23 13 24
REMARK SMILES IDX 14 25 15 26
REMARK H PARENT 5 12 9 18
ROOT
ATOM      1  C   UNL     1       5.406  45.555  51.987  1.00  0.00     0.226 A 
ATOM      2  N   UNL     1       4.478  44.930  52.705  1.00  0.00    -0.193 NA
ATOM      3  C   UNL     1       4.145  43.675  52.349  1.00  0.00     0.164 A 
ATOM      4  C   UNL     1       4.737  43.018  51.272  1.00  0.00     0.150 A 
ATOM      5  N   UNL     1       4.419  41.733  50.915  1.00  0.00    -0.247 NA
ATOM      6  C   UNL     1       5.080  41.235  49.854  1.00  0.00     0.132 A 
ATOM      7  C   UNL     1       6.024  41.979  49.184  1.00  0.00     0.133 A 
ATOM      8  N   UNL     1       6.342  43.242  49.548  1.00  0.00    -0.233 NA
ATOM      9  C   UNL     1       5.700  43.776  50.596  1.00  0.00     0.185 A 
ATOM     10  N   UNL     1       6.029  45.013  50.945  1.00  0.00    -0.191 NA
ENDROOT
BRANCH   1  11
ATOM     11  N   UNL     1       5.701  46.850  52.393  1.00  0.00    -0.352 N 
ATOM     12  H   UNL     1       5.024  47.069  53.118  1.00  0.00     0.163 HD
BRANCH  11  13
ATOM     13  C   UNL     1       7.094  47.067  52.759  1.00  0.00     0.144 C 
BRANCH  13  14
ATOM     14  C   UNL     1       7.324  46.679  54.226  1.00  0.00     0.181 C 
BRANCH  14  15
ATOM     15  O   UNL     1       8.134  47.628  54.923  1.00  0.00    -0.383 OA
ATOM     16  C   UNL     1       9.501  47.586  54.533  1.00  0.00     0.194 C 
ENDBRANCH  14  15
ENDBRANCH  13  14
ENDBRANCH  11  13
ENDBRANCH   1  11
BRANCH   3  17
ATOM     17  N   UNL     1       3.129  42.965  53.050  1.00  0.00    -0.338 N 
ATOM     18  H   UNL     1       3.524  42.522  53.876  1.00  0.00     0.168 HD
BRANCH  17  19
ATOM     19  C   UNL     1       1.731  43.081  53.053  1.00  0.00     0.040 A 
ATOM     20  C   UNL     1       0.908  42.598  52.032  1.00  0.00     0.030 A 
ATOM     21  C   UNL     1       1.107  43.663  54.166  1.00  0.00     0.030 A 
ATOM     22  C   UNL     1      -0.489  42.717  52.098  1.00  0.00     0.048 A 
ATOM     23  C   UNL     1      -0.286  43.785  54.236  1.00  0.00     0.048 A 
ATOM     24  C   UNL     1      -1.091  43.316  53.201  1.00  0.00     0.119 A 
BRANCH  24  25
ATOM     25  O   UNL     1      -2.433  43.494  53.391  1.00  0.00    -0.497 OA
ATOM     26  C   UNL     1      -2.833  44.090  54.619  1.00  0.00     0.278 C 
ENDBRANCH  24  25
ENDBRANCH  17  19
ENDBRANCH   3  17
TORSDOF 7
ENDMDL
MODEL 18
REMARK VINA RESULT:    -6.945      2.572      6.022
REMARK INTER + INTRA:         -10.453
REMARK INTER:                  -9.664
REMARK INTRA:                  -0.789
REMARK UNBOUND:                -0.666
REMARK SMILES COCCNc1nc(Nc2ccc(OC)cc2)c2nccnc2n1
REMARK SMILES IDX 6 1 7 2 8 3 18 4 19 5 20 6 21 7 22 8 23 9 24 10 5 11 4 13
REMARK SMILES IDX 3 14 2 15 1 16 9 17 10 19 11 20 17 21 12 22 16 23 13 24
REMARK SMILES IDX 14 25 15 26
REMARK H PARENT 5 12 9 18
ROOT
ATOM      1  C   UNL     1       6.382  46.299  52.185  1.00  0.00     0.226 A 
ATOM      2  N   UNL     1       5.394  45.786  52.912  1.00  0.00    -0.193 NA
ATOM      3  C   UNL     1       4.901  44.587  52.547  1.00  0.00     0.164 A 
ATOM      4  C   UNL     1       5.388  43.876  51.453  1.00  0.00     0.150 A 
ATOM      5  N   UNL     1       4.907  42.646  51.088  1.00  0.00    -0.247 NA
ATOM      6  C   UNL     1       5.484  42.084  50.010  1.00  0.00     0.132 A 
ATOM      7  C   UNL     1       6.503  42.712  49.332  1.00  0.00     0.133 A 
ATOM      8  N   UNL     1       6.982  43.921  49.705  1.00  0.00    -0.233 NA
ATOM      9  C   UNL     1       6.429  44.517  50.770  1.00  0.00     0.185 A 
ATOM     10  N   UNL     1       6.916  45.698  51.127  1.00  0.00    -0.191 NA
ENDROOT
BRANCH   1  11
ATOM     11  N   UNL     1       6.842  47.542  52.601  1.00  0.00    -0.352 N 
ATOM     12  H   UNL     1       6.634  47.592  53.594  1.00  0.00     0.163 HD
BRANCH  11  13
ATOM     13  C   UNL     1       8.225  47.826  52.241  1.00  0.00     0.144 C 
BRANCH  13  14
ATOM     14  C   UNL     1       9.149  47.566  53.439  1.00  0.00     0.181 C 
BRANCH  14  15
ATOM     15  O   UNL     1       9.925  46.376  53.284  1.00  0.00    -0.383 OA
ATOM     16  C   UNL     1      10.317  46.138  51.939  1.00  0.00     0.194 C 
ENDBRANCH  14  15
ENDBRANCH  13  14
ENDBRANCH  11  13
ENDBRANCH   1  11
BRANCH   3  17
ATOM     17  N   UNL     1       3.814  44.001  53.258  1.00  0.00    -0.338 N 
ATOM     18  H   UNL     1       4.153  43.579  54.120  1.00  0.00     0.168 HD
BRANCH  17  19
ATOM     19  C   UNL     1       2.431  44.224  53.213  1.00  0.00     0.040 A 
ATOM     20  C   UNL     1       1.601  44.196  54.337  1.00  0.00     0.030 A 
ATOM     21  C   UNL     1       1.841  44.553  51.984  1.00  0.00     0.030 A 
ATOM     22  C   UNL     1       0.225  44.454  54.240  1.00  0.00     0.048 A 
ATOM     23  C   UNL     1       0.470  44.810  51.881  1.00  0.00     0.048 A 
ATOM     24  C   UNL     1      -0.347  44.758  53.008  1.00  0.00     0.119 A 
BRANCH  24  25
ATOM     25  O   UNL     1      -1.667  45.029  52.775  1.00  0.00    -0.497 OA
ATOM     26  C   UNL     1      -2.022  45.390  51.447  1.00  0.00     0.278 C 
ENDBRANCH  24  25
ENDBRANCH  17  19
ENDBRANCH   3  17
TORSDOF 7
ENDMDL
MODEL 19
REMARK VINA RESULT:    -6.905      2.997      5.638
REMARK INTER + INTRA:         -10.396
REMARK INTER:                  -9.788
REMARK INTRA:                  -0.608
REMARK UNBOUND:                -0.666
REMARK SMILES COCCNc1nc(Nc2ccc(OC)cc2)c2nccnc2n1
REMARK SMILES IDX 6 1 7 2 8 3 18 4 19 5 20 6 21 7 22 8 23 9 24 10 5 11 4 13
REMARK SMILES IDX 3 14 2 15 1 16 9 17 10 19 11 20 17 21 12 22 16 23 13 24
REMARK SMILES IDX 14 25 15 26
REMARK H PARENT 5 12 9 18
ROOT
ATOM      1  C   UNL     1       6.654  44.853  50.817  1.00  0.00     0.226 A 
ATOM      2  N   UNL     1       6.618  43.731  50.105  1.00  0.00    -0.193 NA
ATOM      3  C   UNL     1       5.594  42.883  50.318  1.00  0.00     0.164 A 
ATOM      4  C   UNL     1       4.584  43.141  51.242  1.00  0.00     0.150 A 
ATOM      5  N   UNL     1       3.527  42.294  51.450  1.00  0.00    -0.247 NA
ATOM      6  C   UNL     1       2.631  42.685  52.374  1.00  0.00     0.132 A 
ATOM      7  C   UNL     1       2.773  43.873  53.054  1.00  0.00     0.133 A 
ATOM      8  N   UNL     1       3.812  44.711  52.835  1.00  0.00    -0.233 NA
ATOM      9  C   UNL     1       4.731  44.354  51.927  1.00  0.00     0.185 A 
ATOM     10  N   UNL     1       5.738  45.190  51.719  1.00  0.00    -0.191 NA
ENDROOT
BRANCH   1  11
ATOM     11  N   UNL     1       7.738  45.684  50.563  1.00  0.00    -0.352 N 
ATOM     12  H   UNL     1       7.519  46.160  49.693  1.00  0.00     0.163 HD
BRANCH  11  13
ATOM     13  C   UNL     1       8.106  46.554  51.672  1.00  0.00     0.144 C 
BRANCH  13  14
ATOM     14  C   UNL     1       9.613  46.454  51.947  1.00  0.00     0.181 C 
BRANCH  14  15
ATOM     15  O   UNL     1       9.909  46.344  53.340  1.00  0.00    -0.383 OA
ATOM     16  C   UNL     1       9.557  47.506  54.078  1.00  0.00     0.194 C 
ENDBRANCH  14  15
ENDBRANCH  13  14
ENDBRANCH  11  13
ENDBRANCH   1  11
BRANCH   3  17
ATOM     17  N   UNL     1       5.518  41.644  49.619  1.00  0.00    -0.338 N 
ATOM     18  H   UNL     1       5.517  40.872  50.282  1.00  0.00     0.168 HD
BRANCH  17  19
ATOM     19  C   UNL     1       5.069  41.316  48.331  1.00  0.00     0.040 A 
ATOM     20  C   UNL     1       3.939  40.535  48.077  1.00  0.00     0.030 A 
ATOM     21  C   UNL     1       5.752  41.844  47.226  1.00  0.00     0.030 A 
ATOM     22  C   UNL     1       3.518  40.259  46.767  1.00  0.00     0.048 A 
ATOM     23  C   UNL     1       5.337  41.571  45.918  1.00  0.00     0.048 A 
ATOM     24  C   UNL     1       4.220  40.774  45.680  1.00  0.00     0.119 A 
BRANCH  24  25
ATOM     25  O   UNL     1       3.919  40.584  44.360  1.00  0.00    -0.497 OA
ATOM     26  C   UNL     1       4.982  40.163  43.515  1.00  0.00     0.278 C 
ENDBRANCH  24  25
ENDBRANCH  17  19
ENDBRANCH   3  17
TORSDOF 7
ENDMDL
