MODEL 1
REMARK VINA RESULT:    -8.329      0.000      0.000
REMARK INTER + INTRA:         -11.863
REMARK INTER:                 -11.251
REMARK INTRA:                  -0.612
REMARK UNBOUND:                -0.612
REMARK SMILES C=CCNc1nc(Nc2ccc(C(C)=O)cc2)c2cnn(C)c2n1
REMARK SMILES IDX 5 1 6 2 7 3 18 4 19 5 20 6 21 7 22 8 23 9 24 10 4 11 3 13
REMARK SMILES IDX 2 14 1 15 8 16 9 18 10 19 17 20 11 21 16 22 12 23 13 24
REMARK SMILES IDX 14 25 15 26
REMARK H PARENT 4 12 8 17
ROOT
ATOM      1  C   UNL     1       3.630  42.879  51.131  1.00  0.00     0.226 A 
ATOM      2  N   UNL     1       4.774  43.563  50.928  1.00  0.00    -0.195 NA
ATOM      3  C   UNL     1       4.842  44.885  51.223  1.00  0.00     0.147 A 
ATOM      4  C   UNL     1       3.681  45.508  51.683  1.00  0.00     0.082 A 
ATOM      5  C   UNL     1       3.244  46.799  52.047  1.00  0.00     0.149 A 
ATOM      6  N   UNL     1       1.965  46.824  52.441  1.00  0.00    -0.179 NA
ATOM      7  N   UNL     1       1.576  45.535  52.305  1.00  0.00    -0.250 N 
ATOM      8  C   UNL     1       0.222  45.165  52.633  1.00  0.00     0.176 C 
ATOM      9  C   UNL     1       2.566  44.710  51.843  1.00  0.00     0.165 A 
ATOM     10  N   UNL     1       2.483  43.395  51.590  1.00  0.00    -0.193 NA
ENDROOT
BRANCH   1  11
ATOM     11  N   UNL     1       3.586  41.518  50.856  1.00  0.00    -0.351 N 
ATOM     12  H   UNL     1       2.606  41.280  50.763  1.00  0.00     0.164 HD
BRANCH  11  13
ATOM     13  C   UNL     1       4.432  41.106  49.760  1.00  0.00     0.143 C 
BRANCH  13  14
ATOM     14  C   UNL     1       3.563  40.373  48.781  1.00  0.00    -0.014 C 
ATOM     15  C   UNL     1       3.753  40.361  47.454  1.00  0.00     0.006 C 
ENDBRANCH  13  14
ENDBRANCH  11  13
ENDBRANCH   1  11
BRANCH   3  16
ATOM     16  N   UNL     1       6.066  45.527  50.985  1.00  0.00    -0.339 N 
ATOM     17  H   UNL     1       6.592  44.930  50.350  1.00  0.00     0.168 HD
BRANCH  16  18
ATOM     18  C   UNL     1       6.922  46.140  51.921  1.00  0.00     0.040 A 
ATOM     19  C   UNL     1       6.669  45.944  53.284  1.00  0.00     0.027 A 
ATOM     20  C   UNL     1       7.975  46.987  51.556  1.00  0.00     0.027 A 
ATOM     21  C   UNL     1       7.468  46.550  54.257  1.00  0.00     0.014 A 
ATOM     22  C   UNL     1       8.781  47.596  52.528  1.00  0.00     0.014 A 
ATOM     23  C   UNL     1       8.534  47.377  53.886  1.00  0.00     0.017 A 
BRANCH  23  24
ATOM     24  C   UNL     1       9.361  48.001  54.961  1.00  0.00     0.159 C 
ATOM     25  C   UNL     1      10.591  47.280  55.446  1.00  0.00     0.093 C 
ATOM     26  O   UNL     1       9.033  49.087  55.434  1.00  0.00    -0.295 OA
ENDBRANCH  23  24
ENDBRANCH  16  18
ENDBRANCH   3  16
TORSDOF 6
ENDMDL
MODEL 2
REMARK VINA RESULT:    -8.327      3.460      7.559
REMARK INTER + INTRA:         -11.860
REMARK INTER:                 -11.210
REMARK INTRA:                  -0.650
REMARK UNBOUND:                -0.612
REMARK SMILES C=CCNc1nc(Nc2ccc(C(C)=O)cc2)c2cnn(C)c2n1
REMARK SMILES IDX 5 1 6 2 7 3 18 4 19 5 20 6 21 7 22 8 23 9 24 10 4 11 3 13
REMARK SMILES IDX 2 14 1 15 8 16 9 18 10 19 17 20 11 21 16 22 12 23 13 24
REMARK SMILES IDX 14 25 15 26
REMARK H PARENT 4 12 8 17
ROOT
ATOM      1  C   UNL     1       8.006  47.219  52.621  1.00  0.00     0.226 A 
ATOM      2  N   UNL     1       6.788  47.549  53.096  1.00  0.00    -0.195 NA
ATOM      3  C   UNL     1       5.682  46.901  52.651  1.00  0.00     0.147 A 
ATOM      4  C   UNL     1       5.850  45.937  51.656  1.00  0.00     0.082 A 
ATOM      5  C   UNL     1       5.055  45.081  50.866  1.00  0.00     0.149 A 
ATOM      6  N   UNL     1       5.778  44.321  50.034  1.00  0.00    -0.179 NA
ATOM      7  N   UNL     1       7.049  44.715  50.282  1.00  0.00    -0.250 N 
ATOM      8  C   UNL     1       8.134  44.112  49.551  1.00  0.00     0.176 C 
ATOM      9  C   UNL     1       7.142  45.690  51.239  1.00  0.00     0.165 A 
ATOM     10  N   UNL     1       8.254  46.292  51.687  1.00  0.00    -0.193 NA
ENDROOT
BRANCH   1  11
ATOM     11  N   UNL     1       9.132  47.867  53.110  1.00  0.00    -0.351 N 
ATOM     12  H   UNL     1       8.800  48.712  53.560  1.00  0.00     0.164 HD
BRANCH  11  13
ATOM     13  C   UNL     1       9.996  47.034  53.914  1.00  0.00     0.143 C 
BRANCH  13  14
ATOM     14  C   UNL     1       9.979  47.592  55.306  1.00  0.00    -0.014 C 
ATOM     15  C   UNL     1      11.012  47.542  56.160  1.00  0.00     0.006 C 
ENDBRANCH  13  14
ENDBRANCH  11  13
ENDBRANCH   1  11
BRANCH   3  16
ATOM     16  N   UNL     1       4.451  47.300  53.193  1.00  0.00    -0.339 N 
ATOM     17  H   UNL     1       4.657  47.988  53.915  1.00  0.00     0.168 HD
BRANCH  16  18
ATOM     18  C   UNL     1       3.364  46.487  53.571  1.00  0.00     0.040 A 
ATOM     19  C   UNL     1       2.253  46.423  52.722  1.00  0.00     0.027 A 
ATOM     20  C   UNL     1       3.312  45.794  54.786  1.00  0.00     0.027 A 
ATOM     21  C   UNL     1       1.135  45.655  53.059  1.00  0.00     0.014 A 
ATOM     22  C   UNL     1       2.194  45.022  55.129  1.00  0.00     0.014 A 
ATOM     23  C   UNL     1       1.099  44.945  54.264  1.00  0.00     0.017 A 
BRANCH  23  24
ATOM     24  C   UNL     1      -0.117  44.138  54.581  1.00  0.00     0.159 C 
ATOM     25  C   UNL     1      -0.979  44.546  55.747  1.00  0.00     0.093 C 
ATOM     26  O   UNL     1      -0.401  43.160  53.892  1.00  0.00    -0.295 OA
ENDBRANCH  23  24
ENDBRANCH  16  18
ENDBRANCH   3  16
TORSDOF 6
ENDMDL
MODEL 3
REMARK VINA RESULT:    -8.316      1.684      4.148
REMARK INTER + INTRA:         -11.845
REMARK INTER:                 -11.549
REMARK INTRA:                  -0.297
REMARK UNBOUND:                -0.612
REMARK SMILES C=CCNc1nc(Nc2ccc(C(C)=O)cc2)c2cnn(C)c2n1
REMARK SMILES IDX 5 1 6 2 7 3 18 4 19 5 20 6 21 7 22 8 23 9 24 10 4 11 3 13
REMARK SMILES IDX 2 14 1 15 8 16 9 18 10 19 17 20 11 21 16 22 12 23 13 24
REMARK SMILES IDX 14 25 15 26
REMARK H PARENT 4 12 8 17
ROOT
ATOM      1  C   UNL     1       4.110  43.640  52.253  1.00  0.00     0.226 A 
ATOM      2  N   UNL     1       5.130  44.508  52.097  1.00  0.00    -0.195 NA
ATOM      3  C   UNL     1       5.979  44.384  51.047  1.00  0.00     0.147 A 
ATOM      4  C   UNL     1       5.791  43.305  50.182  1.00  0.00     0.082 A 
ATOM      5  C   UNL     1       6.405  42.737  49.047  1.00  0.00     0.149 A 
ATOM      6  N   UNL     1       5.763  41.653  48.596  1.00  0.00    -0.179 NA
ATOM      7  N   UNL     1       4.739  41.515  49.471  1.00  0.00    -0.250 N 
ATOM      8  C   UNL     1       3.812  40.423  49.311  1.00  0.00     0.176 C 
ATOM      9  C   UNL     1       4.719  42.475  50.446  1.00  0.00     0.165 A 
ATOM     10  N   UNL     1       3.846  42.596  51.457  1.00  0.00    -0.193 NA
ENDROOT
BRANCH   1  11
ATOM     11  N   UNL     1       3.229  43.799  53.314  1.00  0.00    -0.351 N 
ATOM     12  H   UNL     1       3.708  43.450  54.135  1.00  0.00     0.164 HD
BRANCH  11  13
ATOM     13  C   UNL     1       2.678  45.129  53.436  1.00  0.00     0.143 C 
BRANCH  13  14
ATOM     14  C   UNL     1       2.874  45.561  54.859  1.00  0.00    -0.014 C 
ATOM     15  C   UNL     1       4.039  45.978  55.375  1.00  0.00     0.006 C 
ENDBRANCH  13  14
ENDBRANCH  11  13
ENDBRANCH   1  11
BRANCH   3  16
ATOM     16  N   UNL     1       7.015  45.326  50.953  1.00  0.00    -0.339 N 
ATOM     17  H   UNL     1       7.664  44.978  50.249  1.00  0.00     0.168 HD
BRANCH  16  18
ATOM     18  C   UNL     1       7.708  45.965  52.000  1.00  0.00     0.040 A 
ATOM     19  C   UNL     1       6.986  46.358  53.133  1.00  0.00     0.027 A 
ATOM     20  C   UNL     1       9.069  46.285  51.935  1.00  0.00     0.027 A 
ATOM     21  C   UNL     1       7.615  47.021  54.191  1.00  0.00     0.014 A 
ATOM     22  C   UNL     1       9.705  46.948  52.993  1.00  0.00     0.014 A 
ATOM     23  C   UNL     1       8.981  47.317  54.131  1.00  0.00     0.017 A 
BRANCH  23  24
ATOM     24  C   UNL     1       9.609  48.025  55.285  1.00  0.00     0.159 C 
ATOM     25  C   UNL     1      10.880  47.472  55.876  1.00  0.00     0.093 C 
ATOM     26  O   UNL     1       9.089  49.044  55.736  1.00  0.00    -0.295 OA
ENDBRANCH  23  24
ENDBRANCH  16  18
ENDBRANCH   3  16
TORSDOF 6
ENDMDL
MODEL 4
REMARK VINA RESULT:    -8.313      1.581      2.065
REMARK INTER + INTRA:         -11.841
REMARK INTER:                 -11.447
REMARK INTRA:                  -0.394
REMARK UNBOUND:                -0.612
REMARK SMILES C=CCNc1nc(Nc2ccc(C(C)=O)cc2)c2cnn(C)c2n1
REMARK SMILES IDX 5 1 6 2 7 3 18 4 19 5 20 6 21 7 22 8 23 9 24 10 4 11 3 13
REMARK SMILES IDX 2 14 1 15 8 16 9 18 10 19 17 20 11 21 16 22 12 23 13 24
REMARK SMILES IDX 14 25 15 26
REMARK H PARENT 4 12 8 17
ROOT
ATOM      1  C   UNL     1       5.983  42.682  49.785  1.00  0.00     0.226 A 
ATOM      2  N   UNL     1       6.759  43.777  49.915  1.00  0.00    -0.195 NA
ATOM      3  C   UNL     1       6.390  44.782  50.748  1.00  0.00     0.147 A 
ATOM      4  C   UNL     1       5.166  44.663  51.407  1.00  0.00     0.082 A 
ATOM      5  C   UNL     1       4.354  45.418  52.279  1.00  0.00     0.149 A 
ATOM      6  N   UNL     1       3.227  44.782  52.622  1.00  0.00    -0.179 NA
ATOM      7  N   UNL     1       3.312  43.616  51.941  1.00  0.00    -0.250 N 
ATOM      8  C   UNL     1       2.248  42.650  52.054  1.00  0.00     0.176 C 
ATOM      9  C   UNL     1       4.450  43.502  51.190  1.00  0.00     0.165 A 
ATOM     10  N   UNL     1       4.810  42.480  50.399  1.00  0.00    -0.193 NA
ENDROOT
BRANCH   1  11
ATOM     11  N   UNL     1       6.390  41.647  48.955  1.00  0.00    -0.351 N 
ATOM     12  H   UNL     1       6.777  40.933  49.560  1.00  0.00     0.164 HD
BRANCH  11  13
ATOM     13  C   UNL     1       5.378  41.194  48.029  1.00  0.00     0.143 C 
BRANCH  13  14
ATOM     14  C   UNL     1       5.669  41.836  46.705  1.00  0.00    -0.014 C 
ATOM     15  C   UNL     1       5.007  41.573  45.569  1.00  0.00     0.006 C 
ENDBRANCH  13  14
ENDBRANCH  11  13
ENDBRANCH   1  11
BRANCH   3  16
ATOM     16  N   UNL     1       7.250  45.887  50.831  1.00  0.00    -0.339 N 
ATOM     17  H   UNL     1       7.880  45.829  50.032  1.00  0.00     0.168 HD
BRANCH  16  18
ATOM     18  C   UNL     1       7.924  46.381  51.965  1.00  0.00     0.040 A 
ATOM     19  C   UNL     1       7.167  46.954  52.993  1.00  0.00     0.027 A 
ATOM     20  C   UNL     1       9.319  46.387  52.085  1.00  0.00     0.027 A 
ATOM     21  C   UNL     1       7.783  47.486  54.129  1.00  0.00     0.014 A 
ATOM     22  C   UNL     1       9.943  46.917  53.222  1.00  0.00     0.014 A 
ATOM     23  C   UNL     1       9.177  47.467  54.254  1.00  0.00     0.017 A 
BRANCH  23  24
ATOM     24  C   UNL     1       9.790  48.046  55.487  1.00  0.00     0.159 C 
ATOM     25  C   UNL     1      11.090  47.476  55.991  1.00  0.00     0.093 C 
ATOM     26  O   UNL     1       9.234  48.974  56.070  1.00  0.00    -0.295 OA
ENDBRANCH  23  24
ENDBRANCH  16  18
ENDBRANCH   3  16
TORSDOF 6
ENDMDL
MODEL 5
REMARK VINA RESULT:    -8.313      1.719      2.283
REMARK INTER + INTRA:         -11.841
REMARK INTER:                 -11.080
REMARK INTRA:                  -0.761
REMARK UNBOUND:                -0.612
REMARK SMILES C=CCNc1nc(Nc2ccc(C(C)=O)cc2)c2cnn(C)c2n1
REMARK SMILES IDX 5 1 6 2 7 3 18 4 19 5 20 6 21 7 22 8 23 9 24 10 4 11 3 13
REMARK SMILES IDX 2 14 1 15 8 16 9 18 10 19 17 20 11 21 16 22 12 23 13 24
REMARK SMILES IDX 14 25 15 26
REMARK H PARENT 4 12 8 17
ROOT
ATOM      1  C   UNL     1       3.273  42.496  51.543  1.00  0.00     0.226 A 
ATOM      2  N   UNL     1       3.939  43.514  52.125  1.00  0.00    -0.195 NA
ATOM      3  C   UNL     1       3.275  44.629  52.518  1.00  0.00     0.147 A 
ATOM      4  C   UNL     1       1.908  44.702  52.247  1.00  0.00     0.082 A 
ATOM      5  C   UNL     1       0.846  45.618  52.391  1.00  0.00     0.149 A 
ATOM      6  N   UNL     1      -0.321  45.138  51.943  1.00  0.00    -0.179 NA
ATOM      7  N   UNL     1       0.008  43.907  51.487  1.00  0.00    -0.250 N 
ATOM      8  C   UNL     1      -1.012  43.070  50.906  1.00  0.00     0.176 C 
ATOM      9  C   UNL     1       1.334  43.604  51.637  1.00  0.00     0.165 A 
ATOM     10  N   UNL     1       1.962  42.477  51.269  1.00  0.00    -0.193 NA
ENDROOT
BRANCH   1  11
ATOM     11  N   UNL     1       3.961  41.347  51.176  1.00  0.00    -0.351 N 
ATOM     12  H   UNL     1       3.346  40.570  51.383  1.00  0.00     0.164 HD
BRANCH  11  13
ATOM     13  C   UNL     1       4.493  41.376  49.833  1.00  0.00     0.143 C 
BRANCH  13  14
ATOM     14  C   UNL     1       5.966  41.638  49.945  1.00  0.00    -0.014 C 
ATOM     15  C   UNL     1       6.557  42.804  49.648  1.00  0.00     0.006 C 
ENDBRANCH  13  14
ENDBRANCH  11  13
ENDBRANCH   1  11
BRANCH   3  16
ATOM     16  N   UNL     1       4.036  45.644  53.118  1.00  0.00    -0.339 N 
ATOM     17  H   UNL     1       3.514  46.511  52.999  1.00  0.00     0.168 HD
BRANCH  16  18
ATOM     18  C   UNL     1       5.421  45.874  53.004  1.00  0.00     0.040 A 
ATOM     19  C   UNL     1       6.166  46.045  54.177  1.00  0.00     0.027 A 
ATOM     20  C   UNL     1       6.078  46.006  51.776  1.00  0.00     0.027 A 
ATOM     21  C   UNL     1       7.538  46.304  54.126  1.00  0.00     0.014 A 
ATOM     22  C   UNL     1       7.454  46.265  51.717  1.00  0.00     0.014 A 
ATOM     23  C   UNL     1       8.194  46.411  52.894  1.00  0.00     0.017 A 
BRANCH  23  24
ATOM     24  C   UNL     1       9.661  46.688  52.888  1.00  0.00     0.159 C 
ATOM     25  C   UNL     1      10.495  46.175  51.744  1.00  0.00     0.093 C 
ATOM     26  O   UNL     1      10.168  47.327  53.808  1.00  0.00    -0.295 OA
ENDBRANCH  23  24
ENDBRANCH  16  18
ENDBRANCH   3  16
TORSDOF 6
ENDMDL
MODEL 6
REMARK VINA RESULT:    -8.263      1.660      2.253
REMARK INTER + INTRA:         -11.773
REMARK INTER:                 -11.086
REMARK INTRA:                  -0.687
REMARK UNBOUND:                -0.612
REMARK SMILES C=CCNc1nc(Nc2ccc(C(C)=O)cc2)c2cnn(C)c2n1
REMARK SMILES IDX 5 1 6 2 7 3 18 4 19 5 20 6 21 7 22 8 23 9 24 10 4 11 3 13
REMARK SMILES IDX 2 14 1 15 8 16 9 18 10 19 17 20 11 21 16 22 12 23 13 24
REMARK SMILES IDX 14 25 15 26
REMARK H PARENT 4 12 8 17
ROOT
ATOM      1  C   UNL     1       3.506  42.573  51.477  1.00  0.00     0.226 A 
ATOM      2  N   UNL     1       4.147  43.758  51.479  1.00  0.00    -0.195 NA
ATOM      3  C   UNL     1       3.478  44.898  51.784  1.00  0.00     0.147 A 
ATOM      4  C   UNL     1       2.108  44.799  52.034  1.00  0.00     0.082 A 
ATOM      5  C   UNL     1       1.019  45.649  52.318  1.00  0.00     0.149 A 
ATOM      6  N   UNL     1      -0.131  44.984  52.481  1.00  0.00    -0.179 NA
ATOM      7  N   UNL     1       0.227  43.695  52.276  1.00  0.00    -0.250 N 
ATOM      8  C   UNL     1      -0.773  42.660  52.360  1.00  0.00     0.176 C 
ATOM      9  C   UNL     1       1.556  43.534  51.993  1.00  0.00     0.165 A 
ATOM     10  N   UNL     1       2.204  42.390  51.728  1.00  0.00    -0.193 NA
ENDROOT
BRANCH   1  11
ATOM     11  N   UNL     1       4.212  41.411  51.195  1.00  0.00    -0.351 N 
ATOM     12  H   UNL     1       3.633  40.643  51.512  1.00  0.00     0.164 HD
BRANCH  11  13
ATOM     13  C   UNL     1       4.679  41.315  49.831  1.00  0.00     0.143 C 
BRANCH  13  14
ATOM     14  C   UNL     1       6.161  41.551  49.852  1.00  0.00    -0.014 C 
ATOM     15  C   UNL     1       6.765  42.643  49.364  1.00  0.00     0.006 C 
ENDBRANCH  13  14
ENDBRANCH  11  13
ENDBRANCH   1  11
BRANCH   3  16
ATOM     16  N   UNL     1       4.213  46.092  51.767  1.00  0.00    -0.339 N 
ATOM     17  H   UNL     1       4.023  46.541  50.872  1.00  0.00     0.168 HD
BRANCH  16  18
ATOM     18  C   UNL     1       5.553  46.294  52.152  1.00  0.00     0.040 A 
ATOM     19  C   UNL     1       6.560  46.060  51.208  1.00  0.00     0.027 A 
ATOM     20  C   UNL     1       5.931  46.653  53.451  1.00  0.00     0.027 A 
ATOM     21  C   UNL     1       7.909  46.216  51.542  1.00  0.00     0.014 A 
ATOM     22  C   UNL     1       7.281  46.812  53.792  1.00  0.00     0.014 A 
ATOM     23  C   UNL     1       8.279  46.599  52.836  1.00  0.00     0.017 A 
BRANCH  23  24
ATOM     24  C   UNL     1       9.731  46.754  53.146  1.00  0.00     0.159 C 
ATOM     25  C   UNL     1      10.137  47.234  54.515  1.00  0.00     0.093 C 
ATOM     26  O   UNL     1      10.573  46.489  52.290  1.00  0.00    -0.295 OA
ENDBRANCH  23  24
ENDBRANCH  16  18
ENDBRANCH   3  16
TORSDOF 6
ENDMDL
MODEL 7
REMARK VINA RESULT:    -8.071      3.217      7.169
REMARK INTER + INTRA:         -11.515
REMARK INTER:                 -10.961
REMARK INTRA:                  -0.553
REMARK UNBOUND:                -0.612
REMARK SMILES C=CCNc1nc(Nc2ccc(C(C)=O)cc2)c2cnn(C)c2n1
REMARK SMILES IDX 5 1 6 2 7 3 18 4 19 5 20 6 21 7 22 8 23 9 24 10 4 11 3 13
REMARK SMILES IDX 2 14 1 15 8 16 9 18 10 19 17 20 11 21 16 22 12 23 13 24
REMARK SMILES IDX 14 25 15 26
REMARK H PARENT 4 12 8 17
ROOT
ATOM      1  C   UNL     1       7.649  46.761  51.636  1.00  0.00     0.226 A 
ATOM      2  N   UNL     1       6.573  47.184  52.329  1.00  0.00    -0.195 NA
ATOM      3  C   UNL     1       5.432  46.452  52.334  1.00  0.00     0.147 A 
ATOM      4  C   UNL     1       5.400  45.292  51.558  1.00  0.00     0.082 A 
ATOM      5  C   UNL     1       4.485  44.281  51.202  1.00  0.00     0.149 A 
ATOM      6  N   UNL     1       5.019  43.358  50.392  1.00  0.00    -0.179 NA
ATOM      7  N   UNL     1       6.285  43.801  50.213  1.00  0.00    -0.250 N 
ATOM      8  C   UNL     1       7.185  43.054  49.370  1.00  0.00     0.176 C 
ATOM      9  C   UNL     1       6.558  44.963  50.882  1.00  0.00     0.165 A 
ATOM     10  N   UNL     1       7.709  45.652  50.889  1.00  0.00    -0.193 NA
ENDROOT
BRANCH   1  11
ATOM     11  N   UNL     1       8.822  47.505  51.668  1.00  0.00    -0.351 N 
ATOM     12  H   UNL     1       8.627  48.318  52.238  1.00  0.00     0.164 HD
BRANCH  11  13
ATOM     13  C   UNL     1       9.995  46.750  52.043  1.00  0.00     0.143 C 
BRANCH  13  14
ATOM     14  C   UNL     1       9.890  46.469  53.513  1.00  0.00    -0.014 C 
ATOM     15  C   UNL     1       9.879  47.409  54.469  1.00  0.00     0.006 C 
ENDBRANCH  13  14
ENDBRANCH  11  13
ENDBRANCH   1  11
BRANCH   3  16
ATOM     16  N   UNL     1       4.356  46.957  53.079  1.00  0.00    -0.339 N 
ATOM     17  H   UNL     1       4.753  47.563  53.795  1.00  0.00     0.168 HD
BRANCH  16  18
ATOM     18  C   UNL     1       3.240  46.257  53.580  1.00  0.00     0.040 A 
ATOM     19  C   UNL     1       2.068  46.238  52.815  1.00  0.00     0.027 A 
ATOM     20  C   UNL     1       3.225  45.634  54.833  1.00  0.00     0.027 A 
ATOM     21  C   UNL     1       0.921  45.583  53.273  1.00  0.00     0.014 A 
ATOM     22  C   UNL     1       2.079  44.975  55.298  1.00  0.00     0.014 A 
ATOM     23  C   UNL     1       0.920  44.942  54.517  1.00  0.00     0.017 A 
BRANCH  23  24
ATOM     24  C   UNL     1      -0.328  44.255  54.965  1.00  0.00     0.159 C 
ATOM     25  C   UNL     1      -1.042  44.765  56.189  1.00  0.00     0.093 C 
ATOM     26  O   UNL     1      -0.756  43.291  54.335  1.00  0.00    -0.295 OA
ENDBRANCH  23  24
ENDBRANCH  16  18
ENDBRANCH   3  16
TORSDOF 6
ENDMDL
MODEL 8
REMARK VINA RESULT:    -8.008      3.770      8.210
REMARK INTER + INTRA:         -11.429
REMARK INTER:                 -10.736
REMARK INTRA:                  -0.693
REMARK UNBOUND:                -0.612
REMARK SMILES C=CCNc1nc(Nc2ccc(C(C)=O)cc2)c2cnn(C)c2n1
REMARK SMILES IDX 5 1 6 2 7 3 18 4 19 5 20 6 21 7 22 8 23 9 24 10 4 11 3 13
REMARK SMILES IDX 2 14 1 15 8 16 9 18 10 19 17 20 11 21 16 22 12 23 13 24
REMARK SMILES IDX 14 25 15 26
REMARK H PARENT 4 12 8 17
ROOT
ATOM      1  C   UNL     1       6.789  44.967  50.830  1.00  0.00     0.226 A 
ATOM      2  N   UNL     1       6.911  43.909  50.004  1.00  0.00    -0.195 NA
ATOM      3  C   UNL     1       5.995  42.909  50.033  1.00  0.00     0.147 A 
ATOM      4  C   UNL     1       4.972  42.993  50.978  1.00  0.00     0.082 A 
ATOM      5  C   UNL     1       3.876  42.226  51.424  1.00  0.00     0.149 A 
ATOM      6  N   UNL     1       3.188  42.822  52.406  1.00  0.00    -0.179 NA
ATOM      7  N   UNL     1       3.870  43.975  52.603  1.00  0.00    -0.250 N 
ATOM      8  C   UNL     1       3.423  44.898  53.616  1.00  0.00     0.176 C 
ATOM      9  C   UNL     1       4.953  44.118  51.779  1.00  0.00     0.165 A 
ATOM     10  N   UNL     1       5.827  45.135  51.746  1.00  0.00    -0.193 NA
ENDROOT
BRANCH   1  11
ATOM     11  N   UNL     1       7.717  45.999  50.766  1.00  0.00    -0.351 N 
ATOM     12  H   UNL     1       7.487  46.535  49.939  1.00  0.00     0.164 HD
BRANCH  11  13
ATOM     13  C   UNL     1       7.843  46.761  51.986  1.00  0.00     0.143 C 
BRANCH  13  14
ATOM     14  C   UNL     1       9.308  46.986  52.219  1.00  0.00    -0.014 C 
ATOM     15  C   UNL     1       9.887  47.051  53.426  1.00  0.00     0.006 C 
ENDBRANCH  13  14
ENDBRANCH  11  13
ENDBRANCH   1  11
BRANCH   3  16
ATOM     16  N   UNL     1       6.189  41.843  49.143  1.00  0.00    -0.339 N 
ATOM     17  H   UNL     1       7.186  41.810  48.937  1.00  0.00     0.168 HD
BRANCH  16  18
ATOM     18  C   UNL     1       5.432  41.515  48.001  1.00  0.00     0.040 A 
ATOM     19  C   UNL     1       4.304  40.700  48.160  1.00  0.00     0.027 A 
ATOM     20  C   UNL     1       5.788  41.909  46.706  1.00  0.00     0.027 A 
ATOM     21  C   UNL     1       3.531  40.320  47.060  1.00  0.00     0.014 A 
ATOM     22  C   UNL     1       5.016  41.532  45.599  1.00  0.00     0.014 A 
ATOM     23  C   UNL     1       3.879  40.737  45.770  1.00  0.00     0.017 A 
BRANCH  23  24
ATOM     24  C   UNL     1       3.023  40.306  44.626  1.00  0.00     0.159 C 
ATOM     25  C   UNL     1       1.596  40.784  44.562  1.00  0.00     0.093 C 
ATOM     26  O   UNL     1       3.487  39.574  43.754  1.00  0.00    -0.295 OA
ENDBRANCH  23  24
ENDBRANCH  16  18
ENDBRANCH   3  16
TORSDOF 6
ENDMDL
MODEL 9
REMARK VINA RESULT:    -7.942      2.864      5.203
REMARK INTER + INTRA:         -11.340
REMARK INTER:                 -10.654
REMARK INTRA:                  -0.685
REMARK UNBOUND:                -0.612
REMARK SMILES C=CCNc1nc(Nc2ccc(C(C)=O)cc2)c2cnn(C)c2n1
REMARK SMILES IDX 5 1 6 2 7 3 18 4 19 5 20 6 21 7 22 8 23 9 24 10 4 11 3 13
REMARK SMILES IDX 2 14 1 15 8 16 9 18 10 19 17 20 11 21 16 22 12 23 13 24
REMARK SMILES IDX 14 25 15 26
REMARK H PARENT 4 12 8 17
ROOT
ATOM      1  C   UNL     1       1.761  45.001  55.401  1.00  0.00     0.226 A 
ATOM      2  N   UNL     1       2.655  45.880  54.906  1.00  0.00    -0.195 NA
ATOM      3  C   UNL     1       2.891  45.936  53.572  1.00  0.00     0.147 A 
ATOM      4  C   UNL     1       2.224  45.022  52.754  1.00  0.00     0.082 A 
ATOM      5  C   UNL     1       2.176  44.655  51.393  1.00  0.00     0.149 A 
ATOM      6  N   UNL     1       1.307  43.666  51.151  1.00  0.00    -0.179 NA
ATOM      7  N   UNL     1       0.813  43.383  52.379  1.00  0.00    -0.250 N 
ATOM      8  C   UNL     1      -0.168  42.337  52.524  1.00  0.00     0.176 C 
ATOM      9  C   UNL     1       1.339  44.161  53.374  1.00  0.00     0.165 A 
ATOM     10  N   UNL     1       1.064  44.109  54.686  1.00  0.00    -0.193 NA
ENDROOT
BRANCH   1  11
ATOM     11  N   UNL     1       1.505  44.977  56.766  1.00  0.00    -0.351 N 
ATOM     12  H   UNL     1       2.401  45.091  57.224  1.00  0.00     0.164 HD
BRANCH  11  13
ATOM     13  C   UNL     1       0.469  45.889  57.193  1.00  0.00     0.143 C 
BRANCH  13  14
ATOM     14  C   UNL     1       1.044  46.729  58.295  1.00  0.00    -0.014 C 
ATOM     15  C   UNL     1       0.340  47.590  59.043  1.00  0.00     0.006 C 
ENDBRANCH  13  14
ENDBRANCH  11  13
ENDBRANCH   1  11
BRANCH   3  16
ATOM     16  N   UNL     1       3.834  46.877  53.132  1.00  0.00    -0.339 N 
ATOM     17  H   UNL     1       3.482  47.255  52.254  1.00  0.00     0.168 HD
BRANCH  16  18
ATOM     18  C   UNL     1       5.236  46.751  53.096  1.00  0.00     0.040 A 
ATOM     19  C   UNL     1       5.956  46.984  54.274  1.00  0.00     0.027 A 
ATOM     20  C   UNL     1       5.951  46.469  51.926  1.00  0.00     0.027 A 
ATOM     21  C   UNL     1       7.351  46.901  54.292  1.00  0.00     0.014 A 
ATOM     22  C   UNL     1       7.350  46.383  51.938  1.00  0.00     0.014 A 
ATOM     23  C   UNL     1       8.059  46.595  53.124  1.00  0.00     0.017 A 
BRANCH  23  24
ATOM     24  C   UNL     1       9.548  46.516  53.192  1.00  0.00     0.159 C 
ATOM     25  C   UNL     1      10.314  46.116  51.959  1.00  0.00     0.093 C 
ATOM     26  O   UNL     1      10.129  46.779  54.244  1.00  0.00    -0.295 OA
ENDBRANCH  23  24
ENDBRANCH  16  18
ENDBRANCH   3  16
TORSDOF 6
ENDMDL
MODEL 10
REMARK VINA RESULT:    -7.895      3.541      8.000
REMARK INTER + INTRA:         -11.276
REMARK INTER:                 -10.541
REMARK INTRA:                  -0.735
REMARK UNBOUND:                -0.612
REMARK SMILES C=CCNc1nc(Nc2ccc(C(C)=O)cc2)c2cnn(C)c2n1
REMARK SMILES IDX 5 1 6 2 7 3 18 4 19 5 20 6 21 7 22 8 23 9 24 10 4 11 3 13
REMARK SMILES IDX 2 14 1 15 8 16 9 18 10 19 17 20 11 21 16 22 12 23 13 24
REMARK SMILES IDX 14 25 15 26
REMARK H PARENT 4 12 8 17
ROOT
ATOM      1  C   UNL     1       6.238  46.175  52.095  1.00  0.00     0.226 A 
ATOM      2  N   UNL     1       5.190  45.627  52.742  1.00  0.00    -0.195 NA
ATOM      3  C   UNL     1       4.745  44.392  52.400  1.00  0.00     0.147 A 
ATOM      4  C   UNL     1       5.371  43.749  51.330  1.00  0.00     0.082 A 
ATOM      5  C   UNL     1       5.246  42.554  50.593  1.00  0.00     0.149 A 
ATOM      6  N   UNL     1       6.166  42.439  49.628  1.00  0.00    -0.179 NA
ATOM      7  N   UNL     1       6.872  43.589  49.738  1.00  0.00    -0.250 N 
ATOM      8  C   UNL     1       7.969  43.836  48.836  1.00  0.00     0.176 C 
ATOM      9  C   UNL     1       6.427  44.411  50.736  1.00  0.00     0.165 A 
ATOM     10  N   UNL     1       6.906  45.617  51.078  1.00  0.00    -0.193 NA
ENDROOT
BRANCH   1  11
ATOM     11  N   UNL     1       6.702  47.426  52.478  1.00  0.00    -0.351 N 
ATOM     12  H   UNL     1       6.503  47.512  53.467  1.00  0.00     0.164 HD
BRANCH  11  13
ATOM     13  C   UNL     1       8.069  47.697  52.095  1.00  0.00     0.143 C 
BRANCH  13  14
ATOM     14  C   UNL     1       8.868  47.817  53.358  1.00  0.00    -0.014 C 
ATOM     15  C   UNL     1       9.935  47.062  53.660  1.00  0.00     0.006 C 
ENDBRANCH  13  14
ENDBRANCH  11  13
ENDBRANCH   1  11
BRANCH   3  16
ATOM     16  N   UNL     1       3.651  43.888  53.119  1.00  0.00    -0.339 N 
ATOM     17  H   UNL     1       3.995  43.095  53.657  1.00  0.00     0.168 HD
BRANCH  16  18
ATOM     18  C   UNL     1       2.342  43.649  52.656  1.00  0.00     0.040 A 
ATOM     19  C   UNL     1       1.523  42.783  53.391  1.00  0.00     0.027 A 
ATOM     20  C   UNL     1       1.842  44.184  51.463  1.00  0.00     0.027 A 
ATOM     21  C   UNL     1       0.226  42.487  52.965  1.00  0.00     0.014 A 
ATOM     22  C   UNL     1       0.541  43.892  51.031  1.00  0.00     0.014 A 
ATOM     23  C   UNL     1      -0.277  43.044  51.783  1.00  0.00     0.017 A 
BRANCH  23  24
ATOM     24  C   UNL     1      -1.670  42.699  51.369  1.00  0.00     0.159 C 
ATOM     25  C   UNL     1      -2.308  43.472  50.244  1.00  0.00     0.093 C 
ATOM     26  O   UNL     1      -2.274  41.795  51.942  1.00  0.00    -0.295 OA
ENDBRANCH  23  24
ENDBRANCH  16  18
ENDBRANCH   3  16
TORSDOF 6
ENDMDL
MODEL 11
REMARK VINA RESULT:    -7.873      3.055      4.248
REMARK INTER + INTRA:         -11.246
REMARK INTER:                 -10.398
REMARK INTRA:                  -0.848
REMARK UNBOUND:                -0.612
REMARK SMILES C=CCNc1nc(Nc2ccc(C(C)=O)cc2)c2cnn(C)c2n1
REMARK SMILES IDX 5 1 6 2 7 3 18 4 19 5 20 6 21 7 22 8 23 9 24 10 4 11 3 13
REMARK SMILES IDX 2 14 1 15 8 16 9 18 10 19 17 20 11 21 16 22 12 23 13 24
REMARK SMILES IDX 14 25 15 26
REMARK H PARENT 4 12 8 17
ROOT
ATOM      1  C   UNL     1       1.290  43.802  53.909  1.00  0.00     0.226 A 
ATOM      2  N   UNL     1       2.356  44.547  54.268  1.00  0.00    -0.195 NA
ATOM      3  C   UNL     1       2.312  45.307  55.390  1.00  0.00     0.147 A 
ATOM      4  C   UNL     1       1.119  45.330  56.113  1.00  0.00     0.082 A 
ATOM      5  C   UNL     1       0.579  45.972  57.248  1.00  0.00     0.149 A 
ATOM      6  N   UNL     1      -0.679  45.595  57.509  1.00  0.00    -0.179 NA
ATOM      7  N   UNL     1      -0.951  44.720  56.514  1.00  0.00    -0.250 N 
ATOM      8  C   UNL     1      -2.250  44.096  56.454  1.00  0.00     0.176 C 
ATOM      9  C   UNL     1       0.090  44.536  55.646  1.00  0.00     0.165 A 
ATOM     10  N   UNL     1       0.121  43.750  54.559  1.00  0.00    -0.193 NA
ENDROOT
BRANCH   1  11
ATOM     11  N   UNL     1       1.361  43.004  52.775  1.00  0.00    -0.351 N 
ATOM     12  H   UNL     1       0.408  42.757  52.542  1.00  0.00     0.164 HD
BRANCH  11  13
ATOM     13  C   UNL     1       2.137  43.570  51.697  1.00  0.00     0.143 C 
BRANCH  13  14
ATOM     14  C   UNL     1       3.472  42.885  51.703  1.00  0.00    -0.014 C 
ATOM     15  C   UNL     1       4.652  43.514  51.617  1.00  0.00     0.006 C 
ENDBRANCH  13  14
ENDBRANCH  11  13
ENDBRANCH   1  11
BRANCH   3  16
ATOM     16  N   UNL     1       3.460  46.053  55.698  1.00  0.00    -0.339 N 
ATOM     17  H   UNL     1       3.138  46.956  56.042  1.00  0.00     0.168 HD
BRANCH  16  18
ATOM     18  C   UNL     1       4.634  46.197  54.934  1.00  0.00     0.040 A 
ATOM     19  C   UNL     1       4.672  47.194  53.952  1.00  0.00     0.027 A 
ATOM     20  C   UNL     1       5.741  45.350  55.063  1.00  0.00     0.027 A 
ATOM     21  C   UNL     1       5.800  47.365  53.144  1.00  0.00     0.014 A 
ATOM     22  C   UNL     1       6.875  45.517  54.257  1.00  0.00     0.014 A 
ATOM     23  C   UNL     1       6.912  46.530  53.294  1.00  0.00     0.017 A 
BRANCH  23  24
ATOM     24  C   UNL     1       8.095  46.751  52.409  1.00  0.00     0.159 C 
ATOM     25  C   UNL     1       9.389  47.214  53.025  1.00  0.00     0.093 C 
ATOM     26  O   UNL     1       8.001  46.554  51.200  1.00  0.00    -0.295 OA
ENDBRANCH  23  24
ENDBRANCH  16  18
ENDBRANCH   3  16
TORSDOF 6
ENDMDL
MODEL 12
REMARK VINA RESULT:    -7.830      3.251      7.192
REMARK INTER + INTRA:         -11.189
REMARK INTER:                 -10.801
REMARK INTRA:                  -0.388
REMARK UNBOUND:                -0.612
REMARK SMILES C=CCNc1nc(Nc2ccc(C(C)=O)cc2)c2cnn(C)c2n1
REMARK SMILES IDX 5 1 6 2 7 3 18 4 19 5 20 6 21 7 22 8 23 9 24 10 4 11 3 13
REMARK SMILES IDX 2 14 1 15 8 16 9 18 10 19 17 20 11 21 16 22 12 23 13 24
REMARK SMILES IDX 14 25 15 26
REMARK H PARENT 4 12 8 17
ROOT
ATOM      1  C   UNL     1       5.873  47.169  53.156  1.00  0.00     0.226 A 
ATOM      2  N   UNL     1       6.018  46.416  52.047  1.00  0.00    -0.195 NA
ATOM      3  C   UNL     1       7.248  45.992  51.665  1.00  0.00     0.147 A 
ATOM      4  C   UNL     1       8.344  46.410  52.422  1.00  0.00     0.082 A 
ATOM      5  C   UNL     1       9.750  46.297  52.404  1.00  0.00     0.149 A 
ATOM      6  N   UNL     1      10.335  46.921  53.434  1.00  0.00    -0.179 NA
ATOM      7  N   UNL     1       9.289  47.457  54.104  1.00  0.00    -0.250 N 
ATOM      8  C   UNL     1       9.531  48.230  55.296  1.00  0.00     0.176 C 
ATOM      9  C   UNL     1       8.076  47.187  53.531  1.00  0.00     0.165 A 
ATOM     10  N   UNL     1       6.866  47.591  53.949  1.00  0.00    -0.193 NA
ENDROOT
BRANCH   1  11
ATOM     11  N   UNL     1       4.603  47.567  53.553  1.00  0.00    -0.351 N 
ATOM     12  H   UNL     1       4.653  48.568  53.700  1.00  0.00     0.164 HD
BRANCH  11  13
ATOM     13  C   UNL     1       3.540  47.119  52.684  1.00  0.00     0.143 C 
BRANCH  13  14
ATOM     14  C   UNL     1       2.718  46.133  53.460  1.00  0.00    -0.014 C 
ATOM     15  C   UNL     1       3.168  44.952  53.907  1.00  0.00     0.006 C 
ENDBRANCH  13  14
ENDBRANCH  11  13
ENDBRANCH   1  11
BRANCH   3  16
ATOM     16  N   UNL     1       7.319  45.212  50.501  1.00  0.00    -0.339 N 
ATOM     17  H   UNL     1       7.415  45.859  49.720  1.00  0.00     0.168 HD
BRANCH  16  18
ATOM     18  C   UNL     1       6.518  44.110  50.143  1.00  0.00     0.040 A 
ATOM     19  C   UNL     1       5.360  43.858  50.889  1.00  0.00     0.027 A 
ATOM     20  C   UNL     1       6.856  43.217  49.119  1.00  0.00     0.027 A 
ATOM     21  C   UNL     1       4.542  42.763  50.597  1.00  0.00     0.014 A 
ATOM     22  C   UNL     1       6.039  42.119  48.821  1.00  0.00     0.014 A 
ATOM     23  C   UNL     1       4.873  41.887  49.557  1.00  0.00     0.017 A 
BRANCH  23  24
ATOM     24  C   UNL     1       3.968  40.732  49.281  1.00  0.00     0.159 C 
ATOM     25  C   UNL     1       3.770  40.285  47.856  1.00  0.00     0.093 C 
ATOM     26  O   UNL     1       3.401  40.162  50.211  1.00  0.00    -0.295 OA
ENDBRANCH  23  24
ENDBRANCH  16  18
ENDBRANCH   3  16
TORSDOF 6
ENDMDL
MODEL 13
REMARK VINA RESULT:    -7.824      2.635      5.210
REMARK INTER + INTRA:         -11.181
REMARK INTER:                 -10.461
REMARK INTRA:                  -0.720
REMARK UNBOUND:                -0.612
REMARK SMILES C=CCNc1nc(Nc2ccc(C(C)=O)cc2)c2cnn(C)c2n1
REMARK SMILES IDX 5 1 6 2 7 3 18 4 19 5 20 6 21 7 22 8 23 9 24 10 4 11 3 13
REMARK SMILES IDX 2 14 1 15 8 16 9 18 10 19 17 20 11 21 16 22 12 23 13 24
REMARK SMILES IDX 14 25 15 26
REMARK H PARENT 4 12 8 17
ROOT
ATOM      1  C   UNL     1       0.615  44.966  54.441  1.00  0.00     0.226 A 
ATOM      2  N   UNL     1       1.941  44.741  54.529  1.00  0.00    -0.195 NA
ATOM      3  C   UNL     1       2.606  44.163  53.498  1.00  0.00     0.147 A 
ATOM      4  C   UNL     1       1.863  43.766  52.386  1.00  0.00     0.082 A 
ATOM      5  C   UNL     1       2.066  43.107  51.156  1.00  0.00     0.149 A 
ATOM      6  N   UNL     1       0.944  42.996  50.433  1.00  0.00    -0.179 NA
ATOM      7  N   UNL     1       0.010  43.572  51.225  1.00  0.00    -0.250 N 
ATOM      8  C   UNL     1      -1.359  43.633  50.777  1.00  0.00     0.176 C 
ATOM      9  C   UNL     1       0.509  44.039  52.410  1.00  0.00     0.165 A 
ATOM     10  N   UNL     1      -0.165  44.639  53.403  1.00  0.00    -0.193 NA
ENDROOT
BRANCH   1  11
ATOM     11  N   UNL     1      -0.047  45.589  55.491  1.00  0.00    -0.351 N 
ATOM     12  H   UNL     1      -1.033  45.405  55.354  1.00  0.00     0.164 HD
BRANCH  11  13
ATOM     13  C   UNL     1       0.470  45.258  56.799  1.00  0.00     0.143 C 
BRANCH  13  14
ATOM     14  C   UNL     1       0.327  46.482  57.655  1.00  0.00    -0.014 C 
ATOM     15  C   UNL     1       1.176  46.833  58.631  1.00  0.00     0.006 C 
ENDBRANCH  13  14
ENDBRANCH  11  13
ENDBRANCH   1  11
BRANCH   3  16
ATOM     16  N   UNL     1       3.985  43.962  53.664  1.00  0.00    -0.339 N 
ATOM     17  H   UNL     1       4.104  43.464  54.545  1.00  0.00     0.168 HD
BRANCH  16  18
ATOM     18  C   UNL     1       5.028  44.887  53.466  1.00  0.00     0.040 A 
ATOM     19  C   UNL     1       5.499  45.092  52.164  1.00  0.00     0.027 A 
ATOM     20  C   UNL     1       5.662  45.563  54.516  1.00  0.00     0.027 A 
ATOM     21  C   UNL     1       6.551  45.977  51.911  1.00  0.00     0.014 A 
ATOM     22  C   UNL     1       6.717  46.452  54.269  1.00  0.00     0.014 A 
ATOM     23  C   UNL     1       7.165  46.667  52.962  1.00  0.00     0.017 A 
BRANCH  23  24
ATOM     24  C   UNL     1       8.285  47.603  52.643  1.00  0.00     0.159 C 
ATOM     25  C   UNL     1       9.701  47.093  52.710  1.00  0.00     0.093 C 
ATOM     26  O   UNL     1       8.042  48.766  52.331  1.00  0.00    -0.295 OA
ENDBRANCH  23  24
ENDBRANCH  16  18
ENDBRANCH   3  16
TORSDOF 6
ENDMDL
MODEL 14
REMARK VINA RESULT:    -7.713      2.900      6.921
REMARK INTER + INTRA:         -11.031
REMARK INTER:                 -10.274
REMARK INTRA:                  -0.757
REMARK UNBOUND:                -0.612
REMARK SMILES C=CCNc1nc(Nc2ccc(C(C)=O)cc2)c2cnn(C)c2n1
REMARK SMILES IDX 5 1 6 2 7 3 18 4 19 5 20 6 21 7 22 8 23 9 24 10 4 11 3 13
REMARK SMILES IDX 2 14 1 15 8 16 9 18 10 19 17 20 11 21 16 22 12 23 13 24
REMARK SMILES IDX 14 25 15 26
REMARK H PARENT 4 12 8 17
ROOT
ATOM      1  C   UNL     1       6.662  45.707  51.203  1.00  0.00     0.226 A 
ATOM      2  N   UNL     1       5.566  46.309  51.709  1.00  0.00    -0.195 NA
ATOM      3  C   UNL     1       4.409  45.616  51.850  1.00  0.00     0.147 A 
ATOM      4  C   UNL     1       4.384  44.294  51.402  1.00  0.00     0.082 A 
ATOM      5  C   UNL     1       3.462  43.234  51.278  1.00  0.00     0.149 A 
ATOM      6  N   UNL     1       4.010  42.126  50.764  1.00  0.00    -0.179 NA
ATOM      7  N   UNL     1       5.292  42.493  50.537  1.00  0.00    -0.250 N 
ATOM      8  C   UNL     1       6.211  41.542  49.963  1.00  0.00     0.176 C 
ATOM      9  C   UNL     1       5.563  43.786  50.893  1.00  0.00     0.165 A 
ATOM     10  N   UNL     1       6.728  44.440  50.775  1.00  0.00    -0.193 NA
ENDROOT
BRANCH   1  11
ATOM     11  N   UNL     1       7.848  46.420  51.096  1.00  0.00    -0.351 N 
ATOM     12  H   UNL     1       7.707  47.097  50.356  1.00  0.00     0.164 HD
BRANCH  11  13
ATOM     13  C   UNL     1       8.334  46.958  52.346  1.00  0.00     0.143 C 
BRANCH  13  14
ATOM     14  C   UNL     1       9.827  46.812  52.341  1.00  0.00    -0.014 C 
ATOM     15  C   UNL     1      10.494  45.832  51.716  1.00  0.00     0.006 C 
ENDBRANCH  13  14
ENDBRANCH  11  13
ENDBRANCH   1  11
BRANCH   3  16
ATOM     16  N   UNL     1       3.313  46.310  52.384  1.00  0.00    -0.339 N 
ATOM     17  H   UNL     1       3.631  47.258  52.574  1.00  0.00     0.168 HD
BRANCH  16  18
ATOM     18  C   UNL     1       2.409  45.877  53.374  1.00  0.00     0.040 A 
ATOM     19  C   UNL     1       1.080  45.637  53.004  1.00  0.00     0.027 A 
ATOM     20  C   UNL     1       2.758  45.739  54.722  1.00  0.00     0.027 A 
ATOM     21  C   UNL     1       0.133  45.233  53.949  1.00  0.00     0.014 A 
ATOM     22  C   UNL     1       1.813  45.333  55.675  1.00  0.00     0.014 A 
ATOM     23  C   UNL     1       0.494  45.074  55.291  1.00  0.00     0.017 A 
BRANCH  23  24
ATOM     24  C   UNL     1      -0.552  44.640  56.265  1.00  0.00     0.159 C 
ATOM     25  C   UNL     1      -1.720  43.829  55.766  1.00  0.00     0.093 C 
ATOM     26  O   UNL     1      -0.450  44.945  57.451  1.00  0.00    -0.295 OA
ENDBRANCH  23  24
ENDBRANCH  16  18
ENDBRANCH   3  16
TORSDOF 6
ENDMDL
MODEL 15
REMARK VINA RESULT:    -7.706      3.267      6.743
REMARK INTER + INTRA:         -11.021
REMARK INTER:                 -10.244
REMARK INTRA:                  -0.777
REMARK UNBOUND:                -0.612
REMARK SMILES C=CCNc1nc(Nc2ccc(C(C)=O)cc2)c2cnn(C)c2n1
REMARK SMILES IDX 5 1 6 2 7 3 18 4 19 5 20 6 21 7 22 8 23 9 24 10 4 11 3 13
REMARK SMILES IDX 2 14 1 15 8 16 9 18 10 19 17 20 11 21 16 22 12 23 13 24
REMARK SMILES IDX 14 25 15 26
REMARK H PARENT 4 12 8 17
ROOT
ATOM      1  C   UNL     1       7.162  45.466  50.602  1.00  0.00     0.226 A 
ATOM      2  N   UNL     1       5.838  45.648  50.777  1.00  0.00    -0.195 NA
ATOM      3  C   UNL     1       5.372  46.234  51.908  1.00  0.00     0.147 A 
ATOM      4  C   UNL     1       6.301  46.581  52.890  1.00  0.00     0.082 A 
ATOM      5  C   UNL     1       6.315  47.126  54.191  1.00  0.00     0.149 A 
ATOM      6  N   UNL     1       7.551  47.256  54.688  1.00  0.00    -0.179 NA
ATOM      7  N   UNL     1       8.333  46.766  53.699  1.00  0.00    -0.250 N 
ATOM      8  C   UNL     1       9.763  46.730  53.877  1.00  0.00     0.176 C 
ATOM      9  C   UNL     1       7.630  46.338  52.605  1.00  0.00     0.165 A 
ATOM     10  N   UNL     1       8.117  45.792  51.481  1.00  0.00    -0.193 NA
ENDROOT
BRANCH   1  11
ATOM     11  N   UNL     1       7.626  44.895  49.424  1.00  0.00    -0.351 N 
ATOM     12  H   UNL     1       8.366  45.499  49.089  1.00  0.00     0.164 HD
BRANCH  11  13
ATOM     13  C   UNL     1       7.968  43.496  49.536  1.00  0.00     0.143 C 
BRANCH  13  14
ATOM     14  C   UNL     1       6.735  42.710  49.198  1.00  0.00    -0.014 C 
ATOM     15  C   UNL     1       6.235  41.717  49.946  1.00  0.00     0.006 C 
ENDBRANCH  13  14
ENDBRANCH  11  13
ENDBRANCH   1  11
BRANCH   3  16
ATOM     16  N   UNL     1       3.982  46.390  52.018  1.00  0.00    -0.339 N 
ATOM     17  H   UNL     1       3.824  47.209  52.603  1.00  0.00     0.168 HD
BRANCH  16  18
ATOM     18  C   UNL     1       3.013  45.399  52.273  1.00  0.00     0.040 A 
ATOM     19  C   UNL     1       2.151  45.028  51.234  1.00  0.00     0.027 A 
ATOM     20  C   UNL     1       2.828  44.814  53.530  1.00  0.00     0.027 A 
ATOM     21  C   UNL     1       1.153  44.071  51.436  1.00  0.00     0.014 A 
ATOM     22  C   UNL     1       1.829  43.853  53.739  1.00  0.00     0.014 A 
ATOM     23  C   UNL     1       0.988  43.473  52.690  1.00  0.00     0.017 A 
BRANCH  23  24
ATOM     24  C   UNL     1      -0.092  42.455  52.858  1.00  0.00     0.159 C 
ATOM     25  C   UNL     1      -1.239  42.442  51.882  1.00  0.00     0.093 C 
ATOM     26  O   UNL     1      -0.033  41.645  53.780  1.00  0.00    -0.295 OA
ENDBRANCH  23  24
ENDBRANCH  16  18
ENDBRANCH   3  16
TORSDOF 6
ENDMDL
MODEL 16
REMARK VINA RESULT:    -7.625      3.200      6.259
REMARK INTER + INTRA:         -10.912
REMARK INTER:                 -10.207
REMARK INTRA:                  -0.705
REMARK UNBOUND:                -0.612
REMARK SMILES C=CCNc1nc(Nc2ccc(C(C)=O)cc2)c2cnn(C)c2n1
REMARK SMILES IDX 5 1 6 2 7 3 18 4 19 5 20 6 21 7 22 8 23 9 24 10 4 11 3 13
REMARK SMILES IDX 2 14 1 15 8 16 9 18 10 19 17 20 11 21 16 22 12 23 13 24
REMARK SMILES IDX 14 25 15 26
REMARK H PARENT 4 12 8 17
ROOT
ATOM      1  C   UNL     1       6.491  44.985  50.639  1.00  0.00     0.226 A 
ATOM      2  N   UNL     1       5.540  45.636  51.339  1.00  0.00    -0.195 NA
ATOM      3  C   UNL     1       5.884  46.602  52.226  1.00  0.00     0.147 A 
ATOM      4  C   UNL     1       7.243  46.849  52.423  1.00  0.00     0.082 A 
ATOM      5  C   UNL     1       8.067  47.660  53.231  1.00  0.00     0.149 A 
ATOM      6  N   UNL     1       9.371  47.487  52.983  1.00  0.00    -0.179 NA
ATOM      7  N   UNL     1       9.378  46.537  52.020  1.00  0.00    -0.250 N 
ATOM      8  C   UNL     1      10.636  46.072  51.492  1.00  0.00     0.176 C 
ATOM      9  C   UNL     1       8.128  46.114  51.658  1.00  0.00     0.165 A 
ATOM     10  N   UNL     1       7.811  45.179  50.751  1.00  0.00    -0.193 NA
ENDROOT
BRANCH   1  11
ATOM     11  N   UNL     1       6.121  44.022  49.710  1.00  0.00    -0.351 N 
ATOM     12  H   UNL     1       5.969  44.512  48.838  1.00  0.00     0.164 HD
BRANCH  11  13
ATOM     13  C   UNL     1       7.017  42.890  49.638  1.00  0.00     0.143 C 
BRANCH  13  14
ATOM     14  C   UNL     1       6.173  41.652  49.715  1.00  0.00    -0.014 C 
ATOM     15  C   UNL     1       5.044  41.542  50.429  1.00  0.00     0.006 C 
ENDBRANCH  13  14
ENDBRANCH  11  13
ENDBRANCH   1  11
BRANCH   3  16
ATOM     16  N   UNL     1       4.839  47.234  52.916  1.00  0.00    -0.339 N 
ATOM     17  H   UNL     1       5.271  47.847  53.605  1.00  0.00     0.168 HD
BRANCH  16  18
ATOM     18  C   UNL     1       3.660  46.657  53.428  1.00  0.00     0.040 A 
ATOM     19  C   UNL     1       3.679  46.149  54.732  1.00  0.00     0.027 A 
ATOM     20  C   UNL     1       2.490  46.506  52.674  1.00  0.00     0.027 A 
ATOM     21  C   UNL     1       2.548  45.540  55.283  1.00  0.00     0.014 A 
ATOM     22  C   UNL     1       1.353  45.897  53.221  1.00  0.00     0.014 A 
ATOM     23  C   UNL     1       1.374  45.414  54.532  1.00  0.00     0.017 A 
BRANCH  23  24
ATOM     24  C   UNL     1       0.191  44.757  55.163  1.00  0.00     0.159 C 
ATOM     25  C   UNL     1      -0.158  45.098  56.589  1.00  0.00     0.093 C 
ATOM     26  O   UNL     1      -0.480  43.954  54.519  1.00  0.00    -0.295 OA
ENDBRANCH  23  24
ENDBRANCH  16  18
ENDBRANCH   3  16
TORSDOF 6
ENDMDL
MODEL 17
REMARK VINA RESULT:    -7.607      3.213      5.609
REMARK INTER + INTRA:         -10.888
REMARK INTER:                 -10.328
REMARK INTRA:                  -0.560
REMARK UNBOUND:                -0.612
REMARK SMILES C=CCNc1nc(Nc2ccc(C(C)=O)cc2)c2cnn(C)c2n1
REMARK SMILES IDX 5 1 6 2 7 3 18 4 19 5 20 6 21 7 22 8 23 9 24 10 4 11 3 13
REMARK SMILES IDX 2 14 1 15 8 16 9 18 10 19 17 20 11 21 16 22 12 23 13 24
REMARK SMILES IDX 14 25 15 26
REMARK H PARENT 4 12 8 17
ROOT
ATOM      1  C   UNL     1       1.995  44.523  54.878  1.00  0.00     0.226 A 
ATOM      2  N   UNL     1       2.545  44.000  53.763  1.00  0.00    -0.195 NA
ATOM      3  C   UNL     1       1.761  43.414  52.824  1.00  0.00     0.147 A 
ATOM      4  C   UNL     1       0.392  43.326  53.083  1.00  0.00     0.082 A 
ATOM      5  C   UNL     1      -0.766  42.787  52.486  1.00  0.00     0.149 A 
ATOM      6  N   UNL     1      -1.874  43.013  53.203  1.00  0.00    -0.179 NA
ATOM      7  N   UNL     1      -1.410  43.685  54.283  1.00  0.00    -0.250 N 
ATOM      8  C   UNL     1      -2.332  44.100  55.310  1.00  0.00     0.176 C 
ATOM      9  C   UNL     1      -0.057  43.887  54.262  1.00  0.00     0.165 A 
ATOM     10  N   UNL     1       0.693  44.501  55.190  1.00  0.00    -0.193 NA
ENDROOT
BRANCH   1  11
ATOM     11  N   UNL     1       2.807  45.148  55.815  1.00  0.00    -0.351 N 
ATOM     12  H   UNL     1       3.092  44.429  56.468  1.00  0.00     0.164 HD
BRANCH  11  13
ATOM     13  C   UNL     1       3.880  45.930  55.245  1.00  0.00     0.143 C 
BRANCH  13  14
ATOM     14  C   UNL     1       5.136  45.119  55.375  1.00  0.00    -0.014 C 
ATOM     15  C   UNL     1       6.036  44.948  54.397  1.00  0.00     0.006 C 
ENDBRANCH  13  14
ENDBRANCH  11  13
ENDBRANCH   1  11
BRANCH   3  16
ATOM     16  N   UNL     1       2.406  42.894  51.692  1.00  0.00    -0.339 N 
ATOM     17  H   UNL     1       2.221  41.893  51.684  1.00  0.00     0.168 HD
BRANCH  16  18
ATOM     18  C   UNL     1       3.709  43.167  51.231  1.00  0.00     0.040 A 
ATOM     19  C   UNL     1       4.134  44.500  51.184  1.00  0.00     0.027 A 
ATOM     20  C   UNL     1       4.577  42.176  50.757  1.00  0.00     0.027 A 
ATOM     21  C   UNL     1       5.406  44.832  50.710  1.00  0.00     0.014 A 
ATOM     22  C   UNL     1       5.854  42.503  50.282  1.00  0.00     0.014 A 
ATOM     23  C   UNL     1       6.278  43.835  50.259  1.00  0.00     0.017 A 
BRANCH  23  24
ATOM     24  C   UNL     1       7.627  44.238  49.763  1.00  0.00     0.159 C 
ATOM     25  C   UNL     1       8.291  45.451  50.360  1.00  0.00     0.093 C 
ATOM     26  O   UNL     1       8.177  43.581  48.881  1.00  0.00    -0.295 OA
ENDBRANCH  23  24
ENDBRANCH  16  18
ENDBRANCH   3  16
TORSDOF 6
ENDMDL
MODEL 18
REMARK VINA RESULT:    -7.600      3.034      7.050
REMARK INTER + INTRA:         -10.877
REMARK INTER:                 -10.826
REMARK INTRA:                  -0.052
REMARK UNBOUND:                -0.612
REMARK SMILES C=CCNc1nc(Nc2ccc(C(C)=O)cc2)c2cnn(C)c2n1
REMARK SMILES IDX 5 1 6 2 7 3 18 4 19 5 20 6 21 7 22 8 23 9 24 10 4 11 3 13
REMARK SMILES IDX 2 14 1 15 8 16 9 18 10 19 17 20 11 21 16 22 12 23 13 24
REMARK SMILES IDX 14 25 15 26
REMARK H PARENT 4 12 8 17
ROOT
ATOM      1  C   UNL     1       6.185  46.159  52.138  1.00  0.00     0.226 A 
ATOM      2  N   UNL     1       5.069  45.554  52.592  1.00  0.00    -0.195 NA
ATOM      3  C   UNL     1       4.699  44.345  52.100  1.00  0.00     0.147 A 
ATOM      4  C   UNL     1       5.476  43.792  51.081  1.00  0.00     0.082 A 
ATOM      5  C   UNL     1       5.475  42.656  50.247  1.00  0.00     0.149 A 
ATOM      6  N   UNL     1       6.521  42.623  49.411  1.00  0.00    -0.179 NA
ATOM      7  N   UNL     1       7.183  43.767  49.702  1.00  0.00    -0.250 N 
ATOM      8  C   UNL     1       8.388  44.092  48.980  1.00  0.00     0.176 C 
ATOM      9  C   UNL     1       6.590  44.507  50.689  1.00  0.00     0.165 A 
ATOM     10  N   UNL     1       6.996  45.686  51.183  1.00  0.00    -0.193 NA
ENDROOT
BRANCH   1  11
ATOM     11  N   UNL     1       6.569  47.381  52.674  1.00  0.00    -0.351 N 
ATOM     12  H   UNL     1       6.466  47.296  53.677  1.00  0.00     0.164 HD
BRANCH  11  13
ATOM     13  C   UNL     1       7.858  47.851  52.220  1.00  0.00     0.143 C 
BRANCH  13  14
ATOM     14  C   UNL     1       8.805  47.732  53.377  1.00  0.00    -0.014 C 
ATOM     15  C   UNL     1       9.918  46.984  53.377  1.00  0.00     0.006 C 
ENDBRANCH  13  14
ENDBRANCH  11  13
ENDBRANCH   1  11
BRANCH   3  16
ATOM     16  N   UNL     1       3.527  43.778  52.623  1.00  0.00    -0.339 N 
ATOM     17  H   UNL     1       2.971  43.470  51.827  1.00  0.00     0.168 HD
BRANCH  16  18
ATOM     18  C   UNL     1       2.700  44.280  53.647  1.00  0.00     0.040 A 
ATOM     19  C   UNL     1       3.298  44.970  54.708  1.00  0.00     0.027 A 
ATOM     20  C   UNL     1       1.317  44.066  53.690  1.00  0.00     0.027 A 
ATOM     21  C   UNL     1       2.531  45.466  55.766  1.00  0.00     0.014 A 
ATOM     22  C   UNL     1       0.543  44.562  54.747  1.00  0.00     0.014 A 
ATOM     23  C   UNL     1       1.146  45.269  55.791  1.00  0.00     0.017 A 
BRANCH  23  24
ATOM     24  C   UNL     1       0.368  45.817  56.942  1.00  0.00     0.159 C 
ATOM     25  C   UNL     1      -1.129  45.934  56.820  1.00  0.00     0.093 C 
ATOM     26  O   UNL     1       0.951  46.163  57.967  1.00  0.00    -0.295 OA
ENDBRANCH  23  24
ENDBRANCH  16  18
ENDBRANCH   3  16
TORSDOF 6
ENDMDL
MODEL 19
REMARK VINA RESULT:    -7.550      2.791      3.872
REMARK INTER + INTRA:         -10.811
REMARK INTER:                 -10.005
REMARK INTRA:                  -0.806
REMARK UNBOUND:                -0.612
REMARK SMILES C=CCNc1nc(Nc2ccc(C(C)=O)cc2)c2cnn(C)c2n1
REMARK SMILES IDX 5 1 6 2 7 3 18 4 19 5 20 6 21 7 22 8 23 9 24 10 4 11 3 13
REMARK SMILES IDX 2 14 1 15 8 16 9 18 10 19 17 20 11 21 16 22 12 23 13 24
REMARK SMILES IDX 14 25 15 26
REMARK H PARENT 4 12 8 17
ROOT
ATOM      1  C   UNL     1       0.651  44.115  51.997  1.00  0.00     0.226 A 
ATOM      2  N   UNL     1       1.979  43.898  52.081  1.00  0.00    -0.195 NA
ATOM      3  C   UNL     1       2.625  44.057  53.262  1.00  0.00     0.147 A 
ATOM      4  C   UNL     1       1.881  44.504  54.355  1.00  0.00     0.082 A 
ATOM      5  C   UNL     1       2.088  44.863  55.703  1.00  0.00     0.149 A 
ATOM      6  N   UNL     1       0.959  45.230  56.323  1.00  0.00    -0.179 NA
ATOM      7  N   UNL     1       0.025  45.125  55.350  1.00  0.00    -0.250 N 
ATOM      8  C   UNL     1      -1.347  45.455  55.645  1.00  0.00     0.176 C 
ATOM      9  C   UNL     1       0.530  44.704  54.149  1.00  0.00     0.165 A 
ATOM     10  N   UNL     1      -0.138  44.521  53.000  1.00  0.00    -0.193 NA
ENDROOT
BRANCH   1  11
ATOM     11  N   UNL     1      -0.002  43.916  50.788  1.00  0.00    -0.351 N 
ATOM     12  H   UNL     1       0.697  43.576  50.140  1.00  0.00     0.164 HD
BRANCH  11  13
ATOM     13  C   UNL     1      -1.201  43.115  50.885  1.00  0.00     0.143 C 
BRANCH  13  14
ATOM     14  C   UNL     1      -2.252  43.788  50.053  1.00  0.00    -0.014 C 
ATOM     15  C   UNL     1      -2.680  45.045  50.238  1.00  0.00     0.006 C 
ENDBRANCH  13  14
ENDBRANCH  11  13
ENDBRANCH   1  11
BRANCH   3  16
ATOM     16  N   UNL     1       4.006  43.811  53.270  1.00  0.00    -0.339 N 
ATOM     17  H   UNL     1       4.188  43.188  54.055  1.00  0.00     0.168 HD
BRANCH  16  18
ATOM     18  C   UNL     1       5.055  44.739  53.114  1.00  0.00     0.040 A 
ATOM     19  C   UNL     1       5.691  45.225  54.263  1.00  0.00     0.027 A 
ATOM     20  C   UNL     1       5.450  45.247  51.871  1.00  0.00     0.027 A 
ATOM     21  C   UNL     1       6.719  46.167  54.170  1.00  0.00     0.014 A 
ATOM     22  C   UNL     1       6.480  46.191  51.772  1.00  0.00     0.014 A 
ATOM     23  C   UNL     1       7.125  46.654  52.923  1.00  0.00     0.017 A 
BRANCH  23  24
ATOM     24  C   UNL     1       8.228  47.659  52.874  1.00  0.00     0.159 C 
ATOM     25  C   UNL     1       9.614  47.242  53.292  1.00  0.00     0.093 C 
ATOM     26  O   UNL     1       7.997  48.805  52.494  1.00  0.00    -0.295 OA
ENDBRANCH  23  24
ENDBRANCH  16  18
ENDBRANCH   3  16
TORSDOF 6
ENDMDL
