MODEL 1
REMARK VINA RESULT:    -9.538      0.000      0.000
REMARK INTER + INTRA:         -15.280
REMARK INTER:                 -13.720
REMARK INTRA:                  -1.561
REMARK UNBOUND:                -1.561
REMARK SMILES COC(=O)c1ccc(CNc2nc(Nc3ccc(C)cc3O)c3cnn(C)c3n2)cc1
REMARK SMILES IDX 10 1 9 3 8 4 5 5 6 6 31 7 7 8 30 9 3 10 4 11 2 12 1 13 11 14
REMARK SMILES IDX 12 15 29 16 13 17 28 18 23 19 26 20 24 21 25 22 27 23 14 24
REMARK SMILES IDX 15 26 16 27 21 28 17 29 20 30 18 31 19 32 22 33
REMARK H PARENT 10 2 14 25 22 34
ROOT
ATOM      1  N   UNL     1       2.388  44.889  55.895  1.00  0.00    -0.350 N 
ATOM      2  H   UNL     1       1.836  44.747  56.734  1.00  0.00     0.164 HD
ENDROOT
BRANCH   1   3
ATOM      3  C   UNL     1       2.734  46.267  55.622  1.00  0.00     0.152 C 
BRANCH   3   4
ATOM      4  C   UNL     1       4.034  46.303  54.848  1.00  0.00    -0.029 A 
ATOM      5  C   UNL     1       6.471  46.372  53.434  1.00  0.00     0.060 A 
ATOM      6  C   UNL     1       5.417  47.222  53.073  1.00  0.00     0.016 A 
ATOM      7  C   UNL     1       6.303  45.489  54.508  1.00  0.00     0.016 A 
ATOM      8  C   UNL     1       4.208  47.190  53.776  1.00  0.00     0.006 A 
ATOM      9  C   UNL     1       5.095  45.459  55.210  1.00  0.00     0.006 A 
BRANCH   5  10
ATOM     10  C   UNL     1       7.734  46.450  52.651  1.00  0.00     0.337 C 
ATOM     11  O   UNL     1       7.773  46.704  51.457  1.00  0.00    -0.246 OA
BRANCH  10  12
ATOM     12  O   UNL     1       8.807  46.200  53.444  1.00  0.00    -0.465 OA
ATOM     13  C   UNL     1       9.661  47.328  53.637  1.00  0.00     0.282 C 
ENDBRANCH  10  12
ENDBRANCH   5  10
ENDBRANCH   3   4
ENDBRANCH   1   3
BRANCH   1  14
ATOM     14  C   UNL     1       1.694  44.269  54.862  1.00  0.00     0.227 A 
ATOM     15  N   UNL     1       2.379  43.694  53.855  1.00  0.00    -0.195 NA
ATOM     16  N   UNL     1       0.361  44.316  54.973  1.00  0.00    -0.193 NA
ATOM     17  C   UNL     1       1.731  43.081  52.829  1.00  0.00     0.147 A 
ATOM     18  C   UNL     1      -0.264  43.706  53.957  1.00  0.00     0.165 A 
ATOM     19  C   UNL     1       0.332  43.085  52.877  1.00  0.00     0.082 A 
ATOM     20  N   UNL     1      -1.613  43.570  53.773  1.00  0.00    -0.250 N 
ATOM     21  C   UNL     1      -0.750  42.614  52.103  1.00  0.00     0.149 A 
ATOM     22  N   UNL     1      -1.940  42.908  52.638  1.00  0.00    -0.179 NA
ATOM     23  C   UNL     1      -2.659  44.048  54.642  1.00  0.00     0.176 C 
BRANCH  17  24
ATOM     24  N   UNL     1       2.417  42.488  51.767  1.00  0.00    -0.336 N 
ATOM     25  H   UNL     1       1.920  41.750  51.278  1.00  0.00     0.168 HD
BRANCH  24  26
ATOM     26  C   UNL     1       3.678  42.707  51.186  1.00  0.00     0.082 A 
ATOM     27  C   UNL     1       4.378  43.912  51.250  1.00  0.00     0.030 A 
ATOM     28  C   UNL     1       4.273  41.645  50.480  1.00  0.00     0.139 A 
ATOM     29  C   UNL     1       5.629  44.051  50.632  1.00  0.00     0.006 A 
ATOM     30  C   UNL     1       5.518  41.770  49.861  1.00  0.00     0.051 A 
ATOM     31  C   UNL     1       6.212  42.980  49.945  1.00  0.00    -0.047 A 
ATOM     32  C   UNL     1       7.536  43.149  49.260  1.00  0.00     0.044 C 
BRANCH  28  33
ATOM     33  O   UNL     1       3.581  40.457  50.416  1.00  0.00    -0.506 OA
ATOM     34  H   UNL     1       3.277  40.337  49.501  1.00  0.00     0.293 HD
ENDBRANCH  28  33
ENDBRANCH  24  26
ENDBRANCH  17  24
ENDBRANCH   1  14
TORSDOF 8
ENDMDL
MODEL 2
REMARK VINA RESULT:    -9.388      3.487      7.187
REMARK INTER + INTRA:         -15.065
REMARK INTER:                 -13.912
REMARK INTRA:                  -1.153
REMARK UNBOUND:                -1.561
REMARK SMILES COC(=O)c1ccc(CNc2nc(Nc3ccc(C)cc3O)c3cnn(C)c3n2)cc1
REMARK SMILES IDX 10 1 9 3 8 4 5 5 6 6 31 7 7 8 30 9 3 10 4 11 2 12 1 13 11 14
REMARK SMILES IDX 12 15 29 16 13 17 28 18 23 19 26 20 24 21 25 22 27 23 14 24
REMARK SMILES IDX 15 26 16 27 21 28 17 29 20 30 18 31 19 32 22 33
REMARK H PARENT 10 2 14 25 22 34
ROOT
ATOM      1  N   UNL     1       3.345  43.267  52.916  1.00  0.00    -0.350 N 
ATOM      2  H   UNL     1       3.251  42.258  52.869  1.00  0.00     0.164 HD
ENDROOT
BRANCH   1   3
ATOM      3  C   UNL     1       2.133  44.003  52.625  1.00  0.00     0.152 C 
BRANCH   3   4
ATOM      4  C   UNL     1       1.554  44.527  53.921  1.00  0.00    -0.029 A 
ATOM      5  C   UNL     1       0.455  45.519  56.319  1.00  0.00     0.060 A 
ATOM      6  C   UNL     1       1.831  45.617  56.075  1.00  0.00     0.016 A 
ATOM      7  C   UNL     1      -0.372  44.926  55.356  1.00  0.00     0.016 A 
ATOM      8  C   UNL     1       2.377  45.127  54.884  1.00  0.00     0.006 A 
ATOM      9  C   UNL     1       0.175  44.437  54.166  1.00  0.00     0.006 A 
BRANCH   5  10
ATOM     10  C   UNL     1      -0.071  46.058  57.603  1.00  0.00     0.337 C 
ATOM     11  O   UNL     1      -1.261  46.106  57.876  1.00  0.00    -0.246 OA
BRANCH  10  12
ATOM     12  O   UNL     1       0.943  46.478  58.400  1.00  0.00    -0.465 OA
ATOM     13  C   UNL     1       0.577  47.524  59.301  1.00  0.00     0.282 C 
ENDBRANCH  10  12
ENDBRANCH   5  10
ENDBRANCH   3   4
ENDBRANCH   1   3
BRANCH   1  14
ATOM     14  C   UNL     1       4.414  43.598  52.092  1.00  0.00     0.227 A 
ATOM     15  N   UNL     1       5.117  44.720  52.339  1.00  0.00    -0.195 NA
ATOM     16  N   UNL     1       4.640  42.739  51.091  1.00  0.00    -0.193 NA
ATOM     17  C   UNL     1       6.168  45.074  51.552  1.00  0.00     0.147 A 
ATOM     18  C   UNL     1       5.680  43.099  50.325  1.00  0.00     0.165 A 
ATOM     19  C   UNL     1       6.470  44.221  50.484  1.00  0.00     0.082 A 
ATOM     20  N   UNL     1       6.176  42.440  49.234  1.00  0.00    -0.250 N 
ATOM     21  C   UNL     1       7.406  44.141  49.431  1.00  0.00     0.149 A 
ATOM     22  N   UNL     1       7.232  43.061  48.661  1.00  0.00    -0.179 NA
ATOM     23  C   UNL     1       5.690  41.204  48.674  1.00  0.00     0.176 C 
BRANCH  17  24
ATOM     24  N   UNL     1       6.906  46.238  51.779  1.00  0.00    -0.336 N 
ATOM     25  H   UNL     1       6.673  47.030  51.187  1.00  0.00     0.168 HD
BRANCH  24  26
ATOM     26  C   UNL     1       7.918  46.581  52.693  1.00  0.00     0.082 A 
ATOM     27  C   UNL     1       9.283  46.421  52.455  1.00  0.00     0.030 A 
ATOM     28  C   UNL     1       7.531  47.110  53.937  1.00  0.00     0.139 A 
ATOM     29  C   UNL     1      10.228  46.779  53.426  1.00  0.00     0.006 A 
ATOM     30  C   UNL     1       8.461  47.471  54.913  1.00  0.00     0.051 A 
ATOM     31  C   UNL     1       9.827  47.316  54.655  1.00  0.00    -0.047 A 
ATOM     32  C   UNL     1      10.845  47.665  55.699  1.00  0.00     0.044 C 
BRANCH  28  33
ATOM     33  O   UNL     1       6.183  47.266  54.172  1.00  0.00    -0.506 OA
ATOM     34  H   UNL     1       6.079  47.855  54.938  1.00  0.00     0.293 HD
ENDBRANCH  28  33
ENDBRANCH  24  26
ENDBRANCH  17  24
ENDBRANCH   1  14
TORSDOF 8
ENDMDL
MODEL 3
REMARK VINA RESULT:    -9.165      3.400      7.654
REMARK INTER + INTRA:         -14.745
REMARK INTER:                 -13.738
REMARK INTRA:                  -1.007
REMARK UNBOUND:                -1.561
REMARK SMILES COC(=O)c1ccc(CNc2nc(Nc3ccc(C)cc3O)c3cnn(C)c3n2)cc1
REMARK SMILES IDX 10 1 9 3 8 4 5 5 6 6 31 7 7 8 30 9 3 10 4 11 2 12 1 13 11 14
REMARK SMILES IDX 12 15 29 16 13 17 28 18 23 19 26 20 24 21 25 22 27 23 14 24
REMARK SMILES IDX 15 26 16 27 21 28 17 29 20 30 18 31 19 32 22 33
REMARK H PARENT 10 2 14 25 22 34
ROOT
ATOM      1  N   UNL     1       3.107  43.829  53.367  1.00  0.00    -0.350 N 
ATOM      2  H   UNL     1       2.367  43.359  52.856  1.00  0.00     0.164 HD
ENDROOT
BRANCH   1   3
ATOM      3  C   UNL     1       2.713  45.070  54.000  1.00  0.00     0.152 C 
BRANCH   3   4
ATOM      4  C   UNL     1       1.439  44.839  54.784  1.00  0.00    -0.029 A 
ATOM      5  C   UNL     1      -0.948  44.418  56.221  1.00  0.00     0.060 A 
ATOM      6  C   UNL     1       0.118  45.116  56.804  1.00  0.00     0.016 A 
ATOM      7  C   UNL     1      -0.817  43.934  54.913  1.00  0.00     0.016 A 
ATOM      8  C   UNL     1       1.302  45.327  56.091  1.00  0.00     0.006 A 
ATOM      9  C   UNL     1       0.367  44.146  54.202  1.00  0.00     0.006 A 
BRANCH   5  10
ATOM     10  C   UNL     1      -2.184  44.223  57.026  1.00  0.00     0.337 C 
ATOM     11  O   UNL     1      -2.536  44.984  57.915  1.00  0.00    -0.246 OA
BRANCH  10  12
ATOM     12  O   UNL     1      -2.842  43.103  56.635  1.00  0.00    -0.465 OA
ATOM     13  C   UNL     1      -3.659  42.525  57.653  1.00  0.00     0.282 C 
ENDBRANCH  10  12
ENDBRANCH   5  10
ENDBRANCH   3   4
ENDBRANCH   1   3
BRANCH   1  14
ATOM     14  C   UNL     1       4.169  43.964  52.481  1.00  0.00     0.227 A 
ATOM     15  N   UNL     1       5.005  45.011  52.604  1.00  0.00    -0.195 NA
ATOM     16  N   UNL     1       4.250  43.004  51.551  1.00  0.00    -0.193 NA
ATOM     17  C   UNL     1       6.054  45.173  51.753  1.00  0.00     0.147 A 
ATOM     18  C   UNL     1       5.288  43.175  50.721  1.00  0.00     0.165 A 
ATOM     19  C   UNL     1       6.208  44.205  50.754  1.00  0.00     0.082 A 
ATOM     20  N   UNL     1       5.656  42.374  49.674  1.00  0.00    -0.250 N 
ATOM     21  C   UNL     1       7.081  43.929  49.680  1.00  0.00     0.149 A 
ATOM     22  N   UNL     1       6.750  42.817  49.013  1.00  0.00    -0.179 NA
ATOM     23  C   UNL     1       5.007  41.162  49.242  1.00  0.00     0.176 C 
BRANCH  17  24
ATOM     24  N   UNL     1       6.929  46.257  51.851  1.00  0.00    -0.336 N 
ATOM     25  H   UNL     1       6.812  46.983  51.151  1.00  0.00     0.168 HD
BRANCH  24  26
ATOM     26  C   UNL     1       7.957  46.593  52.749  1.00  0.00     0.082 A 
ATOM     27  C   UNL     1       9.315  46.385  52.509  1.00  0.00     0.030 A 
ATOM     28  C   UNL     1       7.595  47.167  53.982  1.00  0.00     0.139 A 
ATOM     29  C   UNL     1      10.277  46.740  53.464  1.00  0.00     0.006 A 
ATOM     30  C   UNL     1       8.542  47.526  54.942  1.00  0.00     0.051 A 
ATOM     31  C   UNL     1       9.900  47.323  54.681  1.00  0.00    -0.047 A 
ATOM     32  C   UNL     1      10.936  47.668  55.709  1.00  0.00     0.044 C 
BRANCH  28  33
ATOM     33  O   UNL     1       6.254  47.370  54.220  1.00  0.00    -0.506 OA
ATOM     34  H   UNL     1       6.166  47.807  55.084  1.00  0.00     0.293 HD
ENDBRANCH  28  33
ENDBRANCH  24  26
ENDBRANCH  17  24
ENDBRANCH   1  14
TORSDOF 8
ENDMDL
MODEL 4
REMARK VINA RESULT:    -9.051      3.219      7.489
REMARK INTER + INTRA:         -14.580
REMARK INTER:                 -13.493
REMARK INTRA:                  -1.087
REMARK UNBOUND:                -1.561
REMARK SMILES COC(=O)c1ccc(CNc2nc(Nc3ccc(C)cc3O)c3cnn(C)c3n2)cc1
REMARK SMILES IDX 10 1 9 3 8 4 5 5 6 6 31 7 7 8 30 9 3 10 4 11 2 12 1 13 11 14
REMARK SMILES IDX 12 15 29 16 13 17 28 18 23 19 26 20 24 21 25 22 27 23 14 24
REMARK SMILES IDX 15 26 16 27 21 28 17 29 20 30 18 31 19 32 22 33
REMARK H PARENT 10 2 14 25 22 34
ROOT
ATOM      1  N   UNL     1       4.280  41.845  50.868  1.00  0.00    -0.350 N 
ATOM      2  H   UNL     1       4.140  41.340  51.737  1.00  0.00     0.164 HD
ENDROOT
BRANCH   1   3
ATOM      3  C   UNL     1       5.454  41.449  50.119  1.00  0.00     0.152 C 
BRANCH   3   4
ATOM      4  C   UNL     1       5.066  41.244  48.671  1.00  0.00    -0.029 A 
ATOM      5  C   UNL     1       4.345  40.894  45.969  1.00  0.00     0.060 A 
ATOM      6  C   UNL     1       3.575  40.320  46.989  1.00  0.00     0.016 A 
ATOM      7  C   UNL     1       5.477  41.648  46.306  1.00  0.00     0.016 A 
ATOM      8  C   UNL     1       3.930  40.496  48.330  1.00  0.00     0.006 A 
ATOM      9  C   UNL     1       5.831  41.822  47.647  1.00  0.00     0.006 A 
BRANCH   5  10
ATOM     10  C   UNL     1       3.920  40.675  44.560  1.00  0.00     0.337 C 
ATOM     11  O   UNL     1       2.752  40.572  44.217  1.00  0.00    -0.246 OA
BRANCH  10  12
ATOM     12  O   UNL     1       4.997  40.608  43.737  1.00  0.00    -0.465 OA
ATOM     13  C   UNL     1       5.393  39.276  43.409  1.00  0.00     0.282 C 
ENDBRANCH  10  12
ENDBRANCH   5  10
ENDBRANCH   3   4
ENDBRANCH   1   3
BRANCH   1  14
ATOM     14  C   UNL     1       4.251  43.196  51.193  1.00  0.00     0.227 A 
ATOM     15  N   UNL     1       5.390  43.912  51.151  1.00  0.00    -0.195 NA
ATOM     16  N   UNL     1       3.046  43.666  51.537  1.00  0.00    -0.193 NA
ATOM     17  C   UNL     1       5.397  45.236  51.463  1.00  0.00     0.147 A 
ATOM     18  C   UNL     1       3.066  44.971  51.840  1.00  0.00     0.165 A 
ATOM     19  C   UNL     1       4.171  45.801  51.830  1.00  0.00     0.082 A 
ATOM     20  N   UNL     1       2.010  45.753  52.220  1.00  0.00    -0.250 N 
ATOM     21  C   UNL     1       3.666  47.059  52.225  1.00  0.00     0.149 A 
ATOM     22  N   UNL     1       2.351  47.039  52.470  1.00  0.00    -0.179 NA
ATOM     23  C   UNL     1       0.638  45.341  52.370  1.00  0.00     0.176 C 
BRANCH  17  24
ATOM     24  N   UNL     1       6.567  45.998  51.438  1.00  0.00    -0.336 N 
ATOM     25  H   UNL     1       6.822  46.386  50.535  1.00  0.00     0.168 HD
BRANCH  24  26
ATOM     26  C   UNL     1       7.492  46.383  52.424  1.00  0.00     0.082 A 
ATOM     27  C   UNL     1       7.148  46.916  53.666  1.00  0.00     0.030 A 
ATOM     28  C   UNL     1       8.862  46.234  52.137  1.00  0.00     0.139 A 
ATOM     29  C   UNL     1       8.135  47.285  54.590  1.00  0.00     0.006 A 
ATOM     30  C   UNL     1       9.856  46.597  53.048  1.00  0.00     0.051 A 
ATOM     31  C   UNL     1       9.493  47.118  54.293  1.00  0.00    -0.047 A 
ATOM     32  C   UNL     1      10.542  47.547  55.276  1.00  0.00     0.044 C 
BRANCH  28  33
ATOM     33  O   UNL     1       9.202  45.710  50.911  1.00  0.00    -0.506 OA
ATOM     34  H   UNL     1       9.368  46.451  50.304  1.00  0.00     0.293 HD
ENDBRANCH  28  33
ENDBRANCH  24  26
ENDBRANCH  17  24
ENDBRANCH   1  14
TORSDOF 8
ENDMDL
MODEL 5
REMARK VINA RESULT:    -9.039      3.267      7.659
REMARK INTER + INTRA:         -14.563
REMARK INTER:                 -13.576
REMARK INTRA:                  -0.987
REMARK UNBOUND:                -1.561
REMARK SMILES COC(=O)c1ccc(CNc2nc(Nc3ccc(C)cc3O)c3cnn(C)c3n2)cc1
REMARK SMILES IDX 10 1 9 3 8 4 5 5 6 6 31 7 7 8 30 9 3 10 4 11 2 12 1 13 11 14
REMARK SMILES IDX 12 15 29 16 13 17 28 18 23 19 26 20 24 21 25 22 27 23 14 24
REMARK SMILES IDX 15 26 16 27 21 28 17 29 20 30 18 31 19 32 22 33
REMARK H PARENT 10 2 14 25 22 34
ROOT
ATOM      1  N   UNL     1       5.326  41.860  50.636  1.00  0.00    -0.350 N 
ATOM      2  H   UNL     1       5.686  41.459  51.495  1.00  0.00     0.164 HD
ENDROOT
BRANCH   1   3
ATOM      3  C   UNL     1       6.216  41.757  49.499  1.00  0.00     0.152 C 
BRANCH   3   4
ATOM      4  C   UNL     1       5.403  41.425  48.267  1.00  0.00    -0.029 A 
ATOM      5  C   UNL     1       3.888  40.776  45.981  1.00  0.00     0.060 A 
ATOM      6  C   UNL     1       5.036  41.571  45.870  1.00  0.00     0.016 A 
ATOM      7  C   UNL     1       3.501  40.302  47.242  1.00  0.00     0.016 A 
ATOM      8  C   UNL     1       5.790  41.891  47.003  1.00  0.00     0.006 A 
ATOM      9  C   UNL     1       4.256  40.623  48.374  1.00  0.00     0.006 A 
BRANCH   5  10
ATOM     10  C   UNL     1       3.125  40.465  44.742  1.00  0.00     0.337 C 
ATOM     11  O   UNL     1       3.628  39.961  43.749  1.00  0.00    -0.246 OA
BRANCH  10  12
ATOM     12  O   UNL     1       1.822  40.820  44.877  1.00  0.00    -0.465 OA
ATOM     13  C   UNL     1       1.593  42.227  44.792  1.00  0.00     0.282 C 
ENDBRANCH  10  12
ENDBRANCH   5  10
ENDBRANCH   3   4
ENDBRANCH   1   3
BRANCH   1  14
ATOM     14  C   UNL     1       4.953  43.164  50.941  1.00  0.00     0.227 A 
ATOM     15  N   UNL     1       5.898  44.117  51.042  1.00  0.00    -0.195 NA
ATOM     16  N   UNL     1       3.639  43.345  51.119  1.00  0.00    -0.193 NA
ATOM     17  C   UNL     1       5.567  45.402  51.339  1.00  0.00     0.147 A 
ATOM     18  C   UNL     1       3.327  44.616  51.409  1.00  0.00     0.165 A 
ATOM     19  C   UNL     1       4.208  45.672  51.536  1.00  0.00     0.082 A 
ATOM     20  N   UNL     1       2.081  45.134  51.639  1.00  0.00    -0.250 N 
ATOM     21  C   UNL     1       3.387  46.776  51.849  1.00  0.00     0.149 A 
ATOM     22  N   UNL     1       2.090  46.458  51.919  1.00  0.00    -0.179 NA
ATOM     23  C   UNL     1       0.829  44.423  51.611  1.00  0.00     0.176 C 
BRANCH  17  24
ATOM     24  N   UNL     1       6.530  46.407  51.462  1.00  0.00    -0.336 N 
ATOM     25  H   UNL     1       6.468  47.161  50.785  1.00  0.00     0.168 HD
BRANCH  24  26
ATOM     26  C   UNL     1       7.588  46.630  52.360  1.00  0.00     0.082 A 
ATOM     27  C   UNL     1       8.921  46.307  52.105  1.00  0.00     0.030 A 
ATOM     28  C   UNL     1       7.285  47.207  53.607  1.00  0.00     0.139 A 
ATOM     29  C   UNL     1       9.916  46.554  53.061  1.00  0.00     0.006 A 
ATOM     30  C   UNL     1       8.265  47.458  54.568  1.00  0.00     0.051 A 
ATOM     31  C   UNL     1       9.598  47.140  54.293  1.00  0.00    -0.047 A 
ATOM     32  C   UNL     1      10.666  47.369  55.321  1.00  0.00     0.044 C 
BRANCH  28  33
ATOM     33  O   UNL     1       5.969  47.524  53.858  1.00  0.00    -0.506 OA
ATOM     34  H   UNL     1       5.623  48.001  53.085  1.00  0.00     0.293 HD
ENDBRANCH  28  33
ENDBRANCH  24  26
ENDBRANCH  17  24
ENDBRANCH   1  14
TORSDOF 8
ENDMDL
MODEL 6
REMARK VINA RESULT:    -8.930      3.467      7.144
REMARK INTER + INTRA:         -14.406
REMARK INTER:                 -13.403
REMARK INTRA:                  -1.003
REMARK UNBOUND:                -1.561
REMARK SMILES COC(=O)c1ccc(CNc2nc(Nc3ccc(C)cc3O)c3cnn(C)c3n2)cc1
REMARK SMILES IDX 10 1 9 3 8 4 5 5 6 6 31 7 7 8 30 9 3 10 4 11 2 12 1 13 11 14
REMARK SMILES IDX 12 15 29 16 13 17 28 18 23 19 26 20 24 21 25 22 27 23 14 24
REMARK SMILES IDX 15 26 16 27 21 28 17 29 20 30 18 31 19 32 22 33
REMARK H PARENT 10 2 14 25 22 34
ROOT
ATOM      1  N   UNL     1       3.438  43.237  53.055  1.00  0.00    -0.350 N 
ATOM      2  H   UNL     1       3.417  42.225  53.114  1.00  0.00     0.164 HD
ENDROOT
BRANCH   1   3
ATOM      3  C   UNL     1       2.169  43.852  52.731  1.00  0.00     0.152 C 
BRANCH   3   4
ATOM      4  C   UNL     1       1.564  44.424  53.995  1.00  0.00    -0.029 A 
ATOM      5  C   UNL     1       0.416  45.502  56.332  1.00  0.00     0.060 A 
ATOM      6  C   UNL     1       1.795  45.599  56.109  1.00  0.00     0.016 A 
ATOM      7  C   UNL     1      -0.390  44.866  55.378  1.00  0.00     0.016 A 
ATOM      8  C   UNL     1       2.366  45.066  54.948  1.00  0.00     0.006 A 
ATOM      9  C   UNL     1       0.181  44.334  54.219  1.00  0.00     0.006 A 
BRANCH   5  10
ATOM     10  C   UNL     1      -0.137  46.087  57.584  1.00  0.00     0.337 C 
ATOM     11  O   UNL     1      -1.333  46.212  57.798  1.00  0.00    -0.246 OA
BRANCH  10  12
ATOM     12  O   UNL     1       0.862  46.453  58.426  1.00  0.00    -0.465 OA
ATOM     13  C   UNL     1       0.543  47.574  59.251  1.00  0.00     0.282 C 
ENDBRANCH  10  12
ENDBRANCH   5  10
ENDBRANCH   3   4
ENDBRANCH   1   3
BRANCH   1  14
ATOM     14  C   UNL     1       4.459  43.555  52.168  1.00  0.00     0.227 A 
ATOM     15  N   UNL     1       5.204  44.656  52.382  1.00  0.00    -0.195 NA
ATOM     16  N   UNL     1       4.598  42.706  51.143  1.00  0.00    -0.193 NA
ATOM     17  C   UNL     1       6.210  44.997  51.533  1.00  0.00     0.147 A 
ATOM     18  C   UNL     1       5.594  43.052  50.315  1.00  0.00     0.165 A 
ATOM     19  C   UNL     1       6.420  44.153  50.436  1.00  0.00     0.082 A 
ATOM     20  N   UNL     1       6.001  42.398  49.184  1.00  0.00    -0.250 N 
ATOM     21  C   UNL     1       7.283  44.066  49.323  1.00  0.00     0.149 A 
ATOM     22  N   UNL     1       7.033  43.003  48.551  1.00  0.00    -0.179 NA
ATOM     23  C   UNL     1       5.449  41.183  48.641  1.00  0.00     0.176 C 
BRANCH  17  24
ATOM     24  N   UNL     1       6.990  46.139  51.726  1.00  0.00    -0.336 N 
ATOM     25  H   UNL     1       6.909  46.855  51.010  1.00  0.00     0.168 HD
BRANCH  24  26
ATOM     26  C   UNL     1       7.874  46.548  52.739  1.00  0.00     0.082 A 
ATOM     27  C   UNL     1       7.480  47.118  53.950  1.00  0.00     0.030 A 
ATOM     28  C   UNL     1       9.254  46.383  52.516  1.00  0.00     0.139 A 
ATOM     29  C   UNL     1       8.430  47.508  54.904  1.00  0.00     0.006 A 
ATOM     30  C   UNL     1      10.210  46.766  53.458  1.00  0.00     0.051 A 
ATOM     31  C   UNL     1       9.798  47.325  54.671  1.00  0.00    -0.047 A 
ATOM     32  C   UNL     1      10.806  47.776  55.686  1.00  0.00     0.044 C 
BRANCH  28  33
ATOM     33  O   UNL     1       9.643  45.821  51.321  1.00  0.00    -0.506 OA
ATOM     34  H   UNL     1       9.895  46.542  50.720  1.00  0.00     0.293 HD
ENDBRANCH  28  33
ENDBRANCH  24  26
ENDBRANCH  17  24
ENDBRANCH   1  14
TORSDOF 8
ENDMDL
MODEL 7
REMARK VINA RESULT:    -8.928      3.233      7.877
REMARK INTER + INTRA:         -14.404
REMARK INTER:                 -13.075
REMARK INTRA:                  -1.329
REMARK UNBOUND:                -1.561
REMARK SMILES COC(=O)c1ccc(CNc2nc(Nc3ccc(C)cc3O)c3cnn(C)c3n2)cc1
REMARK SMILES IDX 10 1 9 3 8 4 5 5 6 6 31 7 7 8 30 9 3 10 4 11 2 12 1 13 11 14
REMARK SMILES IDX 12 15 29 16 13 17 28 18 23 19 26 20 24 21 25 22 27 23 14 24
REMARK SMILES IDX 15 26 16 27 21 28 17 29 20 30 18 31 19 32 22 33
REMARK H PARENT 10 2 14 25 22 34
ROOT
ATOM      1  N   UNL     1       7.728  45.105  49.386  1.00  0.00    -0.350 N 
ATOM      2  H   UNL     1       6.982  45.297  48.726  1.00  0.00     0.164 HD
ENDROOT
BRANCH   1   3
ATOM      3  C   UNL     1       8.177  43.729  49.410  1.00  0.00     0.152 C 
BRANCH   3   4
ATOM      4  C   UNL     1       6.991  42.821  49.164  1.00  0.00    -0.029 A 
ATOM      5  C   UNL     1       4.771  41.152  48.690  1.00  0.00     0.060 A 
ATOM      6  C   UNL     1       5.222  41.378  49.997  1.00  0.00     0.016 A 
ATOM      7  C   UNL     1       5.433  41.768  47.619  1.00  0.00     0.016 A 
ATOM      8  C   UNL     1       6.322  42.209  50.233  1.00  0.00     0.006 A 
ATOM      9  C   UNL     1       6.532  42.597  47.858  1.00  0.00     0.006 A 
BRANCH   5  10
ATOM     10  C   UNL     1       3.595  40.261  48.497  1.00  0.00     0.337 C 
ATOM     11  O   UNL     1       3.115  39.576  49.388  1.00  0.00    -0.246 OA
BRANCH  10  12
ATOM     12  O   UNL     1       3.150  40.321  47.216  1.00  0.00    -0.465 OA
ATOM     13  C   UNL     1       2.992  39.044  46.597  1.00  0.00     0.282 C 
ENDBRANCH  10  12
ENDBRANCH   5  10
ENDBRANCH   3   4
ENDBRANCH   1   3
BRANCH   1  14
ATOM     14  C   UNL     1       7.288  45.573  50.619  1.00  0.00     0.227 A 
ATOM     15  N   UNL     1       5.971  45.574  50.896  1.00  0.00    -0.195 NA
ATOM     16  N   UNL     1       8.258  46.002  51.435  1.00  0.00    -0.193 NA
ATOM     17  C   UNL     1       5.507  46.027  52.091  1.00  0.00     0.147 A 
ATOM     18  C   UNL     1       7.788  46.443  52.611  1.00  0.00     0.165 A 
ATOM     19  C   UNL     1       6.464  46.489  53.002  1.00  0.00     0.082 A 
ATOM     20  N   UNL     1       8.510  46.937  53.662  1.00  0.00    -0.250 N 
ATOM     21  C   UNL     1       6.504  47.032  54.304  1.00  0.00     0.149 A 
ATOM     22  N   UNL     1       7.746  47.313  54.714  1.00  0.00    -0.179 NA
ATOM     23  C   UNL     1       9.942  47.083  53.737  1.00  0.00     0.176 C 
BRANCH  17  24
ATOM     24  N   UNL     1       4.145  46.049  52.399  1.00  0.00    -0.336 N 
ATOM     25  H   UNL     1       3.735  46.971  52.518  1.00  0.00     0.168 HD
BRANCH  24  26
ATOM     26  C   UNL     1       3.172  45.047  52.562  1.00  0.00     0.082 A 
ATOM     27  C   UNL     1       3.435  43.678  52.526  1.00  0.00     0.030 A 
ATOM     28  C   UNL     1       1.839  45.449  52.764  1.00  0.00     0.139 A 
ATOM     29  C   UNL     1       2.403  42.743  52.687  1.00  0.00     0.006 A 
ATOM     30  C   UNL     1       0.802  44.529  52.926  1.00  0.00     0.051 A 
ATOM     31  C   UNL     1       1.084  43.160  52.900  1.00  0.00    -0.047 A 
ATOM     32  C   UNL     1      -0.017  42.152  53.038  1.00  0.00     0.044 C 
BRANCH  28  33
ATOM     33  O   UNL     1       1.580  46.801  52.798  1.00  0.00    -0.506 OA
ATOM     34  H   UNL     1       1.454  47.105  51.883  1.00  0.00     0.293 HD
ENDBRANCH  28  33
ENDBRANCH  24  26
ENDBRANCH  17  24
ENDBRANCH   1  14
TORSDOF 8
ENDMDL
MODEL 8
REMARK VINA RESULT:    -8.906      3.349      7.811
REMARK INTER + INTRA:         -14.372
REMARK INTER:                 -13.394
REMARK INTRA:                  -0.978
REMARK UNBOUND:                -1.561
REMARK SMILES COC(=O)c1ccc(CNc2nc(Nc3ccc(C)cc3O)c3cnn(C)c3n2)cc1
REMARK SMILES IDX 10 1 9 3 8 4 5 5 6 6 31 7 7 8 30 9 3 10 4 11 2 12 1 13 11 14
REMARK SMILES IDX 12 15 29 16 13 17 28 18 23 19 26 20 24 21 25 22 27 23 14 24
REMARK SMILES IDX 15 26 16 27 21 28 17 29 20 30 18 31 19 32 22 33
REMARK H PARENT 10 2 14 25 22 34
ROOT
ATOM      1  N   UNL     1       5.406  41.912  50.505  1.00  0.00    -0.350 N 
ATOM      2  H   UNL     1       5.793  41.501  51.347  1.00  0.00     0.164 HD
ENDROOT
BRANCH   1   3
ATOM      3  C   UNL     1       6.271  41.848  49.346  1.00  0.00     0.152 C 
BRANCH   3   4
ATOM      4  C   UNL     1       5.443  41.469  48.136  1.00  0.00    -0.029 A 
ATOM      5  C   UNL     1       3.902  40.795  45.875  1.00  0.00     0.060 A 
ATOM      6  C   UNL     1       3.524  40.352  47.149  1.00  0.00     0.016 A 
ATOM      7  C   UNL     1       5.054  41.580  45.736  1.00  0.00     0.016 A 
ATOM      8  C   UNL     1       4.287  40.689  48.273  1.00  0.00     0.006 A 
ATOM      9  C   UNL     1       5.815  41.916  46.859  1.00  0.00     0.006 A 
BRANCH   5  10
ATOM     10  C   UNL     1       3.053  40.407  44.716  1.00  0.00     0.337 C 
ATOM     11  O   UNL     1       1.869  40.695  44.623  1.00  0.00    -0.246 OA
BRANCH  10  12
ATOM     12  O   UNL     1       3.773  39.704  43.806  1.00  0.00    -0.465 OA
ATOM     13  C   UNL     1       3.924  38.322  44.129  1.00  0.00     0.282 C 
ENDBRANCH  10  12
ENDBRANCH   5  10
ENDBRANCH   3   4
ENDBRANCH   1   3
BRANCH   1  14
ATOM     14  C   UNL     1       5.016  43.202  50.843  1.00  0.00     0.227 A 
ATOM     15  N   UNL     1       5.949  44.163  50.976  1.00  0.00    -0.195 NA
ATOM     16  N   UNL     1       3.699  43.363  51.019  1.00  0.00    -0.193 NA
ATOM     17  C   UNL     1       5.602  45.435  51.308  1.00  0.00     0.147 A 
ATOM     18  C   UNL     1       3.370  44.621  51.343  1.00  0.00     0.165 A 
ATOM     19  C   UNL     1       4.239  45.683  51.505  1.00  0.00     0.082 A 
ATOM     20  N   UNL     1       2.118  45.118  51.582  1.00  0.00    -0.250 N 
ATOM     21  C   UNL     1       3.403  46.769  51.844  1.00  0.00     0.149 A 
ATOM     22  N   UNL     1       2.109  46.434  51.898  1.00  0.00    -0.179 NA
ATOM     23  C   UNL     1       0.874  44.394  51.527  1.00  0.00     0.176 C 
BRANCH  17  24
ATOM     24  N   UNL     1       6.552  46.447  51.463  1.00  0.00    -0.336 N 
ATOM     25  H   UNL     1       6.485  47.219  50.807  1.00  0.00     0.168 HD
BRANCH  24  26
ATOM     26  C   UNL     1       7.602  46.657  52.373  1.00  0.00     0.082 A 
ATOM     27  C   UNL     1       8.937  46.335  52.126  1.00  0.00     0.030 A 
ATOM     28  C   UNL     1       7.289  47.220  53.624  1.00  0.00     0.139 A 
ATOM     29  C   UNL     1       9.924  46.569  53.094  1.00  0.00     0.006 A 
ATOM     30  C   UNL     1       8.262  47.458  54.596  1.00  0.00     0.051 A 
ATOM     31  C   UNL     1       9.597  47.141  54.329  1.00  0.00    -0.047 A 
ATOM     32  C   UNL     1      10.655  47.356  55.369  1.00  0.00     0.044 C 
BRANCH  28  33
ATOM     33  O   UNL     1       5.972  47.536  53.868  1.00  0.00    -0.506 OA
ATOM     34  H   UNL     1       5.909  47.879  54.775  1.00  0.00     0.293 HD
ENDBRANCH  28  33
ENDBRANCH  24  26
ENDBRANCH  17  24
ENDBRANCH   1  14
TORSDOF 8
ENDMDL
MODEL 9
REMARK VINA RESULT:    -8.797      1.312      1.860
REMARK INTER + INTRA:         -14.215
REMARK INTER:                 -12.940
REMARK INTRA:                  -1.275
REMARK UNBOUND:                -1.561
REMARK SMILES COC(=O)c1ccc(CNc2nc(Nc3ccc(C)cc3O)c3cnn(C)c3n2)cc1
REMARK SMILES IDX 10 1 9 3 8 4 5 5 6 6 31 7 7 8 30 9 3 10 4 11 2 12 1 13 11 14
REMARK SMILES IDX 12 15 29 16 13 17 28 18 23 19 26 20 24 21 25 22 27 23 14 24
REMARK SMILES IDX 15 26 16 27 21 28 17 29 20 30 18 31 19 32 22 33
REMARK H PARENT 10 2 14 25 22 34
ROOT
ATOM      1  N   UNL     1       3.487  45.082  55.638  1.00  0.00    -0.350 N 
ATOM      2  H   UNL     1       3.059  44.890  56.537  1.00  0.00     0.164 HD
ENDROOT
BRANCH   1   3
ATOM      3  C   UNL     1       3.686  46.487  55.349  1.00  0.00     0.152 C 
BRANCH   3   4
ATOM      4  C   UNL     1       4.954  46.646  54.538  1.00  0.00    -0.029 A 
ATOM      5  C   UNL     1       7.299  46.937  53.003  1.00  0.00     0.060 A 
ATOM      6  C   UNL     1       7.284  46.096  54.123  1.00  0.00     0.016 A 
ATOM      7  C   UNL     1       6.134  47.630  52.650  1.00  0.00     0.016 A 
ATOM      8  C   UNL     1       6.120  45.949  54.884  1.00  0.00     0.006 A 
ATOM      9  C   UNL     1       4.972  47.482  53.412  1.00  0.00     0.006 A 
BRANCH   5  10
ATOM     10  C   UNL     1       8.565  47.054  52.230  1.00  0.00     0.337 C 
ATOM     11  O   UNL     1       8.742  47.881  51.348  1.00  0.00    -0.246 OA
BRANCH  10  12
ATOM     12  O   UNL     1       9.467  46.127  52.639  1.00  0.00    -0.465 OA
ATOM     13  C   UNL     1      10.372  45.707  51.617  1.00  0.00     0.282 C 
ENDBRANCH  10  12
ENDBRANCH   5  10
ENDBRANCH   3   4
ENDBRANCH   1   3
BRANCH   1  14
ATOM     14  C   UNL     1       2.717  44.418  54.690  1.00  0.00     0.227 A 
ATOM     15  N   UNL     1       3.304  43.944  53.575  1.00  0.00    -0.195 NA
ATOM     16  N   UNL     1       1.416  44.323  54.989  1.00  0.00    -0.193 NA
ATOM     17  C   UNL     1       2.580  43.290  52.627  1.00  0.00     0.147 A 
ATOM     18  C   UNL     1       0.715  43.675  54.047  1.00  0.00     0.165 A 
ATOM     19  C   UNL     1       1.210  43.146  52.871  1.00  0.00     0.082 A 
ATOM     20  N   UNL     1      -0.625  43.402  54.050  1.00  0.00    -0.250 N 
ATOM     21  C   UNL     1       0.080  42.583  52.239  1.00  0.00     0.149 A 
ATOM     22  N   UNL     1      -1.044  42.737  52.947  1.00  0.00    -0.179 NA
ATOM     23  C   UNL     1      -1.577  43.746  55.075  1.00  0.00     0.176 C 
BRANCH  17  24
ATOM     24  N   UNL     1       3.163  42.799  51.457  1.00  0.00    -0.336 N 
ATOM     25  H   UNL     1       2.567  42.212  50.880  1.00  0.00     0.168 HD
BRANCH  24  26
ATOM     26  C   UNL     1       4.427  42.959  50.862  1.00  0.00     0.082 A 
ATOM     27  C   UNL     1       5.250  41.908  50.459  1.00  0.00     0.030 A 
ATOM     28  C   UNL     1       4.903  44.269  50.670  1.00  0.00     0.139 A 
ATOM     29  C   UNL     1       6.503  42.155  49.883  1.00  0.00     0.006 A 
ATOM     30  C   UNL     1       6.149  44.530  50.097  1.00  0.00     0.051 A 
ATOM     31  C   UNL     1       6.957  43.465  49.687  1.00  0.00    -0.047 A 
ATOM     32  C   UNL     1       8.313  43.718  49.100  1.00  0.00     0.044 C 
BRANCH  28  33
ATOM     33  O   UNL     1       4.092  45.307  51.069  1.00  0.00    -0.506 OA
ATOM     34  H   UNL     1       4.293  45.504  52.000  1.00  0.00     0.293 HD
ENDBRANCH  28  33
ENDBRANCH  24  26
ENDBRANCH  17  24
ENDBRANCH   1  14
TORSDOF 8
ENDMDL
MODEL 10
REMARK VINA RESULT:    -8.744      1.864      4.873
REMARK INTER + INTRA:         -14.139
REMARK INTER:                 -12.851
REMARK INTRA:                  -1.287
REMARK UNBOUND:                -1.561
REMARK SMILES COC(=O)c1ccc(CNc2nc(Nc3ccc(C)cc3O)c3cnn(C)c3n2)cc1
REMARK SMILES IDX 10 1 9 3 8 4 5 5 6 6 31 7 7 8 30 9 3 10 4 11 2 12 1 13 11 14
REMARK SMILES IDX 12 15 29 16 13 17 28 18 23 19 26 20 24 21 25 22 27 23 14 24
REMARK SMILES IDX 15 26 16 27 21 28 17 29 20 30 18 31 19 32 22 33
REMARK H PARENT 10 2 14 25 22 34
ROOT
ATOM      1  N   UNL     1       1.049  42.719  52.956  1.00  0.00    -0.350 N 
ATOM      2  H   UNL     1       1.708  41.982  53.181  1.00  0.00     0.164 HD
ENDROOT
BRANCH   1   3
ATOM      3  C   UNL     1       1.266  43.356  51.674  1.00  0.00     0.152 C 
BRANCH   3   4
ATOM      4  C   UNL     1       2.670  43.044  51.203  1.00  0.00    -0.029 A 
ATOM      5  C   UNL     1       5.284  42.491  50.309  1.00  0.00     0.060 A 
ATOM      6  C   UNL     1       4.278  41.521  50.204  1.00  0.00     0.016 A 
ATOM      7  C   UNL     1       4.977  43.742  50.860  1.00  0.00     0.016 A 
ATOM      8  C   UNL     1       2.980  41.796  50.645  1.00  0.00     0.006 A 
ATOM      9  C   UNL     1       3.679  44.014  51.300  1.00  0.00     0.006 A 
BRANCH   5  10
ATOM     10  C   UNL     1       6.647  42.144  49.823  1.00  0.00     0.337 C 
ATOM     11  O   UNL     1       7.277  41.174  50.217  1.00  0.00    -0.246 OA
BRANCH  10  12
ATOM     12  O   UNL     1       7.074  43.045  48.903  1.00  0.00    -0.465 OA
ATOM     13  C   UNL     1       8.238  43.771  49.299  1.00  0.00     0.282 C 
ENDBRANCH  10  12
ENDBRANCH   5  10
ENDBRANCH   3   4
ENDBRANCH   1   3
BRANCH   1  14
ATOM     14  C   UNL     1       1.068  43.601  54.031  1.00  0.00     0.227 A 
ATOM     15  N   UNL     1       2.173  44.333  54.267  1.00  0.00    -0.195 NA
ATOM     16  N   UNL     1      -0.056  43.627  54.756  1.00  0.00    -0.193 NA
ATOM     17  C   UNL     1       2.226  45.203  55.311  1.00  0.00     0.147 A 
ATOM     18  C   UNL     1       0.009  44.490  55.780  1.00  0.00     0.165 A 
ATOM     19  C   UNL     1       1.084  45.290  56.115  1.00  0.00     0.082 A 
ATOM     20  N   UNL     1      -0.966  44.761  56.701  1.00  0.00    -0.250 N 
ATOM     21  C   UNL     1       0.650  45.997  57.257  1.00  0.00     0.149 A 
ATOM     22  N   UNL     1      -0.596  45.679  57.625  1.00  0.00    -0.179 NA
ATOM     23  C   UNL     1      -2.282  44.180  56.766  1.00  0.00     0.176 C 
BRANCH  17  24
ATOM     24  N   UNL     1       3.364  45.965  55.585  1.00  0.00    -0.336 N 
ATOM     25  H   UNL     1       3.405  46.379  56.511  1.00  0.00     0.168 HD
BRANCH  24  26
ATOM     26  C   UNL     1       4.518  46.280  54.848  1.00  0.00     0.082 A 
ATOM     27  C   UNL     1       4.603  47.315  53.916  1.00  0.00     0.030 A 
ATOM     28  C   UNL     1       5.667  45.494  55.053  1.00  0.00     0.139 A 
ATOM     29  C   UNL     1       5.793  47.556  53.215  1.00  0.00     0.006 A 
ATOM     30  C   UNL     1       6.858  45.723  54.362  1.00  0.00     0.051 A 
ATOM     31  C   UNL     1       6.930  46.771  53.440  1.00  0.00    -0.047 A 
ATOM     32  C   UNL     1       8.187  47.017  52.661  1.00  0.00     0.044 C 
BRANCH  28  33
ATOM     33  O   UNL     1       5.583  44.472  55.972  1.00  0.00    -0.506 OA
ATOM     34  H   UNL     1       6.036  43.697  55.600  1.00  0.00     0.293 HD
ENDBRANCH  28  33
ENDBRANCH  24  26
ENDBRANCH  17  24
ENDBRANCH   1  14
TORSDOF 8
ENDMDL
MODEL 11
REMARK VINA RESULT:    -8.725      3.394      5.608
REMARK INTER + INTRA:         -14.112
REMARK INTER:                 -13.347
REMARK INTRA:                  -0.765
REMARK UNBOUND:                -1.561
REMARK SMILES COC(=O)c1ccc(CNc2nc(Nc3ccc(C)cc3O)c3cnn(C)c3n2)cc1
REMARK SMILES IDX 10 1 9 3 8 4 5 5 6 6 31 7 7 8 30 9 3 10 4 11 2 12 1 13 11 14
REMARK SMILES IDX 12 15 29 16 13 17 28 18 23 19 26 20 24 21 25 22 27 23 14 24
REMARK SMILES IDX 15 26 16 27 21 28 17 29 20 30 18 31 19 32 22 33
REMARK H PARENT 10 2 14 25 22 34
ROOT
ATOM      1  N   UNL     1       8.219  44.519  49.720  1.00  0.00    -0.350 N 
ATOM      2  H   UNL     1       8.918  44.167  50.365  1.00  0.00     0.164 HD
ENDROOT
BRANCH   1   3
ATOM      3  C   UNL     1       7.970  45.942  49.813  1.00  0.00     0.152 C 
BRANCH   3   4
ATOM      4  C   UNL     1       8.380  46.423  51.188  1.00  0.00    -0.029 A 
ATOM      5  C   UNL     1       9.133  47.347  53.742  1.00  0.00     0.060 A 
ATOM      6  C   UNL     1      10.043  46.637  52.947  1.00  0.00     0.016 A 
ATOM      7  C   UNL     1       7.845  47.597  53.253  1.00  0.00     0.016 A 
ATOM      8  C   UNL     1       9.670  46.180  51.679  1.00  0.00     0.006 A 
ATOM      9  C   UNL     1       7.474  47.140  51.985  1.00  0.00     0.006 A 
BRANCH   5  10
ATOM     10  C   UNL     1       9.584  47.810  55.082  1.00  0.00     0.337 C 
ATOM     11  O   UNL     1       9.091  48.762  55.667  1.00  0.00    -0.246 OA
BRANCH  10  12
ATOM     12  O   UNL     1      10.599  47.036  55.543  1.00  0.00    -0.465 OA
ATOM     13  C   UNL     1      11.342  47.628  56.608  1.00  0.00     0.282 C 
ENDBRANCH  10  12
ENDBRANCH   5  10
ENDBRANCH   3   4
ENDBRANCH   1   3
BRANCH   1  14
ATOM     14  C   UNL     1       7.085  43.737  49.908  1.00  0.00     0.227 A 
ATOM     15  N   UNL     1       6.830  42.726  49.057  1.00  0.00    -0.195 NA
ATOM     16  N   UNL     1       6.326  44.090  50.952  1.00  0.00    -0.193 NA
ATOM     17  C   UNL     1       5.729  41.942  49.211  1.00  0.00     0.147 A 
ATOM     18  C   UNL     1       5.246  43.308  51.094  1.00  0.00     0.165 A 
ATOM     19  C   UNL     1       4.887  42.247  50.286  1.00  0.00     0.082 A 
ATOM     20  N   UNL     1       4.279  43.394  52.058  1.00  0.00    -0.250 N 
ATOM     21  C   UNL     1       3.685  41.769  50.852  1.00  0.00     0.149 A 
ATOM     22  N   UNL     1       3.303  42.464  51.929  1.00  0.00    -0.179 NA
ATOM     23  C   UNL     1       4.216  44.343  53.140  1.00  0.00     0.176 C 
BRANCH  17  24
ATOM     24  N   UNL     1       5.435  40.894  48.336  1.00  0.00    -0.336 N 
ATOM     25  H   UNL     1       5.836  39.993  48.577  1.00  0.00     0.168 HD
BRANCH  24  26
ATOM     26  C   UNL     1       4.662  40.798  47.166  1.00  0.00     0.082 A 
ATOM     27  C   UNL     1       4.979  41.415  45.956  1.00  0.00     0.030 A 
ATOM     28  C   UNL     1       3.480  40.037  47.218  1.00  0.00     0.139 A 
ATOM     29  C   UNL     1       4.146  41.275  44.837  1.00  0.00     0.006 A 
ATOM     30  C   UNL     1       2.641  39.890  46.112  1.00  0.00     0.051 A 
ATOM     31  C   UNL     1       2.979  40.504  44.903  1.00  0.00    -0.047 A 
ATOM     32  C   UNL     1       2.079  40.390  43.710  1.00  0.00     0.044 C 
BRANCH  28  33
ATOM     33  O   UNL     1       3.166  39.430  48.413  1.00  0.00    -0.506 OA
ATOM     34  H   UNL     1       2.464  38.778  48.242  1.00  0.00     0.293 HD
ENDBRANCH  28  33
ENDBRANCH  24  26
ENDBRANCH  17  24
ENDBRANCH   1  14
TORSDOF 8
ENDMDL
MODEL 12
REMARK VINA RESULT:    -8.680      3.266      6.867
REMARK INTER + INTRA:         -14.047
REMARK INTER:                 -12.468
REMARK INTRA:                  -1.579
REMARK UNBOUND:                -1.561
REMARK SMILES COC(=O)c1ccc(CNc2nc(Nc3ccc(C)cc3O)c3cnn(C)c3n2)cc1
REMARK SMILES IDX 10 1 9 3 8 4 5 5 6 6 31 7 7 8 30 9 3 10 4 11 2 12 1 13 11 14
REMARK SMILES IDX 12 15 29 16 13 17 28 18 23 19 26 20 24 21 25 22 27 23 14 24
REMARK SMILES IDX 15 26 16 27 21 28 17 29 20 30 18 31 19 32 22 33
REMARK H PARENT 10 2 14 25 22 34
ROOT
ATOM      1  N   UNL     1       4.601  47.807  53.629  1.00  0.00    -0.350 N 
ATOM      2  H   UNL     1       4.784  48.739  53.983  1.00  0.00     0.164 HD
ENDROOT
BRANCH   1   3
ATOM      3  C   UNL     1       3.871  46.946  54.536  1.00  0.00     0.152 C 
BRANCH   3   4
ATOM      4  C   UNL     1       3.059  45.957  53.728  1.00  0.00    -0.029 A 
ATOM      5  C   UNL     1       1.572  44.098  52.221  1.00  0.00     0.060 A 
ATOM      6  C   UNL     1       1.518  45.464  51.915  1.00  0.00     0.016 A 
ATOM      7  C   UNL     1       2.376  43.664  53.283  1.00  0.00     0.016 A 
ATOM      8  C   UNL     1       2.258  46.387  52.661  1.00  0.00     0.006 A 
ATOM      9  C   UNL     1       3.114  44.587  54.027  1.00  0.00     0.006 A 
BRANCH   5  10
ATOM     10  C   UNL     1       0.765  43.161  51.393  1.00  0.00     0.337 C 
ATOM     11  O   UNL     1       0.919  43.022  50.189  1.00  0.00    -0.246 OA
BRANCH  10  12
ATOM     12  O   UNL     1      -0.144  42.504  52.157  1.00  0.00    -0.465 OA
ATOM     13  C   UNL     1      -1.445  43.091  52.143  1.00  0.00     0.282 C 
ENDBRANCH  10  12
ENDBRANCH   5  10
ENDBRANCH   3   4
ENDBRANCH   1   3
BRANCH   1  14
ATOM     14  C   UNL     1       5.828  47.291  53.232  1.00  0.00     0.227 A 
ATOM     15  N   UNL     1       5.885  46.449  52.183  1.00  0.00    -0.195 NA
ATOM     16  N   UNL     1       6.871  47.692  53.969  1.00  0.00    -0.193 NA
ATOM     17  C   UNL     1       7.070  45.925  51.770  1.00  0.00     0.147 A 
ATOM     18  C   UNL     1       8.033  47.170  53.549  1.00  0.00     0.165 A 
ATOM     19  C   UNL     1       8.210  46.302  52.489  1.00  0.00     0.082 A 
ATOM     20  N   UNL     1       9.278  47.383  54.075  1.00  0.00    -0.250 N 
ATOM     21  C   UNL     1       9.599  46.053  52.470  1.00  0.00     0.149 A 
ATOM     22  N   UNL     1      10.258  46.704  53.435  1.00  0.00    -0.179 NA
ATOM     23  C   UNL     1       9.612  48.226  55.194  1.00  0.00     0.176 C 
BRANCH  17  24
ATOM     24  N   UNL     1       7.155  45.040  50.692  1.00  0.00    -0.336 N 
ATOM     25  H   UNL     1       7.938  45.186  50.062  1.00  0.00     0.168 HD
BRANCH  24  26
ATOM     26  C   UNL     1       6.386  43.938  50.282  1.00  0.00     0.082 A 
ATOM     27  C   UNL     1       5.154  43.584  50.834  1.00  0.00     0.030 A 
ATOM     28  C   UNL     1       6.895  43.125  49.253  1.00  0.00     0.139 A 
ATOM     29  C   UNL     1       4.455  42.460  50.373  1.00  0.00     0.006 A 
ATOM     30  C   UNL     1       6.210  42.003  48.784  1.00  0.00     0.051 A 
ATOM     31  C   UNL     1       4.971  41.669  49.339  1.00  0.00    -0.047 A 
ATOM     32  C   UNL     1       4.230  40.450  48.876  1.00  0.00     0.044 C 
BRANCH  28  33
ATOM     33  O   UNL     1       8.111  43.472  48.709  1.00  0.00    -0.506 OA
ATOM     34  H   UNL     1       8.659  43.849  49.419  1.00  0.00     0.293 HD
ENDBRANCH  28  33
ENDBRANCH  24  26
ENDBRANCH  17  24
ENDBRANCH   1  14
TORSDOF 8
ENDMDL
MODEL 13
REMARK VINA RESULT:    -8.671      1.952      4.857
REMARK INTER + INTRA:         -14.033
REMARK INTER:                 -12.437
REMARK INTRA:                  -1.596
REMARK UNBOUND:                -1.561
REMARK SMILES COC(=O)c1ccc(CNc2nc(Nc3ccc(C)cc3O)c3cnn(C)c3n2)cc1
REMARK SMILES IDX 10 1 9 3 8 4 5 5 6 6 31 7 7 8 30 9 3 10 4 11 2 12 1 13 11 14
REMARK SMILES IDX 12 15 29 16 13 17 28 18 23 19 26 20 24 21 25 22 27 23 14 24
REMARK SMILES IDX 15 26 16 27 21 28 17 29 20 30 18 31 19 32 22 33
REMARK H PARENT 10 2 14 25 22 34
ROOT
ATOM      1  N   UNL     1       0.373  43.331  53.058  1.00  0.00    -0.350 N 
ATOM      2  H   UNL     1       0.859  42.450  53.189  1.00  0.00     0.164 HD
ENDROOT
BRANCH   1   3
ATOM      3  C   UNL     1       0.656  43.999  51.805  1.00  0.00     0.152 C 
BRANCH   3   4
ATOM      4  C   UNL     1       2.094  43.728  51.419  1.00  0.00    -0.029 A 
ATOM      5  C   UNL     1       4.769  43.245  50.676  1.00  0.00     0.060 A 
ATOM      6  C   UNL     1       3.878  42.178  50.855  1.00  0.00     0.016 A 
ATOM      7  C   UNL     1       4.315  44.557  50.867  1.00  0.00     0.016 A 
ATOM      8  C   UNL     1       2.550  42.417  51.221  1.00  0.00     0.006 A 
ATOM      9  C   UNL     1       2.987  44.794  51.233  1.00  0.00     0.006 A 
BRANCH   5  10
ATOM     10  C   UNL     1       6.170  42.932  50.286  1.00  0.00     0.337 C 
ATOM     11  O   UNL     1       6.584  41.795  50.113  1.00  0.00    -0.246 OA
BRANCH  10  12
ATOM     12  O   UNL     1       6.900  44.069  50.157  1.00  0.00    -0.465 OA
ATOM     13  C   UNL     1       8.053  43.927  49.327  1.00  0.00     0.282 C 
ENDBRANCH  10  12
ENDBRANCH   5  10
ENDBRANCH   3   4
ENDBRANCH   1   3
BRANCH   1  14
ATOM     14  C   UNL     1       0.652  44.101  54.180  1.00  0.00     0.227 A 
ATOM     15  N   UNL     1       1.903  44.556  54.377  1.00  0.00    -0.195 NA
ATOM     16  N   UNL     1      -0.393  44.315  54.990  1.00  0.00    -0.193 NA
ATOM     17  C   UNL     1       2.211  45.312  55.466  1.00  0.00     0.147 A 
ATOM     18  C   UNL     1      -0.077  45.062  56.057  1.00  0.00     0.165 A 
ATOM     19  C   UNL     1       1.167  45.581  56.358  1.00  0.00     0.082 A 
ATOM     20  N   UNL     1      -0.909  45.466  57.064  1.00  0.00    -0.250 N 
ATOM     21  C   UNL     1       0.971  46.276  57.571  1.00  0.00     0.149 A 
ATOM     22  N   UNL     1      -0.290  46.208  58.012  1.00  0.00    -0.179 NA
ATOM     23  C   UNL     1      -2.316  45.181  57.193  1.00  0.00     0.176 C 
BRANCH  17  24
ATOM     24  N   UNL     1       3.503  45.786  55.699  1.00  0.00    -0.336 N 
ATOM     25  H   UNL     1       3.684  46.132  56.637  1.00  0.00     0.168 HD
BRANCH  24  26
ATOM     26  C   UNL     1       4.661  45.872  54.906  1.00  0.00     0.082 A 
ATOM     27  C   UNL     1       5.424  44.777  54.501  1.00  0.00     0.030 A 
ATOM     28  C   UNL     1       5.090  47.149  54.502  1.00  0.00     0.139 A 
ATOM     29  C   UNL     1       6.573  44.951  53.718  1.00  0.00     0.006 A 
ATOM     30  C   UNL     1       6.232  47.338  53.722  1.00  0.00     0.051 A 
ATOM     31  C   UNL     1       6.979  46.229  53.313  1.00  0.00    -0.047 A 
ATOM     32  C   UNL     1       8.229  46.407  52.504  1.00  0.00     0.044 C 
BRANCH  28  33
ATOM     33  O   UNL     1       4.338  48.230  54.904  1.00  0.00    -0.506 OA
ATOM     34  H   UNL     1       3.904  47.998  55.742  1.00  0.00     0.293 HD
ENDBRANCH  28  33
ENDBRANCH  24  26
ENDBRANCH  17  24
ENDBRANCH   1  14
TORSDOF 8
ENDMDL
MODEL 14
REMARK VINA RESULT:    -8.662      2.890      7.944
REMARK INTER + INTRA:         -14.020
REMARK INTER:                 -12.868
REMARK INTRA:                  -1.152
REMARK UNBOUND:                -1.561
REMARK SMILES COC(=O)c1ccc(CNc2nc(Nc3ccc(C)cc3O)c3cnn(C)c3n2)cc1
REMARK SMILES IDX 10 1 9 3 8 4 5 5 6 6 31 7 7 8 30 9 3 10 4 11 2 12 1 13 11 14
REMARK SMILES IDX 12 15 29 16 13 17 28 18 23 19 26 20 24 21 25 22 27 23 14 24
REMARK SMILES IDX 15 26 16 27 21 28 17 29 20 30 18 31 19 32 22 33
REMARK H PARENT 10 2 14 25 22 34
ROOT
ATOM      1  N   UNL     1       3.294  43.519  53.205  1.00  0.00    -0.350 N 
ATOM      2  H   UNL     1       2.947  42.593  52.976  1.00  0.00     0.164 HD
ENDROOT
BRANCH   1   3
ATOM      3  C   UNL     1       2.286  44.558  53.217  1.00  0.00     0.152 C 
BRANCH   3   4
ATOM      4  C   UNL     1       0.998  43.999  52.653  1.00  0.00    -0.029 A 
ATOM      5  C   UNL     1      -1.416  42.982  51.615  1.00  0.00     0.060 A 
ATOM      6  C   UNL     1      -0.575  42.167  52.382  1.00  0.00     0.016 A 
ATOM      7  C   UNL     1      -1.048  44.312  51.371  1.00  0.00     0.016 A 
ATOM      8  C   UNL     1       0.622  42.671  52.900  1.00  0.00     0.006 A 
ATOM      9  C   UNL     1       0.149  44.814  51.889  1.00  0.00     0.006 A 
BRANCH   5  10
ATOM     10  C   UNL     1      -2.678  42.393  51.090  1.00  0.00     0.337 C 
ATOM     11  O   UNL     1      -3.278  42.837  50.123  1.00  0.00    -0.246 OA
BRANCH  10  12
ATOM     12  O   UNL     1      -3.052  41.319  51.830  1.00  0.00    -0.465 OA
ATOM     13  C   UNL     1      -3.524  40.217  51.054  1.00  0.00     0.282 C 
ENDBRANCH  10  12
ENDBRANCH   5  10
ENDBRANCH   3   4
ENDBRANCH   1   3
BRANCH   1  14
ATOM     14  C   UNL     1       4.347  43.768  52.332  1.00  0.00     0.227 A 
ATOM     15  N   UNL     1       5.117  44.856  52.517  1.00  0.00    -0.195 NA
ATOM     16  N   UNL     1       4.488  42.869  51.351  1.00  0.00    -0.193 NA
ATOM     17  C   UNL     1       6.155  45.130  51.681  1.00  0.00     0.147 A 
ATOM     18  C   UNL     1       5.515  43.149  50.536  1.00  0.00     0.165 A 
ATOM     19  C   UNL     1       6.369  44.231  50.630  1.00  0.00     0.082 A 
ATOM     20  N   UNL     1       5.932  42.432  49.448  1.00  0.00    -0.250 N 
ATOM     21  C   UNL     1       7.258  44.069  49.546  1.00  0.00     0.149 A 
ATOM     22  N   UNL     1       6.998  42.978  48.817  1.00  0.00    -0.179 NA
ATOM     23  C   UNL     1       5.360  41.209  48.945  1.00  0.00     0.176 C 
BRANCH  17  24
ATOM     24  N   UNL     1       6.961  46.258  51.845  1.00  0.00    -0.336 N 
ATOM     25  H   UNL     1       6.795  47.017  51.191  1.00  0.00     0.168 HD
BRANCH  24  26
ATOM     26  C   UNL     1       7.973  46.601  52.759  1.00  0.00     0.082 A 
ATOM     27  C   UNL     1       9.337  46.427  52.529  1.00  0.00     0.030 A 
ATOM     28  C   UNL     1       7.585  47.148  53.996  1.00  0.00     0.139 A 
ATOM     29  C   UNL     1      10.282  46.787  53.500  1.00  0.00     0.006 A 
ATOM     30  C   UNL     1       8.515  47.512  54.971  1.00  0.00     0.051 A 
ATOM     31  C   UNL     1       9.880  47.342  54.721  1.00  0.00    -0.047 A 
ATOM     32  C   UNL     1      10.897  47.693  55.765  1.00  0.00     0.044 C 
BRANCH  28  33
ATOM     33  O   UNL     1       6.238  47.319  54.223  1.00  0.00    -0.506 OA
ATOM     34  H   UNL     1       5.774  46.541  53.870  1.00  0.00     0.293 HD
ENDBRANCH  28  33
ENDBRANCH  24  26
ENDBRANCH  17  24
ENDBRANCH   1  14
TORSDOF 8
ENDMDL
MODEL 15
REMARK VINA RESULT:    -8.558      3.110      6.281
REMARK INTER + INTRA:         -13.871
REMARK INTER:                 -12.906
REMARK INTRA:                  -0.965
REMARK UNBOUND:                -1.561
REMARK SMILES COC(=O)c1ccc(CNc2nc(Nc3ccc(C)cc3O)c3cnn(C)c3n2)cc1
REMARK SMILES IDX 10 1 9 3 8 4 5 5 6 6 31 7 7 8 30 9 3 10 4 11 2 12 1 13 11 14
REMARK SMILES IDX 12 15 29 16 13 17 28 18 23 19 26 20 24 21 25 22 27 23 14 24
REMARK SMILES IDX 15 26 16 27 21 28 17 29 20 30 18 31 19 32 22 33
REMARK H PARENT 10 2 14 25 22 34
ROOT
ATOM      1  N   UNL     1       2.581  46.498  52.029  1.00  0.00    -0.350 N 
ATOM      2  H   UNL     1       2.060  47.211  51.529  1.00  0.00     0.164 HD
ENDROOT
BRANCH   1   3
ATOM      3  C   UNL     1       3.379  45.630  51.190  1.00  0.00     0.152 C 
BRANCH   3   4
ATOM      4  C   UNL     1       4.844  45.913  51.444  1.00  0.00    -0.029 A 
ATOM      5  C   UNL     1       7.566  46.469  51.919  1.00  0.00     0.060 A 
ATOM      6  C   UNL     1       7.188  45.605  50.883  1.00  0.00     0.016 A 
ATOM      7  C   UNL     1       6.575  47.058  52.716  1.00  0.00     0.016 A 
ATOM      8  C   UNL     1       5.837  45.331  50.645  1.00  0.00     0.006 A 
ATOM      9  C   UNL     1       5.226  46.783  52.477  1.00  0.00     0.006 A 
BRANCH   5  10
ATOM     10  C   UNL     1       9.017  46.726  52.126  1.00  0.00     0.337 C 
ATOM     11  O   UNL     1       9.899  46.132  51.525  1.00  0.00    -0.246 OA
BRANCH  10  12
ATOM     12  O   UNL     1       9.206  47.693  53.059  1.00  0.00    -0.465 OA
ATOM     13  C   UNL     1       9.924  47.252  54.212  1.00  0.00     0.282 C 
ENDBRANCH  10  12
ENDBRANCH   5  10
ENDBRANCH   3   4
ENDBRANCH   1   3
BRANCH   1  14
ATOM     14  C   UNL     1       1.658  45.822  52.818  1.00  0.00     0.227 A 
ATOM     15  N   UNL     1       1.668  46.005  54.152  1.00  0.00    -0.195 NA
ATOM     16  N   UNL     1       0.826  45.018  52.147  1.00  0.00    -0.193 NA
ATOM     17  C   UNL     1       0.780  45.358  54.954  1.00  0.00     0.147 A 
ATOM     18  C   UNL     1      -0.045  44.389  52.948  1.00  0.00     0.165 A 
ATOM     19  C   UNL     1      -0.128  44.501  54.323  1.00  0.00     0.082 A 
ATOM     20  N   UNL     1      -1.027  43.510  52.581  1.00  0.00    -0.250 N 
ATOM     21  C   UNL     1      -1.190  43.643  54.679  1.00  0.00     0.149 A 
ATOM     22  N   UNL     1      -1.742  43.031  53.626  1.00  0.00    -0.179 NA
ATOM     23  C   UNL     1      -1.345  43.075  51.244  1.00  0.00     0.176 C 
BRANCH  17  24
ATOM     24  N   UNL     1       0.777  45.522  56.341  1.00  0.00    -0.336 N 
ATOM     25  H   UNL     1       1.435  44.943  56.855  1.00  0.00     0.168 HD
BRANCH  24  26
ATOM     26  C   UNL     1       0.059  46.355  57.216  1.00  0.00     0.082 A 
ATOM     27  C   UNL     1      -1.284  46.697  57.058  1.00  0.00     0.030 A 
ATOM     28  C   UNL     1       0.741  46.892  58.323  1.00  0.00     0.139 A 
ATOM     29  C   UNL     1      -1.923  47.545  57.973  1.00  0.00     0.006 A 
ATOM     30  C   UNL     1       0.117  47.737  59.243  1.00  0.00     0.051 A 
ATOM     31  C   UNL     1      -1.233  48.061  59.077  1.00  0.00    -0.047 A 
ATOM     32  C   UNL     1      -1.918  48.992  60.031  1.00  0.00     0.044 C 
BRANCH  28  33
ATOM     33  O   UNL     1       2.067  46.555  58.479  1.00  0.00    -0.506 OA
ATOM     34  H   UNL     1       2.442  47.130  59.168  1.00  0.00     0.293 HD
ENDBRANCH  28  33
ENDBRANCH  24  26
ENDBRANCH  17  24
ENDBRANCH   1  14
TORSDOF 8
ENDMDL
MODEL 16
REMARK VINA RESULT:    -8.516      2.891      6.002
REMARK INTER + INTRA:         -13.811
REMARK INTER:                 -12.588
REMARK INTRA:                  -1.223
REMARK UNBOUND:                -1.561
REMARK SMILES COC(=O)c1ccc(CNc2nc(Nc3ccc(C)cc3O)c3cnn(C)c3n2)cc1
REMARK SMILES IDX 10 1 9 3 8 4 5 5 6 6 31 7 7 8 30 9 3 10 4 11 2 12 1 13 11 14
REMARK SMILES IDX 12 15 29 16 13 17 28 18 23 19 26 20 24 21 25 22 27 23 14 24
REMARK SMILES IDX 15 26 16 27 21 28 17 29 20 30 18 31 19 32 22 33
REMARK H PARENT 10 2 14 25 22 34
ROOT
ATOM      1  N   UNL     1       7.642  44.127  49.904  1.00  0.00    -0.350 N 
ATOM      2  H   UNL     1       8.198  43.788  50.681  1.00  0.00     0.164 HD
ENDROOT
BRANCH   1   3
ATOM      3  C   UNL     1       7.265  45.523  49.990  1.00  0.00     0.152 C 
BRANCH   3   4
ATOM      4  C   UNL     1       7.837  46.107  51.264  1.00  0.00    -0.029 A 
ATOM      5  C   UNL     1       8.918  47.171  53.639  1.00  0.00     0.060 A 
ATOM      6  C   UNL     1       7.533  47.166  53.430  1.00  0.00     0.016 A 
ATOM      7  C   UNL     1       9.762  46.637  52.656  1.00  0.00     0.016 A 
ATOM      8  C   UNL     1       6.995  46.636  52.252  1.00  0.00     0.006 A 
ATOM      9  C   UNL     1       9.223  46.108  51.480  1.00  0.00     0.006 A 
BRANCH   5  10
ATOM     10  C   UNL     1       9.434  47.746  54.910  1.00  0.00     0.337 C 
ATOM     11  O   UNL     1       8.898  48.674  55.497  1.00  0.00    -0.246 OA
BRANCH  10  12
ATOM     12  O   UNL     1      10.561  47.103  55.307  1.00  0.00    -0.465 OA
ATOM     13  C   UNL     1      11.118  47.606  56.522  1.00  0.00     0.282 C 
ENDBRANCH  10  12
ENDBRANCH   5  10
ENDBRANCH   3   4
ENDBRANCH   1   3
BRANCH   1  14
ATOM     14  C   UNL     1       6.562  43.261  49.788  1.00  0.00     0.227 A 
ATOM     15  N   UNL     1       5.763  43.052  50.851  1.00  0.00    -0.195 NA
ATOM     16  N   UNL     1       6.426  42.690  48.585  1.00  0.00    -0.193 NA
ATOM     17  C   UNL     1       4.699  42.210  50.772  1.00  0.00     0.147 A 
ATOM     18  C   UNL     1       5.372  41.864  48.520  1.00  0.00     0.165 A 
ATOM     19  C   UNL     1       4.487  41.577  49.542  1.00  0.00     0.082 A 
ATOM     20  N   UNL     1       4.951  41.137  47.440  1.00  0.00    -0.250 N 
ATOM     21  C   UNL     1       3.578  40.662  48.969  1.00  0.00     0.149 A 
ATOM     22  N   UNL     1       3.855  40.383  47.690  1.00  0.00    -0.179 NA
ATOM     23  C   UNL     1       5.549  41.107  46.130  1.00  0.00     0.176 C 
BRANCH  17  24
ATOM     24  N   UNL     1       3.862  41.967  51.863  1.00  0.00    -0.336 N 
ATOM     25  H   UNL     1       4.072  41.133  52.403  1.00  0.00     0.168 HD
BRANCH  24  26
ATOM     26  C   UNL     1       2.769  42.656  52.418  1.00  0.00     0.082 A 
ATOM     27  C   UNL     1       1.434  42.404  52.103  1.00  0.00     0.030 A 
ATOM     28  C   UNL     1       3.036  43.679  53.346  1.00  0.00     0.139 A 
ATOM     29  C   UNL     1       0.402  43.145  52.694  1.00  0.00     0.006 A 
ATOM     30  C   UNL     1       2.019  44.425  53.943  1.00  0.00     0.051 A 
ATOM     31  C   UNL     1       0.685  44.152  53.626  1.00  0.00    -0.047 A 
ATOM     32  C   UNL     1      -0.424  44.961  54.228  1.00  0.00     0.044 C 
BRANCH  28  33
ATOM     33  O   UNL     1       4.354  43.929  53.656  1.00  0.00    -0.506 OA
ATOM     34  H   UNL     1       4.832  44.089  52.825  1.00  0.00     0.293 HD
ENDBRANCH  28  33
ENDBRANCH  24  26
ENDBRANCH  17  24
ENDBRANCH   1  14
TORSDOF 8
ENDMDL
MODEL 17
REMARK VINA RESULT:    -8.479      3.387      6.927
REMARK INTER + INTRA:         -13.757
REMARK INTER:                 -13.630
REMARK INTRA:                  -0.127
REMARK UNBOUND:                -1.561
REMARK SMILES COC(=O)c1ccc(CNc2nc(Nc3ccc(C)cc3O)c3cnn(C)c3n2)cc1
REMARK SMILES IDX 10 1 9 3 8 4 5 5 6 6 31 7 7 8 30 9 3 10 4 11 2 12 1 13 11 14
REMARK SMILES IDX 12 15 29 16 13 17 28 18 23 19 26 20 24 21 25 22 27 23 14 24
REMARK SMILES IDX 15 26 16 27 21 28 17 29 20 30 18 31 19 32 22 33
REMARK H PARENT 10 2 14 25 22 34
ROOT
ATOM      1  N   UNL     1       4.832  46.513  54.332  1.00  0.00    -0.350 N 
ATOM      2  H   UNL     1       5.078  47.035  55.166  1.00  0.00     0.164 HD
ENDROOT
BRANCH   1   3
ATOM      3  C   UNL     1       5.014  47.233  53.090  1.00  0.00     0.152 C 
BRANCH   3   4
ATOM      4  C   UNL     1       5.702  46.326  52.093  1.00  0.00    -0.029 A 
ATOM      5  C   UNL     1       6.967  44.612  50.248  1.00  0.00     0.060 A 
ATOM      6  C   UNL     1       7.720  45.511  51.013  1.00  0.00     0.016 A 
ATOM      7  C   UNL     1       5.576  44.569  50.411  1.00  0.00     0.016 A 
ATOM      8  C   UNL     1       7.094  46.360  51.931  1.00  0.00     0.006 A 
ATOM      9  C   UNL     1       4.951  45.419  51.329  1.00  0.00     0.006 A 
BRANCH   5  10
ATOM     10  C   UNL     1       7.686  43.731  49.287  1.00  0.00     0.337 C 
ATOM     11  O   UNL     1       8.842  43.919  48.938  1.00  0.00    -0.246 OA
BRANCH  10  12
ATOM     12  O   UNL     1       6.885  42.719  48.870  1.00  0.00    -0.465 OA
ATOM     13  C   UNL     1       6.887  41.584  49.736  1.00  0.00     0.282 C 
ENDBRANCH  10  12
ENDBRANCH   5  10
ENDBRANCH   3   4
ENDBRANCH   1   3
BRANCH   1  14
ATOM     14  C   UNL     1       3.536  46.052  54.528  1.00  0.00     0.227 A 
ATOM     15  N   UNL     1       3.005  46.072  55.765  1.00  0.00    -0.195 NA
ATOM     16  N   UNL     1       2.924  45.607  53.424  1.00  0.00    -0.193 NA
ATOM     17  C   UNL     1       1.740  45.627  55.992  1.00  0.00     0.147 A 
ATOM     18  C   UNL     1       1.678  45.174  53.661  1.00  0.00     0.165 A 
ATOM     19  C   UNL     1       1.034  45.149  54.883  1.00  0.00     0.082 A 
ATOM     20  N   UNL     1       0.787  44.668  52.754  1.00  0.00    -0.250 N 
ATOM     21  C   UNL     1      -0.237  44.605  54.597  1.00  0.00     0.149 A 
ATOM     22  N   UNL     1      -0.396  44.304  53.303  1.00  0.00    -0.179 NA
ATOM     23  C   UNL     1       0.994  44.499  51.338  1.00  0.00     0.176 C 
BRANCH  17  24
ATOM     24  N   UNL     1       1.172  45.626  57.268  1.00  0.00    -0.336 N 
ATOM     25  H   UNL     1       1.350  44.799  57.830  1.00  0.00     0.168 HD
BRANCH  24  26
ATOM     26  C   UNL     1       0.400  46.557  57.984  1.00  0.00     0.082 A 
ATOM     27  C   UNL     1      -0.886  46.961  57.624  1.00  0.00     0.030 A 
ATOM     28  C   UNL     1       0.963  47.132  59.138  1.00  0.00     0.139 A 
ATOM     29  C   UNL     1      -1.585  47.904  58.390  1.00  0.00     0.006 A 
ATOM     30  C   UNL     1       0.279  48.073  59.910  1.00  0.00     0.051 A 
ATOM     31  C   UNL     1      -1.014  48.458  59.543  1.00  0.00    -0.047 A 
ATOM     32  C   UNL     1      -1.757  49.490  60.336  1.00  0.00     0.044 C 
BRANCH  28  33
ATOM     33  O   UNL     1       2.233  46.735  59.493  1.00  0.00    -0.506 OA
ATOM     34  H   UNL     1       2.716  46.516  58.678  1.00  0.00     0.293 HD
ENDBRANCH  28  33
ENDBRANCH  24  26
ENDBRANCH  17  24
ENDBRANCH   1  14
TORSDOF 8
ENDMDL
MODEL 18
REMARK VINA RESULT:    -8.384      3.379      8.138
REMARK INTER + INTRA:         -13.620
REMARK INTER:                 -12.352
REMARK INTRA:                  -1.268
REMARK UNBOUND:                -1.561
REMARK SMILES COC(=O)c1ccc(CNc2nc(Nc3ccc(C)cc3O)c3cnn(C)c3n2)cc1
REMARK SMILES IDX 10 1 9 3 8 4 5 5 6 6 31 7 7 8 30 9 3 10 4 11 2 12 1 13 11 14
REMARK SMILES IDX 12 15 29 16 13 17 28 18 23 19 26 20 24 21 25 22 27 23 14 24
REMARK SMILES IDX 15 26 16 27 21 28 17 29 20 30 18 31 19 32 22 33
REMARK H PARENT 10 2 14 25 22 34
ROOT
ATOM      1  N   UNL     1       6.686  43.397  49.522  1.00  0.00    -0.350 N 
ATOM      2  H   UNL     1       6.225  43.826  48.728  1.00  0.00     0.164 HD
ENDROOT
BRANCH   1   3
ATOM      3  C   UNL     1       6.384  41.994  49.713  1.00  0.00     0.152 C 
BRANCH   3   4
ATOM      4  C   UNL     1       5.510  41.521  48.572  1.00  0.00    -0.029 A 
ATOM      5  C   UNL     1       3.881  40.668  46.437  1.00  0.00     0.060 A 
ATOM      6  C   UNL     1       3.568  40.310  47.755  1.00  0.00     0.016 A 
ATOM      7  C   UNL     1       5.011  41.458  46.190  1.00  0.00     0.016 A 
ATOM      8  C   UNL     1       4.375  40.735  48.815  1.00  0.00     0.006 A 
ATOM      9  C   UNL     1       5.816  41.882  47.251  1.00  0.00     0.006 A 
BRANCH   5  10
ATOM     10  C   UNL     1       2.987  40.188  45.348  1.00  0.00     0.337 C 
ATOM     11  O   UNL     1       3.395  39.666  44.322  1.00  0.00    -0.246 OA
BRANCH  10  12
ATOM     12  O   UNL     1       1.685  40.416  45.658  1.00  0.00    -0.465 OA
ATOM     13  C   UNL     1       1.169  41.638  45.131  1.00  0.00     0.282 C 
ENDBRANCH  10  12
ENDBRANCH   5  10
ENDBRANCH   3   4
ENDBRANCH   1   3
BRANCH   1  14
ATOM     14  C   UNL     1       6.387  44.190  50.623  1.00  0.00     0.227 A 
ATOM     15  N   UNL     1       5.435  43.792  51.487  1.00  0.00    -0.195 NA
ATOM     16  N   UNL     1       7.098  45.320  50.712  1.00  0.00    -0.193 NA
ATOM     17  C   UNL     1       5.117  44.545  52.574  1.00  0.00     0.147 A 
ATOM     18  C   UNL     1       6.777  46.051  51.788  1.00  0.00     0.165 A 
ATOM     19  C   UNL     1       5.822  45.742  52.738  1.00  0.00     0.082 A 
ATOM     20  N   UNL     1       7.318  47.248  52.173  1.00  0.00    -0.250 N 
ATOM     21  C   UNL     1       5.869  46.823  53.645  1.00  0.00     0.149 A 
ATOM     22  N   UNL     1       6.774  47.748  53.307  1.00  0.00    -0.179 NA
ATOM     23  C   UNL     1       8.363  47.980  51.504  1.00  0.00     0.176 C 
BRANCH  17  24
ATOM     24  N   UNL     1       4.125  44.160  53.479  1.00  0.00    -0.336 N 
ATOM     25  H   UNL     1       4.453  43.845  54.387  1.00  0.00     0.168 HD
BRANCH  24  26
ATOM     26  C   UNL     1       2.720  44.133  53.423  1.00  0.00     0.082 A 
ATOM     27  C   UNL     1       1.887  45.085  54.009  1.00  0.00     0.030 A 
ATOM     28  C   UNL     1       2.108  43.066  52.738  1.00  0.00     0.139 A 
ATOM     29  C   UNL     1       0.493  44.978  53.915  1.00  0.00     0.006 A 
ATOM     30  C   UNL     1       0.721  42.947  52.636  1.00  0.00     0.051 A 
ATOM     31  C   UNL     1      -0.099  43.917  53.219  1.00  0.00    -0.047 A 
ATOM     32  C   UNL     1      -1.592  43.795  53.152  1.00  0.00     0.044 C 
BRANCH  28  33
ATOM     33  O   UNL     1       2.930  42.125  52.160  1.00  0.00    -0.506 OA
ATOM     34  H   UNL     1       3.848  42.433  52.252  1.00  0.00     0.293 HD
ENDBRANCH  28  33
ENDBRANCH  24  26
ENDBRANCH  17  24
ENDBRANCH   1  14
TORSDOF 8
ENDMDL
