MODEL 1
REMARK VINA RESULT:    -8.345      0.000      0.000
REMARK INTER + INTRA:         -12.488
REMARK INTER:                 -11.272
REMARK INTRA:                  -1.216
REMARK UNBOUND:                -1.216
REMARK SMILES Cn1ncc2c(Nc3cccc(Br)c3)nc(NCC[NH+](C)C)nc21
REMARK SMILES IDX 17 1 18 3 19 4 20 5 21 6 22 7 16 9 15 10 23 11 6 12 24 13
REMARK SMILES IDX 5 14 2 15 4 16 3 17 1 18 7 19 8 21 9 22 14 23 10 24 12 25
REMARK SMILES IDX 11 26 13 27
REMARK H PARENT 17 2 20 8 7 20
ROOT
ATOM      1  N   UNL     1       4.690  47.181  54.989  1.00  0.00    -0.348 N 
ATOM      2  H   UNL     1       4.118  47.775  54.387  1.00  0.00     0.163 HD
ENDROOT
BRANCH   1   3
ATOM      3  C   UNL     1       4.078  45.934  55.405  1.00  0.00     0.177 C 
BRANCH   3   4
ATOM      4  C   UNL     1       2.705  45.729  54.728  1.00  0.00     0.283 C 
BRANCH   4   5
ATOM      5  N   UNL     1       2.838  45.371  53.250  1.00  0.00    -0.338 N 
ATOM      6  C   UNL     1       2.212  46.433  52.384  1.00  0.00     0.332 C 
ATOM      7  C   UNL     1       2.294  44.010  52.919  1.00  0.00     0.332 C 
ATOM      8  H   UNL     1       3.842  45.373  53.023  1.00  0.00     0.347 HD
ENDBRANCH   4   5
ENDBRANCH   3   4
ENDBRANCH   1   3
BRANCH   1   9
ATOM      9  C   UNL     1       5.890  47.060  54.294  1.00  0.00     0.226 A 
ATOM     10  N   UNL     1       5.749  46.619  53.038  1.00  0.00    -0.195 NA
ATOM     11  N   UNL     1       7.044  47.369  54.901  1.00  0.00    -0.193 NA
ATOM     12  C   UNL     1       6.826  46.459  52.224  1.00  0.00     0.147 A 
ATOM     13  C   UNL     1       8.103  47.209  54.086  1.00  0.00     0.165 A 
ATOM     14  C   UNL     1       8.076  46.767  52.775  1.00  0.00     0.082 A 
ATOM     15  N   UNL     1       9.421  47.447  54.372  1.00  0.00    -0.250 N 
ATOM     16  C   UNL     1       9.428  46.767  52.376  1.00  0.00     0.149 A 
ATOM     17  N   UNL     1      10.253  47.172  53.346  1.00  0.00    -0.179 NA
ATOM     18  C   UNL     1       9.973  47.940  55.608  1.00  0.00     0.176 C 
BRANCH  12  19
ATOM     19  N   UNL     1       6.696  45.982  50.912  1.00  0.00    -0.339 N 
ATOM     20  H   UNL     1       6.650  46.709  50.211  1.00  0.00     0.168 HD
BRANCH  19  21
ATOM     21  C   UNL     1       6.547  44.684  50.391  1.00  0.00     0.041 A 
ATOM     22  C   UNL     1       7.569  44.172  49.572  1.00  0.00     0.026 A 
ATOM     23  C   UNL     1       5.464  43.847  50.677  1.00  0.00     0.041 A 
ATOM     24  C   UNL     1       7.504  42.877  49.047  1.00  0.00     0.003 A 
ATOM     25  C   UNL     1       5.400  42.553  50.155  1.00  0.00     0.020 A 
ATOM     26  C   UNL     1       6.415  42.062  49.340  1.00  0.00     0.016 A 
ATOM     27  Br  UNL     1       3.915  41.453  50.562  1.00  0.00    -0.051 Br
ENDBRANCH  19  21
ENDBRANCH  12  19
ENDBRANCH   1   9
TORSDOF 6
ENDMDL
MODEL 2
REMARK VINA RESULT:    -7.848      3.008      5.473
REMARK INTER + INTRA:         -11.817
REMARK INTER:                 -11.294
REMARK INTRA:                  -0.523
REMARK UNBOUND:                -1.216
REMARK SMILES Cn1ncc2c(Nc3cccc(Br)c3)nc(NCC[NH+](C)C)nc21
REMARK SMILES IDX 17 1 18 3 19 4 20 5 21 6 22 7 16 9 15 10 23 11 6 12 24 13
REMARK SMILES IDX 5 14 2 15 4 16 3 17 1 18 7 19 8 21 9 22 14 23 10 24 12 25
REMARK SMILES IDX 11 26 13 27
REMARK H PARENT 17 2 20 8 7 20
ROOT
ATOM      1  N   UNL     1       2.507  44.173  54.344  1.00  0.00    -0.348 N 
ATOM      2  H   UNL     1       2.929  43.603  55.078  1.00  0.00     0.163 HD
ENDROOT
BRANCH   1   3
ATOM      3  C   UNL     1       2.063  45.492  54.752  1.00  0.00     0.177 C 
BRANCH   3   4
ATOM      4  C   UNL     1       1.192  45.423  56.025  1.00  0.00     0.283 C 
BRANCH   4   5
ATOM      5  N   UNL     1      -0.270  45.756  55.744  1.00  0.00    -0.338 N 
ATOM      6  C   UNL     1      -0.913  46.400  56.945  1.00  0.00     0.332 C 
ATOM      7  C   UNL     1      -1.067  44.573  55.270  1.00  0.00     0.332 C 
ATOM      8  H   UNL     1      -0.286  46.465  54.998  1.00  0.00     0.347 HD
ENDBRANCH   4   5
ENDBRANCH   3   4
ENDBRANCH   1   3
BRANCH   1   9
ATOM      9  C   UNL     1       3.449  44.145  53.320  1.00  0.00     0.226 A 
ATOM     10  N   UNL     1       4.286  45.191  53.322  1.00  0.00    -0.195 NA
ATOM     11  N   UNL     1       3.449  43.131  52.443  1.00  0.00    -0.193 NA
ATOM     12  C   UNL     1       5.272  45.304  52.393  1.00  0.00     0.147 A 
ATOM     13  C   UNL     1       4.429  43.253  51.529  1.00  0.00     0.165 A 
ATOM     14  C   UNL     1       5.351  44.281  51.438  1.00  0.00     0.082 A 
ATOM     15  N   UNL     1       4.727  42.394  50.504  1.00  0.00    -0.250 N 
ATOM     16  C   UNL     1       6.143  43.947  50.322  1.00  0.00     0.149 A 
ATOM     17  N   UNL     1       5.764  42.803  49.743  1.00  0.00    -0.179 NA
ATOM     18  C   UNL     1       4.067  41.155  50.181  1.00  0.00     0.176 C 
BRANCH  12  19
ATOM     19  N   UNL     1       6.144  46.401  52.371  1.00  0.00    -0.339 N 
ATOM     20  H   UNL     1       5.702  47.275  52.117  1.00  0.00     0.168 HD
BRANCH  19  21
ATOM     21  C   UNL     1       7.533  46.506  52.569  1.00  0.00     0.041 A 
ATOM     22  C   UNL     1       8.384  46.255  51.478  1.00  0.00     0.026 A 
ATOM     23  C   UNL     1       8.122  46.897  53.775  1.00  0.00     0.041 A 
ATOM     24  C   UNL     1       9.773  46.375  51.593  1.00  0.00     0.003 A 
ATOM     25  C   UNL     1       9.509  47.018  53.890  1.00  0.00     0.020 A 
ATOM     26  C   UNL     1      10.339  46.759  52.804  1.00  0.00     0.016 A 
ATOM     27  Br  UNL     1      10.268  47.545  55.542  1.00  0.00    -0.051 Br
ENDBRANCH  19  21
ENDBRANCH  12  19
ENDBRANCH   1   9
TORSDOF 6
ENDMDL
MODEL 3
REMARK VINA RESULT:    -7.814      2.891      5.356
REMARK INTER + INTRA:         -11.771
REMARK INTER:                 -10.889
REMARK INTRA:                  -0.883
REMARK UNBOUND:                -1.216
REMARK SMILES Cn1ncc2c(Nc3cccc(Br)c3)nc(NCC[NH+](C)C)nc21
REMARK SMILES IDX 17 1 18 3 19 4 20 5 21 6 22 7 16 9 15 10 23 11 6 12 24 13
REMARK SMILES IDX 5 14 2 15 4 16 3 17 1 18 7 19 8 21 9 22 14 23 10 24 12 25
REMARK SMILES IDX 11 26 13 27
REMARK H PARENT 17 2 20 8 7 20
ROOT
ATOM      1  N   UNL     1       2.526  44.484  54.563  1.00  0.00    -0.348 N 
ATOM      2  H   UNL     1       3.088  44.808  55.350  1.00  0.00     0.163 HD
ENDROOT
BRANCH   1   3
ATOM      3  C   UNL     1       1.332  45.258  54.283  1.00  0.00     0.177 C 
BRANCH   3   4
ATOM      4  C   UNL     1       0.122  44.342  53.999  1.00  0.00     0.283 C 
BRANCH   4   5
ATOM      5  N   UNL     1       0.233  43.639  52.650  1.00  0.00    -0.338 N 
ATOM      6  C   UNL     1      -0.190  44.557  51.532  1.00  0.00     0.332 C 
ATOM      7  C   UNL     1      -0.515  42.337  52.596  1.00  0.00     0.332 C 
ATOM      8  H   UNL     1       1.230  43.436  52.490  1.00  0.00     0.347 HD
ENDBRANCH   4   5
ENDBRANCH   3   4
ENDBRANCH   1   3
BRANCH   1   9
ATOM      9  C   UNL     1       3.441  44.390  53.518  1.00  0.00     0.226 A 
ATOM     10  N   UNL     1       4.301  45.414  53.454  1.00  0.00    -0.195 NA
ATOM     11  N   UNL     1       3.394  43.340  52.685  1.00  0.00    -0.193 NA
ATOM     12  C   UNL     1       5.265  45.464  52.497  1.00  0.00     0.147 A 
ATOM     13  C   UNL     1       4.353  43.399  51.743  1.00  0.00     0.165 A 
ATOM     14  C   UNL     1       5.296  44.400  51.586  1.00  0.00     0.082 A 
ATOM     15  N   UNL     1       4.605  42.491  50.749  1.00  0.00    -0.250 N 
ATOM     16  C   UNL     1       6.051  43.999  50.465  1.00  0.00     0.149 A 
ATOM     17  N   UNL     1       5.630  42.842  49.945  1.00  0.00    -0.179 NA
ATOM     18  C   UNL     1       3.908  41.256  50.495  1.00  0.00     0.176 C 
BRANCH  12  19
ATOM     19  N   UNL     1       6.162  46.537  52.407  1.00  0.00    -0.339 N 
ATOM     20  H   UNL     1       5.741  47.402  52.094  1.00  0.00     0.168 HD
BRANCH  19  21
ATOM     21  C   UNL     1       7.552  46.624  52.603  1.00  0.00     0.041 A 
ATOM     22  C   UNL     1       8.398  46.380  51.507  1.00  0.00     0.026 A 
ATOM     23  C   UNL     1       8.147  46.990  53.815  1.00  0.00     0.041 A 
ATOM     24  C   UNL     1       9.789  46.483  51.621  1.00  0.00     0.003 A 
ATOM     25  C   UNL     1       9.536  47.095  53.928  1.00  0.00     0.020 A 
ATOM     26  C   UNL     1      10.362  46.842  52.837  1.00  0.00     0.016 A 
ATOM     27  Br  UNL     1      10.304  47.588  55.586  1.00  0.00    -0.051 Br
ENDBRANCH  19  21
ENDBRANCH  12  19
ENDBRANCH   1   9
TORSDOF 6
ENDMDL
MODEL 4
REMARK VINA RESULT:    -7.807      2.863      5.970
REMARK INTER + INTRA:         -11.762
REMARK INTER:                 -10.933
REMARK INTRA:                  -0.829
REMARK UNBOUND:                -1.216
REMARK SMILES Cn1ncc2c(Nc3cccc(Br)c3)nc(NCC[NH+](C)C)nc21
REMARK SMILES IDX 17 1 18 3 19 4 20 5 21 6 22 7 16 9 15 10 23 11 6 12 24 13
REMARK SMILES IDX 5 14 2 15 4 16 3 17 1 18 7 19 8 21 9 22 14 23 10 24 12 25
REMARK SMILES IDX 11 26 13 27
REMARK H PARENT 17 2 20 8 7 20
ROOT
ATOM      1  N   UNL     1       3.717  42.106  51.013  1.00  0.00    -0.348 N 
ATOM      2  H   UNL     1       3.018  42.370  50.318  1.00  0.00     0.163 HD
ENDROOT
BRANCH   1   3
ATOM      3  C   UNL     1       4.933  41.516  50.488  1.00  0.00     0.177 C 
BRANCH   3   4
ATOM      4  C   UNL     1       4.758  41.086  49.016  1.00  0.00     0.283 C 
BRANCH   4   5
ATOM      5  N   UNL     1       5.951  41.484  48.152  1.00  0.00    -0.338 N 
ATOM      6  C   UNL     1       6.672  42.666  48.747  1.00  0.00     0.332 C 
ATOM      7  C   UNL     1       5.586  41.736  46.716  1.00  0.00     0.332 C 
ATOM      8  H   UNL     1       6.620  40.701  48.174  1.00  0.00     0.347 HD
ENDBRANCH   4   5
ENDBRANCH   3   4
ENDBRANCH   1   3
BRANCH   1   9
ATOM      9  C   UNL     1       3.887  43.264  51.768  1.00  0.00     0.226 A 
ATOM     10  N   UNL     1       4.865  44.064  51.325  1.00  0.00    -0.195 NA
ATOM     11  N   UNL     1       3.107  43.482  52.836  1.00  0.00    -0.193 NA
ATOM     12  C   UNL     1       5.148  45.239  51.947  1.00  0.00     0.147 A 
ATOM     13  C   UNL     1       3.394  44.648  53.443  1.00  0.00     0.165 A 
ATOM     14  C   UNL     1       4.374  45.553  53.071  1.00  0.00     0.082 A 
ATOM     15  N   UNL     1       2.786  45.190  54.545  1.00  0.00    -0.250 N 
ATOM     16  C   UNL     1       4.274  46.589  54.021  1.00  0.00     0.149 A 
ATOM     17  N   UNL     1       3.315  46.371  54.926  1.00  0.00    -0.179 NA
ATOM     18  C   UNL     1       1.687  44.639  55.296  1.00  0.00     0.176 C 
BRANCH  12  19
ATOM     19  N   UNL     1       6.180  46.078  51.505  1.00  0.00    -0.339 N 
ATOM     20  H   UNL     1       5.909  46.709  50.762  1.00  0.00     0.168 HD
BRANCH  19  21
ATOM     21  C   UNL     1       7.540  46.164  51.852  1.00  0.00     0.041 A 
ATOM     22  C   UNL     1       8.497  45.735  50.914  1.00  0.00     0.026 A 
ATOM     23  C   UNL     1       8.006  46.698  53.057  1.00  0.00     0.041 A 
ATOM     24  C   UNL     1       9.868  45.824  51.177  1.00  0.00     0.003 A 
ATOM     25  C   UNL     1       9.376  46.788  53.319  1.00  0.00     0.020 A 
ATOM     26  C   UNL     1      10.311  46.353  52.385  1.00  0.00     0.016 A 
ATOM     27  Br  UNL     1       9.967  47.513  54.964  1.00  0.00    -0.051 Br
ENDBRANCH  19  21
ENDBRANCH  12  19
ENDBRANCH   1   9
TORSDOF 6
ENDMDL
MODEL 5
REMARK VINA RESULT:    -7.769      2.738      5.443
REMARK INTER + INTRA:         -11.710
REMARK INTER:                 -10.799
REMARK INTRA:                  -0.911
REMARK UNBOUND:                -1.216
REMARK SMILES Cn1ncc2c(Nc3cccc(Br)c3)nc(NCC[NH+](C)C)nc21
REMARK SMILES IDX 17 1 18 3 19 4 20 5 21 6 22 7 16 9 15 10 23 11 6 12 24 13
REMARK SMILES IDX 5 14 2 15 4 16 3 17 1 18 7 19 8 21 9 22 14 23 10 24 12 25
REMARK SMILES IDX 11 26 13 27
REMARK H PARENT 17 2 20 8 7 20
ROOT
ATOM      1  N   UNL     1       2.418  44.301  53.200  1.00  0.00    -0.348 N 
ATOM      2  H   UNL     1       2.439  43.454  53.768  1.00  0.00     0.163 HD
ENDROOT
BRANCH   1   3
ATOM      3  C   UNL     1       2.415  45.550  53.937  1.00  0.00     0.177 C 
BRANCH   3   4
ATOM      4  C   UNL     1       2.878  45.343  55.395  1.00  0.00     0.283 C 
BRANCH   4   5
ATOM      5  N   UNL     1       4.259  45.940  55.654  1.00  0.00    -0.338 N 
ATOM      6  C   UNL     1       4.482  47.162  54.801  1.00  0.00     0.332 C 
ATOM      7  C   UNL     1       5.374  44.948  55.484  1.00  0.00     0.332 C 
ATOM      8  H   UNL     1       4.274  46.267  56.630  1.00  0.00     0.347 HD
ENDBRANCH   4   5
ENDBRANCH   3   4
ENDBRANCH   1   3
BRANCH   1   9
ATOM      9  C   UNL     1       3.474  44.131  52.309  1.00  0.00     0.226 A 
ATOM     10  N   UNL     1       4.336  45.156  52.284  1.00  0.00    -0.195 NA
ATOM     11  N   UNL     1       3.547  43.015  51.570  1.00  0.00    -0.193 NA
ATOM     12  C   UNL     1       5.428  45.136  51.474  1.00  0.00     0.147 A 
ATOM     13  C   UNL     1       4.632  43.005  50.774  1.00  0.00     0.165 A 
ATOM     14  C   UNL     1       5.588  44.000  50.670  1.00  0.00     0.082 A 
ATOM     15  N   UNL     1       5.024  42.020  49.906  1.00  0.00    -0.250 N 
ATOM     16  C   UNL     1       6.497  43.516  49.707  1.00  0.00     0.149 A 
ATOM     17  N   UNL     1       6.155  42.315  49.232  1.00  0.00    -0.179 NA
ATOM     18  C   UNL     1       4.370  40.761  49.660  1.00  0.00     0.176 C 
BRANCH  12  19
ATOM     19  N   UNL     1       6.329  46.208  51.424  1.00  0.00    -0.339 N 
ATOM     20  H   UNL     1       6.011  46.989  50.864  1.00  0.00     0.168 HD
BRANCH  19  21
ATOM     21  C   UNL     1       7.623  46.378  51.948  1.00  0.00     0.041 A 
ATOM     22  C   UNL     1       8.719  45.955  51.174  1.00  0.00     0.026 A 
ATOM     23  C   UNL     1       7.893  46.991  53.176  1.00  0.00     0.041 A 
ATOM     24  C   UNL     1      10.034  46.125  51.617  1.00  0.00     0.003 A 
ATOM     25  C   UNL     1       9.208  47.163  53.618  1.00  0.00     0.020 A 
ATOM     26  C   UNL     1      10.281  46.732  52.845  1.00  0.00     0.016 A 
ATOM     27  Br  UNL     1       9.532  47.993  55.287  1.00  0.00    -0.051 Br
ENDBRANCH  19  21
ENDBRANCH  12  19
ENDBRANCH   1   9
TORSDOF 6
ENDMDL
MODEL 6
REMARK VINA RESULT:    -7.733      3.090      6.844
REMARK INTER + INTRA:         -11.662
REMARK INTER:                 -10.883
REMARK INTRA:                  -0.779
REMARK UNBOUND:                -1.216
REMARK SMILES Cn1ncc2c(Nc3cccc(Br)c3)nc(NCC[NH+](C)C)nc21
REMARK SMILES IDX 17 1 18 3 19 4 20 5 21 6 22 7 16 9 15 10 23 11 6 12 24 13
REMARK SMILES IDX 5 14 2 15 4 16 3 17 1 18 7 19 8 21 9 22 14 23 10 24 12 25
REMARK SMILES IDX 11 26 13 27
REMARK H PARENT 17 2 20 8 7 20
ROOT
ATOM      1  N   UNL     1       3.421  41.261  50.698  1.00  0.00    -0.348 N 
ATOM      2  H   UNL     1       2.688  41.133  50.000  1.00  0.00     0.163 HD
ENDROOT
BRANCH   1   3
ATOM      3  C   UNL     1       4.781  41.157  50.207  1.00  0.00     0.177 C 
BRANCH   3   4
ATOM      4  C   UNL     1       4.810  40.842  48.696  1.00  0.00     0.283 C 
BRANCH   4   5
ATOM      5  N   UNL     1       5.971  41.532  47.984  1.00  0.00    -0.338 N 
ATOM      6  C   UNL     1       6.456  42.718  48.777  1.00  0.00     0.332 C 
ATOM      7  C   UNL     1       5.651  41.919  46.568  1.00  0.00     0.332 C 
ATOM      8  H   UNL     1       6.755  40.865  47.959  1.00  0.00     0.347 HD
ENDBRANCH   4   5
ENDBRANCH   3   4
ENDBRANCH   1   3
BRANCH   1   9
ATOM      9  C   UNL     1       3.092  42.469  51.307  1.00  0.00     0.226 A 
ATOM     10  N   UNL     1       4.110  43.045  51.959  1.00  0.00    -0.195 NA
ATOM     11  N   UNL     1       1.842  42.943  51.212  1.00  0.00    -0.193 NA
ATOM     12  C   UNL     1       3.954  44.236  52.596  1.00  0.00     0.147 A 
ATOM     13  C   UNL     1       1.698  44.122  51.844  1.00  0.00     0.165 A 
ATOM     14  C   UNL     1       2.677  44.810  52.541  1.00  0.00     0.082 A 
ATOM     15  N   UNL     1       0.568  44.891  51.933  1.00  0.00    -0.250 N 
ATOM     16  C   UNL     1       2.025  45.966  53.014  1.00  0.00     0.149 A 
ATOM     17  N   UNL     1       0.739  46.018  52.655  1.00  0.00    -0.179 NA
ATOM     18  C   UNL     1      -0.722  44.619  51.355  1.00  0.00     0.176 C 
BRANCH  12  19
ATOM     19  N   UNL     1       5.005  44.842  53.296  1.00  0.00    -0.339 N 
ATOM     20  H   UNL     1       4.844  44.927  54.292  1.00  0.00     0.168 HD
BRANCH  19  21
ATOM     21  C   UNL     1       6.214  45.420  52.869  1.00  0.00     0.041 A 
ATOM     22  C   UNL     1       6.495  45.441  51.492  1.00  0.00     0.026 A 
ATOM     23  C   UNL     1       7.138  46.022  53.730  1.00  0.00     0.041 A 
ATOM     24  C   UNL     1       7.662  46.030  50.993  1.00  0.00     0.003 A 
ATOM     25  C   UNL     1       8.302  46.612  53.231  1.00  0.00     0.020 A 
ATOM     26  C   UNL     1       8.570  46.619  51.867  1.00  0.00     0.016 A 
ATOM     27  Br  UNL     1       9.530  47.414  54.429  1.00  0.00    -0.051 Br
ENDBRANCH  19  21
ENDBRANCH  12  19
ENDBRANCH   1   9
TORSDOF 6
ENDMDL
MODEL 7
REMARK VINA RESULT:    -7.582      3.121      6.293
REMARK INTER + INTRA:         -11.458
REMARK INTER:                 -10.902
REMARK INTRA:                  -0.556
REMARK UNBOUND:                -1.216
REMARK SMILES Cn1ncc2c(Nc3cccc(Br)c3)nc(NCC[NH+](C)C)nc21
REMARK SMILES IDX 17 1 18 3 19 4 20 5 21 6 22 7 16 9 15 10 23 11 6 12 24 13
REMARK SMILES IDX 5 14 2 15 4 16 3 17 1 18 7 19 8 21 9 22 14 23 10 24 12 25
REMARK SMILES IDX 11 26 13 27
REMARK H PARENT 17 2 20 8 7 20
ROOT
ATOM      1  N   UNL     1       4.428  41.594  51.120  1.00  0.00    -0.348 N 
ATOM      2  H   UNL     1       3.919  41.137  51.877  1.00  0.00     0.163 HD
ENDROOT
BRANCH   1   3
ATOM      3  C   UNL     1       4.076  41.168  49.779  1.00  0.00     0.177 C 
BRANCH   3   4
ATOM      4  C   UNL     1       5.274  41.300  48.814  1.00  0.00     0.283 C 
BRANCH   4   5
ATOM      5  N   UNL     1       4.953  40.776  47.418  1.00  0.00    -0.338 N 
ATOM      6  C   UNL     1       5.401  41.754  46.363  1.00  0.00     0.332 C 
ATOM      7  C   UNL     1       3.506  40.411  47.240  1.00  0.00     0.332 C 
ATOM      8  H   UNL     1       5.512  39.924  47.273  1.00  0.00     0.347 HD
ENDBRANCH   4   5
ENDBRANCH   3   4
ENDBRANCH   1   3
BRANCH   1   9
ATOM      9  C   UNL     1       4.263  42.951  51.382  1.00  0.00     0.226 A 
ATOM     10  N   UNL     1       5.313  43.705  51.030  1.00  0.00    -0.195 NA
ATOM     11  N   UNL     1       3.128  43.386  51.948  1.00  0.00    -0.193 NA
ATOM     12  C   UNL     1       5.302  45.052  51.209  1.00  0.00     0.147 A 
ATOM     13  C   UNL     1       3.128  44.721  52.119  1.00  0.00     0.165 A 
ATOM     14  C   UNL     1       4.149  45.596  51.789  1.00  0.00     0.082 A 
ATOM     15  N   UNL     1       2.130  45.496  52.649  1.00  0.00    -0.250 N 
ATOM     16  C   UNL     1       3.664  46.863  52.172  1.00  0.00     0.149 A 
ATOM     17  N   UNL     1       2.439  46.808  52.704  1.00  0.00    -0.179 NA
ATOM     18  C   UNL     1       0.845  45.058  53.128  1.00  0.00     0.176 C 
BRANCH  12  19
ATOM     19  N   UNL     1       6.399  45.852  50.862  1.00  0.00    -0.339 N 
ATOM     20  H   UNL     1       6.292  46.342  49.983  1.00  0.00     0.168 HD
BRANCH  19  21
ATOM     21  C   UNL     1       7.653  46.051  51.470  1.00  0.00     0.041 A 
ATOM     22  C   UNL     1       8.797  45.562  50.815  1.00  0.00     0.026 A 
ATOM     23  C   UNL     1       7.838  46.751  52.665  1.00  0.00     0.041 A 
ATOM     24  C   UNL     1      10.078  45.754  51.344  1.00  0.00     0.003 A 
ATOM     25  C   UNL     1       9.117  46.945  53.192  1.00  0.00     0.020 A 
ATOM     26  C   UNL     1      10.240  46.449  52.538  1.00  0.00     0.016 A 
ATOM     27  Br  UNL     1       9.326  47.895  54.816  1.00  0.00    -0.051 Br
ENDBRANCH  19  21
ENDBRANCH  12  19
ENDBRANCH   1   9
TORSDOF 6
ENDMDL
MODEL 8
REMARK VINA RESULT:    -7.468      1.886      5.469
REMARK INTER + INTRA:         -11.304
REMARK INTER:                 -10.548
REMARK INTRA:                  -0.755
REMARK UNBOUND:                -1.216
REMARK SMILES Cn1ncc2c(Nc3cccc(Br)c3)nc(NCC[NH+](C)C)nc21
REMARK SMILES IDX 17 1 18 3 19 4 20 5 21 6 22 7 16 9 15 10 23 11 6 12 24 13
REMARK SMILES IDX 5 14 2 15 4 16 3 17 1 18 7 19 8 21 9 22 14 23 10 24 12 25
REMARK SMILES IDX 11 26 13 27
REMARK H PARENT 17 2 20 8 7 20
ROOT
ATOM      1  N   UNL     1       5.728  46.627  54.978  1.00  0.00    -0.348 N 
ATOM      2  H   UNL     1       5.781  46.595  55.997  1.00  0.00     0.163 HD
ENDROOT
BRANCH   1   3
ATOM      3  C   UNL     1       6.891  46.123  54.273  1.00  0.00     0.177 C 
BRANCH   3   4
ATOM      4  C   UNL     1       8.013  47.183  54.210  1.00  0.00     0.283 C 
BRANCH   4   5
ATOM      5  N   UNL     1       8.601  47.319  52.809  1.00  0.00    -0.338 N 
ATOM      6  C   UNL     1       7.656  46.761  51.775  1.00  0.00     0.332 C 
ATOM      7  C   UNL     1       9.969  46.712  52.678  1.00  0.00     0.332 C 
ATOM      8  H   UNL     1       8.682  48.325  52.606  1.00  0.00     0.347 HD
ENDBRANCH   4   5
ENDBRANCH   3   4
ENDBRANCH   1   3
BRANCH   1   9
ATOM      9  C   UNL     1       4.526  45.988  54.688  1.00  0.00     0.226 A 
ATOM     10  N   UNL     1       4.507  45.378  53.496  1.00  0.00    -0.195 NA
ATOM     11  N   UNL     1       3.519  46.034  55.571  1.00  0.00    -0.193 NA
ATOM     12  C   UNL     1       3.410  44.699  53.071  1.00  0.00     0.147 A 
ATOM     13  C   UNL     1       2.438  45.357  55.141  1.00  0.00     0.165 A 
ATOM     14  C   UNL     1       2.309  44.687  53.937  1.00  0.00     0.082 A 
ATOM     15  N   UNL     1       1.246  45.184  55.794  1.00  0.00    -0.250 N 
ATOM     16  C   UNL     1       1.001  44.160  53.966  1.00  0.00     0.149 A 
ATOM     17  N   UNL     1       0.346  44.466  55.090  1.00  0.00    -0.179 NA
ATOM     18  C   UNL     1       0.884  45.675  57.098  1.00  0.00     0.176 C 
BRANCH  12  19
ATOM     19  N   UNL     1       3.369  44.069  51.820  1.00  0.00    -0.339 N 
ATOM     20  H   UNL     1       2.467  44.114  51.363  1.00  0.00     0.168 HD
BRANCH  19  21
ATOM     21  C   UNL     1       4.326  43.325  51.106  1.00  0.00     0.041 A 
ATOM     22  C   UNL     1       4.051  41.975  50.827  1.00  0.00     0.026 A 
ATOM     23  C   UNL     1       5.519  43.861  50.610  1.00  0.00     0.041 A 
ATOM     24  C   UNL     1       4.941  41.185  50.092  1.00  0.00     0.003 A 
ATOM     25  C   UNL     1       6.407  43.072  49.874  1.00  0.00     0.020 A 
ATOM     26  C   UNL     1       6.125  41.735  49.612  1.00  0.00     0.016 A 
ATOM     27  Br  UNL     1       8.014  43.833  49.223  1.00  0.00    -0.051 Br
ENDBRANCH  19  21
ENDBRANCH  12  19
ENDBRANCH   1   9
TORSDOF 6
ENDMDL
MODEL 9
REMARK VINA RESULT:    -7.322      2.421      6.144
REMARK INTER + INTRA:         -11.106
REMARK INTER:                 -10.035
REMARK INTRA:                  -1.071
REMARK UNBOUND:                -1.216
REMARK SMILES Cn1ncc2c(Nc3cccc(Br)c3)nc(NCC[NH+](C)C)nc21
REMARK SMILES IDX 17 1 18 3 19 4 20 5 21 6 22 7 16 9 15 10 23 11 6 12 24 13
REMARK SMILES IDX 5 14 2 15 4 16 3 17 1 18 7 19 8 21 9 22 14 23 10 24 12 25
REMARK SMILES IDX 11 26 13 27
REMARK H PARENT 17 2 20 8 7 20
ROOT
ATOM      1  N   UNL     1       2.944  46.965  52.735  1.00  0.00    -0.348 N 
ATOM      2  H   UNL     1       2.164  47.623  52.734  1.00  0.00     0.163 HD
ENDROOT
BRANCH   1   3
ATOM      3  C   UNL     1       4.015  47.265  53.666  1.00  0.00     0.177 C 
BRANCH   3   4
ATOM      4  C   UNL     1       5.377  47.357  52.944  1.00  0.00     0.283 C 
BRANCH   4   5
ATOM      5  N   UNL     1       6.022  45.988  52.750  1.00  0.00    -0.338 N 
ATOM      6  C   UNL     1       6.199  45.287  54.073  1.00  0.00     0.332 C 
ATOM      7  C   UNL     1       7.316  46.044  51.988  1.00  0.00     0.332 C 
ATOM      8  H   UNL     1       5.363  45.412  52.209  1.00  0.00     0.347 HD
ENDBRANCH   4   5
ENDBRANCH   3   4
ENDBRANCH   1   3
BRANCH   1   9
ATOM      9  C   UNL     1       2.333  45.725  52.900  1.00  0.00     0.226 A 
ATOM     10  N   UNL     1       3.101  44.688  52.543  1.00  0.00    -0.195 NA
ATOM     11  N   UNL     1       1.080  45.659  53.372  1.00  0.00    -0.193 NA
ATOM     12  C   UNL     1       2.653  43.410  52.656  1.00  0.00     0.147 A 
ATOM     13  C   UNL     1       0.647  44.390  53.481  1.00  0.00     0.165 A 
ATOM     14  C   UNL     1       1.352  43.245  53.150  1.00  0.00     0.082 A 
ATOM     15  N   UNL     1      -0.569  43.957  53.941  1.00  0.00    -0.250 N 
ATOM     16  C   UNL     1       0.464  42.189  53.438  1.00  0.00     0.149 A 
ATOM     17  N   UNL     1      -0.710  42.616  53.912  1.00  0.00    -0.179 NA
ATOM     18  C   UNL     1      -1.657  44.766  54.428  1.00  0.00     0.176 C 
BRANCH  12  19
ATOM     19  N   UNL     1       3.438  42.315  52.270  1.00  0.00    -0.339 N 
ATOM     20  H   UNL     1       3.502  41.586  52.969  1.00  0.00     0.168 HD
BRANCH  19  21
ATOM     21  C   UNL     1       4.212  42.066  51.122  1.00  0.00     0.041 A 
ATOM     22  C   UNL     1       3.756  41.103  50.204  1.00  0.00     0.026 A 
ATOM     23  C   UNL     1       5.387  42.756  50.809  1.00  0.00     0.041 A 
ATOM     24  C   UNL     1       4.456  40.830  49.024  1.00  0.00     0.003 A 
ATOM     25  C   UNL     1       6.086  42.484  49.630  1.00  0.00     0.020 A 
ATOM     26  C   UNL     1       5.627  41.523  48.735  1.00  0.00     0.016 A 
ATOM     27  Br  UNL     1       7.676  43.436  49.244  1.00  0.00    -0.051 Br
ENDBRANCH  19  21
ENDBRANCH  12  19
ENDBRANCH   1   9
TORSDOF 6
ENDMDL
MODEL 10
REMARK VINA RESULT:    -7.287      2.949      4.691
REMARK INTER + INTRA:         -11.060
REMARK INTER:                 -10.039
REMARK INTRA:                  -1.020
REMARK UNBOUND:                -1.216
REMARK SMILES Cn1ncc2c(Nc3cccc(Br)c3)nc(NCC[NH+](C)C)nc21
REMARK SMILES IDX 17 1 18 3 19 4 20 5 21 6 22 7 16 9 15 10 23 11 6 12 24 13
REMARK SMILES IDX 5 14 2 15 4 16 3 17 1 18 7 19 8 21 9 22 14 23 10 24 12 25
REMARK SMILES IDX 11 26 13 27
REMARK H PARENT 17 2 20 8 7 20
ROOT
ATOM      1  N   UNL     1       2.949  42.307  52.768  1.00  0.00    -0.348 N 
ATOM      2  H   UNL     1       3.320  42.425  53.712  1.00  0.00     0.163 HD
ENDROOT
BRANCH   1   3
ATOM      3  C   UNL     1       1.677  42.954  52.509  1.00  0.00     0.177 C 
BRANCH   3   4
ATOM      4  C   UNL     1       1.193  43.755  53.737  1.00  0.00     0.283 C 
BRANCH   4   5
ATOM      5  N   UNL     1       2.144  44.893  54.095  1.00  0.00    -0.338 N 
ATOM      6  C   UNL     1       1.986  45.287  55.541  1.00  0.00     0.332 C 
ATOM      7  C   UNL     1       2.009  46.085  53.190  1.00  0.00     0.332 C 
ATOM      8  H   UNL     1       3.103  44.533  54.001  1.00  0.00     0.347 HD
ENDBRANCH   4   5
ENDBRANCH   3   4
ENDBRANCH   1   3
BRANCH   1   9
ATOM      9  C   UNL     1       4.002  42.701  51.947  1.00  0.00     0.226 A 
ATOM     10  N   UNL     1       4.241  41.863  50.929  1.00  0.00    -0.195 NA
ATOM     11  N   UNL     1       4.676  43.826  52.222  1.00  0.00    -0.193 NA
ATOM     12  C   UNL     1       5.229  42.113  50.030  1.00  0.00     0.147 A 
ATOM     13  C   UNL     1       5.650  44.065  51.325  1.00  0.00     0.165 A 
ATOM     14  C   UNL     1       5.981  43.277  50.236  1.00  0.00     0.082 A 
ATOM     15  N   UNL     1       6.514  45.127  51.292  1.00  0.00    -0.250 N 
ATOM     16  C   UNL     1       7.060  43.951  49.629  1.00  0.00     0.149 A 
ATOM     17  N   UNL     1       7.395  45.074  50.271  1.00  0.00    -0.179 NA
ATOM     18  C   UNL     1       6.565  46.242  52.204  1.00  0.00     0.176 C 
BRANCH  12  19
ATOM     19  N   UNL     1       5.502  41.238  48.970  1.00  0.00    -0.339 N 
ATOM     20  H   UNL     1       6.261  40.594  49.151  1.00  0.00     0.168 HD
BRANCH  19  21
ATOM     21  C   UNL     1       4.966  41.129  47.674  1.00  0.00     0.041 A 
ATOM     22  C   UNL     1       5.583  41.846  46.633  1.00  0.00     0.026 A 
ATOM     23  C   UNL     1       3.882  40.309  47.345  1.00  0.00     0.041 A 
ATOM     24  C   UNL     1       5.125  41.757  45.314  1.00  0.00     0.003 A 
ATOM     25  C   UNL     1       3.425  40.220  46.027  1.00  0.00     0.020 A 
ATOM     26  C   UNL     1       4.041  40.940  45.009  1.00  0.00     0.016 A 
ATOM     27  Br  UNL     1       1.952  39.102  45.622  1.00  0.00    -0.051 Br
ENDBRANCH  19  21
ENDBRANCH  12  19
ENDBRANCH   1   9
TORSDOF 6
ENDMDL
MODEL 11
REMARK VINA RESULT:    -7.148      2.743      5.838
REMARK INTER + INTRA:         -10.871
REMARK INTER:                 -10.057
REMARK INTRA:                  -0.814
REMARK UNBOUND:                -1.216
REMARK SMILES Cn1ncc2c(Nc3cccc(Br)c3)nc(NCC[NH+](C)C)nc21
REMARK SMILES IDX 17 1 18 3 19 4 20 5 21 6 22 7 16 9 15 10 23 11 6 12 24 13
REMARK SMILES IDX 5 14 2 15 4 16 3 17 1 18 7 19 8 21 9 22 14 23 10 24 12 25
REMARK SMILES IDX 11 26 13 27
REMARK H PARENT 17 2 20 8 7 20
ROOT
ATOM      1  N   UNL     1       7.782  45.609  50.399  1.00  0.00    -0.348 N 
ATOM      2  H   UNL     1       7.621  45.971  49.458  1.00  0.00     0.163 HD
ENDROOT
BRANCH   1   3
ATOM      3  C   UNL     1       7.882  46.608  51.446  1.00  0.00     0.177 C 
BRANCH   3   4
ATOM      4  C   UNL     1       9.225  46.497  52.201  1.00  0.00     0.283 C 
BRANCH   4   5
ATOM      5  N   UNL     1       9.035  46.459  53.715  1.00  0.00    -0.338 N 
ATOM      6  C   UNL     1       7.616  46.805  54.085  1.00  0.00     0.332 C 
ATOM      7  C   UNL     1      10.016  47.322  54.457  1.00  0.00     0.332 C 
ATOM      8  H   UNL     1       9.179  45.486  54.018  1.00  0.00     0.347 HD
ENDBRANCH   4   5
ENDBRANCH   3   4
ENDBRANCH   1   3
BRANCH   1   9
ATOM      9  C   UNL     1       6.776  44.661  50.567  1.00  0.00     0.226 A 
ATOM     10  N   UNL     1       6.835  43.646  49.696  1.00  0.00    -0.195 NA
ATOM     11  N   UNL     1       5.861  44.826  51.532  1.00  0.00    -0.193 NA
ATOM     12  C   UNL     1       5.931  42.632  49.736  1.00  0.00     0.147 A 
ATOM     13  C   UNL     1       4.972  43.816  51.564  1.00  0.00     0.165 A 
ATOM     14  C   UNL     1       4.939  42.718  50.722  1.00  0.00     0.082 A 
ATOM     15  N   UNL     1       3.920  43.655  52.427  1.00  0.00    -0.250 N 
ATOM     16  C   UNL     1       3.826  41.973  51.159  1.00  0.00     0.149 A 
ATOM     17  N   UNL     1       3.196  42.541  52.192  1.00  0.00    -0.179 NA
ATOM     18  C   UNL     1       3.536  44.524  53.509  1.00  0.00     0.176 C 
BRANCH  12  19
ATOM     19  N   UNL     1       5.969  41.571  48.821  1.00  0.00    -0.339 N 
ATOM     20  H   UNL     1       6.663  40.867  49.033  1.00  0.00     0.168 HD
BRANCH  19  21
ATOM     21  C   UNL     1       5.271  41.333  47.623  1.00  0.00     0.041 A 
ATOM     22  C   UNL     1       5.705  41.986  46.455  1.00  0.00     0.026 A 
ATOM     23  C   UNL     1       4.198  40.444  47.509  1.00  0.00     0.041 A 
ATOM     24  C   UNL     1       5.081  41.770  45.222  1.00  0.00     0.003 A 
ATOM     25  C   UNL     1       3.575  40.226  46.276  1.00  0.00     0.020 A 
ATOM     26  C   UNL     1       4.011  40.885  45.131  1.00  0.00     0.016 A 
ATOM     27  Br  UNL     1       2.122  39.019  46.164  1.00  0.00    -0.051 Br
ENDBRANCH  19  21
ENDBRANCH  12  19
ENDBRANCH   1   9
TORSDOF 6
ENDMDL
MODEL 12
REMARK VINA RESULT:    -7.122      2.381      6.087
REMARK INTER + INTRA:         -10.837
REMARK INTER:                 -10.135
REMARK INTRA:                  -0.701
REMARK UNBOUND:                -1.216
REMARK SMILES Cn1ncc2c(Nc3cccc(Br)c3)nc(NCC[NH+](C)C)nc21
REMARK SMILES IDX 17 1 18 3 19 4 20 5 21 6 22 7 16 9 15 10 23 11 6 12 24 13
REMARK SMILES IDX 5 14 2 15 4 16 3 17 1 18 7 19 8 21 9 22 14 23 10 24 12 25
REMARK SMILES IDX 11 26 13 27
REMARK H PARENT 17 2 20 8 7 20
ROOT
ATOM      1  N   UNL     1       5.964  46.979  52.687  1.00  0.00    -0.348 N 
ATOM      2  H   UNL     1       5.088  47.149  53.182  1.00  0.00     0.163 HD
ENDROOT
BRANCH   1   3
ATOM      3  C   UNL     1       7.171  47.134  53.475  1.00  0.00     0.177 C 
BRANCH   3   4
ATOM      4  C   UNL     1       8.238  47.953  52.716  1.00  0.00     0.283 C 
BRANCH   4   5
ATOM      5  N   UNL     1       9.653  47.451  52.988  1.00  0.00    -0.338 N 
ATOM      6  C   UNL     1       9.975  46.262  52.121  1.00  0.00     0.332 C 
ATOM      7  C   UNL     1       9.907  47.151  54.438  1.00  0.00     0.332 C 
ATOM      8  H   UNL     1      10.303  48.197  52.702  1.00  0.00     0.347 HD
ENDBRANCH   4   5
ENDBRANCH   3   4
ENDBRANCH   1   3
BRANCH   1   9
ATOM      9  C   UNL     1       5.781  45.727  52.106  1.00  0.00     0.226 A 
ATOM     10  N   UNL     1       4.758  45.033  52.622  1.00  0.00    -0.195 NA
ATOM     11  N   UNL     1       6.603  45.321  51.129  1.00  0.00    -0.193 NA
ATOM     12  C   UNL     1       4.441  43.797  52.154  1.00  0.00     0.147 A 
ATOM     13  C   UNL     1       6.279  44.097  50.672  1.00  0.00     0.165 A 
ATOM     14  C   UNL     1       5.245  43.294  51.123  1.00  0.00     0.082 A 
ATOM     15  N   UNL     1       6.891  43.389  49.672  1.00  0.00    -0.250 N 
ATOM     16  C   UNL     1       5.336  42.128  50.336  1.00  0.00     0.149 A 
ATOM     17  N   UNL     1       6.341  42.175  49.457  1.00  0.00    -0.179 NA
ATOM     18  C   UNL     1       8.014  43.801  48.870  1.00  0.00     0.176 C 
BRANCH  12  19
ATOM     19  N   UNL     1       3.385  43.051  52.695  1.00  0.00    -0.339 N 
ATOM     20  H   UNL     1       3.676  42.202  53.163  1.00  0.00     0.168 HD
BRANCH  19  21
ATOM     21  C   UNL     1       1.990  43.222  52.652  1.00  0.00     0.041 A 
ATOM     22  C   UNL     1       1.323  42.974  51.439  1.00  0.00     0.026 A 
ATOM     23  C   UNL     1       1.213  43.577  53.759  1.00  0.00     0.041 A 
ATOM     24  C   UNL     1      -0.067  43.090  51.332  1.00  0.00     0.003 A 
ATOM     25  C   UNL     1      -0.176  43.691  53.653  1.00  0.00     0.020 A 
ATOM     26  C   UNL     1      -0.821  43.450  52.444  1.00  0.00     0.016 A 
ATOM     27  Br  UNL     1      -1.192  44.178  55.174  1.00  0.00    -0.051 Br
ENDBRANCH  19  21
ENDBRANCH  12  19
ENDBRANCH   1   9
TORSDOF 6
ENDMDL
MODEL 13
REMARK VINA RESULT:    -7.121      2.785      5.617
REMARK INTER + INTRA:         -10.835
REMARK INTER:                  -9.999
REMARK INTRA:                  -0.836
REMARK UNBOUND:                -1.216
REMARK SMILES Cn1ncc2c(Nc3cccc(Br)c3)nc(NCC[NH+](C)C)nc21
REMARK SMILES IDX 17 1 18 3 19 4 20 5 21 6 22 7 16 9 15 10 23 11 6 12 24 13
REMARK SMILES IDX 5 14 2 15 4 16 3 17 1 18 7 19 8 21 9 22 14 23 10 24 12 25
REMARK SMILES IDX 11 26 13 27
REMARK H PARENT 17 2 20 8 7 20
ROOT
ATOM      1  N   UNL     1       0.939  44.837  52.134  1.00  0.00    -0.348 N 
ATOM      2  H   UNL     1       0.394  44.024  51.844  1.00  0.00     0.163 HD
ENDROOT
BRANCH   1   3
ATOM      3  C   UNL     1       0.807  45.217  53.527  1.00  0.00     0.177 C 
BRANCH   3   4
ATOM      4  C   UNL     1       1.260  44.079  54.466  1.00  0.00     0.283 C 
BRANCH   4   5
ATOM      5  N   UNL     1       2.003  44.602  55.692  1.00  0.00    -0.338 N 
ATOM      6  C   UNL     1       1.068  45.353  56.605  1.00  0.00     0.332 C 
ATOM      7  C   UNL     1       3.207  45.431  55.346  1.00  0.00     0.332 C 
ATOM      8  H   UNL     1       2.327  43.784  56.227  1.00  0.00     0.347 HD
ENDBRANCH   4   5
ENDBRANCH   3   4
ENDBRANCH   1   3
BRANCH   1   9
ATOM      9  C   UNL     1       2.232  44.537  51.713  1.00  0.00     0.226 A 
ATOM     10  N   UNL     1       3.097  45.550  51.847  1.00  0.00    -0.195 NA
ATOM     11  N   UNL     1       2.505  43.320  51.220  1.00  0.00    -0.193 NA
ATOM     12  C   UNL     1       4.402  45.412  51.492  1.00  0.00     0.147 A 
ATOM     13  C   UNL     1       3.799  43.194  50.874  1.00  0.00     0.165 A 
ATOM     14  C   UNL     1       4.779  44.166  50.973  1.00  0.00     0.082 A 
ATOM     15  N   UNL     1       4.422  42.089  50.356  1.00  0.00    -0.250 N 
ATOM     16  C   UNL     1       5.943  43.544  50.479  1.00  0.00     0.149 A 
ATOM     17  N   UNL     1       5.732  42.282  50.094  1.00  0.00    -0.179 NA
ATOM     18  C   UNL     1       3.835  40.803  50.080  1.00  0.00     0.176 C 
BRANCH  12  19
ATOM     19  N   UNL     1       5.315  46.468  51.610  1.00  0.00    -0.339 N 
ATOM     20  H   UNL     1       5.081  47.280  51.055  1.00  0.00     0.168 HD
BRANCH  19  21
ATOM     21  C   UNL     1       6.534  46.589  52.302  1.00  0.00     0.041 A 
ATOM     22  C   UNL     1       6.499  46.960  53.658  1.00  0.00     0.026 A 
ATOM     23  C   UNL     1       7.783  46.313  51.736  1.00  0.00     0.041 A 
ATOM     24  C   UNL     1       7.670  47.065  54.416  1.00  0.00     0.003 A 
ATOM     25  C   UNL     1       8.952  46.417  52.494  1.00  0.00     0.020 A 
ATOM     26  C   UNL     1       8.903  46.792  53.833  1.00  0.00     0.016 A 
ATOM     27  Br  UNL     1      10.624  46.039  51.690  1.00  0.00    -0.051 Br
ENDBRANCH  19  21
ENDBRANCH  12  19
ENDBRANCH   1   9
TORSDOF 6
ENDMDL
MODEL 14
REMARK VINA RESULT:    -7.116      3.178      5.932
REMARK INTER + INTRA:         -10.828
REMARK INTER:                 -10.009
REMARK INTRA:                  -0.819
REMARK UNBOUND:                -1.216
REMARK SMILES Cn1ncc2c(Nc3cccc(Br)c3)nc(NCC[NH+](C)C)nc21
REMARK SMILES IDX 17 1 18 3 19 4 20 5 21 6 22 7 16 9 15 10 23 11 6 12 24 13
REMARK SMILES IDX 5 14 2 15 4 16 3 17 1 18 7 19 8 21 9 22 14 23 10 24 12 25
REMARK SMILES IDX 11 26 13 27
REMARK H PARENT 17 2 20 8 7 20
ROOT
ATOM      1  N   UNL     1       2.118  45.659  56.485  1.00  0.00    -0.348 N 
ATOM      2  H   UNL     1       2.318  46.659  56.533  1.00  0.00     0.163 HD
ENDROOT
BRANCH   1   3
ATOM      3  C   UNL     1       0.875  45.236  57.101  1.00  0.00     0.177 C 
BRANCH   3   4
ATOM      4  C   UNL     1      -0.116  46.414  57.232  1.00  0.00     0.283 C 
BRANCH   4   5
ATOM      5  N   UNL     1      -1.345  46.235  56.345  1.00  0.00    -0.338 N 
ATOM      6  C   UNL     1      -2.505  47.041  56.870  1.00  0.00     0.332 C 
ATOM      7  C   UNL     1      -1.728  44.796  56.145  1.00  0.00     0.332 C 
ATOM      8  H   UNL     1      -1.117  46.631  55.422  1.00  0.00     0.347 HD
ENDBRANCH   4   5
ENDBRANCH   3   4
ENDBRANCH   1   3
BRANCH   1   9
ATOM      9  C   UNL     1       2.250  45.360  55.131  1.00  0.00     0.226 A 
ATOM     10  N   UNL     1       3.176  46.093  54.500  1.00  0.00    -0.195 NA
ATOM     11  N   UNL     1       1.476  44.414  54.581  1.00  0.00    -0.193 NA
ATOM     12  C   UNL     1       3.433  45.913  53.177  1.00  0.00     0.147 A 
ATOM     13  C   UNL     1       1.741  44.242  53.273  1.00  0.00     0.165 A 
ATOM     14  C   UNL     1       2.674  44.935  52.521  1.00  0.00     0.082 A 
ATOM     15  N   UNL     1       1.154  43.354  52.410  1.00  0.00    -0.250 N 
ATOM     16  C   UNL     1       2.555  44.393  51.225  1.00  0.00     0.149 A 
ATOM     17  N   UNL     1       1.626  43.436  51.149  1.00  0.00    -0.179 NA
ATOM     18  C   UNL     1       0.129  42.389  52.713  1.00  0.00     0.176 C 
BRANCH  12  19
ATOM     19  N   UNL     1       4.386  46.684  52.499  1.00  0.00    -0.339 N 
ATOM     20  H   UNL     1       4.032  47.564  52.148  1.00  0.00     0.168 HD
BRANCH  19  21
ATOM     21  C   UNL     1       5.727  46.437  52.151  1.00  0.00     0.041 A 
ATOM     22  C   UNL     1       5.991  45.739  50.959  1.00  0.00     0.026 A 
ATOM     23  C   UNL     1       6.821  46.888  52.896  1.00  0.00     0.041 A 
ATOM     24  C   UNL     1       7.300  45.489  50.534  1.00  0.00     0.003 A 
ATOM     25  C   UNL     1       8.129  46.639  52.471  1.00  0.00     0.020 A 
ATOM     26  C   UNL     1       8.375  45.941  51.293  1.00  0.00     0.016 A 
ATOM     27  Br  UNL     1       9.584  47.262  53.509  1.00  0.00    -0.051 Br
ENDBRANCH  19  21
ENDBRANCH  12  19
ENDBRANCH   1   9
TORSDOF 6
ENDMDL
MODEL 15
REMARK VINA RESULT:    -7.113      2.680      5.246
REMARK INTER + INTRA:         -10.824
REMARK INTER:                 -10.179
REMARK INTRA:                  -0.645
REMARK UNBOUND:                -1.216
REMARK SMILES Cn1ncc2c(Nc3cccc(Br)c3)nc(NCC[NH+](C)C)nc21
REMARK SMILES IDX 17 1 18 3 19 4 20 5 21 6 22 7 16 9 15 10 23 11 6 12 24 13
REMARK SMILES IDX 5 14 2 15 4 16 3 17 1 18 7 19 8 21 9 22 14 23 10 24 12 25
REMARK SMILES IDX 11 26 13 27
REMARK H PARENT 17 2 20 8 7 20
ROOT
ATOM      1  N   UNL     1       2.821  46.040  56.336  1.00  0.00    -0.348 N 
ATOM      2  H   UNL     1       2.770  47.011  56.646  1.00  0.00     0.163 HD
ENDROOT
BRANCH   1   3
ATOM      3  C   UNL     1       1.687  45.208  56.690  1.00  0.00     0.177 C 
BRANCH   3   4
ATOM      4  C   UNL     1       0.551  46.044  57.318  1.00  0.00     0.283 C 
BRANCH   4   5
ATOM      5  N   UNL     1      -0.623  46.234  56.363  1.00  0.00    -0.338 N 
ATOM      6  C   UNL     1      -1.803  46.839  57.079  1.00  0.00     0.332 C 
ATOM      7  C   UNL     1      -1.012  44.973  55.644  1.00  0.00     0.332 C 
ATOM      8  H   UNL     1      -0.335  46.924  55.655  1.00  0.00     0.347 HD
ENDBRANCH   4   5
ENDBRANCH   3   4
ENDBRANCH   1   3
BRANCH   1   9
ATOM      9  C   UNL     1       3.091  46.141  54.974  1.00  0.00     0.226 A 
ATOM     10  N   UNL     1       4.247  46.756  54.693  1.00  0.00    -0.195 NA
ATOM     11  N   UNL     1       2.218  45.649  54.084  1.00  0.00    -0.193 NA
ATOM     12  C   UNL     1       4.660  46.922  53.409  1.00  0.00     0.147 A 
ATOM     13  C   UNL     1       2.638  45.817  52.817  1.00  0.00     0.165 A 
ATOM     14  C   UNL     1       3.810  46.429  52.410  1.00  0.00     0.082 A 
ATOM     15  N   UNL     1       2.006  45.422  51.668  1.00  0.00    -0.250 N 
ATOM     16  C   UNL     1       3.775  46.357  51.003  1.00  0.00     0.149 A 
ATOM     17  N   UNL     1       2.675  45.753  50.544  1.00  0.00    -0.179 NA
ATOM     18  C   UNL     1       0.753  44.720  51.555  1.00  0.00     0.176 C 
BRANCH  12  19
ATOM     19  N   UNL     1       5.859  47.579  53.098  1.00  0.00    -0.339 N 
ATOM     20  H   UNL     1       5.818  48.585  53.202  1.00  0.00     0.168 HD
BRANCH  19  21
ATOM     21  C   UNL     1       7.089  47.113  52.601  1.00  0.00     0.041 A 
ATOM     22  C   UNL     1       8.270  47.528  53.243  1.00  0.00     0.026 A 
ATOM     23  C   UNL     1       7.211  46.219  51.533  1.00  0.00     0.041 A 
ATOM     24  C   UNL     1       9.526  47.076  52.825  1.00  0.00     0.003 A 
ATOM     25  C   UNL     1       8.466  45.766  51.116  1.00  0.00     0.020 A 
ATOM     26  C   UNL     1       9.625  46.190  51.757  1.00  0.00     0.016 A 
ATOM     27  Br  UNL     1       8.589  44.559  49.664  1.00  0.00    -0.051 Br
ENDBRANCH  19  21
ENDBRANCH  12  19
ENDBRANCH   1   9
TORSDOF 6
ENDMDL
MODEL 16
REMARK VINA RESULT:    -7.054      2.437      6.713
REMARK INTER + INTRA:         -10.744
REMARK INTER:                 -10.000
REMARK INTRA:                  -0.744
REMARK UNBOUND:                -1.216
REMARK SMILES Cn1ncc2c(Nc3cccc(Br)c3)nc(NCC[NH+](C)C)nc21
REMARK SMILES IDX 17 1 18 3 19 4 20 5 21 6 22 7 16 9 15 10 23 11 6 12 24 13
REMARK SMILES IDX 5 14 2 15 4 16 3 17 1 18 7 19 8 21 9 22 14 23 10 24 12 25
REMARK SMILES IDX 11 26 13 27
REMARK H PARENT 17 2 20 8 7 20
ROOT
ATOM      1  N   UNL     1       6.789  46.419  51.191  1.00  0.00    -0.348 N 
ATOM      2  H   UNL     1       6.385  46.855  50.362  1.00  0.00     0.163 HD
ENDROOT
BRANCH   1   3
ATOM      3  C   UNL     1       6.912  47.275  52.355  1.00  0.00     0.177 C 
BRANCH   3   4
ATOM      4  C   UNL     1       8.353  47.807  52.511  1.00  0.00     0.283 C 
BRANCH   4   5
ATOM      5  N   UNL     1       9.311  46.737  53.026  1.00  0.00    -0.338 N 
ATOM      6  C   UNL     1      10.004  47.199  54.283  1.00  0.00     0.332 C 
ATOM      7  C   UNL     1      10.304  46.284  51.994  1.00  0.00     0.332 C 
ATOM      8  H   UNL     1       8.744  45.922  53.297  1.00  0.00     0.347 HD
ENDBRANCH   4   5
ENDBRANCH   3   4
ENDBRANCH   1   3
BRANCH   1   9
ATOM      9  C   UNL     1       6.023  45.269  51.368  1.00  0.00     0.226 A 
ATOM     10  N   UNL     1       5.219  45.310  52.438  1.00  0.00    -0.195 NA
ATOM     11  N   UNL     1       6.144  44.251  50.505  1.00  0.00    -0.193 NA
ATOM     12  C   UNL     1       4.399  44.270  52.741  1.00  0.00     0.147 A 
ATOM     13  C   UNL     1       5.326  43.228  50.813  1.00  0.00     0.165 A 
ATOM     14  C   UNL     1       4.453  43.162  51.885  1.00  0.00     0.082 A 
ATOM     15  N   UNL     1       5.179  42.043  50.140  1.00  0.00    -0.250 N 
ATOM     16  C   UNL     1       3.844  41.896  51.766  1.00  0.00     0.149 A 
ATOM     17  N   UNL     1       4.288  41.206  50.711  1.00  0.00    -0.179 NA
ATOM     18  C   UNL     1       5.857  41.630  48.938  1.00  0.00     0.176 C 
BRANCH  12  19
ATOM     19  N   UNL     1       3.564  44.291  53.866  1.00  0.00    -0.339 N 
ATOM     20  H   UNL     1       4.042  44.103  54.738  1.00  0.00     0.168 HD
BRANCH  19  21
ATOM     21  C   UNL     1       2.174  44.456  54.008  1.00  0.00     0.041 A 
ATOM     22  C   UNL     1       1.659  44.702  55.293  1.00  0.00     0.026 A 
ATOM     23  C   UNL     1       1.274  44.439  52.939  1.00  0.00     0.041 A 
ATOM     24  C   UNL     1       0.291  44.910  55.503  1.00  0.00     0.003 A 
ATOM     25  C   UNL     1      -0.092  44.649  53.149  1.00  0.00     0.020 A 
ATOM     26  C   UNL     1      -0.589  44.884  54.426  1.00  0.00     0.016 A 
ATOM     27  Br  UNL     1      -1.280  44.615  51.675  1.00  0.00    -0.051 Br
ENDBRANCH  19  21
ENDBRANCH  12  19
ENDBRANCH   1   9
TORSDOF 6
ENDMDL
MODEL 17
REMARK VINA RESULT:    -7.051      2.708      6.749
REMARK INTER + INTRA:         -10.740
REMARK INTER:                 -10.229
REMARK INTRA:                  -0.511
REMARK UNBOUND:                -1.216
REMARK SMILES Cn1ncc2c(Nc3cccc(Br)c3)nc(NCC[NH+](C)C)nc21
REMARK SMILES IDX 17 1 18 3 19 4 20 5 21 6 22 7 16 9 15 10 23 11 6 12 24 13
REMARK SMILES IDX 5 14 2 15 4 16 3 17 1 18 7 19 8 21 9 22 14 23 10 24 12 25
REMARK SMILES IDX 11 26 13 27
REMARK H PARENT 17 2 20 8 7 20
ROOT
ATOM      1  N   UNL     1       5.644  46.734  53.043  1.00  0.00    -0.348 N 
ATOM      2  H   UNL     1       5.390  46.687  54.031  1.00  0.00     0.163 HD
ENDROOT
BRANCH   1   3
ATOM      3  C   UNL     1       7.012  47.126  52.765  1.00  0.00     0.177 C 
BRANCH   3   4
ATOM      4  C   UNL     1       7.869  47.125  54.050  1.00  0.00     0.283 C 
BRANCH   4   5
ATOM      5  N   UNL     1       9.325  47.489  53.774  1.00  0.00    -0.338 N 
ATOM      6  C   UNL     1       9.836  46.763  52.556  1.00  0.00     0.332 C 
ATOM      7  C   UNL     1      10.226  47.267  54.956  1.00  0.00     0.332 C 
ATOM      8  H   UNL     1       9.352  48.491  53.540  1.00  0.00     0.347 HD
ENDBRANCH   4   5
ENDBRANCH   3   4
ENDBRANCH   1   3
BRANCH   1   9
ATOM      9  C   UNL     1       5.260  45.493  52.543  1.00  0.00     0.226 A 
ATOM     10  N   UNL     1       4.160  44.991  53.118  1.00  0.00    -0.195 NA
ATOM     11  N   UNL     1       5.984  44.913  51.576  1.00  0.00    -0.193 NA
ATOM     12  C   UNL     1       3.649  43.792  52.732  1.00  0.00     0.147 A 
ATOM     13  C   UNL     1       5.469  43.728  51.200  1.00  0.00     0.165 A 
ATOM     14  C   UNL     1       4.340  43.117  51.718  1.00  0.00     0.082 A 
ATOM     15  N   UNL     1       5.941  42.880  50.234  1.00  0.00    -0.250 N 
ATOM     16  C   UNL     1       4.234  41.908  51.001  1.00  0.00     0.149 A 
ATOM     17  N   UNL     1       5.210  41.753  50.102  1.00  0.00    -0.179 NA
ATOM     18  C   UNL     1       7.090  43.072  49.387  1.00  0.00     0.176 C 
BRANCH  12  19
ATOM     19  N   UNL     1       2.508  43.246  53.336  1.00  0.00    -0.339 N 
ATOM     20  H   UNL     1       2.413  42.247  53.210  1.00  0.00     0.168 HD
BRANCH  19  21
ATOM     21  C   UNL     1       1.434  43.833  54.028  1.00  0.00     0.041 A 
ATOM     22  C   UNL     1       0.132  43.637  53.532  1.00  0.00     0.026 A 
ATOM     23  C   UNL     1       1.574  44.563  55.213  1.00  0.00     0.041 A 
ATOM     24  C   UNL     1      -0.986  44.162  54.188  1.00  0.00     0.003 A 
ATOM     25  C   UNL     1       0.456  45.086  55.869  1.00  0.00     0.020 A 
ATOM     26  C   UNL     1      -0.824  44.890  55.363  1.00  0.00     0.016 A 
ATOM     27  Br  UNL     1       0.688  46.071  57.469  1.00  0.00    -0.051 Br
ENDBRANCH  19  21
ENDBRANCH  12  19
ENDBRANCH   1   9
TORSDOF 6
ENDMDL
MODEL 18
REMARK VINA RESULT:    -7.043      2.870      5.742
REMARK INTER + INTRA:         -10.729
REMARK INTER:                  -9.720
REMARK INTRA:                  -1.009
REMARK UNBOUND:                -1.216
REMARK SMILES Cn1ncc2c(Nc3cccc(Br)c3)nc(NCC[NH+](C)C)nc21
REMARK SMILES IDX 17 1 18 3 19 4 20 5 21 6 22 7 16 9 15 10 23 11 6 12 24 13
REMARK SMILES IDX 5 14 2 15 4 16 3 17 1 18 7 19 8 21 9 22 14 23 10 24 12 25
REMARK SMILES IDX 11 26 13 27
REMARK H PARENT 17 2 20 8 7 20
ROOT
ATOM      1  N   UNL     1       4.872  46.664  52.171  1.00  0.00    -0.348 N 
ATOM      2  H   UNL     1       3.883  46.902  52.088  1.00  0.00     0.163 HD
ENDROOT
BRANCH   1   3
ATOM      3  C   UNL     1       5.460  46.871  53.480  1.00  0.00     0.177 C 
BRANCH   3   4
ATOM      4  C   UNL     1       4.382  47.211  54.533  1.00  0.00     0.283 C 
BRANCH   4   5
ATOM      5  N   UNL     1       4.153  46.066  55.515  1.00  0.00    -0.338 N 
ATOM      6  C   UNL     1       5.260  45.048  55.420  1.00  0.00     0.332 C 
ATOM      7  C   UNL     1       2.805  45.418  55.367  1.00  0.00     0.332 C 
ATOM      8  H   UNL     1       4.210  46.461  56.465  1.00  0.00     0.347 HD
ENDBRANCH   4   5
ENDBRANCH   3   4
ENDBRANCH   1   3
BRANCH   1   9
ATOM      9  C   UNL     1       4.942  45.363  51.679  1.00  0.00     0.226 A 
ATOM     10  N   UNL     1       3.912  44.588  52.042  1.00  0.00    -0.195 NA
ATOM     11  N   UNL     1       5.986  44.994  50.923  1.00  0.00    -0.193 NA
ATOM     12  C   UNL     1       3.828  43.295  51.632  1.00  0.00     0.147 A 
ATOM     13  C   UNL     1       5.891  43.713  50.521  1.00  0.00     0.165 A 
ATOM     14  C   UNL     1       4.874  42.825  50.828  1.00  0.00     0.082 A 
ATOM     15  N   UNL     1       6.766  43.018  49.729  1.00  0.00    -0.250 N 
ATOM     16  C   UNL     1       5.246  41.629  50.181  1.00  0.00     0.149 A 
ATOM     17  N   UNL     1       6.400  41.737  49.517  1.00  0.00    -0.179 NA
ATOM     18  C   UNL     1       7.982  43.507  49.131  1.00  0.00     0.176 C 
BRANCH  12  19
ATOM     19  N   UNL     1       2.765  42.466  52.017  1.00  0.00    -0.339 N 
ATOM     20  H   UNL     1       3.008  41.486  52.080  1.00  0.00     0.168 HD
BRANCH  19  21
ATOM     21  C   UNL     1       1.406  42.728  52.267  1.00  0.00     0.041 A 
ATOM     22  C   UNL     1       0.956  42.710  53.600  1.00  0.00     0.026 A 
ATOM     23  C   UNL     1       0.479  43.056  51.273  1.00  0.00     0.041 A 
ATOM     24  C   UNL     1      -0.374  42.996  53.925  1.00  0.00     0.003 A 
ATOM     25  C   UNL     1      -0.849  43.344  51.598  1.00  0.00     0.020 A 
ATOM     26  C   UNL     1      -1.282  43.315  52.920  1.00  0.00     0.016 A 
ATOM     27  Br  UNL     1      -2.075  43.779  50.223  1.00  0.00    -0.051 Br
ENDBRANCH  19  21
ENDBRANCH  12  19
ENDBRANCH   1   9
TORSDOF 6
ENDMDL
MODEL 19
REMARK VINA RESULT:    -7.003      2.144      5.001
REMARK INTER + INTRA:         -10.675
REMARK INTER:                  -9.824
REMARK INTRA:                  -0.851
REMARK UNBOUND:                -1.216
REMARK SMILES Cn1ncc2c(Nc3cccc(Br)c3)nc(NCC[NH+](C)C)nc21
REMARK SMILES IDX 17 1 18 3 19 4 20 5 21 6 22 7 16 9 15 10 23 11 6 12 24 13
REMARK SMILES IDX 5 14 2 15 4 16 3 17 1 18 7 19 8 21 9 22 14 23 10 24 12 25
REMARK SMILES IDX 11 26 13 27
REMARK H PARENT 17 2 20 8 7 20
ROOT
ATOM      1  N   UNL     1       8.021  45.060  49.588  1.00  0.00    -0.348 N 
ATOM      2  H   UNL     1       8.933  45.497  49.445  1.00  0.00     0.163 HD
ENDROOT
BRANCH   1   3
ATOM      3  C   UNL     1       7.998  43.612  49.503  1.00  0.00     0.177 C 
BRANCH   3   4
ATOM      4  C   UNL     1       6.865  43.122  48.576  1.00  0.00     0.283 C 
BRANCH   4   5
ATOM      5  N   UNL     1       6.294  41.779  49.022  1.00  0.00    -0.338 N 
ATOM      6  C   UNL     1       5.342  41.233  47.990  1.00  0.00     0.332 C 
ATOM      7  C   UNL     1       5.653  41.829  50.380  1.00  0.00     0.332 C 
ATOM      8  H   UNL     1       7.077  41.113  49.068  1.00  0.00     0.347 HD
ENDBRANCH   4   5
ENDBRANCH   3   4
ENDBRANCH   1   3
BRANCH   1   9
ATOM      9  C   UNL     1       7.582  45.598  50.795  1.00  0.00     0.226 A 
ATOM     10  N   UNL     1       6.250  45.671  50.906  1.00  0.00    -0.195 NA
ATOM     11  N   UNL     1       8.477  45.996  51.710  1.00  0.00    -0.193 NA
ATOM     12  C   UNL     1       5.663  46.162  52.029  1.00  0.00     0.147 A 
ATOM     13  C   UNL     1       7.886  46.478  52.819  1.00  0.00     0.165 A 
ATOM     14  C   UNL     1       6.525  46.594  53.045  1.00  0.00     0.082 A 
ATOM     15  N   UNL     1       8.493  46.952  53.952  1.00  0.00    -0.250 N 
ATOM     16  C   UNL     1       6.429  47.157  54.334  1.00  0.00     0.149 A 
ATOM     17  N   UNL     1       7.624  47.385  54.888  1.00  0.00    -0.179 NA
ATOM     18  C   UNL     1       9.906  47.025  54.220  1.00  0.00     0.176 C 
BRANCH  12  19
ATOM     19  N   UNL     1       4.271  46.259  52.153  1.00  0.00    -0.339 N 
ATOM     20  H   UNL     1       3.890  47.145  51.846  1.00  0.00     0.168 HD
BRANCH  19  21
ATOM     21  C   UNL     1       3.307  45.385  52.688  1.00  0.00     0.041 A 
ATOM     22  C   UNL     1       3.205  44.091  52.147  1.00  0.00     0.026 A 
ATOM     23  C   UNL     1       2.473  45.708  53.763  1.00  0.00     0.041 A 
ATOM     24  C   UNL     1       2.294  43.158  52.653  1.00  0.00     0.003 A 
ATOM     25  C   UNL     1       1.564  44.775  54.270  1.00  0.00     0.020 A 
ATOM     26  C   UNL     1       1.469  43.501  53.720  1.00  0.00     0.016 A 
ATOM     27  Br  UNL     1       0.449  45.251  55.723  1.00  0.00    -0.051 Br
ENDBRANCH  19  21
ENDBRANCH  12  19
ENDBRANCH   1   9
TORSDOF 6
ENDMDL
