MODEL 1
REMARK VINA RESULT:    -8.665      0.000      0.000
REMARK INTER + INTRA:         -13.140
REMARK INTER:                 -12.211
REMARK INTRA:                  -0.928
REMARK UNBOUND:                -0.928
REMARK SMILES Cc1ccc(Nc2nc(NCCC[NH+](C)C)nc3c2cnn3C)cc1
REMARK SMILES IDX 11 1 12 2 13 3 14 4 15 5 16 6 10 8 9 10 8 11 17 12 7 13
REMARK SMILES IDX 18 14 19 15 22 16 20 17 21 18 23 19 6 20 5 22 4 23 24 24
REMARK SMILES IDX 3 25 25 26 2 27 1 28
REMARK H PARENT 14 7 10 9 6 21
ROOT
ATOM      1  C   UNL     1       1.800  45.300  52.459  1.00  0.00     0.122 C 
ENDROOT
BRANCH   1   2
ATOM      2  C   UNL     1       1.950  45.752  53.912  1.00  0.00     0.083 C 
BRANCH   2   3
ATOM      3  C   UNL     1       2.903  44.923  54.775  1.00  0.00     0.263 C 
BRANCH   3   4
ATOM      4  N   UNL     1       4.051  45.717  55.347  1.00  0.00    -0.340 N 
ATOM      5  C   UNL     1       5.313  44.898  55.394  1.00  0.00     0.332 C 
ATOM      6  C   UNL     1       4.276  47.040  54.687  1.00  0.00     0.332 C 
ATOM      7  H   UNL     1       3.820  45.885  56.347  1.00  0.00     0.347 HD
ENDBRANCH   3   4
ENDBRANCH   2   3
ENDBRANCH   1   2
BRANCH   1   8
ATOM      8  N   UNL     1       2.788  45.962  51.629  1.00  0.00    -0.354 N 
ATOM      9  H   UNL     1       2.428  46.321  50.744  1.00  0.00     0.163 HD
BRANCH   8  10
ATOM     10  C   UNL     1       3.921  45.233  51.292  1.00  0.00     0.226 A 
ATOM     11  N   UNL     1       5.099  45.893  51.175  1.00  0.00    -0.195 NA
ATOM     12  N   UNL     1       3.707  43.946  51.027  1.00  0.00    -0.193 NA
ATOM     13  C   UNL     1       6.218  45.202  50.810  1.00  0.00     0.147 A 
ATOM     14  C   UNL     1       4.810  43.306  50.611  1.00  0.00     0.165 A 
ATOM     15  C   UNL     1       6.070  43.853  50.472  1.00  0.00     0.082 A 
ATOM     16  N   UNL     1       4.922  41.995  50.236  1.00  0.00    -0.250 N 
ATOM     17  C   UNL     1       6.861  42.789  49.989  1.00  0.00     0.149 A 
ATOM     18  N   UNL     1       6.169  41.654  49.845  1.00  0.00    -0.179 NA
ATOM     19  C   UNL     1       3.878  41.000  50.213  1.00  0.00     0.176 C 
BRANCH  13  20
ATOM     20  N   UNL     1       7.419  45.930  50.742  1.00  0.00    -0.339 N 
ATOM     21  H   UNL     1       7.272  46.716  50.118  1.00  0.00     0.168 HD
BRANCH  20  22
ATOM     22  C   UNL     1       8.192  46.374  51.841  1.00  0.00     0.040 A 
ATOM     23  C   UNL     1       9.590  46.302  51.854  1.00  0.00     0.026 A 
ATOM     24  C   UNL     1       7.531  46.749  53.015  1.00  0.00     0.026 A 
ATOM     25  C   UNL     1      10.312  46.671  52.993  1.00  0.00     0.005 A 
ATOM     26  C   UNL     1       8.250  47.119  54.154  1.00  0.00     0.005 A 
ATOM     27  C   UNL     1       9.648  47.100  54.146  1.00  0.00    -0.051 A 
ATOM     28  C   UNL     1      10.422  47.470  55.377  1.00  0.00     0.044 C 
ENDBRANCH  20  22
ENDBRANCH  13  20
ENDBRANCH   8  10
ENDBRANCH   1   8
TORSDOF 7
ENDMDL
MODEL 2
REMARK VINA RESULT:    -8.561      0.842      1.130
REMARK INTER + INTRA:         -12.992
REMARK INTER:                 -12.264
REMARK INTRA:                  -0.728
REMARK UNBOUND:                -0.928
REMARK SMILES Cc1ccc(Nc2nc(NCCC[NH+](C)C)nc3c2cnn3C)cc1
REMARK SMILES IDX 11 1 12 2 13 3 14 4 15 5 16 6 10 8 9 10 8 11 17 12 7 13
REMARK SMILES IDX 18 14 19 15 22 16 20 17 21 18 23 19 6 20 5 22 4 23 24 24
REMARK SMILES IDX 3 25 25 26 2 27 1 28
REMARK H PARENT 14 7 10 9 6 21
ROOT
ATOM      1  C   UNL     1       1.470  45.197  51.969  1.00  0.00     0.122 C 
ENDROOT
BRANCH   1   2
ATOM      2  C   UNL     1       0.984  45.336  53.412  1.00  0.00     0.083 C 
BRANCH   2   3
ATOM      3  C   UNL     1       1.355  44.192  54.357  1.00  0.00     0.263 C 
BRANCH   3   4
ATOM      4  N   UNL     1       2.040  44.645  55.622  1.00  0.00    -0.340 N 
ATOM      5  C   UNL     1       3.226  45.521  55.319  1.00  0.00     0.332 C 
ATOM      6  C   UNL     1       1.128  45.277  56.625  1.00  0.00     0.332 C 
ATOM      7  H   UNL     1       2.457  43.793  56.050  1.00  0.00     0.347 HD
ENDBRANCH   3   4
ENDBRANCH   2   3
ENDBRANCH   1   2
BRANCH   1   8
ATOM      8  N   UNL     1       2.683  45.967  51.778  1.00  0.00    -0.354 N 
ATOM      9  H   UNL     1       2.604  46.727  51.102  1.00  0.00     0.163 HD
BRANCH   8  10
ATOM     10  C   UNL     1       3.823  45.267  51.404  1.00  0.00     0.226 A 
ATOM     11  N   UNL     1       4.984  45.954  51.264  1.00  0.00    -0.195 NA
ATOM     12  N   UNL     1       3.631  43.978  51.129  1.00  0.00    -0.193 NA
ATOM     13  C   UNL     1       6.107  45.293  50.862  1.00  0.00     0.147 A 
ATOM     14  C   UNL     1       4.737  43.368  50.679  1.00  0.00     0.165 A 
ATOM     15  C   UNL     1       5.981  43.945  50.513  1.00  0.00     0.082 A 
ATOM     16  N   UNL     1       4.868  42.063  50.286  1.00  0.00    -0.250 N 
ATOM     17  C   UNL     1       6.783  42.903  49.999  1.00  0.00     0.149 A 
ATOM     18  N   UNL     1       6.112  41.755  49.859  1.00  0.00    -0.179 NA
ATOM     19  C   UNL     1       3.846  41.046  50.279  1.00  0.00     0.176 C 
BRANCH  13  20
ATOM     20  N   UNL     1       7.290  46.048  50.772  1.00  0.00    -0.339 N 
ATOM     21  H   UNL     1       7.099  46.856  50.189  1.00  0.00     0.168 HD
BRANCH  20  22
ATOM     22  C   UNL     1       8.103  46.463  51.853  1.00  0.00     0.040 A 
ATOM     23  C   UNL     1       9.500  46.386  51.814  1.00  0.00     0.026 A 
ATOM     24  C   UNL     1       7.485  46.812  53.058  1.00  0.00     0.026 A 
ATOM     25  C   UNL     1      10.263  46.725  52.936  1.00  0.00     0.005 A 
ATOM     26  C   UNL     1       8.246  47.152  54.180  1.00  0.00     0.005 A 
ATOM     27  C   UNL     1       9.643  47.129  54.121  1.00  0.00    -0.051 A 
ATOM     28  C   UNL     1      10.461  47.466  55.333  1.00  0.00     0.044 C 
ENDBRANCH  20  22
ENDBRANCH  13  20
ENDBRANCH   8  10
ENDBRANCH   1   8
TORSDOF 7
ENDMDL
MODEL 3
REMARK VINA RESULT:    -8.412      1.780      5.293
REMARK INTER + INTRA:         -12.782
REMARK INTER:                 -12.105
REMARK INTRA:                  -0.677
REMARK UNBOUND:                -0.928
REMARK SMILES Cc1ccc(Nc2nc(NCCC[NH+](C)C)nc3c2cnn3C)cc1
REMARK SMILES IDX 11 1 12 2 13 3 14 4 15 5 16 6 10 8 9 10 8 11 17 12 7 13
REMARK SMILES IDX 18 14 19 15 22 16 20 17 21 18 23 19 6 20 5 22 4 23 24 24
REMARK SMILES IDX 3 25 25 26 2 27 1 28
REMARK H PARENT 14 7 10 9 6 21
ROOT
ATOM      1  C   UNL     1       5.670  41.538  50.028  1.00  0.00     0.122 C 
ENDROOT
BRANCH   1   2
ATOM      2  C   UNL     1       5.236  41.225  48.596  1.00  0.00     0.083 C 
BRANCH   2   3
ATOM      3  C   UNL     1       3.918  40.464  48.447  1.00  0.00     0.263 C 
BRANCH   3   4
ATOM      4  N   UNL     1       3.747  39.799  47.104  1.00  0.00    -0.340 N 
ATOM      5  C   UNL     1       2.850  38.594  47.200  1.00  0.00     0.332 C 
ATOM      6  C   UNL     1       3.317  40.721  46.008  1.00  0.00     0.332 C 
ATOM      7  H   UNL     1       4.677  39.404  46.854  1.00  0.00     0.347 HD
ENDBRANCH   3   4
ENDBRANCH   2   3
ENDBRANCH   1   2
BRANCH   1   8
ATOM      8  N   UNL     1       4.531  41.985  50.805  1.00  0.00    -0.354 N 
ATOM      9  H   UNL     1       3.622  41.745  50.406  1.00  0.00     0.163 HD
BRANCH   8  10
ATOM     10  C   UNL     1       4.454  43.342  51.091  1.00  0.00     0.226 A 
ATOM     11  N   UNL     1       5.592  44.077  51.036  1.00  0.00    -0.195 NA
ATOM     12  N   UNL     1       3.256  43.770  51.484  1.00  0.00    -0.193 NA
ATOM     13  C   UNL     1       5.545  45.404  51.349  1.00  0.00     0.147 A 
ATOM     14  C   UNL     1       3.253  45.062  51.843  1.00  0.00     0.165 A 
ATOM     15  C   UNL     1       4.332  45.923  51.813  1.00  0.00     0.082 A 
ATOM     16  N   UNL     1       2.197  45.794  52.316  1.00  0.00    -0.250 N 
ATOM     17  C   UNL     1       3.820  47.143  52.305  1.00  0.00     0.149 A 
ATOM     18  N   UNL     1       2.521  47.071  52.611  1.00  0.00    -0.179 NA
ATOM     19  C   UNL     1       0.844  45.341  52.525  1.00  0.00     0.176 C 
BRANCH  13  20
ATOM     20  N   UNL     1       6.748  46.125  51.237  1.00  0.00    -0.339 N 
ATOM     21  H   UNL     1       6.546  46.993  50.752  1.00  0.00     0.168 HD
BRANCH  20  22
ATOM     22  C   UNL     1       7.659  46.402  52.283  1.00  0.00     0.040 A 
ATOM     23  C   UNL     1       7.241  46.822  53.551  1.00  0.00     0.026 A 
ATOM     24  C   UNL     1       9.027  46.410  51.992  1.00  0.00     0.026 A 
ATOM     25  C   UNL     1       8.177  47.169  54.530  1.00  0.00     0.005 A 
ATOM     26  C   UNL     1       9.964  46.755  52.970  1.00  0.00     0.005 A 
ATOM     27  C   UNL     1       9.546  47.120  54.254  1.00  0.00    -0.051 A 
ATOM     28  C   UNL     1      10.549  47.519  55.296  1.00  0.00     0.044 C 
ENDBRANCH  20  22
ENDBRANCH  13  20
ENDBRANCH   8  10
ENDBRANCH   1   8
TORSDOF 7
ENDMDL
MODEL 4
REMARK VINA RESULT:    -8.376      1.402      1.743
REMARK INTER + INTRA:         -12.732
REMARK INTER:                 -11.789
REMARK INTRA:                  -0.943
REMARK UNBOUND:                -0.928
REMARK SMILES Cc1ccc(Nc2nc(NCCC[NH+](C)C)nc3c2cnn3C)cc1
REMARK SMILES IDX 11 1 12 2 13 3 14 4 15 5 16 6 10 8 9 10 8 11 17 12 7 13
REMARK SMILES IDX 18 14 19 15 22 16 20 17 21 18 23 19 6 20 5 22 4 23 24 24
REMARK SMILES IDX 3 25 25 26 2 27 1 28
REMARK H PARENT 14 7 10 9 6 21
ROOT
ATOM      1  C   UNL     1       2.482  43.139  52.345  1.00  0.00     0.122 C 
ENDROOT
BRANCH   1   2
ATOM      2  C   UNL     1       1.428  43.249  53.448  1.00  0.00     0.083 C 
BRANCH   2   3
ATOM      3  C   UNL     1       1.288  44.624  54.104  1.00  0.00     0.263 C 
BRANCH   3   4
ATOM      4  N   UNL     1       1.982  44.735  55.438  1.00  0.00    -0.340 N 
ATOM      5  C   UNL     1       3.193  45.626  55.352  1.00  0.00     0.332 C 
ATOM      6  C   UNL     1       1.087  45.128  56.570  1.00  0.00     0.332 C 
ATOM      7  H   UNL     1       2.375  43.794  55.643  1.00  0.00     0.347 HD
ENDBRANCH   3   4
ENDBRANCH   2   3
ENDBRANCH   1   2
BRANCH   1   8
ATOM      8  N   UNL     1       3.012  44.452  52.033  1.00  0.00    -0.354 N 
ATOM      9  H   UNL     1       2.455  44.990  51.368  1.00  0.00     0.163 HD
BRANCH   8  10
ATOM     10  C   UNL     1       4.312  44.509  51.547  1.00  0.00     0.226 A 
ATOM     11  N   UNL     1       5.021  45.649  51.738  1.00  0.00    -0.195 NA
ATOM     12  N   UNL     1       4.702  43.444  50.850  1.00  0.00    -0.193 NA
ATOM     13  C   UNL     1       6.287  45.739  51.237  1.00  0.00     0.147 A 
ATOM     14  C   UNL     1       5.925  43.584  50.318  1.00  0.00     0.165 A 
ATOM     15  C   UNL     1       6.757  44.679  50.456  1.00  0.00     0.082 A 
ATOM     16  N   UNL     1       6.601  42.691  49.532  1.00  0.00    -0.250 N 
ATOM     17  C   UNL     1       7.900  44.346  49.697  1.00  0.00     0.149 A 
ATOM     18  N   UNL     1       7.811  43.137  49.133  1.00  0.00    -0.179 NA
ATOM     19  C   UNL     1       6.152  41.388  49.106  1.00  0.00     0.176 C 
BRANCH  13  20
ATOM     20  N   UNL     1       6.990  46.929  51.499  1.00  0.00    -0.339 N 
ATOM     21  H   UNL     1       6.312  47.680  51.570  1.00  0.00     0.168 HD
BRANCH  20  22
ATOM     22  C   UNL     1       7.971  47.119  52.500  1.00  0.00     0.040 A 
ATOM     23  C   UNL     1       9.314  46.776  52.310  1.00  0.00     0.026 A 
ATOM     24  C   UNL     1       7.556  47.514  53.776  1.00  0.00     0.026 A 
ATOM     25  C   UNL     1      10.236  46.899  53.354  1.00  0.00     0.005 A 
ATOM     26  C   UNL     1       8.475  47.639  54.821  1.00  0.00     0.005 A 
ATOM     27  C   UNL     1       9.827  47.350  54.613  1.00  0.00    -0.051 A 
ATOM     28  C   UNL     1      10.811  47.456  55.740  1.00  0.00     0.044 C 
ENDBRANCH  20  22
ENDBRANCH  13  20
ENDBRANCH   8  10
ENDBRANCH   1   8
TORSDOF 7
ENDMDL
MODEL 5
REMARK VINA RESULT:    -8.348      1.802      5.223
REMARK INTER + INTRA:         -12.692
REMARK INTER:                 -11.993
REMARK INTRA:                  -0.699
REMARK UNBOUND:                -0.928
REMARK SMILES Cc1ccc(Nc2nc(NCCC[NH+](C)C)nc3c2cnn3C)cc1
REMARK SMILES IDX 11 1 12 2 13 3 14 4 15 5 16 6 10 8 9 10 8 11 17 12 7 13
REMARK SMILES IDX 18 14 19 15 22 16 20 17 21 18 23 19 6 20 5 22 4 23 24 24
REMARK SMILES IDX 3 25 25 26 2 27 1 28
REMARK H PARENT 14 7 10 9 6 21
ROOT
ATOM      1  C   UNL     1       5.678  41.423  50.025  1.00  0.00     0.122 C 
ENDROOT
BRANCH   1   2
ATOM      2  C   UNL     1       5.228  41.185  48.583  1.00  0.00     0.083 C 
BRANCH   2   3
ATOM      3  C   UNL     1       3.902  40.442  48.410  1.00  0.00     0.263 C 
BRANCH   3   4
ATOM      4  N   UNL     1       3.743  39.787  47.061  1.00  0.00    -0.340 N 
ATOM      5  C   UNL     1       2.838  38.587  47.139  1.00  0.00     0.332 C 
ATOM      6  C   UNL     1       3.333  40.718  45.966  1.00  0.00     0.332 C 
ATOM      7  H   UNL     1       4.673  39.387  46.820  1.00  0.00     0.347 HD
ENDBRANCH   3   4
ENDBRANCH   2   3
ENDBRANCH   1   2
BRANCH   1   8
ATOM      8  N   UNL     1       4.547  41.832  50.836  1.00  0.00    -0.354 N 
ATOM      9  H   UNL     1       3.642  41.490  50.510  1.00  0.00     0.163 HD
BRANCH   8  10
ATOM     10  C   UNL     1       4.370  43.195  51.032  1.00  0.00     0.226 A 
ATOM     11  N   UNL     1       5.439  44.013  50.873  1.00  0.00    -0.195 NA
ATOM     12  N   UNL     1       3.158  43.553  51.452  1.00  0.00    -0.193 NA
ATOM     13  C   UNL     1       5.295  45.352  51.096  1.00  0.00     0.147 A 
ATOM     14  C   UNL     1       3.063  44.863  51.722  1.00  0.00     0.165 A 
ATOM     15  C   UNL     1       4.064  45.804  51.581  1.00  0.00     0.082 A 
ATOM     16  N   UNL     1       1.970  45.540  52.193  1.00  0.00    -0.250 N 
ATOM     17  C   UNL     1       3.473  47.011  52.012  1.00  0.00     0.149 A 
ATOM     18  N   UNL     1       2.199  46.858  52.385  1.00  0.00    -0.179 NA
ATOM     19  C   UNL     1       0.670  44.997  52.497  1.00  0.00     0.176 C 
BRANCH  13  20
ATOM     20  N   UNL     1       6.428  46.156  50.877  1.00  0.00    -0.339 N 
ATOM     21  H   UNL     1       6.123  46.999  50.402  1.00  0.00     0.168 HD
BRANCH  20  22
ATOM     22  C   UNL     1       7.399  46.516  51.841  1.00  0.00     0.040 A 
ATOM     23  C   UNL     1       8.767  46.555  51.550  1.00  0.00     0.026 A 
ATOM     24  C   UNL     1       6.992  46.682  53.169  1.00  0.00     0.026 A 
ATOM     25  C   UNL     1       9.701  46.831  52.554  1.00  0.00     0.005 A 
ATOM     26  C   UNL     1       7.923  46.959  54.173  1.00  0.00     0.005 A 
ATOM     27  C   UNL     1       9.285  47.054  53.869  1.00  0.00    -0.051 A 
ATOM     28  C   UNL     1      10.290  47.322  54.951  1.00  0.00     0.044 C 
ENDBRANCH  20  22
ENDBRANCH  13  20
ENDBRANCH   8  10
ENDBRANCH   1   8
TORSDOF 7
ENDMDL
MODEL 6
REMARK VINA RESULT:    -8.340      1.107      1.701
REMARK INTER + INTRA:         -12.681
REMARK INTER:                 -12.017
REMARK INTRA:                  -0.664
REMARK UNBOUND:                -0.928
REMARK SMILES Cc1ccc(Nc2nc(NCCC[NH+](C)C)nc3c2cnn3C)cc1
REMARK SMILES IDX 11 1 12 2 13 3 14 4 15 5 16 6 10 8 9 10 8 11 17 12 7 13
REMARK SMILES IDX 18 14 19 15 22 16 20 17 21 18 23 19 6 20 5 22 4 23 24 24
REMARK SMILES IDX 3 25 25 26 2 27 1 28
REMARK H PARENT 14 7 10 9 6 21
ROOT
ATOM      1  C   UNL     1       2.886  46.859  52.687  1.00  0.00     0.122 C 
ENDROOT
BRANCH   1   2
ATOM      2  C   UNL     1       3.135  46.126  54.006  1.00  0.00     0.083 C 
BRANCH   2   3
ATOM      3  C   UNL     1       2.132  45.027  54.360  1.00  0.00     0.263 C 
BRANCH   3   4
ATOM      4  N   UNL     1       0.727  45.532  54.572  1.00  0.00    -0.340 N 
ATOM      5  C   UNL     1      -0.236  44.890  53.610  1.00  0.00     0.332 C 
ATOM      6  C   UNL     1       0.242  45.437  55.984  1.00  0.00     0.332 C 
ATOM      7  H   UNL     1       0.732  46.535  54.294  1.00  0.00     0.347 HD
ENDBRANCH   3   4
ENDBRANCH   2   3
ENDBRANCH   1   2
BRANCH   1   8
ATOM      8  N   UNL     1       2.767  45.903  51.603  1.00  0.00    -0.354 N 
ATOM      9  H   UNL     1       2.051  45.188  51.741  1.00  0.00     0.163 HD
BRANCH   8  10
ATOM     10  C   UNL     1       3.913  45.204  51.248  1.00  0.00     0.226 A 
ATOM     11  N   UNL     1       5.077  45.889  51.138  1.00  0.00    -0.195 NA
ATOM     12  N   UNL     1       3.724  43.917  50.962  1.00  0.00    -0.193 NA
ATOM     13  C   UNL     1       6.208  45.227  50.755  1.00  0.00     0.147 A 
ATOM     14  C   UNL     1       4.838  43.307  50.531  1.00  0.00     0.165 A 
ATOM     15  C   UNL     1       6.086  43.882  50.395  1.00  0.00     0.082 A 
ATOM     16  N   UNL     1       4.975  42.004  50.133  1.00  0.00    -0.250 N 
ATOM     17  C   UNL     1       6.897  42.842  49.891  1.00  0.00     0.149 A 
ATOM     18  N   UNL     1       6.227  41.697  49.730  1.00  0.00    -0.179 NA
ATOM     19  C   UNL     1       3.951  40.989  50.097  1.00  0.00     0.176 C 
BRANCH  13  20
ATOM     20  N   UNL     1       7.394  45.981  50.696  1.00  0.00    -0.339 N 
ATOM     21  H   UNL     1       7.226  46.777  50.090  1.00  0.00     0.168 HD
BRANCH  20  22
ATOM     22  C   UNL     1       8.166  46.417  51.798  1.00  0.00     0.040 A 
ATOM     23  C   UNL     1       9.564  46.361  51.804  1.00  0.00     0.026 A 
ATOM     24  C   UNL     1       7.505  46.767  52.980  1.00  0.00     0.026 A 
ATOM     25  C   UNL     1      10.286  46.721  52.946  1.00  0.00     0.005 A 
ATOM     26  C   UNL     1       8.224  47.127  54.122  1.00  0.00     0.005 A 
ATOM     27  C   UNL     1       9.622  47.125  54.108  1.00  0.00    -0.051 A 
ATOM     28  C   UNL     1      10.397  47.485  55.342  1.00  0.00     0.044 C 
ENDBRANCH  20  22
ENDBRANCH  13  20
ENDBRANCH   8  10
ENDBRANCH   1   8
TORSDOF 7
ENDMDL
MODEL 7
REMARK VINA RESULT:    -8.290      1.655      2.228
REMARK INTER + INTRA:         -12.611
REMARK INTER:                 -11.824
REMARK INTRA:                  -0.787
REMARK UNBOUND:                -0.928
REMARK SMILES Cc1ccc(Nc2nc(NCCC[NH+](C)C)nc3c2cnn3C)cc1
REMARK SMILES IDX 11 1 12 2 13 3 14 4 15 5 16 6 10 8 9 10 8 11 17 12 7 13
REMARK SMILES IDX 18 14 19 15 22 16 20 17 21 18 23 19 6 20 5 22 4 23 24 24
REMARK SMILES IDX 3 25 25 26 2 27 1 28
REMARK H PARENT 14 7 10 9 6 21
ROOT
ATOM      1  C   UNL     1       2.588  42.732  52.668  1.00  0.00     0.122 C 
ENDROOT
BRANCH   1   2
ATOM      2  C   UNL     1       1.245  43.119  53.288  1.00  0.00     0.083 C 
BRANCH   2   3
ATOM      3  C   UNL     1       1.212  44.454  54.034  1.00  0.00     0.263 C 
BRANCH   3   4
ATOM      4  N   UNL     1       0.723  45.608  53.195  1.00  0.00    -0.340 N 
ATOM      5  C   UNL     1       1.871  46.413  52.648  1.00  0.00     0.332 C 
ATOM      6  C   UNL     1      -0.243  45.224  52.120  1.00  0.00     0.332 C 
ATOM      7  H   UNL     1       0.243  46.261  53.848  1.00  0.00     0.347 HD
ENDBRANCH   3   4
ENDBRANCH   2   3
ENDBRANCH   1   2
BRANCH   1   8
ATOM      8  N   UNL     1       3.616  43.663  53.091  1.00  0.00    -0.354 N 
ATOM      9  H   UNL     1       3.274  44.594  53.335  1.00  0.00     0.163 HD
BRANCH   8  10
ATOM     10  C   UNL     1       4.669  43.883  52.213  1.00  0.00     0.226 A 
ATOM     11  N   UNL     1       5.332  45.063  52.285  1.00  0.00    -0.195 NA
ATOM     12  N   UNL     1       4.864  42.922  51.311  1.00  0.00    -0.193 NA
ATOM     13  C   UNL     1       6.347  45.314  51.408  1.00  0.00     0.147 A 
ATOM     14  C   UNL     1       5.825  43.222  50.425  1.00  0.00     0.165 A 
ATOM     15  C   UNL     1       6.588  44.373  50.402  1.00  0.00     0.082 A 
ATOM     16  N   UNL     1       6.248  42.466  49.365  1.00  0.00    -0.250 N 
ATOM     17  C   UNL     1       7.425  44.215  49.277  1.00  0.00     0.149 A 
ATOM     18  N   UNL     1       7.224  43.056  48.642  1.00  0.00    -0.179 NA
ATOM     19  C   UNL     1       5.760  41.168  48.968  1.00  0.00     0.176 C 
BRANCH  13  20
ATOM     20  N   UNL     1       7.024  46.538  51.555  1.00  0.00    -0.339 N 
ATOM     21  H   UNL     1       6.332  47.279  51.554  1.00  0.00     0.168 HD
BRANCH  20  22
ATOM     22  C   UNL     1       7.999  46.843  52.534  1.00  0.00     0.040 A 
ATOM     23  C   UNL     1       9.355  46.545  52.362  1.00  0.00     0.026 A 
ATOM     24  C   UNL     1       7.570  47.314  53.780  1.00  0.00     0.026 A 
ATOM     25  C   UNL     1      10.274  46.784  53.389  1.00  0.00     0.005 A 
ATOM     26  C   UNL     1       8.486  47.554  54.807  1.00  0.00     0.005 A 
ATOM     27  C   UNL     1       9.849  47.309  54.613  1.00  0.00    -0.051 A 
ATOM     28  C   UNL     1      10.830  47.539  55.724  1.00  0.00     0.044 C 
ENDBRANCH  20  22
ENDBRANCH  13  20
ENDBRANCH   8  10
ENDBRANCH   1   8
TORSDOF 7
ENDMDL
MODEL 8
REMARK VINA RESULT:    -8.264      2.684      5.746
REMARK INTER + INTRA:         -12.574
REMARK INTER:                 -12.159
REMARK INTRA:                  -0.415
REMARK UNBOUND:                -0.928
REMARK SMILES Cc1ccc(Nc2nc(NCCC[NH+](C)C)nc3c2cnn3C)cc1
REMARK SMILES IDX 11 1 12 2 13 3 14 4 15 5 16 6 10 8 9 10 8 11 17 12 7 13
REMARK SMILES IDX 18 14 19 15 22 16 20 17 21 18 23 19 6 20 5 22 4 23 24 24
REMARK SMILES IDX 3 25 25 26 2 27 1 28
REMARK H PARENT 14 7 10 9 6 21
ROOT
ATOM      1  C   UNL     1       5.413  41.230  47.906  1.00  0.00     0.122 C 
ENDROOT
BRANCH   1   2
ATOM      2  C   UNL     1       5.765  41.934  46.595  1.00  0.00     0.083 C 
BRANCH   2   3
ATOM      3  C   UNL     1       4.847  41.636  45.409  1.00  0.00     0.263 C 
BRANCH   3   4
ATOM      4  N   UNL     1       5.091  40.290  44.774  1.00  0.00    -0.340 N 
ATOM      5  C   UNL     1       3.854  39.433  44.815  1.00  0.00     0.332 C 
ATOM      6  C   UNL     1       5.674  40.352  43.398  1.00  0.00     0.332 C 
ATOM      7  H   UNL     1       5.764  39.793  45.393  1.00  0.00     0.347 HD
ENDBRANCH   3   4
ENDBRANCH   2   3
ENDBRANCH   1   2
BRANCH   1   8
ATOM      8  N   UNL     1       6.345  41.621  48.946  1.00  0.00    -0.354 N 
ATOM      9  H   UNL     1       6.597  40.874  49.595  1.00  0.00     0.163 HD
BRANCH   8  10
ATOM     10  C   UNL     1       5.982  42.693  49.750  1.00  0.00     0.226 A 
ATOM     11  N   UNL     1       6.808  43.766  49.804  1.00  0.00    -0.195 NA
ATOM     12  N   UNL     1       4.876  42.512  50.469  1.00  0.00    -0.193 NA
ATOM     13  C   UNL     1       6.488  44.816  50.615  1.00  0.00     0.147 A 
ATOM     14  C   UNL     1       4.619  43.531  51.302  1.00  0.00     0.165 A 
ATOM     15  C   UNL     1       5.364  44.686  51.436  1.00  0.00     0.082 A 
ATOM     16  N   UNL     1       3.582  43.642  52.188  1.00  0.00    -0.250 N 
ATOM     17  C   UNL     1       4.697  45.416  52.444  1.00  0.00     0.149 A 
ATOM     18  N   UNL     1       3.612  44.787  52.905  1.00  0.00    -0.179 NA
ATOM     19  C   UNL     1       2.524  42.690  52.420  1.00  0.00     0.176 C 
BRANCH  13  20
ATOM     20  N   UNL     1       7.362  45.918  50.601  1.00  0.00    -0.339 N 
ATOM     21  H   UNL     1       6.853  46.713  50.231  1.00  0.00     0.168 HD
BRANCH  20  22
ATOM     22  C   UNL     1       8.164  46.365  51.677  1.00  0.00     0.040 A 
ATOM     23  C   UNL     1       9.520  46.039  51.790  1.00  0.00     0.026 A 
ATOM     24  C   UNL     1       7.543  47.022  52.745  1.00  0.00     0.026 A 
ATOM     25  C   UNL     1      10.256  46.429  52.913  1.00  0.00     0.005 A 
ATOM     26  C   UNL     1       8.276  47.413  53.868  1.00  0.00     0.005 A 
ATOM     27  C   UNL     1       9.644  47.135  53.952  1.00  0.00    -0.051 A 
ATOM     28  C   UNL     1      10.427  47.529  55.170  1.00  0.00     0.044 C 
ENDBRANCH  20  22
ENDBRANCH  13  20
ENDBRANCH   8  10
ENDBRANCH   1   8
TORSDOF 7
ENDMDL
MODEL 9
REMARK VINA RESULT:    -8.125      1.312      2.223
REMARK INTER + INTRA:         -12.379
REMARK INTER:                 -11.487
REMARK INTRA:                  -0.892
REMARK UNBOUND:                -0.928
REMARK SMILES Cc1ccc(Nc2nc(NCCC[NH+](C)C)nc3c2cnn3C)cc1
REMARK SMILES IDX 11 1 12 2 13 3 14 4 15 5 16 6 10 8 9 10 8 11 17 12 7 13
REMARK SMILES IDX 18 14 19 15 22 16 20 17 21 18 23 19 6 20 5 22 4 23 24 24
REMARK SMILES IDX 3 25 25 26 2 27 1 28
REMARK H PARENT 14 7 10 9 6 21
ROOT
ATOM      1  C   UNL     1       2.467  46.057  53.696  1.00  0.00     0.122 C 
ENDROOT
BRANCH   1   2
ATOM      2  C   UNL     1       1.423  45.037  54.152  1.00  0.00     0.083 C 
BRANCH   2   3
ATOM      3  C   UNL     1       0.306  44.731  53.152  1.00  0.00     0.263 C 
BRANCH   3   4
ATOM      4  N   UNL     1       0.459  43.401  52.459  1.00  0.00    -0.340 N 
ATOM      5  C   UNL     1       0.850  42.319  53.430  1.00  0.00     0.332 C 
ATOM      6  C   UNL     1      -0.718  42.997  51.629  1.00  0.00     0.332 C 
ATOM      7  H   UNL     1       1.285  43.491  51.833  1.00  0.00     0.347 HD
ENDBRANCH   3   4
ENDBRANCH   2   3
ENDBRANCH   1   2
BRANCH   1   8
ATOM      8  N   UNL     1       2.630  45.990  52.257  1.00  0.00    -0.354 N 
ATOM      9  H   UNL     1       1.853  45.553  51.759  1.00  0.00     0.163 HD
BRANCH   8  10
ATOM     10  C   UNL     1       3.769  45.356  51.778  1.00  0.00     0.226 A 
ATOM     11  N   UNL     1       4.894  46.092  51.610  1.00  0.00    -0.195 NA
ATOM     12  N   UNL     1       3.605  44.077  51.443  1.00  0.00    -0.193 NA
ATOM     13  C   UNL     1       6.014  45.496  51.107  1.00  0.00     0.147 A 
ATOM     14  C   UNL     1       4.702  43.534  50.896  1.00  0.00     0.165 A 
ATOM     15  C   UNL     1       5.913  44.165  50.691  1.00  0.00     0.082 A 
ATOM     16  N   UNL     1       4.854  42.258  50.424  1.00  0.00    -0.250 N 
ATOM     17  C   UNL     1       6.718  43.184  50.073  1.00  0.00     0.149 A 
ATOM     18  N   UNL     1       6.080  42.021  49.909  1.00  0.00    -0.179 NA
ATOM     19  C   UNL     1       3.869  41.205  50.418  1.00  0.00     0.176 C 
BRANCH  13  20
ATOM     20  N   UNL     1       7.163  46.299  50.992  1.00  0.00    -0.339 N 
ATOM     21  H   UNL     1       6.899  47.150  50.507  1.00  0.00     0.168 HD
BRANCH  20  22
ATOM     22  C   UNL     1       8.055  46.640  52.035  1.00  0.00     0.040 A 
ATOM     23  C   UNL     1       9.428  46.382  51.963  1.00  0.00     0.026 A 
ATOM     24  C   UNL     1       7.524  47.105  53.243  1.00  0.00     0.026 A 
ATOM     25  C   UNL     1      10.263  46.655  53.051  1.00  0.00     0.005 A 
ATOM     26  C   UNL     1       8.355  47.380  54.332  1.00  0.00     0.005 A 
ATOM     27  C   UNL     1       9.736  47.174  54.238  1.00  0.00    -0.051 A 
ATOM     28  C   UNL     1      10.627  47.442  55.414  1.00  0.00     0.044 C 
ENDBRANCH  20  22
ENDBRANCH  13  20
ENDBRANCH   8  10
ENDBRANCH   1   8
TORSDOF 7
ENDMDL
MODEL 10
REMARK VINA RESULT:    -7.932      1.956      5.726
REMARK INTER + INTRA:         -12.106
REMARK INTER:                 -11.612
REMARK INTRA:                  -0.494
REMARK UNBOUND:                -0.928
REMARK SMILES Cc1ccc(Nc2nc(NCCC[NH+](C)C)nc3c2cnn3C)cc1
REMARK SMILES IDX 11 1 12 2 13 3 14 4 15 5 16 6 10 8 9 10 8 11 17 12 7 13
REMARK SMILES IDX 18 14 19 15 22 16 20 17 21 18 23 19 6 20 5 22 4 23 24 24
REMARK SMILES IDX 3 25 25 26 2 27 1 28
REMARK H PARENT 14 7 10 9 6 21
ROOT
ATOM      1  C   UNL     1       4.157  45.672  55.431  1.00  0.00     0.122 C 
ENDROOT
BRANCH   1   2
ATOM      2  C   UNL     1       2.695  45.651  54.984  1.00  0.00     0.083 C 
BRANCH   2   3
ATOM      3  C   UNL     1       2.327  44.585  53.951  1.00  0.00     0.263 C 
BRANCH   3   4
ATOM      4  N   UNL     1       1.204  43.677  54.387  1.00  0.00    -0.340 N 
ATOM      5  C   UNL     1      -0.041  44.460  54.705  1.00  0.00     0.332 C 
ATOM      6  C   UNL     1       0.922  42.548  53.447  1.00  0.00     0.332 C 
ATOM      7  H   UNL     1       1.492  43.276  55.303  1.00  0.00     0.347 HD
ENDBRANCH   3   4
ENDBRANCH   2   3
ENDBRANCH   1   2
BRANCH   1   8
ATOM      8  N   UNL     1       4.796  46.894  54.982  1.00  0.00    -0.354 N 
ATOM      9  H   UNL     1       4.181  47.538  54.482  1.00  0.00     0.163 HD
BRANCH   8  10
ATOM     10  C   UNL     1       5.915  46.760  54.171  1.00  0.00     0.226 A 
ATOM     11  N   UNL     1       5.769  46.162  52.964  1.00  0.00    -0.195 NA
ATOM     12  N   UNL     1       7.060  47.166  54.717  1.00  0.00    -0.193 NA
ATOM     13  C   UNL     1       6.863  45.988  52.167  1.00  0.00     0.147 A 
ATOM     14  C   UNL     1       8.126  46.928  53.939  1.00  0.00     0.165 A 
ATOM     15  C   UNL     1       8.111  46.349  52.685  1.00  0.00     0.082 A 
ATOM     16  N   UNL     1       9.439  47.198  54.216  1.00  0.00    -0.250 N 
ATOM     17  C   UNL     1       9.470  46.301  52.306  1.00  0.00     0.149 A 
ATOM     18  N   UNL     1      10.283  46.817  53.233  1.00  0.00    -0.179 NA
ATOM     19  C   UNL     1       9.972  47.810  55.408  1.00  0.00     0.176 C 
BRANCH  13  20
ATOM     20  N   UNL     1       6.645  45.397  50.910  1.00  0.00    -0.339 N 
ATOM     21  H   UNL     1       7.530  45.382  50.416  1.00  0.00     0.168 HD
BRANCH  20  22
ATOM     22  C   UNL     1       5.978  44.174  50.664  1.00  0.00     0.040 A 
ATOM     23  C   UNL     1       6.467  43.220  49.764  1.00  0.00     0.026 A 
ATOM     24  C   UNL     1       4.708  43.982  51.218  1.00  0.00     0.026 A 
ATOM     25  C   UNL     1       5.733  42.063  49.485  1.00  0.00     0.005 A 
ATOM     26  C   UNL     1       3.973  42.826  50.941  1.00  0.00     0.005 A 
ATOM     27  C   UNL     1       4.489  41.848  50.085  1.00  0.00    -0.051 A 
ATOM     28  C   UNL     1       3.690  40.619  49.764  1.00  0.00     0.044 C 
ENDBRANCH  20  22
ENDBRANCH  13  20
ENDBRANCH   8  10
ENDBRANCH   1   8
TORSDOF 7
ENDMDL
MODEL 11
REMARK VINA RESULT:    -7.903      2.057      5.536
REMARK INTER + INTRA:         -12.066
REMARK INTER:                 -11.294
REMARK INTRA:                  -0.772
REMARK UNBOUND:                -0.928
REMARK SMILES Cc1ccc(Nc2nc(NCCC[NH+](C)C)nc3c2cnn3C)cc1
REMARK SMILES IDX 11 1 12 2 13 3 14 4 15 5 16 6 10 8 9 10 8 11 17 12 7 13
REMARK SMILES IDX 18 14 19 15 22 16 20 17 21 18 23 19 6 20 5 22 4 23 24 24
REMARK SMILES IDX 3 25 25 26 2 27 1 28
REMARK H PARENT 14 7 10 9 6 21
ROOT
ATOM      1  C   UNL     1       5.231  41.407  50.268  1.00  0.00     0.122 C 
ENDROOT
BRANCH   1   2
ATOM      2  C   UNL     1       5.040  41.104  48.781  1.00  0.00     0.083 C 
BRANCH   2   3
ATOM      3  C   UNL     1       3.733  40.405  48.403  1.00  0.00     0.263 C 
BRANCH   3   4
ATOM      4  N   UNL     1       3.791  39.680  47.082  1.00  0.00    -0.340 N 
ATOM      5  C   UNL     1       2.861  38.496  47.066  1.00  0.00     0.332 C 
ATOM      6  C   UNL     1       3.589  40.556  45.887  1.00  0.00     0.332 C 
ATOM      7  H   UNL     1       4.740  39.258  47.022  1.00  0.00     0.347 HD
ENDBRANCH   3   4
ENDBRANCH   2   3
ENDBRANCH   1   2
BRANCH   1   8
ATOM      8  N   UNL     1       3.941  41.532  50.918  1.00  0.00    -0.354 N 
ATOM      9  H   UNL     1       3.144  41.258  50.341  1.00  0.00     0.163 HD
BRANCH   8  10
ATOM     10  C   UNL     1       3.608  42.781  51.426  1.00  0.00     0.226 A 
ATOM     11  N   UNL     1       4.477  43.804  51.240  1.00  0.00    -0.195 NA
ATOM     12  N   UNL     1       2.481  42.821  52.135  1.00  0.00    -0.193 NA
ATOM     13  C   UNL     1       4.185  45.031  51.762  1.00  0.00     0.147 A 
ATOM     14  C   UNL     1       2.251  44.021  52.686  1.00  0.00     0.165 A 
ATOM     15  C   UNL     1       3.041  45.147  52.557  1.00  0.00     0.082 A 
ATOM     16  N   UNL     1       1.202  44.383  53.488  1.00  0.00    -0.250 N 
ATOM     17  C   UNL     1       2.386  46.124  53.336  1.00  0.00     0.149 A 
ATOM     18  N   UNL     1       1.266  45.666  53.905  1.00  0.00    -0.179 NA
ATOM     19  C   UNL     1       0.101  43.555  53.914  1.00  0.00     0.176 C 
BRANCH  13  20
ATOM     20  N   UNL     1       5.105  46.064  51.506  1.00  0.00    -0.339 N 
ATOM     21  H   UNL     1       4.592  46.940  51.493  1.00  0.00     0.168 HD
BRANCH  20  22
ATOM     22  C   UNL     1       6.333  46.278  52.174  1.00  0.00     0.040 A 
ATOM     23  C   UNL     1       6.400  46.735  53.495  1.00  0.00     0.026 A 
ATOM     24  C   UNL     1       7.519  46.182  51.438  1.00  0.00     0.026 A 
ATOM     25  C   UNL     1       7.633  47.016  54.090  1.00  0.00     0.005 A 
ATOM     26  C   UNL     1       8.753  46.461  52.031  1.00  0.00     0.005 A 
ATOM     27  C   UNL     1       8.821  46.863  53.369  1.00  0.00    -0.051 A 
ATOM     28  C   UNL     1      10.142  47.191  53.999  1.00  0.00     0.044 C 
ENDBRANCH  20  22
ENDBRANCH  13  20
ENDBRANCH   8  10
ENDBRANCH   1   8
TORSDOF 7
ENDMDL
MODEL 12
REMARK VINA RESULT:    -7.869      1.571      4.664
REMARK INTER + INTRA:         -12.017
REMARK INTER:                 -10.907
REMARK INTRA:                  -1.110
REMARK UNBOUND:                -0.928
REMARK SMILES Cc1ccc(Nc2nc(NCCC[NH+](C)C)nc3c2cnn3C)cc1
REMARK SMILES IDX 11 1 12 2 13 3 14 4 15 5 16 6 10 8 9 10 8 11 17 12 7 13
REMARK SMILES IDX 18 14 19 15 22 16 20 17 21 18 23 19 6 20 5 22 4 23 24 24
REMARK SMILES IDX 3 25 25 26 2 27 1 28
REMARK H PARENT 14 7 10 9 6 21
ROOT
ATOM      1  C   UNL     1       3.537  41.158  49.853  1.00  0.00     0.122 C 
ENDROOT
BRANCH   1   2
ATOM      2  C   UNL     1       4.689  40.759  48.930  1.00  0.00     0.083 C 
BRANCH   2   3
ATOM      3  C   UNL     1       5.592  41.900  48.456  1.00  0.00     0.263 C 
BRANCH   3   4
ATOM      4  N   UNL     1       6.615  42.330  49.477  1.00  0.00    -0.340 N 
ATOM      5  C   UNL     1       7.335  41.145  50.063  1.00  0.00     0.332 C 
ATOM      6  C   UNL     1       7.571  43.373  48.992  1.00  0.00     0.332 C 
ATOM      7  H   UNL     1       6.081  42.723  50.278  1.00  0.00     0.347 HD
ENDBRANCH   3   4
ENDBRANCH   2   3
ENDBRANCH   1   2
BRANCH   1   8
ATOM      8  N   UNL     1       4.050  41.514  51.162  1.00  0.00    -0.354 N 
ATOM      9  H   UNL     1       3.764  40.888  51.916  1.00  0.00     0.163 HD
BRANCH   8  10
ATOM     10  C   UNL     1       3.768  42.792  51.625  1.00  0.00     0.226 A 
ATOM     11  N   UNL     1       4.640  43.789  51.336  1.00  0.00    -0.195 NA
ATOM     12  N   UNL     1       2.687  42.887  52.398  1.00  0.00    -0.193 NA
ATOM     13  C   UNL     1       4.400  45.045  51.813  1.00  0.00     0.147 A 
ATOM     14  C   UNL     1       2.510  44.118  52.902  1.00  0.00     0.165 A 
ATOM     15  C   UNL     1       3.308  45.221  52.668  1.00  0.00     0.082 A 
ATOM     16  N   UNL     1       1.519  44.539  53.747  1.00  0.00    -0.250 N 
ATOM     17  C   UNL     1       2.717  46.248  53.436  1.00  0.00     0.149 A 
ATOM     18  N   UNL     1       1.628  45.839  54.094  1.00  0.00    -0.179 NA
ATOM     19  C   UNL     1       0.433  43.753  54.280  1.00  0.00     0.176 C 
BRANCH  13  20
ATOM     20  N   UNL     1       5.317  46.047  51.449  1.00  0.00    -0.339 N 
ATOM     21  H   UNL     1       4.794  46.897  51.270  1.00  0.00     0.168 HD
BRANCH  20  22
ATOM     22  C   UNL     1       6.501  46.392  52.144  1.00  0.00     0.040 A 
ATOM     23  C   UNL     1       7.770  46.278  51.566  1.00  0.00     0.026 A 
ATOM     24  C   UNL     1       6.409  46.705  53.504  1.00  0.00     0.026 A 
ATOM     25  C   UNL     1       8.920  46.546  52.315  1.00  0.00     0.005 A 
ATOM     26  C   UNL     1       7.557  46.974  54.254  1.00  0.00     0.005 A 
ATOM     27  C   UNL     1       8.821  46.915  53.660  1.00  0.00    -0.051 A 
ATOM     28  C   UNL     1      10.057  47.176  54.471  1.00  0.00     0.044 C 
ENDBRANCH  20  22
ENDBRANCH  13  20
ENDBRANCH   8  10
ENDBRANCH   1   8
TORSDOF 7
ENDMDL
MODEL 13
REMARK VINA RESULT:    -7.730      2.484      6.932
REMARK INTER + INTRA:         -11.822
REMARK INTER:                 -10.930
REMARK INTRA:                  -0.892
REMARK UNBOUND:                -0.928
REMARK SMILES Cc1ccc(Nc2nc(NCCC[NH+](C)C)nc3c2cnn3C)cc1
REMARK SMILES IDX 11 1 12 2 13 3 14 4 15 5 16 6 10 8 9 10 8 11 17 12 7 13
REMARK SMILES IDX 18 14 19 15 22 16 20 17 21 18 23 19 6 20 5 22 4 23 24 24
REMARK SMILES IDX 3 25 25 26 2 27 1 28
REMARK H PARENT 14 7 10 9 6 21
ROOT
ATOM      1  C   UNL     1       9.328  45.457  50.872  1.00  0.00     0.122 C 
ENDROOT
BRANCH   1   2
ATOM      2  C   UNL     1       9.944  46.423  51.885  1.00  0.00     0.083 C 
BRANCH   2   3
ATOM      3  C   UNL     1       9.058  47.592  52.318  1.00  0.00     0.263 C 
BRANCH   3   4
ATOM      4  N   UNL     1       8.831  47.664  53.807  1.00  0.00    -0.340 N 
ATOM      5  C   UNL     1       7.619  46.870  54.215  1.00  0.00     0.332 C 
ATOM      6  C   UNL     1      10.027  47.310  54.633  1.00  0.00     0.332 C 
ATOM      7  H   UNL     1       8.570  48.650  54.015  1.00  0.00     0.347 HD
ENDBRANCH   3   4
ENDBRANCH   2   3
ENDBRANCH   1   2
BRANCH   1   8
ATOM      8  N   UNL     1       7.945  45.815  50.623  1.00  0.00    -0.354 N 
ATOM      9  H   UNL     1       7.592  46.579  51.200  1.00  0.00     0.163 HD
BRANCH   8  10
ATOM     10  C   UNL     1       7.000  44.804  50.740  1.00  0.00     0.226 A 
ATOM     11  N   UNL     1       7.048  43.773  49.861  1.00  0.00    -0.195 NA
ATOM     12  N   UNL     1       6.070  45.005  51.671  1.00  0.00    -0.193 NA
ATOM     13  C   UNL     1       6.107  42.788  49.936  1.00  0.00     0.147 A 
ATOM     14  C   UNL     1       5.125  44.054  51.682  1.00  0.00     0.165 A 
ATOM     15  C   UNL     1       5.070  42.945  50.860  1.00  0.00     0.082 A 
ATOM     16  N   UNL     1       4.024  43.981  52.492  1.00  0.00    -0.250 N 
ATOM     17  C   UNL     1       3.886  42.281  51.249  1.00  0.00     0.149 A 
ATOM     18  N   UNL     1       3.246  42.906  52.242  1.00  0.00    -0.179 NA
ATOM     19  C   UNL     1       3.638  44.908  53.527  1.00  0.00     0.176 C 
BRANCH  13  20
ATOM     20  N   UNL     1       6.229  41.723  49.025  1.00  0.00    -0.339 N 
ATOM     21  H   UNL     1       6.365  40.871  49.559  1.00  0.00     0.168 HD
BRANCH  20  22
ATOM     22  C   UNL     1       5.358  41.438  47.947  1.00  0.00     0.040 A 
ATOM     23  C   UNL     1       4.241  40.606  48.085  1.00  0.00     0.026 A 
ATOM     24  C   UNL     1       5.714  41.875  46.667  1.00  0.00     0.026 A 
ATOM     25  C   UNL     1       3.455  40.281  46.976  1.00  0.00     0.005 A 
ATOM     26  C   UNL     1       4.930  41.551  45.557  1.00  0.00     0.005 A 
ATOM     27  C   UNL     1       3.782  40.766  45.706  1.00  0.00    -0.051 A 
ATOM     28  C   UNL     1       2.953  40.395  44.512  1.00  0.00     0.044 C 
ENDBRANCH  20  22
ENDBRANCH  13  20
ENDBRANCH   8  10
ENDBRANCH   1   8
TORSDOF 7
ENDMDL
MODEL 14
REMARK VINA RESULT:    -7.718      2.012      5.582
REMARK INTER + INTRA:         -11.805
REMARK INTER:                 -11.337
REMARK INTRA:                  -0.468
REMARK UNBOUND:                -0.928
REMARK SMILES Cc1ccc(Nc2nc(NCCC[NH+](C)C)nc3c2cnn3C)cc1
REMARK SMILES IDX 11 1 12 2 13 3 14 4 15 5 16 6 10 8 9 10 8 11 17 12 7 13
REMARK SMILES IDX 18 14 19 15 22 16 20 17 21 18 23 19 6 20 5 22 4 23 24 24
REMARK SMILES IDX 3 25 25 26 2 27 1 28
REMARK H PARENT 14 7 10 9 6 21
ROOT
ATOM      1  C   UNL     1       5.070  47.022  54.548  1.00  0.00     0.122 C 
ENDROOT
BRANCH   1   2
ATOM      2  C   UNL     1       6.587  46.833  54.613  1.00  0.00     0.083 C 
BRANCH   2   3
ATOM      3  C   UNL     1       7.314  46.800  53.267  1.00  0.00     0.263 C 
BRANCH   3   4
ATOM      4  N   UNL     1       8.798  46.557  53.384  1.00  0.00    -0.340 N 
ATOM      5  C   UNL     1       9.457  46.533  52.031  1.00  0.00     0.332 C 
ATOM      6  C   UNL     1       9.503  47.480  54.325  1.00  0.00     0.332 C 
ATOM      7  H   UNL     1       8.907  45.584  53.736  1.00  0.00     0.347 HD
ENDBRANCH   3   4
ENDBRANCH   2   3
ENDBRANCH   1   2
BRANCH   1   8
ATOM      8  N   UNL     1       4.410  46.004  55.342  1.00  0.00    -0.354 N 
ATOM      9  H   UNL     1       5.041  45.364  55.827  1.00  0.00     0.163 HD
BRANCH   8  10
ATOM     10  C   UNL     1       3.497  45.186  54.689  1.00  0.00     0.226 A 
ATOM     11  N   UNL     1       3.880  44.586  53.536  1.00  0.00    -0.195 NA
ATOM     12  N   UNL     1       2.282  45.148  55.233  1.00  0.00    -0.193 NA
ATOM     13  C   UNL     1       2.987  43.807  52.860  1.00  0.00     0.147 A 
ATOM     14  C   UNL     1       1.409  44.426  54.516  1.00  0.00     0.165 A 
ATOM     15  C   UNL     1       1.676  43.749  53.342  1.00  0.00     0.082 A 
ATOM     16  N   UNL     1       0.084  44.213  54.784  1.00  0.00    -0.250 N 
ATOM     17  C   UNL     1       0.437  43.177  52.980  1.00  0.00     0.149 A 
ATOM     18  N   UNL     1      -0.535  43.455  53.854  1.00  0.00    -0.179 NA
ATOM     19  C   UNL     1      -0.672  44.710  55.908  1.00  0.00     0.176 C 
BRANCH  13  20
ATOM     20  N   UNL     1       3.452  43.178  51.691  1.00  0.00    -0.339 N 
ATOM     21  H   UNL     1       2.732  43.268  50.982  1.00  0.00     0.168 HD
BRANCH  20  22
ATOM     22  C   UNL     1       4.709  43.378  51.075  1.00  0.00     0.040 A 
ATOM     23  C   UNL     1       5.295  44.644  50.959  1.00  0.00     0.026 A 
ATOM     24  C   UNL     1       5.312  42.299  50.420  1.00  0.00     0.026 A 
ATOM     25  C   UNL     1       6.498  44.811  50.266  1.00  0.00     0.005 A 
ATOM     26  C   UNL     1       6.515  42.463  49.729  1.00  0.00     0.005 A 
ATOM     27  C   UNL     1       7.127  43.719  49.662  1.00  0.00    -0.051 A 
ATOM     28  C   UNL     1       8.404  43.903  48.896  1.00  0.00     0.044 C 
ENDBRANCH  20  22
ENDBRANCH  13  20
ENDBRANCH   8  10
ENDBRANCH   1   8
TORSDOF 7
ENDMDL
MODEL 15
REMARK VINA RESULT:    -7.541      2.131      5.287
REMARK INTER + INTRA:         -11.556
REMARK INTER:                 -10.454
REMARK INTRA:                  -1.101
REMARK UNBOUND:                -0.928
REMARK SMILES Cc1ccc(Nc2nc(NCCC[NH+](C)C)nc3c2cnn3C)cc1
REMARK SMILES IDX 11 1 12 2 13 3 14 4 15 5 16 6 10 8 9 10 8 11 17 12 7 13
REMARK SMILES IDX 18 14 19 15 22 16 20 17 21 18 23 19 6 20 5 22 4 23 24 24
REMARK SMILES IDX 3 25 25 26 2 27 1 28
REMARK H PARENT 14 7 10 9 6 21
ROOT
ATOM      1  C   UNL     1       4.258  41.211  50.812  1.00  0.00     0.122 C 
ENDROOT
BRANCH   1   2
ATOM      2  C   UNL     1       5.110  41.461  49.566  1.00  0.00     0.083 C 
BRANCH   2   3
ATOM      3  C   UNL     1       6.535  41.955  49.820  1.00  0.00     0.263 C 
BRANCH   3   4
ATOM      4  N   UNL     1       6.757  43.396  49.432  1.00  0.00    -0.340 N 
ATOM      5  C   UNL     1       6.140  44.334  50.434  1.00  0.00     0.332 C 
ATOM      6  C   UNL     1       8.184  43.747  49.152  1.00  0.00     0.332 C 
ATOM      7  H   UNL     1       6.205  43.553  48.564  1.00  0.00     0.347 HD
ENDBRANCH   3   4
ENDBRANCH   2   3
ENDBRANCH   1   2
BRANCH   1   8
ATOM      8  N   UNL     1       2.951  41.818  50.650  1.00  0.00    -0.354 N 
ATOM      9  H   UNL     1       2.827  42.336  49.778  1.00  0.00     0.163 HD
BRANCH   8  10
ATOM     10  C   UNL     1       2.529  42.685  51.649  1.00  0.00     0.226 A 
ATOM     11  N   UNL     1       3.462  43.221  52.474  1.00  0.00    -0.195 NA
ATOM     12  N   UNL     1       1.209  42.833  51.748  1.00  0.00    -0.193 NA
ATOM     13  C   UNL     1       3.064  44.046  53.485  1.00  0.00     0.147 A 
ATOM     14  C   UNL     1       0.844  43.599  52.787  1.00  0.00     0.165 A 
ATOM     15  C   UNL     1       1.691  44.220  53.684  1.00  0.00     0.082 A 
ATOM     16  N   UNL     1      -0.427  43.922  53.179  1.00  0.00    -0.250 N 
ATOM     17  C   UNL     1       0.825  44.875  54.585  1.00  0.00     0.149 A 
ATOM     18  N   UNL     1      -0.465  44.699  54.283  1.00  0.00    -0.179 NA
ATOM     19  C   UNL     1      -1.663  43.518  52.555  1.00  0.00     0.176 C 
BRANCH  13  20
ATOM     20  N   UNL     1       4.078  44.603  54.284  1.00  0.00    -0.339 N 
ATOM     21  H   UNL     1       4.540  43.845  54.774  1.00  0.00     0.168 HD
BRANCH  20  22
ATOM     22  C   UNL     1       5.064  45.527  53.864  1.00  0.00     0.040 A 
ATOM     23  C   UNL     1       4.752  46.678  53.133  1.00  0.00     0.026 A 
ATOM     24  C   UNL     1       6.411  45.195  54.048  1.00  0.00     0.026 A 
ATOM     25  C   UNL     1       5.764  47.520  52.662  1.00  0.00     0.005 A 
ATOM     26  C   UNL     1       7.424  46.035  53.579  1.00  0.00     0.005 A 
ATOM     27  C   UNL     1       7.108  47.215  52.898  1.00  0.00    -0.051 A 
ATOM     28  C   UNL     1       8.195  48.104  52.369  1.00  0.00     0.044 C 
ENDBRANCH  20  22
ENDBRANCH  13  20
ENDBRANCH   8  10
ENDBRANCH   1   8
TORSDOF 7
ENDMDL
MODEL 16
REMARK VINA RESULT:    -7.503      2.138      6.461
REMARK INTER + INTRA:         -11.501
REMARK INTER:                 -10.240
REMARK INTRA:                  -1.261
REMARK UNBOUND:                -0.928
REMARK SMILES Cc1ccc(Nc2nc(NCCC[NH+](C)C)nc3c2cnn3C)cc1
REMARK SMILES IDX 11 1 12 2 13 3 14 4 15 5 16 6 10 8 9 10 8 11 17 12 7 13
REMARK SMILES IDX 18 14 19 15 22 16 20 17 21 18 23 19 6 20 5 22 4 23 24 24
REMARK SMILES IDX 3 25 25 26 2 27 1 28
REMARK H PARENT 14 7 10 9 6 21
ROOT
ATOM      1  C   UNL     1       6.211  46.269  54.244  1.00  0.00     0.122 C 
ENDROOT
BRANCH   1   2
ATOM      2  C   UNL     1       7.489  47.097  54.108  1.00  0.00     0.083 C 
BRANCH   2   3
ATOM      3  C   UNL     1       8.724  46.345  53.609  1.00  0.00     0.263 C 
BRANCH   3   4
ATOM      4  N   UNL     1       8.902  46.394  52.112  1.00  0.00    -0.340 N 
ATOM      5  C   UNL     1       8.537  47.747  51.562  1.00  0.00     0.332 C 
ATOM      6  C   UNL     1      10.247  45.949  51.634  1.00  0.00     0.332 C 
ATOM      7  H   UNL     1       8.184  45.756  51.711  1.00  0.00     0.347 HD
ENDBRANCH   3   4
ENDBRANCH   2   3
ENDBRANCH   1   2
BRANCH   1   8
ATOM      8  N   UNL     1       5.433  46.354  53.023  1.00  0.00    -0.354 N 
ATOM      9  H   UNL     1       4.489  46.723  53.144  1.00  0.00     0.163 HD
BRANCH   8  10
ATOM     10  C   UNL     1       5.274  45.184  52.293  1.00  0.00     0.226 A 
ATOM     11  N   UNL     1       4.290  44.325  52.658  1.00  0.00    -0.195 NA
ATOM     12  N   UNL     1       6.183  44.983  51.341  1.00  0.00    -0.193 NA
ATOM     13  C   UNL     1       4.140  43.153  51.976  1.00  0.00     0.147 A 
ATOM     14  C   UNL     1       6.048  43.797  50.728  1.00  0.00     0.165 A 
ATOM     15  C   UNL     1       5.081  42.846  50.989  1.00  0.00     0.082 A 
ATOM     16  N   UNL     1       6.832  43.279  49.733  1.00  0.00    -0.250 N 
ATOM     17  C   UNL     1       5.385  41.788  50.106  1.00  0.00     0.149 A 
ATOM     18  N   UNL     1       6.449  42.045  49.339  1.00  0.00    -0.179 NA
ATOM     19  C   UNL     1       7.976  43.897  49.110  1.00  0.00     0.176 C 
BRANCH  13  20
ATOM     20  N   UNL     1       3.079  42.319  52.375  1.00  0.00    -0.339 N 
ATOM     21  H   UNL     1       3.314  41.928  53.280  1.00  0.00     0.168 HD
BRANCH  20  22
ATOM     22  C   UNL     1       1.705  42.657  52.380  1.00  0.00     0.040 A 
ATOM     23  C   UNL     1       1.049  43.152  51.247  1.00  0.00     0.026 A 
ATOM     24  C   UNL     1       1.019  42.645  53.599  1.00  0.00     0.026 A 
ATOM     25  C   UNL     1      -0.288  43.555  51.317  1.00  0.00     0.005 A 
ATOM     26  C   UNL     1      -0.317  43.047  53.671  1.00  0.00     0.005 A 
ATOM     27  C   UNL     1      -0.987  43.487  52.525  1.00  0.00    -0.051 A 
ATOM     28  C   UNL     1      -2.414  43.946  52.606  1.00  0.00     0.044 C 
ENDBRANCH  20  22
ENDBRANCH  13  20
ENDBRANCH   8  10
ENDBRANCH   1   8
TORSDOF 7
ENDMDL
MODEL 17
REMARK VINA RESULT:    -7.443      2.497      6.408
REMARK INTER + INTRA:         -11.417
REMARK INTER:                 -10.213
REMARK INTRA:                  -1.204
REMARK UNBOUND:                -0.928
REMARK SMILES Cc1ccc(Nc2nc(NCCC[NH+](C)C)nc3c2cnn3C)cc1
REMARK SMILES IDX 11 1 12 2 13 3 14 4 15 5 16 6 10 8 9 10 8 11 17 12 7 13
REMARK SMILES IDX 18 14 19 15 22 16 20 17 21 18 23 19 6 20 5 22 4 23 24 24
REMARK SMILES IDX 3 25 25 26 2 27 1 28
REMARK H PARENT 14 7 10 9 6 21
ROOT
ATOM      1  C   UNL     1       2.177  43.416  52.486  1.00  0.00     0.122 C 
ENDROOT
BRANCH   1   2
ATOM      2  C   UNL     1       1.868  44.404  53.612  1.00  0.00     0.083 C 
BRANCH   2   3
ATOM      3  C   UNL     1       2.364  45.836  53.400  1.00  0.00     0.263 C 
BRANCH   3   4
ATOM      4  N   UNL     1       3.764  46.076  53.908  1.00  0.00    -0.340 N 
ATOM      5  C   UNL     1       4.109  47.541  53.888  1.00  0.00     0.332 C 
ATOM      6  C   UNL     1       4.052  45.459  55.240  1.00  0.00     0.332 C 
ATOM      7  H   UNL     1       4.405  45.654  53.206  1.00  0.00     0.347 HD
ENDBRANCH   3   4
ENDBRANCH   2   3
ENDBRANCH   1   2
BRANCH   1   8
ATOM      8  N   UNL     1       3.472  42.803  52.705  1.00  0.00    -0.354 N 
ATOM      9  H   UNL     1       3.893  43.008  53.613  1.00  0.00     0.163 HD
BRANCH   8  10
ATOM     10  C   UNL     1       4.466  43.077  51.775  1.00  0.00     0.226 A 
ATOM     11  N   UNL     1       4.724  42.153  50.817  1.00  0.00    -0.195 NA
ATOM     12  N   UNL     1       5.138  44.208  51.981  1.00  0.00    -0.193 NA
ATOM     13  C   UNL     1       5.722  42.386  49.916  1.00  0.00     0.147 A 
ATOM     14  C   UNL     1       6.150  44.382  51.119  1.00  0.00     0.165 A 
ATOM     15  C   UNL     1       6.503  43.532  50.088  1.00  0.00     0.082 A 
ATOM     16  N   UNL     1       7.042  45.419  51.077  1.00  0.00    -0.250 N 
ATOM     17  C   UNL     1       7.631  44.145  49.502  1.00  0.00     0.149 A 
ATOM     18  N   UNL     1       7.964  45.294  50.098  1.00  0.00    -0.179 NA
ATOM     19  C   UNL     1       7.087  46.568  51.948  1.00  0.00     0.176 C 
BRANCH  13  20
ATOM     20  N   UNL     1       5.918  41.410  48.921  1.00  0.00    -0.339 N 
ATOM     21  H   UNL     1       6.075  40.522  49.384  1.00  0.00     0.168 HD
BRANCH  20  22
ATOM     22  C   UNL     1       5.093  41.184  47.795  1.00  0.00     0.040 A 
ATOM     23  C   UNL     1       3.970  40.351  47.842  1.00  0.00     0.026 A 
ATOM     24  C   UNL     1       5.505  41.684  46.555  1.00  0.00     0.026 A 
ATOM     25  C   UNL     1       3.231  40.085  46.685  1.00  0.00     0.005 A 
ATOM     26  C   UNL     1       4.768  41.421  45.397  1.00  0.00     0.005 A 
ATOM     27  C   UNL     1       3.613  40.634  45.457  1.00  0.00    -0.051 A 
ATOM     28  C   UNL     1       2.836  40.326  44.211  1.00  0.00     0.044 C 
ENDBRANCH  20  22
ENDBRANCH  13  20
ENDBRANCH   8  10
ENDBRANCH   1   8
TORSDOF 7
ENDMDL
MODEL 18
REMARK VINA RESULT:    -7.377      1.440      5.566
REMARK INTER + INTRA:         -11.324
REMARK INTER:                 -10.272
REMARK INTRA:                  -1.051
REMARK UNBOUND:                -0.928
REMARK SMILES Cc1ccc(Nc2nc(NCCC[NH+](C)C)nc3c2cnn3C)cc1
REMARK SMILES IDX 11 1 12 2 13 3 14 4 15 5 16 6 10 8 9 10 8 11 17 12 7 13
REMARK SMILES IDX 18 14 19 15 22 16 20 17 21 18 23 19 6 20 5 22 4 23 24 24
REMARK SMILES IDX 3 25 25 26 2 27 1 28
REMARK H PARENT 14 7 10 9 6 21
ROOT
ATOM      1  C   UNL     1       9.294  45.673  50.900  1.00  0.00     0.122 C 
ENDROOT
BRANCH   1   2
ATOM      2  C   UNL     1      10.243  46.284  51.932  1.00  0.00     0.083 C 
BRANCH   2   3
ATOM      3  C   UNL     1       9.882  46.041  53.398  1.00  0.00     0.263 C 
BRANCH   3   4
ATOM      4  N   UNL     1       9.444  47.285  54.131  1.00  0.00    -0.340 N 
ATOM      5  C   UNL     1       7.967  47.257  54.422  1.00  0.00     0.332 C 
ATOM      6  C   UNL     1      10.243  47.594  55.357  1.00  0.00     0.332 C 
ATOM      7  H   UNL     1       9.555  48.073  53.460  1.00  0.00     0.347 HD
ENDBRANCH   3   4
ENDBRANCH   2   3
ENDBRANCH   1   2
BRANCH   1   8
ATOM      8  N   UNL     1       8.070  46.447  50.831  1.00  0.00    -0.354 N 
ATOM      9  H   UNL     1       7.996  47.190  51.528  1.00  0.00     0.163 HD
BRANCH   8  10
ATOM     10  C   UNL     1       6.874  45.747  50.919  1.00  0.00     0.226 A 
ATOM     11  N   UNL     1       5.798  46.375  51.453  1.00  0.00    -0.195 NA
ATOM     12  N   UNL     1       6.936  44.472  50.540  1.00  0.00    -0.193 NA
ATOM     13  C   UNL     1       4.622  45.694  51.581  1.00  0.00     0.147 A 
ATOM     14  C   UNL     1       5.785  43.811  50.733  1.00  0.00     0.165 A 
ATOM     15  C   UNL     1       4.615  44.337  51.245  1.00  0.00     0.082 A 
ATOM     16  N   UNL     1       5.527  42.492  50.476  1.00  0.00    -0.250 N 
ATOM     17  C   UNL     1       3.722  43.244  51.269  1.00  0.00     0.149 A 
ATOM     18  N   UNL     1       4.271  42.118  50.801  1.00  0.00    -0.179 NA
ATOM     19  C   UNL     1       6.435  41.515  49.926  1.00  0.00     0.176 C 
BRANCH  13  20
ATOM     20  N   UNL     1       3.530  46.408  52.105  1.00  0.00    -0.339 N 
ATOM     21  H   UNL     1       2.839  46.504  51.368  1.00  0.00     0.168 HD
BRANCH  20  22
ATOM     22  C   UNL     1       2.852  46.132  53.316  1.00  0.00     0.040 A 
ATOM     23  C   UNL     1       3.505  46.107  54.553  1.00  0.00     0.026 A 
ATOM     24  C   UNL     1       1.518  45.715  53.255  1.00  0.00     0.026 A 
ATOM     25  C   UNL     1       2.817  45.746  55.715  1.00  0.00     0.005 A 
ATOM     26  C   UNL     1       0.828  45.354  54.414  1.00  0.00     0.005 A 
ATOM     27  C   UNL     1       1.468  45.385  55.658  1.00  0.00    -0.051 A 
ATOM     28  C   UNL     1       0.737  44.970  56.901  1.00  0.00     0.044 C 
ENDBRANCH  20  22
ENDBRANCH  13  20
ENDBRANCH   8  10
ENDBRANCH   1   8
TORSDOF 7
ENDMDL
MODEL 19
REMARK VINA RESULT:    -7.374      2.656      6.054
REMARK INTER + INTRA:         -11.320
REMARK INTER:                 -10.382
REMARK INTRA:                  -0.937
REMARK UNBOUND:                -0.928
REMARK SMILES Cc1ccc(Nc2nc(NCCC[NH+](C)C)nc3c2cnn3C)cc1
REMARK SMILES IDX 11 1 12 2 13 3 14 4 15 5 16 6 10 8 9 10 8 11 17 12 7 13
REMARK SMILES IDX 18 14 19 15 22 16 20 17 21 18 23 19 6 20 5 22 4 23 24 24
REMARK SMILES IDX 3 25 25 26 2 27 1 28
REMARK H PARENT 14 7 10 9 6 21
ROOT
ATOM      1  C   UNL     1       1.934  43.409  51.578  1.00  0.00     0.122 C 
ENDROOT
BRANCH   1   2
ATOM      2  C   UNL     1       3.253  42.676  51.331  1.00  0.00     0.083 C 
BRANCH   2   3
ATOM      3  C   UNL     1       4.524  43.506  51.517  1.00  0.00     0.263 C 
BRANCH   3   4
ATOM      4  N   UNL     1       5.731  42.937  50.812  1.00  0.00    -0.340 N 
ATOM      5  C   UNL     1       5.379  41.691  50.045  1.00  0.00     0.332 C 
ATOM      6  C   UNL     1       6.470  43.919  49.961  1.00  0.00     0.332 C 
ATOM      7  H   UNL     1       6.373  42.601  51.559  1.00  0.00     0.347 HD
ENDBRANCH   3   4
ENDBRANCH   2   3
ENDBRANCH   1   2
BRANCH   1   8
ATOM      8  N   UNL     1       1.295  42.892  52.772  1.00  0.00    -0.354 N 
ATOM      9  H   UNL     1       0.352  42.528  52.628  1.00  0.00     0.163 HD
BRANCH   8  10
ATOM     10  C   UNL     1       1.189  43.753  53.856  1.00  0.00     0.226 A 
ATOM     11  N   UNL     1       2.300  44.412  54.267  1.00  0.00    -0.195 NA
ATOM     12  N   UNL     1      -0.005  43.775  54.446  1.00  0.00    -0.193 NA
ATOM     13  C   UNL     1       2.226  45.235  55.352  1.00  0.00     0.147 A 
ATOM     14  C   UNL     1      -0.033  44.545  55.544  1.00  0.00     0.165 A 
ATOM     15  C   UNL     1       1.018  45.282  56.054  1.00  0.00     0.082 A 
ATOM     16  N   UNL     1      -1.090  44.758  56.387  1.00  0.00    -0.250 N 
ATOM     17  C   UNL     1       0.489  45.886  57.215  1.00  0.00     0.149 A 
ATOM     18  N   UNL     1      -0.794  45.572  57.422  1.00  0.00    -0.179 NA
ATOM     19  C   UNL     1      -2.419  44.209  56.277  1.00  0.00     0.176 C 
BRANCH  13  20
ATOM     20  N   UNL     1       3.401  45.922  55.709  1.00  0.00    -0.339 N 
ATOM     21  H   UNL     1       3.753  45.510  56.566  1.00  0.00     0.168 HD
BRANCH  20  22
ATOM     22  C   UNL     1       4.501  46.195  54.862  1.00  0.00     0.040 A 
ATOM     23  C   UNL     1       4.508  47.267  53.963  1.00  0.00     0.026 A 
ATOM     24  C   UNL     1       5.549  45.271  54.811  1.00  0.00     0.026 A 
ATOM     25  C   UNL     1       5.579  47.451  53.083  1.00  0.00     0.005 A 
ATOM     26  C   UNL     1       6.621  45.453  53.933  1.00  0.00     0.005 A 
ATOM     27  C   UNL     1       6.653  46.557  53.074  1.00  0.00    -0.051 A 
ATOM     28  C   UNL     1       7.789  46.739  52.111  1.00  0.00     0.044 C 
ENDBRANCH  20  22
ENDBRANCH  13  20
ENDBRANCH   8  10
ENDBRANCH   1   8
TORSDOF 7
ENDMDL
