MODEL 1
REMARK VINA RESULT:    -8.115      0.000      0.000
REMARK INTER + INTRA:         -12.748
REMARK INTER:                 -11.436
REMARK INTRA:                  -1.312
REMARK UNBOUND:                -1.312
REMARK SMILES CCCCCNc1nc(Nc2ccc(F)cc2)c2cnn(C)c2n1
REMARK SMILES IDX 5 1 4 2 3 3 2 4 1 5 6 6 7 8 8 9 24 10 9 11 23 12 18 13 21 14
REMARK SMILES IDX 19 15 20 16 22 17 10 18 11 20 12 21 17 22 13 23 16 24 14 25
REMARK SMILES IDX 15 26
REMARK H PARENT 6 7 10 19
ROOT
ATOM      1  C   UNL     1       2.756  46.438  53.100  1.00  0.00     0.116 C 
ENDROOT
BRANCH   1   2
ATOM      2  C   UNL     1       2.373  45.428  54.187  1.00  0.00     0.021 C 
BRANCH   2   3
ATOM      3  C   UNL     1       3.386  45.390  55.335  1.00  0.00     0.002 C 
BRANCH   3   4
ATOM      4  C   UNL     1       4.794  45.816  54.914  1.00  0.00    -0.003 C 
ATOM      5  C   UNL     1       5.733  44.648  54.657  1.00  0.00     0.004 C 
ENDBRANCH   3   4
ENDBRANCH   2   3
ENDBRANCH   1   2
BRANCH   1   6
ATOM      6  N   UNL     1       2.626  45.832  51.787  1.00  0.00    -0.354 N 
ATOM      7  H   UNL     1       2.340  46.459  51.042  1.00  0.00     0.163 HD
BRANCH   6   8
ATOM      8  C   UNL     1       3.770  45.190  51.325  1.00  0.00     0.226 A 
ATOM      9  N   UNL     1       4.925  45.876  51.225  1.00  0.00    -0.195 NA
ATOM     10  N   UNL     1       3.598  43.899  51.011  1.00  0.00    -0.193 NA
ATOM     11  C   UNL     1       6.046  45.265  50.769  1.00  0.00     0.147 A 
ATOM     12  C   UNL     1       4.730  43.307  50.600  1.00  0.00     0.165 A 
ATOM     13  C   UNL     1       5.967  43.906  50.459  1.00  0.00     0.082 A 
ATOM     14  N   UNL     1       4.904  41.998  50.245  1.00  0.00    -0.250 N 
ATOM     15  C   UNL     1       6.816  42.862  50.040  1.00  0.00     0.149 A 
ATOM     16  N   UNL     1       6.174  41.698  49.888  1.00  0.00    -0.179 NA
ATOM     17  C   UNL     1       3.901  40.962  50.233  1.00  0.00     0.176 C 
BRANCH  11  18
ATOM     18  N   UNL     1       7.212  46.043  50.713  1.00  0.00    -0.339 N 
ATOM     19  H   UNL     1       7.749  45.728  49.908  1.00  0.00     0.168 HD
BRANCH  18  20
ATOM     20  C   UNL     1       8.051  46.464  51.763  1.00  0.00     0.040 A 
ATOM     21  C   UNL     1       9.403  46.087  51.721  1.00  0.00     0.029 A 
ATOM     22  C   UNL     1       7.602  47.222  52.852  1.00  0.00     0.029 A 
ATOM     23  C   UNL     1      10.287  46.471  52.732  1.00  0.00     0.041 A 
ATOM     24  C   UNL     1       8.484  47.609  53.865  1.00  0.00     0.041 A 
ATOM     25  C   UNL     1       9.819  47.230  53.794  1.00  0.00     0.123 A 
ATOM     26  F   UNL     1      10.663  47.600  54.766  1.00  0.00    -0.207 F 
ENDBRANCH  18  20
ENDBRANCH  11  18
ENDBRANCH   6   8
ENDBRANCH   1   6
TORSDOF 7
ENDMDL
MODEL 2
REMARK VINA RESULT:    -8.092      1.578      4.322
REMARK INTER + INTRA:         -12.716
REMARK INTER:                 -11.859
REMARK INTRA:                  -0.857
REMARK UNBOUND:                -1.312
REMARK SMILES CCCCCNc1nc(Nc2ccc(F)cc2)c2cnn(C)c2n1
REMARK SMILES IDX 5 1 4 2 3 3 2 4 1 5 6 6 7 8 8 9 24 10 9 11 23 12 18 13 21 14
REMARK SMILES IDX 19 15 20 16 22 17 10 18 11 20 12 21 17 22 13 23 16 24 14 25
REMARK SMILES IDX 15 26
REMARK H PARENT 6 7 10 19
ROOT
ATOM      1  C   UNL     1       5.519  41.504  50.460  1.00  0.00     0.116 C 
ENDROOT
BRANCH   1   2
ATOM      2  C   UNL     1       5.541  41.483  48.927  1.00  0.00     0.021 C 
BRANCH   2   3
ATOM      3  C   UNL     1       6.531  42.494  48.341  1.00  0.00     0.002 C 
BRANCH   3   4
ATOM      4  C   UNL     1       7.673  42.848  49.298  1.00  0.00    -0.003 C 
ATOM      5  C   UNL     1       8.418  44.117  48.914  1.00  0.00     0.004 C 
ENDBRANCH   3   4
ENDBRANCH   2   3
ENDBRANCH   1   2
BRANCH   1   6
ATOM      6  N   UNL     1       4.232  41.980  50.934  1.00  0.00    -0.354 N 
ATOM      7  H   UNL     1       3.851  41.486  51.734  1.00  0.00     0.163 HD
BRANCH   6   8
ATOM      8  C   UNL     1       4.195  43.329  51.267  1.00  0.00     0.226 A 
ATOM      9  N   UNL     1       5.303  44.082  51.123  1.00  0.00    -0.195 NA
ATOM     10  N   UNL     1       3.010  43.761  51.719  1.00  0.00    -0.193 NA
ATOM     11  C   UNL     1       5.283  45.397  51.450  1.00  0.00     0.147 A 
ATOM     12  C   UNL     1       3.005  45.074  51.999  1.00  0.00     0.165 A 
ATOM     13  C   UNL     1       4.074  45.941  51.890  1.00  0.00     0.082 A 
ATOM     14  N   UNL     1       1.952  45.827  52.438  1.00  0.00    -0.250 N 
ATOM     15  C   UNL     1       3.548  47.194  52.263  1.00  0.00     0.149 A 
ATOM     16  N   UNL     1       2.259  47.133  52.617  1.00  0.00    -0.179 NA
ATOM     17  C   UNL     1       0.609  45.373  52.699  1.00  0.00     0.176 C 
BRANCH  11  18
ATOM     18  N   UNL     1       6.471  46.116  51.254  1.00  0.00    -0.339 N 
ATOM     19  H   UNL     1       6.876  45.799  50.375  1.00  0.00     0.168 HD
BRANCH  18  20
ATOM     20  C   UNL     1       7.466  46.462  52.189  1.00  0.00     0.040 A 
ATOM     21  C   UNL     1       8.806  46.441  51.767  1.00  0.00     0.029 A 
ATOM     22  C   UNL     1       7.188  46.807  53.518  1.00  0.00     0.029 A 
ATOM     23  C   UNL     1       9.839  46.773  52.646  1.00  0.00     0.041 A 
ATOM     24  C   UNL     1       8.221  47.139  54.399  1.00  0.00     0.041 A 
ATOM     25  C   UNL     1       9.537  47.120  53.954  1.00  0.00     0.123 A 
ATOM     26  F   UNL     1      10.526  47.437  54.800  1.00  0.00    -0.207 F 
ENDBRANCH  18  20
ENDBRANCH  11  18
ENDBRANCH   6   8
ENDBRANCH   1   6
TORSDOF 7
ENDMDL
MODEL 3
REMARK VINA RESULT:    -8.033      3.672      6.785
REMARK INTER + INTRA:         -12.632
REMARK INTER:                 -11.997
REMARK INTRA:                  -0.635
REMARK UNBOUND:                -1.312
REMARK SMILES CCCCCNc1nc(Nc2ccc(F)cc2)c2cnn(C)c2n1
REMARK SMILES IDX 5 1 4 2 3 3 2 4 1 5 6 6 7 8 8 9 24 10 9 11 23 12 18 13 21 14
REMARK SMILES IDX 19 15 20 16 22 17 10 18 11 20 12 21 17 22 13 23 16 24 14 25
REMARK SMILES IDX 15 26
REMARK H PARENT 6 7 10 19
ROOT
ATOM      1  C   UNL     1       7.958  46.610  52.004  1.00  0.00     0.116 C 
ENDROOT
BRANCH   1   2
ATOM      2  C   UNL     1       9.471  46.833  52.113  1.00  0.00     0.021 C 
BRANCH   2   3
ATOM      3  C   UNL     1      10.017  46.484  53.501  1.00  0.00     0.002 C 
BRANCH   3   4
ATOM      4  C   UNL     1       9.667  47.525  54.568  1.00  0.00    -0.003 C 
ATOM      5  C   UNL     1      10.640  47.551  55.736  1.00  0.00     0.004 C 
ENDBRANCH   3   4
ENDBRANCH   2   3
ENDBRANCH   1   2
BRANCH   1   6
ATOM      6  N   UNL     1       7.629  46.043  50.708  1.00  0.00    -0.354 N 
ATOM      7  H   UNL     1       8.419  45.717  50.161  1.00  0.00     0.163 HD
BRANCH   6   8
ATOM      8  C   UNL     1       6.730  44.984  50.746  1.00  0.00     0.226 A 
ATOM      9  N   UNL     1       6.862  43.965  49.874  1.00  0.00    -0.195 NA
ATOM     10  N   UNL     1       5.781  45.089  51.686  1.00  0.00    -0.193 NA
ATOM     11  C   UNL     1       5.988  42.929  49.895  1.00  0.00     0.147 A 
ATOM     12  C   UNL     1       4.952  44.034  51.712  1.00  0.00     0.165 A 
ATOM     13  C   UNL     1       4.991  42.938  50.873  1.00  0.00     0.082 A 
ATOM     14  N   UNL     1       3.910  43.814  52.570  1.00  0.00    -0.250 N 
ATOM     15  C   UNL     1       3.946  42.110  51.329  1.00  0.00     0.149 A 
ATOM     16  N   UNL     1       3.268  42.643  52.352  1.00  0.00    -0.179 NA
ATOM     17  C   UNL     1       3.470  44.676  53.639  1.00  0.00     0.176 C 
BRANCH  11  18
ATOM     18  N   UNL     1       6.206  41.899  48.968  1.00  0.00    -0.339 N 
ATOM     19  H   UNL     1       7.190  41.925  48.710  1.00  0.00     0.168 HD
BRANCH  18  20
ATOM     20  C   UNL     1       5.398  41.488  47.891  1.00  0.00     0.040 A 
ATOM     21  C   UNL     1       5.749  41.917  46.600  1.00  0.00     0.029 A 
ATOM     22  C   UNL     1       4.256  40.691  48.043  1.00  0.00     0.029 A 
ATOM     23  C   UNL     1       4.988  41.545  45.489  1.00  0.00     0.041 A 
ATOM     24  C   UNL     1       3.493  40.317  46.933  1.00  0.00     0.041 A 
ATOM     25  C   UNL     1       3.867  40.747  45.666  1.00  0.00     0.123 A 
ATOM     26  F   UNL     1       3.135  40.390  44.603  1.00  0.00    -0.207 F 
ENDBRANCH  18  20
ENDBRANCH  11  18
ENDBRANCH   6   8
ENDBRANCH   1   6
TORSDOF 7
ENDMDL
MODEL 4
REMARK VINA RESULT:    -7.995      1.046      1.486
REMARK INTER + INTRA:         -12.578
REMARK INTER:                 -11.419
REMARK INTRA:                  -1.159
REMARK UNBOUND:                -1.312
REMARK SMILES CCCCCNc1nc(Nc2ccc(F)cc2)c2cnn(C)c2n1
REMARK SMILES IDX 5 1 4 2 3 3 2 4 1 5 6 6 7 8 8 9 24 10 9 11 23 12 18 13 21 14
REMARK SMILES IDX 19 15 20 16 22 17 10 18 11 20 12 21 17 22 13 23 16 24 14 25
REMARK SMILES IDX 15 26
REMARK H PARENT 6 7 10 19
ROOT
ATOM      1  C   UNL     1       2.473  45.640  52.932  1.00  0.00     0.116 C 
ENDROOT
BRANCH   1   2
ATOM      2  C   UNL     1       1.665  45.258  54.177  1.00  0.00     0.021 C 
BRANCH   2   3
ATOM      3  C   UNL     1       2.509  45.285  55.455  1.00  0.00     0.002 C 
BRANCH   3   4
ATOM      4  C   UNL     1       3.858  45.986  55.274  1.00  0.00    -0.003 C 
ATOM      5  C   UNL     1       5.050  45.047  55.370  1.00  0.00     0.004 C 
ENDBRANCH   3   4
ENDBRANCH   2   3
ENDBRANCH   1   2
BRANCH   1   6
ATOM      6  N   UNL     1       2.862  44.446  52.202  1.00  0.00    -0.354 N 
ATOM      7  H   UNL     1       2.218  44.148  51.477  1.00  0.00     0.163 HD
BRANCH   6   8
ATOM      8  C   UNL     1       4.112  44.513  51.598  1.00  0.00     0.226 A 
ATOM      9  N   UNL     1       4.908  45.576  51.828  1.00  0.00    -0.195 NA
ATOM     10  N   UNL     1       4.410  43.469  50.813  1.00  0.00    -0.193 NA
ATOM     11  C   UNL     1       6.126  45.657  51.240  1.00  0.00     0.147 A 
ATOM     12  C   UNL     1       5.636  43.555  50.273  1.00  0.00     0.165 A 
ATOM     13  C   UNL     1       6.535  44.590  50.438  1.00  0.00     0.082 A 
ATOM     14  N   UNL     1       6.254  42.644  49.463  1.00  0.00    -0.250 N 
ATOM     15  C   UNL     1       7.670  44.187  49.705  1.00  0.00     0.149 A 
ATOM     16  N   UNL     1       7.502  43.010  49.091  1.00  0.00    -0.179 NA
ATOM     17  C   UNL     1       5.720  41.384  49.007  1.00  0.00     0.176 C 
BRANCH  11  18
ATOM     18  N   UNL     1       6.902  46.785  51.545  1.00  0.00    -0.339 N 
ATOM     19  H   UNL     1       7.123  47.249  50.667  1.00  0.00     0.168 HD
BRANCH  18  20
ATOM     20  C   UNL     1       7.947  46.918  52.479  1.00  0.00     0.040 A 
ATOM     21  C   UNL     1       7.628  47.381  53.767  1.00  0.00     0.029 A 
ATOM     22  C   UNL     1       9.286  46.631  52.185  1.00  0.00     0.029 A 
ATOM     23  C   UNL     1       8.619  47.536  54.739  1.00  0.00     0.041 A 
ATOM     24  C   UNL     1      10.280  46.785  53.156  1.00  0.00     0.041 A 
ATOM     25  C   UNL     1       9.936  47.235  54.424  1.00  0.00     0.123 A 
ATOM     26  F   UNL     1      10.889  47.384  55.354  1.00  0.00    -0.207 F 
ENDBRANCH  18  20
ENDBRANCH  11  18
ENDBRANCH   6   8
ENDBRANCH   1   6
TORSDOF 7
ENDMDL
MODEL 5
REMARK VINA RESULT:    -7.971      1.885      4.946
REMARK INTER + INTRA:         -12.544
REMARK INTER:                 -11.839
REMARK INTRA:                  -0.705
REMARK UNBOUND:                -1.312
REMARK SMILES CCCCCNc1nc(Nc2ccc(F)cc2)c2cnn(C)c2n1
REMARK SMILES IDX 5 1 4 2 3 3 2 4 1 5 6 6 7 8 8 9 24 10 9 11 23 12 18 13 21 14
REMARK SMILES IDX 19 15 20 16 22 17 10 18 11 20 12 21 17 22 13 23 16 24 14 25
REMARK SMILES IDX 15 26
REMARK H PARENT 6 7 10 19
ROOT
ATOM      1  C   UNL     1       5.751  41.560  49.785  1.00  0.00     0.116 C 
ENDROOT
BRANCH   1   2
ATOM      2  C   UNL     1       5.095  41.191  48.450  1.00  0.00     0.021 C 
BRANCH   2   3
ATOM      3  C   UNL     1       5.723  41.931  47.265  1.00  0.00     0.002 C 
BRANCH   3   4
ATOM      4  C   UNL     1       5.105  41.547  45.917  1.00  0.00    -0.003 C 
ATOM      5  C   UNL     1       5.292  42.603  44.839  1.00  0.00     0.004 C 
ENDBRANCH   3   4
ENDBRANCH   2   3
ENDBRANCH   1   2
BRANCH   1   6
ATOM      6  N   UNL     1       4.732  41.825  50.786  1.00  0.00    -0.354 N 
ATOM      7  H   UNL     1       4.819  41.297  51.648  1.00  0.00     0.163 HD
BRANCH   6   8
ATOM      8  C   UNL     1       4.618  43.157  51.164  1.00  0.00     0.226 A 
ATOM      9  N   UNL     1       5.661  43.992  50.986  1.00  0.00    -0.195 NA
ATOM     10  N   UNL     1       3.433  43.490  51.692  1.00  0.00    -0.193 NA
ATOM     11  C   UNL     1       5.567  45.293  51.357  1.00  0.00     0.147 A 
ATOM     12  C   UNL     1       3.351  44.790  52.015  1.00  0.00     0.165 A 
ATOM     13  C   UNL     1       4.349  45.735  51.878  1.00  0.00     0.082 A 
ATOM     14  N   UNL     1       2.274  45.453  52.534  1.00  0.00    -0.250 N 
ATOM     15  C   UNL     1       3.757  46.935  52.320  1.00  0.00     0.149 A 
ATOM     16  N   UNL     1       2.497  46.771  52.740  1.00  0.00    -0.179 NA
ATOM     17  C   UNL     1       0.982  44.895  52.851  1.00  0.00     0.176 C 
BRANCH  11  18
ATOM     18  N   UNL     1       6.689  46.101  51.121  1.00  0.00    -0.339 N 
ATOM     19  H   UNL     1       7.035  45.876  50.191  1.00  0.00     0.168 HD
BRANCH  18  20
ATOM     20  C   UNL     1       7.738  46.441  51.996  1.00  0.00     0.040 A 
ATOM     21  C   UNL     1       7.409  46.826  53.307  1.00  0.00     0.029 A 
ATOM     22  C   UNL     1       9.088  46.433  51.621  1.00  0.00     0.029 A 
ATOM     23  C   UNL     1       8.403  47.176  54.222  1.00  0.00     0.041 A 
ATOM     24  C   UNL     1      10.085  46.784  52.536  1.00  0.00     0.041 A 
ATOM     25  C   UNL     1       9.733  47.151  53.828  1.00  0.00     0.123 A 
ATOM     26  F   UNL     1      10.689  47.488  54.704  1.00  0.00    -0.207 F 
ENDBRANCH  18  20
ENDBRANCH  11  18
ENDBRANCH   6   8
ENDBRANCH   1   6
TORSDOF 7
ENDMDL
MODEL 6
REMARK VINA RESULT:    -7.962      2.477      5.407
REMARK INTER + INTRA:         -12.532
REMARK INTER:                 -12.168
REMARK INTRA:                  -0.364
REMARK UNBOUND:                -1.312
REMARK SMILES CCCCCNc1nc(Nc2ccc(F)cc2)c2cnn(C)c2n1
REMARK SMILES IDX 5 1 4 2 3 3 2 4 1 5 6 6 7 8 8 9 24 10 9 11 23 12 18 13 21 14
REMARK SMILES IDX 19 15 20 16 22 17 10 18 11 20 12 21 17 22 13 23 16 24 14 25
REMARK SMILES IDX 15 26
REMARK H PARENT 6 7 10 19
ROOT
ATOM      1  C   UNL     1       7.127  46.689  54.169  1.00  0.00     0.116 C 
ENDROOT
BRANCH   1   2
ATOM      2  C   UNL     1       7.098  47.737  53.051  1.00  0.00     0.021 C 
BRANCH   2   3
ATOM      3  C   UNL     1       8.461  47.910  52.374  1.00  0.00     0.002 C 
BRANCH   3   4
ATOM      4  C   UNL     1       9.562  47.050  53.001  1.00  0.00    -0.003 C 
ATOM      5  C   UNL     1      10.309  46.188  51.995  1.00  0.00     0.004 C 
ENDBRANCH   3   4
ENDBRANCH   2   3
ENDBRANCH   1   2
BRANCH   1   6
ATOM      6  N   UNL     1       5.903  46.756  54.948  1.00  0.00    -0.354 N 
ATOM      7  H   UNL     1       5.507  47.684  55.061  1.00  0.00     0.163 HD
BRANCH   6   8
ATOM      8  C   UNL     1       4.868  45.956  54.478  1.00  0.00     0.226 A 
ATOM      9  N   UNL     1       5.037  45.244  53.346  1.00  0.00    -0.195 NA
ATOM     10  N   UNL     1       3.759  45.977  55.229  1.00  0.00    -0.193 NA
ATOM     11  C   UNL     1       4.034  44.465  52.873  1.00  0.00     0.147 A 
ATOM     12  C   UNL     1       2.796  45.169  54.761  1.00  0.00     0.165 A 
ATOM     13  C   UNL     1       2.856  44.395  53.619  1.00  0.00     0.082 A 
ATOM     14  N   UNL     1       1.567  44.933  55.312  1.00  0.00    -0.250 N 
ATOM     15  C   UNL     1       1.621  43.715  53.592  1.00  0.00     0.149 A 
ATOM     16  N   UNL     1       0.820  44.050  54.609  1.00  0.00    -0.179 NA
ATOM     17  C   UNL     1       1.033  45.506  56.523  1.00  0.00     0.176 C 
BRANCH  11  18
ATOM     18  N   UNL     1       4.295  43.740  51.701  1.00  0.00    -0.339 N 
ATOM     19  H   UNL     1       3.939  42.797  51.840  1.00  0.00     0.168 HD
BRANCH  18  20
ATOM     20  C   UNL     1       5.448  43.744  50.892  1.00  0.00     0.040 A 
ATOM     21  C   UNL     1       6.210  44.923  50.832  1.00  0.00     0.029 A 
ATOM     22  C   UNL     1       5.862  42.642  50.133  1.00  0.00     0.029 A 
ATOM     23  C   UNL     1       7.363  44.992  50.048  1.00  0.00     0.041 A 
ATOM     24  C   UNL     1       7.016  42.708  49.348  1.00  0.00     0.041 A 
ATOM     25  C   UNL     1       7.756  43.883  49.314  1.00  0.00     0.123 A 
ATOM     26  F   UNL     1       8.862  43.947  48.559  1.00  0.00    -0.207 F 
ENDBRANCH  18  20
ENDBRANCH  11  18
ENDBRANCH   6   8
ENDBRANCH   1   6
TORSDOF 7
ENDMDL
MODEL 7
REMARK VINA RESULT:    -7.955      1.542      4.443
REMARK INTER + INTRA:         -12.522
REMARK INTER:                 -11.568
REMARK INTRA:                  -0.954
REMARK UNBOUND:                -1.312
REMARK SMILES CCCCCNc1nc(Nc2ccc(F)cc2)c2cnn(C)c2n1
REMARK SMILES IDX 5 1 4 2 3 3 2 4 1 5 6 6 7 8 8 9 24 10 9 11 23 12 18 13 21 14
REMARK SMILES IDX 19 15 20 16 22 17 10 18 11 20 12 21 17 22 13 23 16 24 14 25
REMARK SMILES IDX 15 26
REMARK H PARENT 6 7 10 19
ROOT
ATOM      1  C   UNL     1       5.627  41.522  50.461  1.00  0.00     0.116 C 
ENDROOT
BRANCH   1   2
ATOM      2  C   UNL     1       5.684  41.496  48.930  1.00  0.00     0.021 C 
BRANCH   2   3
ATOM      3  C   UNL     1       6.567  42.608  48.357  1.00  0.00     0.002 C 
BRANCH   3   4
ATOM      4  C   UNL     1       7.385  43.341  49.423  1.00  0.00    -0.003 C 
ATOM      5  C   UNL     1       8.594  44.075  48.865  1.00  0.00     0.004 C 
ENDBRANCH   3   4
ENDBRANCH   2   3
ENDBRANCH   1   2
BRANCH   1   6
ATOM      6  N   UNL     1       4.258  41.714  50.907  1.00  0.00    -0.354 N 
ATOM      7  H   UNL     1       3.897  40.999  51.530  1.00  0.00     0.163 HD
BRANCH   6   8
ATOM      8  C   UNL     1       4.016  42.928  51.539  1.00  0.00     0.226 A 
ATOM      9  N   UNL     1       4.844  43.969  51.324  1.00  0.00    -0.195 NA
ATOM     10  N   UNL     1       2.938  42.939  52.335  1.00  0.00    -0.193 NA
ATOM     11  C   UNL     1       4.623  45.157  51.940  1.00  0.00     0.147 A 
ATOM     12  C   UNL     1       2.719  44.135  52.901  1.00  0.00     0.165 A 
ATOM     13  C   UNL     1       3.495  45.268  52.754  1.00  0.00     0.082 A 
ATOM     14  N   UNL     1       1.689  44.489  53.729  1.00  0.00    -0.250 N 
ATOM     15  C   UNL     1       2.828  46.251  53.514  1.00  0.00     0.149 A 
ATOM     16  N   UNL     1       1.735  45.781  54.128  1.00  0.00    -0.179 NA
ATOM     17  C   UNL     1       0.608  43.647  54.177  1.00  0.00     0.176 C 
BRANCH  11  18
ATOM     18  N   UNL     1       5.519  46.196  51.648  1.00  0.00    -0.339 N 
ATOM     19  H   UNL     1       5.588  46.263  50.635  1.00  0.00     0.168 HD
BRANCH  18  20
ATOM     20  C   UNL     1       6.739  46.519  52.274  1.00  0.00     0.040 A 
ATOM     21  C   UNL     1       7.893  46.588  51.476  1.00  0.00     0.029 A 
ATOM     22  C   UNL     1       6.861  46.758  53.649  1.00  0.00     0.029 A 
ATOM     23  C   UNL     1       9.133  46.903  52.035  1.00  0.00     0.041 A 
ATOM     24  C   UNL     1       8.101  47.073  54.211  1.00  0.00     0.041 A 
ATOM     25  C   UNL     1       9.226  47.144  53.398  1.00  0.00     0.123 A 
ATOM     26  F   UNL     1      10.414  47.445  53.938  1.00  0.00    -0.207 F 
ENDBRANCH  18  20
ENDBRANCH  11  18
ENDBRANCH   6   8
ENDBRANCH   1   6
TORSDOF 7
ENDMDL
MODEL 8
REMARK VINA RESULT:    -7.941      2.496      5.388
REMARK INTER + INTRA:         -12.502
REMARK INTER:                 -12.163
REMARK INTRA:                  -0.340
REMARK UNBOUND:                -1.312
REMARK SMILES CCCCCNc1nc(Nc2ccc(F)cc2)c2cnn(C)c2n1
REMARK SMILES IDX 5 1 4 2 3 3 2 4 1 5 6 6 7 8 8 9 24 10 9 11 23 12 18 13 21 14
REMARK SMILES IDX 19 15 20 16 22 17 10 18 11 20 12 21 17 22 13 23 16 24 14 25
REMARK SMILES IDX 15 26
REMARK H PARENT 6 7 10 19
ROOT
ATOM      1  C   UNL     1       6.957  46.505  54.565  1.00  0.00     0.116 C 
ENDROOT
BRANCH   1   2
ATOM      2  C   UNL     1       7.411  47.375  53.388  1.00  0.00     0.021 C 
BRANCH   2   3
ATOM      3  C   UNL     1       8.843  47.889  53.556  1.00  0.00     0.002 C 
BRANCH   3   4
ATOM      4  C   UNL     1       9.898  46.783  53.467  1.00  0.00    -0.003 C 
ATOM      5  C   UNL     1      10.135  46.280  52.052  1.00  0.00     0.004 C 
ENDBRANCH   3   4
ENDBRANCH   2   3
ENDBRANCH   1   2
BRANCH   1   6
ATOM      6  N   UNL     1       5.604  46.862  54.957  1.00  0.00    -0.354 N 
ATOM      7  H   UNL     1       5.311  47.801  54.709  1.00  0.00     0.163 HD
BRANCH   6   8
ATOM      8  C   UNL     1       4.614  46.014  54.475  1.00  0.00     0.226 A 
ATOM      9  N   UNL     1       4.837  45.297  53.355  1.00  0.00    -0.195 NA
ATOM     10  N   UNL     1       3.490  45.995  55.203  1.00  0.00    -0.193 NA
ATOM     11  C   UNL     1       3.878  44.471  52.870  1.00  0.00     0.147 A 
ATOM     12  C   UNL     1       2.572  45.141  54.724  1.00  0.00     0.165 A 
ATOM     13  C   UNL     1       2.689  44.359  53.593  1.00  0.00     0.082 A 
ATOM     14  N   UNL     1       1.342  44.859  55.252  1.00  0.00    -0.250 N 
ATOM     15  C   UNL     1       1.485  43.627  53.547  1.00  0.00     0.149 A 
ATOM     16  N   UNL     1       0.649  43.938  54.544  1.00  0.00    -0.179 NA
ATOM     17  C   UNL     1       0.760  45.422  56.445  1.00  0.00     0.176 C 
BRANCH  11  18
ATOM     18  N   UNL     1       4.195  43.746  51.712  1.00  0.00    -0.339 N 
ATOM     19  H   UNL     1       3.869  42.792  51.852  1.00  0.00     0.168 HD
BRANCH  18  20
ATOM     20  C   UNL     1       5.367  43.785  50.932  1.00  0.00     0.040 A 
ATOM     21  C   UNL     1       5.723  42.630  50.216  1.00  0.00     0.029 A 
ATOM     22  C   UNL     1       6.202  44.907  50.849  1.00  0.00     0.029 A 
ATOM     23  C   UNL     1       6.874  42.603  49.425  1.00  0.00     0.041 A 
ATOM     24  C   UNL     1       7.354  44.883  50.059  1.00  0.00     0.041 A 
ATOM     25  C   UNL     1       7.678  43.731  49.353  1.00  0.00     0.123 A 
ATOM     26  F   UNL     1       8.783  43.709  48.596  1.00  0.00    -0.207 F 
ENDBRANCH  18  20
ENDBRANCH  11  18
ENDBRANCH   6   8
ENDBRANCH   1   6
TORSDOF 7
ENDMDL
MODEL 9
REMARK VINA RESULT:    -7.936      2.533      5.235
REMARK INTER + INTRA:         -12.496
REMARK INTER:                 -11.814
REMARK INTRA:                  -0.682
REMARK UNBOUND:                -1.312
REMARK SMILES CCCCCNc1nc(Nc2ccc(F)cc2)c2cnn(C)c2n1
REMARK SMILES IDX 5 1 4 2 3 3 2 4 1 5 6 6 7 8 8 9 24 10 9 11 23 12 18 13 21 14
REMARK SMILES IDX 19 15 20 16 22 17 10 18 11 20 12 21 17 22 13 23 16 24 14 25
REMARK SMILES IDX 15 26
REMARK H PARENT 6 7 10 19
ROOT
ATOM      1  C   UNL     1       5.387  41.319  48.161  1.00  0.00     0.116 C 
ENDROOT
BRANCH   1   2
ATOM      2  C   UNL     1       5.706  41.917  46.786  1.00  0.00     0.021 C 
BRANCH   2   3
ATOM      3  C   UNL     1       4.872  41.288  45.665  1.00  0.00     0.002 C 
BRANCH   3   4
ATOM      4  C   UNL     1       5.416  41.587  44.266  1.00  0.00    -0.003 C 
ATOM      5  C   UNL     1       5.464  40.368  43.358  1.00  0.00     0.004 C 
ENDBRANCH   3   4
ENDBRANCH   2   3
ENDBRANCH   1   2
BRANCH   1   6
ATOM      6  N   UNL     1       6.379  41.746  49.132  1.00  0.00    -0.354 N 
ATOM      7  H   UNL     1       7.264  42.056  48.746  1.00  0.00     0.163 HD
BRANCH   6   8
ATOM      8  C   UNL     1       5.960  42.760  49.986  1.00  0.00     0.226 A 
ATOM      9  N   UNL     1       6.703  43.877  50.109  1.00  0.00    -0.195 NA
ATOM     10  N   UNL     1       4.812  42.511  50.630  1.00  0.00    -0.193 NA
ATOM     11  C   UNL     1       6.311  44.871  50.944  1.00  0.00     0.147 A 
ATOM     12  C   UNL     1       4.425  43.525  51.419  1.00  0.00     0.165 A 
ATOM     13  C   UNL     1       5.101  44.712  51.622  1.00  0.00     0.082 A 
ATOM     14  N   UNL     1       3.289  43.605  52.175  1.00  0.00    -0.250 N 
ATOM     15  C   UNL     1       4.271  45.442  52.497  1.00  0.00     0.149 A 
ATOM     16  N   UNL     1       3.172  44.769  52.855  1.00  0.00    -0.179 NA
ATOM     17  C   UNL     1       2.252  42.609  52.292  1.00  0.00     0.176 C 
BRANCH  11  18
ATOM     18  N   UNL     1       7.129  46.009  51.000  1.00  0.00    -0.339 N 
ATOM     19  H   UNL     1       7.541  46.134  50.078  1.00  0.00     0.168 HD
BRANCH  18  20
ATOM     20  C   UNL     1       8.007  46.422  52.021  1.00  0.00     0.040 A 
ATOM     21  C   UNL     1       9.383  46.204  51.838  1.00  0.00     0.029 A 
ATOM     22  C   UNL     1       7.578  47.021  53.212  1.00  0.00     0.029 A 
ATOM     23  C   UNL     1      10.306  46.589  52.812  1.00  0.00     0.041 A 
ATOM     24  C   UNL     1       8.500  47.407  54.189  1.00  0.00     0.041 A 
ATOM     25  C   UNL     1       9.855  47.189  53.979  1.00  0.00     0.123 A 
ATOM     26  F   UNL     1      10.738  47.559  54.916  1.00  0.00    -0.207 F 
ENDBRANCH  18  20
ENDBRANCH  11  18
ENDBRANCH   6   8
ENDBRANCH   1   6
TORSDOF 7
ENDMDL
MODEL 10
REMARK VINA RESULT:    -7.776      3.189      6.226
REMARK INTER + INTRA:         -12.270
REMARK INTER:                 -11.489
REMARK INTRA:                  -0.781
REMARK UNBOUND:                -1.312
REMARK SMILES CCCCCNc1nc(Nc2ccc(F)cc2)c2cnn(C)c2n1
REMARK SMILES IDX 5 1 4 2 3 3 2 4 1 5 6 6 7 8 8 9 24 10 9 11 23 12 18 13 21 14
REMARK SMILES IDX 19 15 20 16 22 17 10 18 11 20 12 21 17 22 13 23 16 24 14 25
REMARK SMILES IDX 15 26
REMARK H PARENT 6 7 10 19
ROOT
ATOM      1  C   UNL     1       6.911  47.173  52.305  1.00  0.00     0.116 C 
ENDROOT
BRANCH   1   2
ATOM      2  C   UNL     1       8.192  48.015  52.281  1.00  0.00     0.021 C 
BRANCH   2   3
ATOM      3  C   UNL     1       9.451  47.163  52.103  1.00  0.00     0.002 C 
BRANCH   3   4
ATOM      4  C   UNL     1       9.916  46.492  53.399  1.00  0.00    -0.003 C 
ATOM      5  C   UNL     1       9.900  47.419  54.604  1.00  0.00     0.004 C 
ENDBRANCH   3   4
ENDBRANCH   2   3
ENDBRANCH   1   2
BRANCH   1   6
ATOM      6  N   UNL     1       6.983  46.128  51.300  1.00  0.00    -0.354 N 
ATOM      7  H   UNL     1       7.892  45.694  51.184  1.00  0.00     0.163 HD
BRANCH   6   8
ATOM      8  C   UNL     1       6.083  45.083  51.479  1.00  0.00     0.226 A 
ATOM      9  N   UNL     1       5.147  45.168  52.446  1.00  0.00    -0.195 NA
ATOM     10  N   UNL     1       6.247  44.053  50.639  1.00  0.00    -0.193 NA
ATOM     11  C   UNL     1       4.268  44.153  52.637  1.00  0.00     0.147 A 
ATOM     12  C   UNL     1       5.341  43.080  50.823  1.00  0.00     0.165 A 
ATOM     13  C   UNL     1       4.341  43.058  51.775  1.00  0.00     0.082 A 
ATOM     14  N   UNL     1       5.209  41.920  50.110  1.00  0.00    -0.250 N 
ATOM     15  C   UNL     1       3.651  41.853  51.530  1.00  0.00     0.149 A 
ATOM     16  N   UNL     1       4.184  41.143  50.528  1.00  0.00    -0.179 NA
ATOM     17  C   UNL     1       6.020  41.486  49.000  1.00  0.00     0.176 C 
BRANCH  11  18
ATOM     18  N   UNL     1       3.314  44.327  53.649  1.00  0.00    -0.339 N 
ATOM     19  H   UNL     1       3.544  43.679  54.399  1.00  0.00     0.168 HD
BRANCH  18  20
ATOM     20  C   UNL     1       1.922  44.514  53.536  1.00  0.00     0.040 A 
ATOM     21  C   UNL     1       1.114  44.138  54.621  1.00  0.00     0.029 A 
ATOM     22  C   UNL     1       1.305  45.039  52.393  1.00  0.00     0.029 A 
ATOM     23  C   UNL     1      -0.273  44.297  54.572  1.00  0.00     0.041 A 
ATOM     24  C   UNL     1      -0.082  45.200  52.341  1.00  0.00     0.041 A 
ATOM     25  C   UNL     1      -0.858  44.828  53.432  1.00  0.00     0.123 A 
ATOM     26  F   UNL     1      -2.188  44.981  53.380  1.00  0.00    -0.207 F 
ENDBRANCH  18  20
ENDBRANCH  11  18
ENDBRANCH   6   8
ENDBRANCH   1   6
TORSDOF 7
ENDMDL
MODEL 11
REMARK VINA RESULT:    -7.692      1.979      4.790
REMARK INTER + INTRA:         -12.152
REMARK INTER:                 -11.107
REMARK INTRA:                  -1.045
REMARK UNBOUND:                -1.312
REMARK SMILES CCCCCNc1nc(Nc2ccc(F)cc2)c2cnn(C)c2n1
REMARK SMILES IDX 5 1 4 2 3 3 2 4 1 5 6 6 7 8 8 9 24 10 9 11 23 12 18 13 21 14
REMARK SMILES IDX 19 15 20 16 22 17 10 18 11 20 12 21 17 22 13 23 16 24 14 25
REMARK SMILES IDX 15 26
REMARK H PARENT 6 7 10 19
ROOT
ATOM      1  C   UNL     1       5.074  41.209  50.356  1.00  0.00     0.116 C 
ENDROOT
BRANCH   1   2
ATOM      2  C   UNL     1       5.187  41.235  48.828  1.00  0.00     0.021 C 
BRANCH   2   3
ATOM      3  C   UNL     1       6.180  42.290  48.331  1.00  0.00     0.002 C 
BRANCH   3   4
ATOM      4  C   UNL     1       6.865  43.058  49.464  1.00  0.00    -0.003 C 
ATOM      5  C   UNL     1       8.140  43.767  49.036  1.00  0.00     0.004 C 
ENDBRANCH   3   4
ENDBRANCH   2   3
ENDBRANCH   1   2
BRANCH   1   6
ATOM      6  N   UNL     1       3.679  41.261  50.755  1.00  0.00    -0.354 N 
ATOM      7  H   UNL     1       3.363  40.496  51.341  1.00  0.00     0.163 HD
BRANCH   6   8
ATOM      8  C   UNL     1       3.304  42.426  51.414  1.00  0.00     0.226 A 
ATOM      9  N   UNL     1       4.192  43.060  52.205  1.00  0.00    -0.195 NA
ATOM     10  N   UNL     1       2.042  42.816  51.186  1.00  0.00    -0.193 NA
ATOM     11  C   UNL     1       3.837  44.193  52.859  1.00  0.00     0.147 A 
ATOM     12  C   UNL     1       1.728  43.960  51.814  1.00  0.00     0.165 A 
ATOM     13  C   UNL     1       2.551  44.694  52.644  1.00  0.00     0.082 A 
ATOM     14  N   UNL     1       0.544  44.642  51.759  1.00  0.00    -0.250 N 
ATOM     15  C   UNL     1       1.772  45.809  53.013  1.00  0.00     0.149 A 
ATOM     16  N   UNL     1       0.540  45.778  52.494  1.00  0.00    -0.179 NA
ATOM     17  C   UNL     1      -0.634  44.276  51.012  1.00  0.00     0.176 C 
BRANCH  11  18
ATOM     18  N   UNL     1       4.824  44.803  53.647  1.00  0.00    -0.339 N 
ATOM     19  H   UNL     1       4.354  45.243  54.436  1.00  0.00     0.168 HD
BRANCH  18  20
ATOM     20  C   UNL     1       5.956  45.537  53.244  1.00  0.00     0.040 A 
ATOM     21  C   UNL     1       6.729  46.161  54.237  1.00  0.00     0.029 A 
ATOM     22  C   UNL     1       6.339  45.689  51.905  1.00  0.00     0.029 A 
ATOM     23  C   UNL     1       7.863  46.904  53.902  1.00  0.00     0.041 A 
ATOM     24  C   UNL     1       7.474  46.431  51.567  1.00  0.00     0.041 A 
ATOM     25  C   UNL     1       8.226  47.031  52.570  1.00  0.00     0.123 A 
ATOM     26  F   UNL     1       9.313  47.744  52.245  1.00  0.00    -0.207 F 
ENDBRANCH  18  20
ENDBRANCH  11  18
ENDBRANCH   6   8
ENDBRANCH   1   6
TORSDOF 7
ENDMDL
MODEL 12
REMARK VINA RESULT:    -7.685      2.989      5.714
REMARK INTER + INTRA:         -12.142
REMARK INTER:                 -11.369
REMARK INTRA:                  -0.774
REMARK UNBOUND:                -1.312
REMARK SMILES CCCCCNc1nc(Nc2ccc(F)cc2)c2cnn(C)c2n1
REMARK SMILES IDX 5 1 4 2 3 3 2 4 1 5 6 6 7 8 8 9 24 10 9 11 23 12 18 13 21 14
REMARK SMILES IDX 19 15 20 16 22 17 10 18 11 20 12 21 17 22 13 23 16 24 14 25
REMARK SMILES IDX 15 26
REMARK H PARENT 6 7 10 19
ROOT
ATOM      1  C   UNL     1       3.633  46.725  54.480  1.00  0.00     0.116 C 
ENDROOT
BRANCH   1   2
ATOM      2  C   UNL     1       3.111  45.588  55.365  1.00  0.00     0.021 C 
BRANCH   2   3
ATOM      3  C   UNL     1       1.801  44.991  54.841  1.00  0.00     0.002 C 
BRANCH   3   4
ATOM      4  C   UNL     1       1.995  44.075  53.630  1.00  0.00    -0.003 C 
ATOM      5  C   UNL     1       0.966  42.959  53.539  1.00  0.00     0.004 C 
ENDBRANCH   3   4
ENDBRANCH   2   3
ENDBRANCH   1   2
BRANCH   1   6
ATOM      6  N   UNL     1       4.928  47.175  54.957  1.00  0.00    -0.354 N 
ATOM      7  H   UNL     1       5.187  46.856  55.885  1.00  0.00     0.163 HD
BRANCH   6   8
ATOM      8  C   UNL     1       5.999  46.852  54.132  1.00  0.00     0.226 A 
ATOM      9  N   UNL     1       5.768  46.292  52.928  1.00  0.00    -0.195 NA
ATOM     10  N   UNL     1       7.205  47.141  54.640  1.00  0.00    -0.193 NA
ATOM     11  C   UNL     1       6.803  45.965  52.116  1.00  0.00     0.147 A 
ATOM     12  C   UNL     1       8.210  46.845  53.802  1.00  0.00     0.165 A 
ATOM     13  C   UNL     1       8.094  46.272  52.551  1.00  0.00     0.082 A 
ATOM     14  N   UNL     1       9.547  47.051  53.999  1.00  0.00    -0.250 N 
ATOM     15  C   UNL     1       9.418  46.203  52.073  1.00  0.00     0.149 A 
ATOM     16  N   UNL     1      10.314  46.658  52.957  1.00  0.00    -0.179 NA
ATOM     17  C   UNL     1      10.173  47.635  55.160  1.00  0.00     0.176 C 
BRANCH  11  18
ATOM     18  N   UNL     1       6.478  45.404  50.872  1.00  0.00    -0.339 N 
ATOM     19  H   UNL     1       6.050  46.137  50.311  1.00  0.00     0.168 HD
BRANCH  18  20
ATOM     20  C   UNL     1       5.926  44.141  50.584  1.00  0.00     0.040 A 
ATOM     21  C   UNL     1       4.702  43.802  51.183  1.00  0.00     0.029 A 
ATOM     22  C   UNL     1       6.544  43.202  49.748  1.00  0.00     0.029 A 
ATOM     23  C   UNL     1       4.102  42.564  50.939  1.00  0.00     0.041 A 
ATOM     24  C   UNL     1       5.947  41.963  49.502  1.00  0.00     0.041 A 
ATOM     25  C   UNL     1       4.730  41.656  50.099  1.00  0.00     0.123 A 
ATOM     26  F   UNL     1       4.159  40.468  49.864  1.00  0.00    -0.207 F 
ENDBRANCH  18  20
ENDBRANCH  11  18
ENDBRANCH   6   8
ENDBRANCH   1   6
TORSDOF 7
ENDMDL
MODEL 13
REMARK VINA RESULT:    -7.681      1.605      2.389
REMARK INTER + INTRA:         -12.136
REMARK INTER:                 -11.348
REMARK INTRA:                  -0.788
REMARK UNBOUND:                -1.312
REMARK SMILES CCCCCNc1nc(Nc2ccc(F)cc2)c2cnn(C)c2n1
REMARK SMILES IDX 5 1 4 2 3 3 2 4 1 5 6 6 7 8 8 9 24 10 9 11 23 12 18 13 21 14
REMARK SMILES IDX 19 15 20 16 22 17 10 18 11 20 12 21 17 22 13 23 16 24 14 25
REMARK SMILES IDX 15 26
REMARK H PARENT 6 7 10 19
ROOT
ATOM      1  C   UNL     1       1.778  43.592  52.525  1.00  0.00     0.116 C 
ENDROOT
BRANCH   1   2
ATOM      2  C   UNL     1       1.107  44.626  53.436  1.00  0.00     0.021 C 
BRANCH   2   3
ATOM      3  C   UNL     1       1.691  44.626  54.852  1.00  0.00     0.002 C 
BRANCH   3   4
ATOM      4  C   UNL     1       0.746  45.228  55.896  1.00  0.00    -0.003 C 
ATOM      5  C   UNL     1      -0.714  44.857  55.682  1.00  0.00     0.004 C 
ENDBRANCH   3   4
ENDBRANCH   2   3
ENDBRANCH   1   2
BRANCH   1   6
ATOM      6  N   UNL     1       3.093  43.252  53.039  1.00  0.00    -0.354 N 
ATOM      7  H   UNL     1       3.244  42.269  53.235  1.00  0.00     0.163 HD
BRANCH   6   8
ATOM      8  C   UNL     1       4.154  43.647  52.233  1.00  0.00     0.226 A 
ATOM      9  N   UNL     1       4.768  44.824  52.467  1.00  0.00    -0.195 NA
ATOM     10  N   UNL     1       4.472  42.780  51.262  1.00  0.00    -0.193 NA
ATOM     11  C   UNL     1       5.800  45.224  51.684  1.00  0.00     0.147 A 
ATOM     12  C   UNL     1       5.521  43.181  50.527  1.00  0.00     0.165 A 
ATOM     13  C   UNL     1       6.224  44.359  50.674  1.00  0.00     0.082 A 
ATOM     14  N   UNL     1       6.116  42.513  49.493  1.00  0.00    -0.250 N 
ATOM     15  C   UNL     1       7.236  44.287  49.695  1.00  0.00     0.149 A 
ATOM     16  N   UNL     1       7.168  43.174  48.957  1.00  0.00    -0.179 NA
ATOM     17  C   UNL     1       5.744  41.225  48.962  1.00  0.00     0.176 C 
BRANCH  11  18
ATOM     18  N   UNL     1       6.396  46.452  52.004  1.00  0.00    -0.339 N 
ATOM     19  H   UNL     1       6.316  47.053  51.186  1.00  0.00     0.168 HD
BRANCH  18  20
ATOM     20  C   UNL     1       7.585  46.704  52.716  1.00  0.00     0.040 A 
ATOM     21  C   UNL     1       7.479  47.154  54.043  1.00  0.00     0.029 A 
ATOM     22  C   UNL     1       8.863  46.545  52.164  1.00  0.00     0.029 A 
ATOM     23  C   UNL     1       8.620  47.422  54.802  1.00  0.00     0.041 A 
ATOM     24  C   UNL     1      10.006  46.813  52.922  1.00  0.00     0.041 A 
ATOM     25  C   UNL     1       9.874  47.248  54.235  1.00  0.00     0.123 A 
ATOM     26  F   UNL     1      10.970  47.505  54.960  1.00  0.00    -0.207 F 
ENDBRANCH  18  20
ENDBRANCH  11  18
ENDBRANCH   6   8
ENDBRANCH   1   6
TORSDOF 7
ENDMDL
MODEL 14
REMARK VINA RESULT:    -7.657      2.594      5.734
REMARK INTER + INTRA:         -12.102
REMARK INTER:                 -11.385
REMARK INTRA:                  -0.718
REMARK UNBOUND:                -1.312
REMARK SMILES CCCCCNc1nc(Nc2ccc(F)cc2)c2cnn(C)c2n1
REMARK SMILES IDX 5 1 4 2 3 3 2 4 1 5 6 6 7 8 8 9 24 10 9 11 23 12 18 13 21 14
REMARK SMILES IDX 19 15 20 16 22 17 10 18 11 20 12 21 17 22 13 23 16 24 14 25
REMARK SMILES IDX 15 26
REMARK H PARENT 6 7 10 19
ROOT
ATOM      1  C   UNL     1       6.736  47.221  52.333  1.00  0.00     0.116 C 
ENDROOT
BRANCH   1   2
ATOM      2  C   UNL     1       8.022  48.052  52.400  1.00  0.00     0.021 C 
BRANCH   2   3
ATOM      3  C   UNL     1       9.229  47.313  51.815  1.00  0.00     0.002 C 
BRANCH   3   4
ATOM      4  C   UNL     1      10.118  46.666  52.880  1.00  0.00    -0.003 C 
ATOM      5  C   UNL     1       9.906  47.232  54.276  1.00  0.00     0.004 C 
ENDBRANCH   3   4
ENDBRANCH   2   3
ENDBRANCH   1   2
BRANCH   1   6
ATOM      6  N   UNL     1       6.778  46.328  51.189  1.00  0.00    -0.354 N 
ATOM      7  H   UNL     1       7.669  45.873  51.022  1.00  0.00     0.163 HD
BRANCH   6   8
ATOM      8  C   UNL     1       5.830  45.312  51.207  1.00  0.00     0.226 A 
ATOM      9  N   UNL     1       4.573  45.579  51.614  1.00  0.00    -0.195 NA
ATOM     10  N   UNL     1       6.282  44.117  50.803  1.00  0.00    -0.193 NA
ATOM     11  C   UNL     1       3.640  44.596  51.644  1.00  0.00     0.147 A 
ATOM     12  C   UNL     1       5.331  43.171  50.804  1.00  0.00     0.165 A 
ATOM     13  C   UNL     1       4.016  43.328  51.197  1.00  0.00     0.082 A 
ATOM     14  N   UNL     1       5.453  41.866  50.413  1.00  0.00    -0.250 N 
ATOM     15  C   UNL     1       3.432  42.064  50.978  1.00  0.00     0.149 A 
ATOM     16  N   UNL     1       4.304  41.160  50.517  1.00  0.00    -0.179 NA
ATOM     17  C   UNL     1       6.640  41.219  49.912  1.00  0.00     0.176 C 
BRANCH  11  18
ATOM     18  N   UNL     1       2.352  44.960  52.061  1.00  0.00    -0.339 N 
ATOM     19  H   UNL     1       2.103  45.816  51.571  1.00  0.00     0.168 HD
BRANCH  18  20
ATOM     20  C   UNL     1       1.792  44.922  53.353  1.00  0.00     0.040 A 
ATOM     21  C   UNL     1       2.647  45.116  54.450  1.00  0.00     0.029 A 
ATOM     22  C   UNL     1       0.433  44.683  53.598  1.00  0.00     0.029 A 
ATOM     23  C   UNL     1       2.155  45.090  55.757  1.00  0.00     0.041 A 
ATOM     24  C   UNL     1      -0.062  44.656  54.905  1.00  0.00     0.041 A 
ATOM     25  C   UNL     1       0.804  44.861  55.972  1.00  0.00     0.123 A 
ATOM     26  F   UNL     1       0.328  44.833  57.224  1.00  0.00    -0.207 F 
ENDBRANCH  18  20
ENDBRANCH  11  18
ENDBRANCH   6   8
ENDBRANCH   1   6
TORSDOF 7
ENDMDL
MODEL 15
REMARK VINA RESULT:    -7.609      3.595      6.562
REMARK INTER + INTRA:         -12.034
REMARK INTER:                 -11.358
REMARK INTRA:                  -0.676
REMARK UNBOUND:                -1.312
REMARK SMILES CCCCCNc1nc(Nc2ccc(F)cc2)c2cnn(C)c2n1
REMARK SMILES IDX 5 1 4 2 3 3 2 4 1 5 6 6 7 8 8 9 24 10 9 11 23 12 18 13 21 14
REMARK SMILES IDX 19 15 20 16 22 17 10 18 11 20 12 21 17 22 13 23 16 24 14 25
REMARK SMILES IDX 15 26
REMARK H PARENT 6 7 10 19
ROOT
ATOM      1  C   UNL     1       6.724  46.534  53.342  1.00  0.00     0.116 C 
ENDROOT
BRANCH   1   2
ATOM      2  C   UNL     1       7.572  47.619  52.669  1.00  0.00     0.021 C 
BRANCH   2   3
ATOM      3  C   UNL     1       8.876  47.897  53.422  1.00  0.00     0.002 C 
BRANCH   3   4
ATOM      4  C   UNL     1       9.888  46.753  53.321  1.00  0.00    -0.003 C 
ATOM      5  C   UNL     1      10.206  46.345  51.891  1.00  0.00     0.004 C 
ENDBRANCH   3   4
ENDBRANCH   2   3
ENDBRANCH   1   2
BRANCH   1   6
ATOM      6  N   UNL     1       5.463  46.377  52.640  1.00  0.00    -0.354 N 
ATOM      7  H   UNL     1       5.306  47.024  51.874  1.00  0.00     0.163 HD
BRANCH   6   8
ATOM      8  C   UNL     1       5.238  45.108  52.119  1.00  0.00     0.226 A 
ATOM      9  N   UNL     1       4.219  44.364  52.592  1.00  0.00    -0.195 NA
ATOM     10  N   UNL     1       6.097  44.737  51.160  1.00  0.00    -0.193 NA
ATOM     11  C   UNL     1       3.993  43.122  52.098  1.00  0.00     0.147 A 
ATOM     12  C   UNL     1       5.828  43.521  50.660  1.00  0.00     0.165 A 
ATOM     13  C   UNL     1       4.816  42.673  51.063  1.00  0.00     0.082 A 
ATOM     14  N   UNL     1       6.485  42.871  49.652  1.00  0.00    -0.250 N 
ATOM     15  C   UNL     1       4.938  41.554  50.215  1.00  0.00     0.149 A 
ATOM     16  N   UNL     1       5.965  41.656  49.363  1.00  0.00    -0.179 NA
ATOM     17  C   UNL     1       7.617  43.354  48.902  1.00  0.00     0.176 C 
BRANCH  11  18
ATOM     18  N   UNL     1       2.901  42.420  52.628  1.00  0.00    -0.339 N 
ATOM     19  H   UNL     1       3.064  41.430  52.458  1.00  0.00     0.168 HD
BRANCH  18  20
ATOM     20  C   UNL     1       1.530  42.736  52.574  1.00  0.00     0.040 A 
ATOM     21  C   UNL     1       0.832  42.863  53.787  1.00  0.00     0.029 A 
ATOM     22  C   UNL     1       0.825  42.913  51.376  1.00  0.00     0.029 A 
ATOM     23  C   UNL     1      -0.530  43.174  53.801  1.00  0.00     0.041 A 
ATOM     24  C   UNL     1      -0.537  43.224  51.388  1.00  0.00     0.041 A 
ATOM     25  C   UNL     1      -1.201  43.353  52.601  1.00  0.00     0.123 A 
ATOM     26  F   UNL     1      -2.508  43.650  52.612  1.00  0.00    -0.207 F 
ENDBRANCH  18  20
ENDBRANCH  11  18
ENDBRANCH   6   8
ENDBRANCH   1   6
TORSDOF 7
ENDMDL
MODEL 16
REMARK VINA RESULT:    -7.608      1.424      2.294
REMARK INTER + INTRA:         -12.034
REMARK INTER:                 -11.212
REMARK INTRA:                  -0.822
REMARK UNBOUND:                -1.312
REMARK SMILES CCCCCNc1nc(Nc2ccc(F)cc2)c2cnn(C)c2n1
REMARK SMILES IDX 5 1 4 2 3 3 2 4 1 5 6 6 7 8 8 9 24 10 9 11 23 12 18 13 21 14
REMARK SMILES IDX 19 15 20 16 22 17 10 18 11 20 12 21 17 22 13 23 16 24 14 25
REMARK SMILES IDX 15 26
REMARK H PARENT 6 7 10 19
ROOT
ATOM      1  C   UNL     1       2.592  44.962  54.607  1.00  0.00     0.116 C 
ENDROOT
BRANCH   1   2
ATOM      2  C   UNL     1       1.221  44.772  55.265  1.00  0.00     0.021 C 
BRANCH   2   3
ATOM      3  C   UNL     1       0.079  44.746  54.246  1.00  0.00     0.002 C 
BRANCH   3   4
ATOM      4  C   UNL     1      -0.610  43.383  54.143  1.00  0.00    -0.003 C 
ATOM      5  C   UNL     1       0.243  42.318  53.473  1.00  0.00     0.004 C 
ENDBRANCH   3   4
ENDBRANCH   2   3
ENDBRANCH   1   2
BRANCH   1   6
ATOM      6  N   UNL     1       2.430  45.252  53.193  1.00  0.00    -0.354 N 
ATOM      7  H   UNL     1       2.182  46.210  52.969  1.00  0.00     0.163 HD
BRANCH   6   8
ATOM      8  C   UNL     1       3.536  44.952  52.406  1.00  0.00     0.226 A 
ATOM      9  N   UNL     1       4.531  45.852  52.282  1.00  0.00    -0.195 NA
ATOM     10  N   UNL     1       3.497  43.746  51.823  1.00  0.00    -0.193 NA
ATOM     11  C   UNL     1       5.612  45.575  51.513  1.00  0.00     0.147 A 
ATOM     12  C   UNL     1       4.596  43.480  51.099  1.00  0.00     0.165 A 
ATOM     13  C   UNL     1       5.673  44.321  50.903  1.00  0.00     0.082 A 
ATOM     14  N   UNL     1       4.885  42.331  50.416  1.00  0.00    -0.250 N 
ATOM     15  C   UNL     1       6.563  43.570  50.109  1.00  0.00     0.149 A 
ATOM     16  N   UNL     1       6.084  42.361  49.790  1.00  0.00    -0.179 NA
ATOM     17  C   UNL     1       4.066  41.148  50.323  1.00  0.00     0.176 C 
BRANCH  11  18
ATOM     18  N   UNL     1       6.613  46.556  51.451  1.00  0.00    -0.339 N 
ATOM     19  H   UNL     1       6.859  46.679  50.471  1.00  0.00     0.168 HD
BRANCH  18  20
ATOM     20  C   UNL     1       7.726  46.744  52.293  1.00  0.00     0.040 A 
ATOM     21  C   UNL     1       7.495  47.163  53.613  1.00  0.00     0.029 A 
ATOM     22  C   UNL     1       9.050  46.551  51.875  1.00  0.00     0.029 A 
ATOM     23  C   UNL     1       8.556  47.367  54.497  1.00  0.00     0.041 A 
ATOM     24  C   UNL     1      10.114  46.755  52.758  1.00  0.00     0.041 A 
ATOM     25  C   UNL     1       9.856  47.160  54.062  1.00  0.00     0.123 A 
ATOM     26  F   UNL     1      10.877  47.357  54.907  1.00  0.00    -0.207 F 
ENDBRANCH  18  20
ENDBRANCH  11  18
ENDBRANCH   6   8
ENDBRANCH   1   6
TORSDOF 7
ENDMDL
MODEL 17
REMARK VINA RESULT:    -7.297      2.486      5.889
REMARK INTER + INTRA:         -11.595
REMARK INTER:                 -10.303
REMARK INTRA:                  -1.292
REMARK UNBOUND:                -1.312
REMARK SMILES CCCCCNc1nc(Nc2ccc(F)cc2)c2cnn(C)c2n1
REMARK SMILES IDX 5 1 4 2 3 3 2 4 1 5 6 6 7 8 8 9 24 10 9 11 23 12 18 13 21 14
REMARK SMILES IDX 19 15 20 16 22 17 10 18 11 20 12 21 17 22 13 23 16 24 14 25
REMARK SMILES IDX 15 26
REMARK H PARENT 6 7 10 19
ROOT
ATOM      1  C   UNL     1       6.079  42.643  49.006  1.00  0.00     0.116 C 
ENDROOT
BRANCH   1   2
ATOM      2  C   UNL     1       5.990  41.561  50.088  1.00  0.00     0.021 C 
BRANCH   2   3
ATOM      3  C   UNL     1       4.548  41.285  50.523  1.00  0.00     0.002 C 
BRANCH   3   4
ATOM      4  C   UNL     1       4.024  42.289  51.553  1.00  0.00    -0.003 C 
ATOM      5  C   UNL     1       2.568  42.674  51.342  1.00  0.00     0.004 C 
ENDBRANCH   3   4
ENDBRANCH   2   3
ENDBRANCH   1   2
BRANCH   1   6
ATOM      6  N   UNL     1       7.294  43.420  49.175  1.00  0.00    -0.354 N 
ATOM      7  H   UNL     1       7.693  43.799  48.322  1.00  0.00     0.163 HD
BRANCH   6   8
ATOM      8  C   UNL     1       7.183  44.493  50.052  1.00  0.00     0.226 A 
ATOM      9  N   UNL     1       5.963  44.949  50.397  1.00  0.00    -0.195 NA
ATOM     10  N   UNL     1       8.352  44.986  50.483  1.00  0.00    -0.193 NA
ATOM     11  C   UNL     1       5.840  45.999  51.246  1.00  0.00     0.147 A 
ATOM     12  C   UNL     1       8.203  45.998  51.352  1.00  0.00     0.165 A 
ATOM     13  C   UNL     1       7.009  46.547  51.777  1.00  0.00     0.082 A 
ATOM     14  N   UNL     1       9.187  46.690  52.002  1.00  0.00    -0.250 N 
ATOM     15  C   UNL     1       7.390  47.542  52.699  1.00  0.00     0.149 A 
ATOM     16  N   UNL     1       8.717  47.650  52.830  1.00  0.00    -0.179 NA
ATOM     17  C   UNL     1      10.610  46.481  51.893  1.00  0.00     0.176 C 
BRANCH  11  18
ATOM     18  N   UNL     1       4.536  46.401  51.569  1.00  0.00    -0.339 N 
ATOM     19  H   UNL     1       4.482  47.407  51.422  1.00  0.00     0.168 HD
BRANCH  18  20
ATOM     20  C   UNL     1       3.719  45.990  52.641  1.00  0.00     0.040 A 
ATOM     21  C   UNL     1       4.341  45.430  53.770  1.00  0.00     0.029 A 
ATOM     22  C   UNL     1       2.322  46.095  52.630  1.00  0.00     0.029 A 
ATOM     23  C   UNL     1       3.587  45.002  54.865  1.00  0.00     0.041 A 
ATOM     24  C   UNL     1       1.566  45.667  53.725  1.00  0.00     0.041 A 
ATOM     25  C   UNL     1       2.206  45.126  54.832  1.00  0.00     0.123 A 
ATOM     26  F   UNL     1       1.480  44.715  55.881  1.00  0.00    -0.207 F 
ENDBRANCH  18  20
ENDBRANCH  11  18
ENDBRANCH   6   8
ENDBRANCH   1   6
TORSDOF 7
ENDMDL
MODEL 18
REMARK VINA RESULT:    -7.295      3.033      6.606
REMARK INTER + INTRA:         -11.593
REMARK INTER:                 -10.318
REMARK INTRA:                  -1.274
REMARK UNBOUND:                -1.312
REMARK SMILES CCCCCNc1nc(Nc2ccc(F)cc2)c2cnn(C)c2n1
REMARK SMILES IDX 5 1 4 2 3 3 2 4 1 5 6 6 7 8 8 9 24 10 9 11 23 12 18 13 21 14
REMARK SMILES IDX 19 15 20 16 22 17 10 18 11 20 12 21 17 22 13 23 16 24 14 25
REMARK SMILES IDX 15 26
REMARK H PARENT 6 7 10 19
ROOT
ATOM      1  C   UNL     1       7.302  43.431  48.848  1.00  0.00     0.116 C 
ENDROOT
BRANCH   1   2
ATOM      2  C   UNL     1       7.272  42.241  49.814  1.00  0.00     0.021 C 
BRANCH   2   3
ATOM      3  C   UNL     1       6.074  41.318  49.572  1.00  0.00     0.002 C 
BRANCH   3   4
ATOM      4  C   UNL     1       4.895  41.599  50.508  1.00  0.00    -0.003 C 
ATOM      5  C   UNL     1       3.561  41.107  49.971  1.00  0.00     0.004 C 
ENDBRANCH   3   4
ENDBRANCH   2   3
ENDBRANCH   1   2
BRANCH   1   6
ATOM      6  N   UNL     1       8.114  44.501  49.399  1.00  0.00    -0.354 N 
ATOM      7  H   UNL     1       8.416  45.206  48.735  1.00  0.00     0.163 HD
BRANCH   6   8
ATOM      8  C   UNL     1       7.527  45.196  50.451  1.00  0.00     0.226 A 
ATOM      9  N   UNL     1       6.188  45.343  50.488  1.00  0.00    -0.195 NA
ATOM     10  N   UNL     1       8.391  45.671  51.358  1.00  0.00    -0.193 NA
ATOM     11  C   UNL     1       5.604  46.025  51.504  1.00  0.00     0.147 A 
ATOM     12  C   UNL     1       7.786  46.308  52.372  1.00  0.00     0.165 A 
ATOM     13  C   UNL     1       6.429  46.517  52.517  1.00  0.00     0.082 A 
ATOM     14  N   UNL     1       8.373  46.870  53.472  1.00  0.00    -0.250 N 
ATOM     15  C   UNL     1       6.308  47.192  53.749  1.00  0.00     0.149 A 
ATOM     16  N   UNL     1       7.490  47.428  54.331  1.00  0.00    -0.179 NA
ATOM     17  C   UNL     1       9.781  46.903  53.782  1.00  0.00     0.176 C 
BRANCH  11  18
ATOM     18  N   UNL     1       4.205  46.117  51.481  1.00  0.00    -0.339 N 
ATOM     19  H   UNL     1       3.951  47.007  51.904  1.00  0.00     0.168 HD
BRANCH  18  20
ATOM     20  C   UNL     1       3.244  45.123  51.751  1.00  0.00     0.040 A 
ATOM     21  C   UNL     1       3.556  44.143  52.708  1.00  0.00     0.029 A 
ATOM     22  C   UNL     1       2.004  45.051  51.102  1.00  0.00     0.029 A 
ATOM     23  C   UNL     1       2.647  43.130  53.021  1.00  0.00     0.041 A 
ATOM     24  C   UNL     1       1.093  44.039  51.413  1.00  0.00     0.041 A 
ATOM     25  C   UNL     1       1.423  43.088  52.370  1.00  0.00     0.123 A 
ATOM     26  F   UNL     1       0.549  42.117  52.667  1.00  0.00    -0.207 F 
ENDBRANCH  18  20
ENDBRANCH  11  18
ENDBRANCH   6   8
ENDBRANCH   1   6
TORSDOF 7
ENDMDL
MODEL 19
REMARK VINA RESULT:    -7.249      3.123      5.909
REMARK INTER + INTRA:         -11.528
REMARK INTER:                 -10.062
REMARK INTRA:                  -1.466
REMARK UNBOUND:                -1.312
REMARK SMILES CCCCCNc1nc(Nc2ccc(F)cc2)c2cnn(C)c2n1
REMARK SMILES IDX 5 1 4 2 3 3 2 4 1 5 6 6 7 8 8 9 24 10 9 11 23 12 18 13 21 14
REMARK SMILES IDX 19 15 20 16 22 17 10 18 11 20 12 21 17 22 13 23 16 24 14 25
REMARK SMILES IDX 15 26
REMARK H PARENT 6 7 10 19
ROOT
ATOM      1  C   UNL     1       1.852  43.699  51.656  1.00  0.00     0.116 C 
ENDROOT
BRANCH   1   2
ATOM      2  C   UNL     1       2.915  42.674  51.247  1.00  0.00     0.021 C 
BRANCH   2   3
ATOM      3  C   UNL     1       4.316  43.053  51.738  1.00  0.00     0.002 C 
BRANCH   3   4
ATOM      4  C   UNL     1       4.803  44.399  51.195  1.00  0.00    -0.003 C 
ATOM      5  C   UNL     1       6.135  44.315  50.465  1.00  0.00     0.004 C 
ENDBRANCH   3   4
ENDBRANCH   2   3
ENDBRANCH   1   2
BRANCH   1   6
ATOM      6  N   UNL     1       1.037  43.170  52.735  1.00  0.00    -0.354 N 
ATOM      7  H   UNL     1       1.236  42.212  53.003  1.00  0.00     0.163 HD
BRANCH   6   8
ATOM      8  C   UNL     1       1.074  43.910  53.911  1.00  0.00     0.226 A 
ATOM      9  N   UNL     1       2.217  44.524  54.277  1.00  0.00    -0.195 NA
ATOM     10  N   UNL     1      -0.079  43.936  54.592  1.00  0.00    -0.193 NA
ATOM     11  C   UNL     1       2.269  45.242  55.425  1.00  0.00     0.147 A 
ATOM     12  C   UNL     1      -0.012  44.686  55.703  1.00  0.00     0.165 A 
ATOM     13  C   UNL     1       1.097  45.358  56.175  1.00  0.00     0.082 A 
ATOM     14  N   UNL     1      -1.018  44.949  56.591  1.00  0.00    -0.250 N 
ATOM     15  C   UNL     1       0.642  46.013  57.337  1.00  0.00     0.149 A 
ATOM     16  N   UNL     1      -0.642  45.755  57.611  1.00  0.00    -0.179 NA
ATOM     17  C   UNL     1      -2.378  44.474  56.528  1.00  0.00     0.176 C 
BRANCH  11  18
ATOM     18  N   UNL     1       3.489  45.866  55.725  1.00  0.00    -0.339 N 
ATOM     19  H   UNL     1       3.290  46.629  56.369  1.00  0.00     0.168 HD
BRANCH  18  20
ATOM     20  C   UNL     1       4.562  46.178  54.868  1.00  0.00     0.040 A 
ATOM     21  C   UNL     1       5.720  45.386  54.943  1.00  0.00     0.029 A 
ATOM     22  C   UNL     1       4.540  47.245  53.961  1.00  0.00     0.029 A 
ATOM     23  C   UNL     1       6.820  45.643  54.121  1.00  0.00     0.041 A 
ATOM     24  C   UNL     1       5.639  47.505  53.137  1.00  0.00     0.041 A 
ATOM     25  C   UNL     1       6.768  46.700  53.225  1.00  0.00     0.123 A 
ATOM     26  F   UNL     1       7.822  46.951  52.436  1.00  0.00    -0.207 F 
ENDBRANCH  18  20
ENDBRANCH  11  18
ENDBRANCH   6   8
ENDBRANCH   1   6
TORSDOF 7
ENDMDL
