MODEL 1
REMARK VINA RESULT:    -8.890      0.000      0.000
REMARK INTER + INTRA:         -12.817
REMARK INTER:                 -12.008
REMARK INTRA:                  -0.808
REMARK UNBOUND:                -0.808
REMARK SMILES Cc1ccc(Nc2nc(NCc3ccncc3)nc(N(C)C)n2)cc1
REMARK SMILES IDX 7 1 8 2 9 3 18 4 19 5 23 6 6 7 5 9 2 10 3 11 25 12 4 13
REMARK SMILES IDX 24 14 1 15 10 16 11 18 12 19 13 20 17 21 14 22 16 23 15 24
REMARK SMILES IDX 20 25 21 26 22 27
REMARK H PARENT 6 8 10 17
ROOT
ATOM      1  C   UNL     1       5.940  45.175  51.013  1.00  0.00     0.233 A 
ATOM      2  N   UNL     1       6.084  43.878  50.784  1.00  0.00    -0.177 NA
ATOM      3  C   UNL     1       4.970  43.166  50.776  1.00  0.00     0.229 A 
ATOM      4  N   UNL     1       3.766  43.664  50.998  1.00  0.00    -0.177 NA
ATOM      5  C   UNL     1       3.692  44.970  51.229  1.00  0.00     0.231 A 
ATOM      6  N   UNL     1       4.768  45.752  51.249  1.00  0.00    -0.176 NA
ENDROOT
BRANCH   1   7
ATOM      7  N   UNL     1       7.035  46.036  51.057  1.00  0.00    -0.324 N 
ATOM      8  H   UNL     1       7.268  46.321  50.117  1.00  0.00     0.170 HD
BRANCH   7   9
ATOM      9  C   UNL     1       7.929  46.420  52.063  1.00  0.00     0.041 A 
ATOM     10  C   UNL     1       9.630  47.151  54.216  1.00  0.00    -0.051 A 
ATOM     11  C   UNL     1      10.162  46.765  52.983  1.00  0.00     0.005 A 
ATOM     12  C   UNL     1       8.244  47.144  54.379  1.00  0.00     0.005 A 
ATOM     13  C   UNL     1       9.318  46.404  51.924  1.00  0.00     0.026 A 
ATOM     14  C   UNL     1       7.409  46.784  53.316  1.00  0.00     0.026 A 
ATOM     15  C   UNL     1      10.534  47.505  55.359  1.00  0.00     0.044 C 
ENDBRANCH   7   9
ENDBRANCH   1   7
BRANCH   3  16
ATOM     16  N   UNL     1       5.020  41.799  50.531  1.00  0.00    -0.350 N 
ATOM     17  H   UNL     1       5.120  41.345  51.433  1.00  0.00     0.164 HD
BRANCH  16  18
ATOM     18  C   UNL     1       5.995  41.407  49.535  1.00  0.00     0.152 C 
BRANCH  18  19
ATOM     19  C   UNL     1       5.305  41.260  48.201  1.00  0.00    -0.026 A 
ATOM     20  C   UNL     1       5.840  41.832  47.044  1.00  0.00     0.025 A 
ATOM     21  C   UNL     1       4.111  40.539  48.095  1.00  0.00     0.025 A 
ATOM     22  C   UNL     1       5.162  41.662  45.845  1.00  0.00     0.111 A 
ATOM     23  C   UNL     1       3.510  40.423  46.852  1.00  0.00     0.111 A 
ATOM     24  N   UNL     1       4.009  40.972  45.724  1.00  0.00    -0.265 NA
ENDBRANCH  18  19
ENDBRANCH  16  18
ENDBRANCH   3  16
BRANCH   5  25
ATOM     25  N   UNL     1       2.438  45.548  51.439  1.00  0.00    -0.347 N 
ATOM     26  C   UNL     1       2.402  46.583  52.460  1.00  0.00     0.146 C 
ATOM     27  C   UNL     1       1.319  44.619  51.405  1.00  0.00     0.146 C 
ENDBRANCH   5  25
TORSDOF 6
ENDMDL
MODEL 2
REMARK VINA RESULT:    -8.851      1.830      5.311
REMARK INTER + INTRA:         -12.764
REMARK INTER:                 -11.805
REMARK INTRA:                  -0.959
REMARK UNBOUND:                -0.808
REMARK SMILES Cc1ccc(Nc2nc(NCc3ccncc3)nc(N(C)C)n2)cc1
REMARK SMILES IDX 7 1 8 2 9 3 18 4 19 5 23 6 6 7 5 9 2 10 3 11 25 12 4 13
REMARK SMILES IDX 24 14 1 15 10 16 11 18 12 19 13 20 17 21 14 22 16 23 15 24
REMARK SMILES IDX 20 25 21 26 22 27
REMARK H PARENT 6 8 10 17
ROOT
ATOM      1  C   UNL     1       6.252  45.387  51.036  1.00  0.00     0.233 A 
ATOM      2  N   UNL     1       5.103  46.043  51.089  1.00  0.00    -0.177 NA
ATOM      3  C   UNL     1       4.011  45.305  50.989  1.00  0.00     0.229 A 
ATOM      4  N   UNL     1       4.012  43.993  50.822  1.00  0.00    -0.177 NA
ATOM      5  C   UNL     1       5.198  43.398  50.768  1.00  0.00     0.231 A 
ATOM      6  N   UNL     1       6.340  44.073  50.867  1.00  0.00    -0.176 NA
ENDROOT
BRANCH   1   7
ATOM      7  N   UNL     1       7.477  46.048  51.121  1.00  0.00    -0.324 N 
ATOM      8  H   UNL     1       7.881  46.111  50.198  1.00  0.00     0.170 HD
BRANCH   7   9
ATOM      9  C   UNL     1       8.289  46.455  52.186  1.00  0.00     0.041 A 
ATOM     10  C   UNL     1       9.815  47.241  54.448  1.00  0.00    -0.051 A 
ATOM     11  C   UNL     1      10.442  46.813  53.275  1.00  0.00     0.005 A 
ATOM     12  C   UNL     1       8.420  47.248  54.497  1.00  0.00     0.005 A 
ATOM     13  C   UNL     1       9.685  46.426  52.162  1.00  0.00     0.026 A 
ATOM     14  C   UNL     1       7.671  46.860  53.379  1.00  0.00     0.026 A 
ATOM     15  C   UNL     1      10.624  47.623  55.651  1.00  0.00     0.044 C 
ENDBRANCH   7   9
ENDBRANCH   1   7
BRANCH   3  16
ATOM     16  N   UNL     1       2.758  45.903  51.047  1.00  0.00    -0.350 N 
ATOM     17  H   UNL     1       2.568  46.272  50.122  1.00  0.00     0.164 HD
BRANCH  16  18
ATOM     18  C   UNL     1       2.600  46.849  52.131  1.00  0.00     0.152 C 
BRANCH  18  19
ATOM     19  C   UNL     1       2.293  46.096  53.402  1.00  0.00    -0.026 A 
ATOM     20  C   UNL     1       3.164  46.135  54.494  1.00  0.00     0.025 A 
ATOM     21  C   UNL     1       1.119  45.344  53.516  1.00  0.00     0.025 A 
ATOM     22  C   UNL     1       2.828  45.424  55.637  1.00  0.00     0.111 A 
ATOM     23  C   UNL     1       0.871  44.670  54.701  1.00  0.00     0.111 A 
ATOM     24  N   UNL     1       1.702  44.692  55.764  1.00  0.00    -0.265 NA
ENDBRANCH  18  19
ENDBRANCH  16  18
ENDBRANCH   3  16
BRANCH   5  25
ATOM     25  N   UNL     1       5.250  42.009  50.624  1.00  0.00    -0.347 N 
ATOM     26  C   UNL     1       6.341  41.518  49.799  1.00  0.00     0.146 C 
ATOM     27  C   UNL     1       3.959  41.359  50.462  1.00  0.00     0.146 C 
ENDBRANCH   5  25
TORSDOF 6
ENDMDL
MODEL 3
REMARK VINA RESULT:    -8.816      1.020      1.222
REMARK INTER + INTRA:         -12.717
REMARK INTER:                 -11.997
REMARK INTRA:                  -0.721
REMARK UNBOUND:                -0.808
REMARK SMILES Cc1ccc(Nc2nc(NCc3ccncc3)nc(N(C)C)n2)cc1
REMARK SMILES IDX 7 1 8 2 9 3 18 4 19 5 23 6 6 7 5 9 2 10 3 11 25 12 4 13
REMARK SMILES IDX 24 14 1 15 10 16 11 18 12 19 13 20 17 21 14 22 16 23 15 24
REMARK SMILES IDX 20 25 21 26 22 27
REMARK H PARENT 6 8 10 17
ROOT
ATOM      1  C   UNL     1       6.561  45.191  50.890  1.00  0.00     0.233 A 
ATOM      2  N   UNL     1       6.989  44.227  50.089  1.00  0.00    -0.177 NA
ATOM      3  C   UNL     1       6.151  43.222  49.898  1.00  0.00     0.229 A 
ATOM      4  N   UNL     1       4.961  43.126  50.464  1.00  0.00    -0.177 NA
ATOM      5  C   UNL     1       4.597  44.123  51.263  1.00  0.00     0.231 A 
ATOM      6  N   UNL     1       5.383  45.170  51.501  1.00  0.00    -0.176 NA
ENDROOT
BRANCH   1   7
ATOM      7  N   UNL     1       7.350  46.303  51.182  1.00  0.00    -0.324 N 
ATOM      8  H   UNL     1       7.375  46.910  50.375  1.00  0.00     0.170 HD
BRANCH   7   9
ATOM      9  C   UNL     1       8.204  46.637  52.240  1.00  0.00     0.041 A 
ATOM     10  C   UNL     1       9.813  47.286  54.488  1.00  0.00    -0.051 A 
ATOM     11  C   UNL     1      10.388  46.788  53.316  1.00  0.00     0.005 A 
ATOM     12  C   UNL     1       8.426  47.433  54.542  1.00  0.00     0.005 A 
ATOM     13  C   UNL     1       9.590  46.468  52.210  1.00  0.00     0.026 A 
ATOM     14  C   UNL     1       7.636  47.113  53.432  1.00  0.00     0.026 A 
ATOM     15  C   UNL     1      10.663  47.596  55.683  1.00  0.00     0.044 C 
ENDBRANCH   7   9
ENDBRANCH   1   7
BRANCH   3  16
ATOM     16  N   UNL     1       6.506  42.169  49.063  1.00  0.00    -0.350 N 
ATOM     17  H   UNL     1       6.788  42.580  48.179  1.00  0.00     0.164 HD
BRANCH  16  18
ATOM     18  C   UNL     1       5.508  41.125  48.964  1.00  0.00     0.152 C 
BRANCH  18  19
ATOM     19  C   UNL     1       4.935  41.120  47.569  1.00  0.00    -0.026 A 
ATOM     20  C   UNL     1       5.574  41.789  46.522  1.00  0.00     0.025 A 
ATOM     21  C   UNL     1       3.746  40.435  47.292  1.00  0.00     0.025 A 
ATOM     22  C   UNL     1       5.001  41.748  45.259  1.00  0.00     0.111 A 
ATOM     23  C   UNL     1       3.254  40.451  45.997  1.00  0.00     0.111 A 
ATOM     24  N   UNL     1       3.855  41.095  44.974  1.00  0.00    -0.265 NA
ENDBRANCH  18  19
ENDBRANCH  16  18
ENDBRANCH   3  16
BRANCH   5  25
ATOM     25  N   UNL     1       3.335  44.082  51.861  1.00  0.00    -0.347 N 
ATOM     26  C   UNL     1       2.902  42.763  52.292  1.00  0.00     0.146 C 
ATOM     27  C   UNL     1       2.333  44.934  51.240  1.00  0.00     0.146 C 
ENDBRANCH   5  25
TORSDOF 6
ENDMDL
MODEL 4
REMARK VINA RESULT:    -8.752      0.337      1.219
REMARK INTER + INTRA:         -12.631
REMARK INTER:                 -11.842
REMARK INTRA:                  -0.789
REMARK UNBOUND:                -0.808
REMARK SMILES Cc1ccc(Nc2nc(NCc3ccncc3)nc(N(C)C)n2)cc1
REMARK SMILES IDX 7 1 8 2 9 3 18 4 19 5 23 6 6 7 5 9 2 10 3 11 25 12 4 13
REMARK SMILES IDX 24 14 1 15 10 16 11 18 12 19 13 20 17 21 14 22 16 23 15 24
REMARK SMILES IDX 20 25 21 26 22 27
REMARK H PARENT 6 8 10 17
ROOT
ATOM      1  C   UNL     1       5.694  45.057  51.224  1.00  0.00     0.233 A 
ATOM      2  N   UNL     1       5.950  43.820  50.825  1.00  0.00    -0.177 NA
ATOM      3  C   UNL     1       4.929  42.981  50.854  1.00  0.00     0.229 A 
ATOM      4  N   UNL     1       3.715  43.300  51.269  1.00  0.00    -0.177 NA
ATOM      5  C   UNL     1       3.528  44.554  51.664  1.00  0.00     0.231 A 
ATOM      6  N   UNL     1       4.505  45.457  51.658  1.00  0.00    -0.176 NA
ENDROOT
BRANCH   1   7
ATOM      7  N   UNL     1       6.685  46.038  51.250  1.00  0.00    -0.324 N 
ATOM      8  H   UNL     1       6.764  46.450  50.332  1.00  0.00     0.170 HD
BRANCH   7   9
ATOM      9  C   UNL     1       7.653  46.416  52.188  1.00  0.00     0.041 A 
ATOM     10  C   UNL     1       9.511  47.140  54.209  1.00  0.00    -0.051 A 
ATOM     11  C   UNL     1       9.949  46.735  52.945  1.00  0.00     0.005 A 
ATOM     12  C   UNL     1       8.140  47.155  54.468  1.00  0.00     0.005 A 
ATOM     13  C   UNL     1       9.029  46.378  51.952  1.00  0.00     0.026 A 
ATOM     14  C   UNL     1       7.227  46.798  53.470  1.00  0.00     0.026 A 
ATOM     15  C   UNL     1      10.497  47.490  55.282  1.00  0.00     0.044 C 
ENDBRANCH   7   9
ENDBRANCH   1   7
BRANCH   3  16
ATOM     16  N   UNL     1       5.098  41.665  50.442  1.00  0.00    -0.350 N 
ATOM     17  H   UNL     1       5.302  41.122  51.274  1.00  0.00     0.164 HD
BRANCH  16  18
ATOM     18  C   UNL     1       6.037  41.498  49.353  1.00  0.00     0.152 C 
BRANCH  18  19
ATOM     19  C   UNL     1       5.273  41.281  48.071  1.00  0.00    -0.026 A 
ATOM     20  C   UNL     1       4.084  40.546  48.052  1.00  0.00     0.025 A 
ATOM     21  C   UNL     1       5.739  41.819  46.866  1.00  0.00     0.025 A 
ATOM     22  C   UNL     1       3.424  40.380  46.844  1.00  0.00     0.111 A 
ATOM     23  C   UNL     1       5.006  41.601  45.711  1.00  0.00     0.111 A 
ATOM     24  N   UNL     1       3.859  40.891  45.672  1.00  0.00    -0.265 NA
ENDBRANCH  18  19
ENDBRANCH  16  18
ENDBRANCH   3  16
BRANCH   5  25
ATOM     25  N   UNL     1       2.254  44.947  52.082  1.00  0.00    -0.347 N 
ATOM     26  C   UNL     1       1.156  44.411  51.294  1.00  0.00     0.146 C 
ATOM     27  C   UNL     1       2.146  46.336  52.502  1.00  0.00     0.146 C 
ENDBRANCH   5  25
TORSDOF 6
ENDMDL
MODEL 5
REMARK VINA RESULT:    -8.704      2.596      6.088
REMARK INTER + INTRA:         -12.566
REMARK INTER:                 -11.960
REMARK INTRA:                  -0.606
REMARK UNBOUND:                -0.808
REMARK SMILES Cc1ccc(Nc2nc(NCc3ccncc3)nc(N(C)C)n2)cc1
REMARK SMILES IDX 7 1 8 2 9 3 18 4 19 5 23 6 6 7 5 9 2 10 3 11 25 12 4 13
REMARK SMILES IDX 24 14 1 15 10 16 11 18 12 19 13 20 17 21 14 22 16 23 15 24
REMARK SMILES IDX 20 25 21 26 22 27
REMARK H PARENT 6 8 10 17
ROOT
ATOM      1  C   UNL     1       5.249  44.575  51.664  1.00  0.00     0.233 A 
ATOM      2  N   UNL     1       4.239  44.643  52.519  1.00  0.00    -0.177 NA
ATOM      3  C   UNL     1       3.441  43.590  52.555  1.00  0.00     0.229 A 
ATOM      4  N   UNL     1       3.584  42.520  51.792  1.00  0.00    -0.177 NA
ATOM      5  C   UNL     1       4.612  42.520  50.950  1.00  0.00     0.231 A 
ATOM      6  N   UNL     1       5.461  43.540  50.860  1.00  0.00    -0.176 NA
ENDROOT
BRANCH   1   7
ATOM      7  N   UNL     1       6.159  45.621  51.521  1.00  0.00    -0.324 N 
ATOM      8  H   UNL     1       6.110  45.973  50.576  1.00  0.00     0.170 HD
BRANCH   7   9
ATOM      9  C   UNL     1       7.187  46.131  52.322  1.00  0.00     0.041 A 
ATOM     10  C   UNL     1       9.188  47.116  54.080  1.00  0.00    -0.051 A 
ATOM     11  C   UNL     1       9.512  46.704  52.785  1.00  0.00     0.005 A 
ATOM     12  C   UNL     1       7.863  47.008  54.504  1.00  0.00     0.005 A 
ATOM     13  C   UNL     1       8.522  46.218  51.922  1.00  0.00     0.026 A 
ATOM     14  C   UNL     1       6.879  46.522  53.635  1.00  0.00     0.026 A 
ATOM     15  C   UNL     1      10.253  47.604  55.015  1.00  0.00     0.044 C 
ENDBRANCH   7   9
ENDBRANCH   1   7
BRANCH   3  16
ATOM     16  N   UNL     1       2.361  43.565  53.430  1.00  0.00    -0.350 N 
ATOM     17  H   UNL     1       1.810  42.749  53.189  1.00  0.00     0.164 HD
BRANCH  16  18
ATOM     18  C   UNL     1       1.622  44.807  53.500  1.00  0.00     0.152 C 
BRANCH  18  19
ATOM     19  C   UNL     1       0.826  44.837  54.781  1.00  0.00    -0.026 A 
ATOM     20  C   UNL     1      -0.508  44.424  54.813  1.00  0.00     0.025 A 
ATOM     21  C   UNL     1       1.414  45.277  55.972  1.00  0.00     0.025 A 
ATOM     22  C   UNL     1      -1.189  44.472  56.021  1.00  0.00     0.111 A 
ATOM     23  C   UNL     1       0.651  45.286  57.129  1.00  0.00     0.111 A 
ATOM     24  N   UNL     1      -0.640  44.895  57.179  1.00  0.00    -0.265 NA
ENDBRANCH  18  19
ENDBRANCH  16  18
ENDBRANCH   3  16
BRANCH   5  25
ATOM     25  N   UNL     1       4.823  41.398  50.145  1.00  0.00    -0.347 N 
ATOM     26  C   UNL     1       5.935  41.510  49.215  1.00  0.00     0.146 C 
ATOM     27  C   UNL     1       3.613  40.760  49.649  1.00  0.00     0.146 C 
ENDBRANCH   5  25
TORSDOF 6
ENDMDL
MODEL 6
REMARK VINA RESULT:    -8.664      1.752      4.920
REMARK INTER + INTRA:         -12.512
REMARK INTER:                 -11.748
REMARK INTRA:                  -0.763
REMARK UNBOUND:                -0.808
REMARK SMILES Cc1ccc(Nc2nc(NCc3ccncc3)nc(N(C)C)n2)cc1
REMARK SMILES IDX 7 1 8 2 9 3 18 4 19 5 23 6 6 7 5 9 2 10 3 11 25 12 4 13
REMARK SMILES IDX 24 14 1 15 10 16 11 18 12 19 13 20 17 21 14 22 16 23 15 24
REMARK SMILES IDX 20 25 21 26 22 27
REMARK H PARENT 6 8 10 17
ROOT
ATOM      1  C   UNL     1       5.952  45.273  51.084  1.00  0.00     0.233 A 
ATOM      2  N   UNL     1       4.769  45.842  51.260  1.00  0.00    -0.177 NA
ATOM      3  C   UNL     1       3.725  45.033  51.206  1.00  0.00     0.229 A 
ATOM      4  N   UNL     1       3.801  43.734  50.971  1.00  0.00    -0.177 NA
ATOM      5  C   UNL     1       5.016  43.228  50.795  1.00  0.00     0.231 A 
ATOM      6  N   UNL     1       6.114  43.978  50.839  1.00  0.00    -0.176 NA
ENDROOT
BRANCH   1   7
ATOM      7  N   UNL     1       7.132  46.015  51.108  1.00  0.00    -0.324 N 
ATOM      8  H   UNL     1       7.444  46.169  50.160  1.00  0.00     0.170 HD
BRANCH   7   9
ATOM      9  C   UNL     1       8.010  46.410  52.124  1.00  0.00     0.041 A 
ATOM     10  C   UNL     1       9.677  47.169  54.294  1.00  0.00    -0.051 A 
ATOM     11  C   UNL     1      10.228  46.751  53.080  1.00  0.00     0.005 A 
ATOM     12  C   UNL     1       8.288  47.180  54.429  1.00  0.00     0.005 A 
ATOM     13  C   UNL     1       9.402  46.376  52.013  1.00  0.00     0.026 A 
ATOM     14  C   UNL     1       7.470  46.806  53.357  1.00  0.00     0.026 A 
ATOM     15  C   UNL     1      10.561  47.537  55.447  1.00  0.00     0.044 C 
ENDBRANCH   7   9
ENDBRANCH   1   7
BRANCH   3  16
ATOM     16  N   UNL     1       2.443  45.537  51.392  1.00  0.00    -0.350 N 
ATOM     17  H   UNL     1       2.402  46.420  50.896  1.00  0.00     0.164 HD
BRANCH  16  18
ATOM     18  C   UNL     1       2.019  45.588  52.775  1.00  0.00     0.152 C 
BRANCH  18  19
ATOM     19  C   UNL     1       0.914  44.583  52.990  1.00  0.00    -0.026 A 
ATOM     20  C   UNL     1       1.191  43.284  53.424  1.00  0.00     0.025 A 
ATOM     21  C   UNL     1      -0.421  44.936  52.762  1.00  0.00     0.025 A 
ATOM     22  C   UNL     1       0.134  42.405  53.606  1.00  0.00     0.111 A 
ATOM     23  C   UNL     1      -1.407  43.987  52.975  1.00  0.00     0.111 A 
ATOM     24  N   UNL     1      -1.158  42.727  53.390  1.00  0.00    -0.265 NA
ENDBRANCH  18  19
ENDBRANCH  16  18
ENDBRANCH   3  16
BRANCH   5  25
ATOM     25  N   UNL     1       5.150  41.855  50.574  1.00  0.00    -0.347 N 
ATOM     26  C   UNL     1       6.352  41.462  49.857  1.00  0.00     0.146 C 
ATOM     27  C   UNL     1       3.919  41.166  50.221  1.00  0.00     0.146 C 
ENDBRANCH   5  25
TORSDOF 6
ENDMDL
MODEL 7
REMARK VINA RESULT:    -8.369      2.453      3.608
REMARK INTER + INTRA:         -12.113
REMARK INTER:                 -11.461
REMARK INTRA:                  -0.653
REMARK UNBOUND:                -0.808
REMARK SMILES Cc1ccc(Nc2nc(NCc3ccncc3)nc(N(C)C)n2)cc1
REMARK SMILES IDX 7 1 8 2 9 3 18 4 19 5 23 6 6 7 5 9 2 10 3 11 25 12 4 13
REMARK SMILES IDX 24 14 1 15 10 16 11 18 12 19 13 20 17 21 14 22 16 23 15 24
REMARK SMILES IDX 20 25 21 26 22 27
REMARK H PARENT 6 8 10 17
ROOT
ATOM      1  C   UNL     1       3.791  45.766  54.098  1.00  0.00     0.233 A 
ATOM      2  N   UNL     1       3.921  44.640  53.414  1.00  0.00    -0.177 NA
ATOM      3  C   UNL     1       2.894  43.808  53.469  1.00  0.00     0.229 A 
ATOM      4  N   UNL     1       1.793  44.030  54.167  1.00  0.00    -0.177 NA
ATOM      5  C   UNL     1       1.731  45.175  54.838  1.00  0.00     0.231 A 
ATOM      6  N   UNL     1       2.721  46.063  54.826  1.00  0.00    -0.176 NA
ENDROOT
BRANCH   1   7
ATOM      7  N   UNL     1       4.804  46.724  54.130  1.00  0.00    -0.324 N 
ATOM      8  H   UNL     1       4.429  47.587  54.496  1.00  0.00     0.170 HD
BRANCH   7   9
ATOM      9  C   UNL     1       6.107  46.776  53.623  1.00  0.00     0.041 A 
ATOM     10  C   UNL     1       8.803  46.810  52.732  1.00  0.00    -0.051 A 
ATOM     11  C   UNL     1       7.747  46.782  51.818  1.00  0.00     0.005 A 
ATOM     12  C   UNL     1       8.508  46.793  54.096  1.00  0.00     0.005 A 
ATOM     13  C   UNL     1       6.419  46.765  52.262  1.00  0.00     0.026 A 
ATOM     14  C   UNL     1       7.178  46.777  54.531  1.00  0.00     0.026 A 
ATOM     15  C   UNL     1      10.225  46.794  52.257  1.00  0.00     0.044 C 
ENDBRANCH   7   9
ENDBRANCH   1   7
BRANCH   3  16
ATOM     16  N   UNL     1       2.933  42.606  52.773  1.00  0.00    -0.350 N 
ATOM     17  H   UNL     1       3.734  42.092  53.124  1.00  0.00     0.164 HD
BRANCH  16  18
ATOM     18  C   UNL     1       2.877  42.750  51.334  1.00  0.00     0.152 C 
BRANCH  18  19
ATOM     19  C   UNL     1       4.274  42.651  50.773  1.00  0.00    -0.026 A 
ATOM     20  C   UNL     1       5.051  43.793  50.561  1.00  0.00     0.025 A 
ATOM     21  C   UNL     1       4.826  41.405  50.456  1.00  0.00     0.025 A 
ATOM     22  C   UNL     1       6.329  43.641  50.045  1.00  0.00     0.111 A 
ATOM     23  C   UNL     1       6.113  41.356  49.947  1.00  0.00     0.111 A 
ATOM     24  N   UNL     1       6.877  42.448  49.732  1.00  0.00    -0.265 NA
ENDBRANCH  18  19
ENDBRANCH  16  18
ENDBRANCH   3  16
BRANCH   5  25
ATOM     25  N   UNL     1       0.575  45.469  55.565  1.00  0.00    -0.347 N 
ATOM     26  C   UNL     1       0.780  45.668  56.991  1.00  0.00     0.146 C 
ATOM     27  C   UNL     1      -0.607  44.719  55.170  1.00  0.00     0.146 C 
ENDBRANCH   5  25
TORSDOF 6
ENDMDL
MODEL 8
REMARK VINA RESULT:    -8.297      2.440      3.712
REMARK INTER + INTRA:         -12.016
REMARK INTER:                 -11.481
REMARK INTRA:                  -0.536
REMARK UNBOUND:                -0.808
REMARK SMILES Cc1ccc(Nc2nc(NCc3ccncc3)nc(N(C)C)n2)cc1
REMARK SMILES IDX 7 1 8 2 9 3 18 4 19 5 23 6 6 7 5 9 2 10 3 11 25 12 4 13
REMARK SMILES IDX 24 14 1 15 10 16 11 18 12 19 13 20 17 21 14 22 16 23 15 24
REMARK SMILES IDX 20 25 21 26 22 27
REMARK H PARENT 6 8 10 17
ROOT
ATOM      1  C   UNL     1       3.590  45.707  53.940  1.00  0.00     0.233 A 
ATOM      2  N   UNL     1       3.742  44.578  53.265  1.00  0.00    -0.177 NA
ATOM      3  C   UNL     1       2.741  43.718  53.343  1.00  0.00     0.229 A 
ATOM      4  N   UNL     1       1.645  43.915  54.056  1.00  0.00    -0.177 NA
ATOM      5  C   UNL     1       1.559  45.064  54.716  1.00  0.00     0.231 A 
ATOM      6  N   UNL     1       2.523  45.980  54.682  1.00  0.00    -0.176 NA
ENDROOT
BRANCH   1   7
ATOM      7  N   UNL     1       4.575  46.694  53.948  1.00  0.00    -0.324 N 
ATOM      8  H   UNL     1       4.141  47.591  54.110  1.00  0.00     0.170 HD
BRANCH   7   9
ATOM      9  C   UNL     1       5.936  46.710  53.620  1.00  0.00     0.041 A 
ATOM     10  C   UNL     1       8.656  46.814  52.811  1.00  0.00    -0.051 A 
ATOM     11  C   UNL     1       8.310  46.823  54.165  1.00  0.00     0.005 A 
ATOM     12  C   UNL     1       7.634  46.782  51.860  1.00  0.00     0.005 A 
ATOM     13  C   UNL     1       6.967  46.772  54.559  1.00  0.00     0.026 A 
ATOM     14  C   UNL     1       6.295  46.730  52.263  1.00  0.00     0.026 A 
ATOM     15  C   UNL     1      10.091  46.903  52.389  1.00  0.00     0.044 C 
ENDBRANCH   7   9
ENDBRANCH   1   7
BRANCH   3  16
ATOM     16  N   UNL     1       2.804  42.511  52.658  1.00  0.00    -0.350 N 
ATOM     17  H   UNL     1       3.588  41.996  53.045  1.00  0.00     0.164 HD
BRANCH  16  18
ATOM     18  C   UNL     1       2.810  42.644  51.216  1.00  0.00     0.152 C 
BRANCH  18  19
ATOM     19  C   UNL     1       4.231  42.560  50.718  1.00  0.00    -0.026 A 
ATOM     20  C   UNL     1       4.812  41.332  50.392  1.00  0.00     0.025 A 
ATOM     21  C   UNL     1       5.000  43.719  50.565  1.00  0.00     0.025 A 
ATOM     22  C   UNL     1       6.122  41.316  49.938  1.00  0.00     0.111 A 
ATOM     23  C   UNL     1       6.300  43.601  50.101  1.00  0.00     0.111 A 
ATOM     24  N   UNL     1       6.879  42.423  49.786  1.00  0.00    -0.265 NA
ENDBRANCH  18  19
ENDBRANCH  16  18
ENDBRANCH   3  16
BRANCH   5  25
ATOM     25  N   UNL     1       0.406  45.331  55.458  1.00  0.00    -0.347 N 
ATOM     26  C   UNL     1       0.628  45.558  56.877  1.00  0.00     0.146 C 
ATOM     27  C   UNL     1      -0.758  44.539  55.093  1.00  0.00     0.146 C 
ENDBRANCH   5  25
TORSDOF 6
ENDMDL
MODEL 9
REMARK VINA RESULT:    -8.259      1.350      1.422
REMARK INTER + INTRA:         -11.964
REMARK INTER:                 -11.257
REMARK INTRA:                  -0.707
REMARK UNBOUND:                -0.808
REMARK SMILES Cc1ccc(Nc2nc(NCc3ccncc3)nc(N(C)C)n2)cc1
REMARK SMILES IDX 7 1 8 2 9 3 18 4 19 5 23 6 6 7 5 9 2 10 3 11 25 12 4 13
REMARK SMILES IDX 24 14 1 15 10 16 11 18 12 19 13 20 17 21 14 22 16 23 15 24
REMARK SMILES IDX 20 25 21 26 22 27
REMARK H PARENT 6 8 10 17
ROOT
ATOM      1  C   UNL     1       4.744  44.709  51.713  1.00  0.00     0.233 A 
ATOM      2  N   UNL     1       4.917  43.547  51.101  1.00  0.00    -0.177 NA
ATOM      3  C   UNL     1       4.007  42.621  51.350  1.00  0.00     0.229 A 
ATOM      4  N   UNL     1       2.981  42.787  52.168  1.00  0.00    -0.177 NA
ATOM      5  C   UNL     1       2.871  43.973  52.756  1.00  0.00     0.231 A 
ATOM      6  N   UNL     1       3.744  44.955  52.551  1.00  0.00    -0.176 NA
ENDROOT
BRANCH   1   7
ATOM      7  N   UNL     1       5.638  45.766  51.543  1.00  0.00    -0.324 N 
ATOM      8  H   UNL     1       5.481  46.188  50.640  1.00  0.00     0.170 HD
BRANCH   7   9
ATOM      9  C   UNL     1       6.756  46.215  52.255  1.00  0.00     0.041 A 
ATOM     10  C   UNL     1       8.962  47.057  53.833  1.00  0.00    -0.051 A 
ATOM     11  C   UNL     1       9.102  46.852  52.458  1.00  0.00     0.005 A 
ATOM     12  C   UNL     1       7.720  46.813  54.422  1.00  0.00     0.005 A 
ATOM     13  C   UNL     1       8.011  46.436  51.684  1.00  0.00     0.026 A 
ATOM     14  C   UNL     1       6.636  46.399  53.642  1.00  0.00     0.026 A 
ATOM     15  C   UNL     1      10.138  47.470  54.666  1.00  0.00     0.044 C 
ENDBRANCH   7   9
ENDBRANCH   1   7
BRANCH   3  16
ATOM     16  N   UNL     1       4.097  41.374  50.744  1.00  0.00    -0.350 N 
ATOM     17  H   UNL     1       3.941  40.685  51.471  1.00  0.00     0.164 HD
BRANCH  16  18
ATOM     18  C   UNL     1       5.298  41.179  49.960  1.00  0.00     0.152 C 
BRANCH  18  19
ATOM     19  C   UNL     1       4.930  41.130  48.497  1.00  0.00    -0.026 A 
ATOM     20  C   UNL     1       5.688  41.806  47.537  1.00  0.00     0.025 A 
ATOM     21  C   UNL     1       3.818  40.397  48.069  1.00  0.00     0.025 A 
ATOM     22  C   UNL     1       5.302  41.723  46.207  1.00  0.00     0.111 A 
ATOM     23  C   UNL     1       3.515  40.373  46.718  1.00  0.00     0.111 A 
ATOM     24  N   UNL     1       4.232  41.023  45.776  1.00  0.00    -0.265 NA
ENDBRANCH  18  19
ENDBRANCH  16  18
ENDBRANCH   3  16
BRANCH   5  25
ATOM     25  N   UNL     1       1.786  44.207  53.604  1.00  0.00    -0.347 N 
ATOM     26  C   UNL     1       2.098  44.963  54.806  1.00  0.00     0.146 C 
ATOM     27  C   UNL     1       0.867  43.088  53.751  1.00  0.00     0.146 C 
ENDBRANCH   5  25
TORSDOF 6
ENDMDL
MODEL 10
REMARK VINA RESULT:    -8.196      2.632      7.373
REMARK INTER + INTRA:         -11.880
REMARK INTER:                 -11.213
REMARK INTRA:                  -0.666
REMARK UNBOUND:                -0.808
REMARK SMILES Cc1ccc(Nc2nc(NCc3ccncc3)nc(N(C)C)n2)cc1
REMARK SMILES IDX 7 1 8 2 9 3 18 4 19 5 23 6 6 7 5 9 2 10 3 11 25 12 4 13
REMARK SMILES IDX 24 14 1 15 10 16 11 18 12 19 13 20 17 21 14 22 16 23 15 24
REMARK SMILES IDX 20 25 21 26 22 27
REMARK H PARENT 6 8 10 17
ROOT
ATOM      1  C   UNL     1       3.072  43.457  52.701  1.00  0.00     0.233 A 
ATOM      2  N   UNL     1       3.716  44.614  52.648  1.00  0.00    -0.177 NA
ATOM      3  C   UNL     1       4.731  44.672  51.803  1.00  0.00     0.229 A 
ATOM      4  N   UNL     1       5.133  43.661  51.052  1.00  0.00    -0.177 NA
ATOM      5  C   UNL     1       4.450  42.527  51.159  1.00  0.00     0.231 A 
ATOM      6  N   UNL     1       3.414  42.394  51.984  1.00  0.00    -0.176 NA
ENDROOT
BRANCH   1   7
ATOM      7  N   UNL     1       1.990  43.261  53.557  1.00  0.00    -0.324 N 
ATOM      8  H   UNL     1       1.571  42.364  53.358  1.00  0.00     0.170 HD
BRANCH   7   9
ATOM      9  C   UNL     1       1.302  44.082  54.458  1.00  0.00     0.041 A 
ATOM     10  C   UNL     1      -0.224  45.657  56.262  1.00  0.00    -0.051 A 
ATOM     11  C   UNL     1       1.163  45.557  56.396  1.00  0.00     0.005 A 
ATOM     12  C   UNL     1      -0.851  44.943  55.239  1.00  0.00     0.005 A 
ATOM     13  C   UNL     1       1.912  44.779  55.504  1.00  0.00     0.026 A 
ATOM     14  C   UNL     1      -0.095  44.169  54.351  1.00  0.00     0.026 A 
ATOM     15  C   UNL     1      -1.029  46.463  57.237  1.00  0.00     0.044 C 
ENDBRANCH   7   9
ENDBRANCH   1   7
BRANCH   3  16
ATOM     16  N   UNL     1       5.459  45.848  51.669  1.00  0.00    -0.350 N 
ATOM     17  H   UNL     1       4.842  46.525  51.234  1.00  0.00     0.164 HD
BRANCH  16  18
ATOM     18  C   UNL     1       6.743  45.682  51.021  1.00  0.00     0.152 C 
BRANCH  18  19
ATOM     19  C   UNL     1       7.822  46.246  51.913  1.00  0.00    -0.026 A 
ATOM     20  C   UNL     1       9.172  46.140  51.571  1.00  0.00     0.025 A 
ATOM     21  C   UNL     1       7.488  46.896  53.107  1.00  0.00     0.025 A 
ATOM     22  C   UNL     1      10.120  46.679  52.429  1.00  0.00     0.111 A 
ATOM     23  C   UNL     1       8.507  47.404  53.896  1.00  0.00     0.111 A 
ATOM     24  N   UNL     1       9.817  47.307  53.584  1.00  0.00    -0.265 NA
ENDBRANCH  18  19
ENDBRANCH  16  18
ENDBRANCH   3  16
BRANCH   5  25
ATOM     25  N   UNL     1       4.817  41.440  50.363  1.00  0.00    -0.347 N 
ATOM     26  C   UNL     1       6.093  41.581  49.681  1.00  0.00     0.146 C 
ATOM     27  C   UNL     1       3.731  40.836  49.607  1.00  0.00     0.146 C 
ENDBRANCH   5  25
TORSDOF 6
ENDMDL
MODEL 11
REMARK VINA RESULT:    -8.173      2.375      5.519
REMARK INTER + INTRA:         -11.848
REMARK INTER:                 -11.141
REMARK INTRA:                  -0.707
REMARK UNBOUND:                -0.808
REMARK SMILES Cc1ccc(Nc2nc(NCc3ccncc3)nc(N(C)C)n2)cc1
REMARK SMILES IDX 7 1 8 2 9 3 18 4 19 5 23 6 6 7 5 9 2 10 3 11 25 12 4 13
REMARK SMILES IDX 24 14 1 15 10 16 11 18 12 19 13 20 17 21 14 22 16 23 15 24
REMARK SMILES IDX 20 25 21 26 22 27
REMARK H PARENT 6 8 10 17
ROOT
ATOM      1  C   UNL     1       4.977  44.475  51.696  1.00  0.00     0.233 A 
ATOM      2  N   UNL     1       3.983  44.378  52.566  1.00  0.00    -0.177 NA
ATOM      3  C   UNL     1       3.319  43.234  52.558  1.00  0.00     0.229 A 
ATOM      4  N   UNL     1       3.577  42.229  51.739  1.00  0.00    -0.177 NA
ATOM      5  C   UNL     1       4.581  42.396  50.886  1.00  0.00     0.231 A 
ATOM      6  N   UNL     1       5.298  43.515  50.837  1.00  0.00    -0.176 NA
ENDROOT
BRANCH   1   7
ATOM      7  N   UNL     1       5.750  45.631  51.595  1.00  0.00    -0.324 N 
ATOM      8  H   UNL     1       5.492  46.128  50.755  1.00  0.00     0.170 HD
BRANCH   7   9
ATOM      9  C   UNL     1       6.865  46.117  52.289  1.00  0.00     0.041 A 
ATOM     10  C   UNL     1       9.060  47.045  53.833  1.00  0.00    -0.051 A 
ATOM     11  C   UNL     1       9.220  46.720  52.483  1.00  0.00     0.005 A 
ATOM     12  C   UNL     1       7.803  46.878  54.416  1.00  0.00     0.005 A 
ATOM     13  C   UNL     1       8.135  46.262  51.726  1.00  0.00     0.026 A 
ATOM     14  C   UNL     1       6.724  46.421  53.652  1.00  0.00     0.026 A 
ATOM     15  C   UNL     1      10.229  47.502  54.652  1.00  0.00     0.044 C 
ENDBRANCH   7   9
ENDBRANCH   1   7
BRANCH   3  16
ATOM     16  N   UNL     1       2.267  43.034  53.444  1.00  0.00    -0.350 N 
ATOM     17  H   UNL     1       1.654  42.347  53.018  1.00  0.00     0.164 HD
BRANCH  16  18
ATOM     18  C   UNL     1       1.616  44.251  53.881  1.00  0.00     0.152 C 
BRANCH  18  19
ATOM     19  C   UNL     1       0.122  44.041  53.877  1.00  0.00    -0.026 A 
ATOM     20  C   UNL     1      -0.535  43.542  52.750  1.00  0.00     0.025 A 
ATOM     21  C   UNL     1      -0.639  44.338  55.013  1.00  0.00     0.025 A 
ATOM     22  C   UNL     1      -1.910  43.368  52.805  1.00  0.00     0.111 A 
ATOM     23  C   UNL     1      -2.008  44.127  54.971  1.00  0.00     0.111 A 
ATOM     24  N   UNL     1      -2.661  43.651  53.890  1.00  0.00    -0.265 NA
ENDBRANCH  18  19
ENDBRANCH  16  18
ENDBRANCH   3  16
BRANCH   5  25
ATOM     25  N   UNL     1       4.912  41.350  50.021  1.00  0.00    -0.347 N 
ATOM     26  C   UNL     1       6.140  41.541  49.267  1.00  0.00     0.146 C 
ATOM     27  C   UNL     1       3.788  40.762  49.308  1.00  0.00     0.146 C 
ENDBRANCH   5  25
TORSDOF 6
ENDMDL
MODEL 12
REMARK VINA RESULT:    -8.123      4.019      7.772
REMARK INTER + INTRA:         -11.781
REMARK INTER:                 -11.128
REMARK INTRA:                  -0.652
REMARK UNBOUND:                -0.808
REMARK SMILES Cc1ccc(Nc2nc(NCc3ccncc3)nc(N(C)C)n2)cc1
REMARK SMILES IDX 7 1 8 2 9 3 18 4 19 5 23 6 6 7 5 9 2 10 3 11 25 12 4 13
REMARK SMILES IDX 24 14 1 15 10 16 11 18 12 19 13 20 17 21 14 22 16 23 15 24
REMARK SMILES IDX 20 25 21 26 22 27
REMARK H PARENT 6 8 10 17
ROOT
ATOM      1  C   UNL     1       3.907  45.922  53.889  1.00  0.00     0.233 A 
ATOM      2  N   UNL     1       3.252  45.917  55.040  1.00  0.00    -0.177 NA
ATOM      3  C   UNL     1       2.319  44.989  55.170  1.00  0.00     0.229 A 
ATOM      4  N   UNL     1       2.005  44.112  54.231  1.00  0.00    -0.177 NA
ATOM      5  C   UNL     1       2.694  44.178  53.097  1.00  0.00     0.231 A 
ATOM      6  N   UNL     1       3.650  45.080  52.895  1.00  0.00    -0.176 NA
ENDROOT
BRANCH   1   7
ATOM      7  N   UNL     1       4.908  46.854  53.621  1.00  0.00    -0.324 N 
ATOM      8  H   UNL     1       4.511  47.781  53.649  1.00  0.00     0.170 HD
BRANCH   7   9
ATOM      9  C   UNL     1       6.231  46.756  53.173  1.00  0.00     0.041 A 
ATOM     10  C   UNL     1       8.956  46.505  52.414  1.00  0.00    -0.051 A 
ATOM     11  C   UNL     1       7.935  46.391  51.467  1.00  0.00     0.005 A 
ATOM     12  C   UNL     1       8.608  46.717  53.749  1.00  0.00     0.005 A 
ATOM     13  C   UNL     1       6.593  46.515  51.846  1.00  0.00     0.026 A 
ATOM     14  C   UNL     1       7.265  46.841  54.119  1.00  0.00     0.026 A 
ATOM     15  C   UNL     1      10.391  46.339  52.014  1.00  0.00     0.044 C 
ENDBRANCH   7   9
ENDBRANCH   1   7
BRANCH   3  16
ATOM     16  N   UNL     1       1.587  44.897  56.347  1.00  0.00    -0.350 N 
ATOM     17  H   UNL     1       1.635  43.928  56.646  1.00  0.00     0.164 HD
BRANCH  16  18
ATOM     18  C   UNL     1       0.251  45.448  56.263  1.00  0.00     0.152 C 
BRANCH  18  19
ATOM     19  C   UNL     1       0.042  46.411  57.406  1.00  0.00    -0.026 A 
ATOM     20  C   UNL     1       1.044  46.638  58.353  1.00  0.00     0.025 A 
ATOM     21  C   UNL     1      -1.165  47.106  57.538  1.00  0.00     0.025 A 
ATOM     22  C   UNL     1       0.796  47.536  59.381  1.00  0.00     0.111 A 
ATOM     23  C   UNL     1      -1.317  47.984  58.598  1.00  0.00     0.111 A 
ATOM     24  N   UNL     1      -0.363  48.213  59.525  1.00  0.00    -0.265 NA
ENDBRANCH  18  19
ENDBRANCH  16  18
ENDBRANCH   3  16
BRANCH   5  25
ATOM     25  N   UNL     1       2.420  43.253  52.087  1.00  0.00    -0.347 N 
ATOM     26  C   UNL     1       3.585  42.575  51.542  1.00  0.00     0.146 C 
ATOM     27  C   UNL     1       1.394  43.663  51.140  1.00  0.00     0.146 C 
ENDBRANCH   5  25
TORSDOF 6
ENDMDL
MODEL 13
REMARK VINA RESULT:    -8.039      1.879      5.442
REMARK INTER + INTRA:         -11.667
REMARK INTER:                 -10.791
REMARK INTRA:                  -0.876
REMARK UNBOUND:                -0.808
REMARK SMILES Cc1ccc(Nc2nc(NCc3ccncc3)nc(N(C)C)n2)cc1
REMARK SMILES IDX 7 1 8 2 9 3 18 4 19 5 23 6 6 7 5 9 2 10 3 11 25 12 4 13
REMARK SMILES IDX 24 14 1 15 10 16 11 18 12 19 13 20 17 21 14 22 16 23 15 24
REMARK SMILES IDX 20 25 21 26 22 27
REMARK H PARENT 6 8 10 17
ROOT
ATOM      1  C   UNL     1       5.817  46.548  52.269  1.00  0.00     0.233 A 
ATOM      2  N   UNL     1       5.654  45.688  51.275  1.00  0.00    -0.177 NA
ATOM      3  C   UNL     1       6.760  45.284  50.673  1.00  0.00     0.229 A 
ATOM      4  N   UNL     1       7.974  45.700  50.990  1.00  0.00    -0.177 NA
ATOM      5  C   UNL     1       8.067  46.568  51.991  1.00  0.00     0.231 A 
ATOM      6  N   UNL     1       7.000  47.017  52.647  1.00  0.00    -0.176 NA
ENDROOT
BRANCH   1   7
ATOM      7  N   UNL     1       4.732  47.059  52.980  1.00  0.00    -0.324 N 
ATOM      8  H   UNL     1       4.916  48.024  53.212  1.00  0.00     0.170 HD
BRANCH   7   9
ATOM      9  C   UNL     1       3.592  46.486  53.556  1.00  0.00     0.041 A 
ATOM     10  C   UNL     1       1.231  45.278  54.572  1.00  0.00    -0.051 A 
ATOM     11  C   UNL     1       2.375  45.395  55.366  1.00  0.00     0.005 A 
ATOM     12  C   UNL     1       1.280  45.743  53.257  1.00  0.00     0.005 A 
ATOM     13  C   UNL     1       3.537  45.991  54.860  1.00  0.00     0.026 A 
ATOM     14  C   UNL     1       2.445  46.337  52.759  1.00  0.00     0.026 A 
ATOM     15  C   UNL     1      -0.001  44.610  55.103  1.00  0.00     0.044 C 
ENDBRANCH   7   9
ENDBRANCH   1   7
BRANCH   3  16
ATOM     16  N   UNL     1       6.690  44.373  49.627  1.00  0.00    -0.350 N 
ATOM     17  H   UNL     1       5.800  44.526  49.165  1.00  0.00     0.164 HD
BRANCH  16  18
ATOM     18  C   UNL     1       6.955  43.003  50.013  1.00  0.00     0.152 C 
BRANCH  18  19
ATOM     19  C   UNL     1       5.716  42.175  49.776  1.00  0.00    -0.026 A 
ATOM     20  C   UNL     1       5.546  41.448  48.595  1.00  0.00     0.025 A 
ATOM     21  C   UNL     1       4.707  42.114  50.745  1.00  0.00     0.025 A 
ATOM     22  C   UNL     1       4.386  40.704  48.434  1.00  0.00     0.111 A 
ATOM     23  C   UNL     1       3.587  41.339  50.492  1.00  0.00     0.111 A 
ATOM     24  N   UNL     1       3.403  40.634  49.355  1.00  0.00    -0.265 NA
ENDBRANCH  18  19
ENDBRANCH  16  18
ENDBRANCH   3  16
BRANCH   5  25
ATOM     25  N   UNL     1       9.332  47.013  52.384  1.00  0.00    -0.347 N 
ATOM     26  C   UNL     1      10.442  46.201  51.912  1.00  0.00     0.146 C 
ATOM     27  C   UNL     1       9.413  47.509  53.749  1.00  0.00     0.146 C 
ENDBRANCH   5  25
TORSDOF 6
ENDMDL
MODEL 14
REMARK VINA RESULT:    -7.965      2.186      6.976
REMARK INTER + INTRA:         -11.567
REMARK INTER:                 -10.954
REMARK INTRA:                  -0.613
REMARK UNBOUND:                -0.808
REMARK SMILES Cc1ccc(Nc2nc(NCc3ccncc3)nc(N(C)C)n2)cc1
REMARK SMILES IDX 7 1 8 2 9 3 18 4 19 5 23 6 6 7 5 9 2 10 3 11 25 12 4 13
REMARK SMILES IDX 24 14 1 15 10 16 11 18 12 19 13 20 17 21 14 22 16 23 15 24
REMARK SMILES IDX 20 25 21 26 22 27
REMARK H PARENT 6 8 10 17
ROOT
ATOM      1  C   UNL     1       6.678  45.700  51.476  1.00  0.00     0.233 A 
ATOM      2  N   UNL     1       5.524  46.126  51.966  1.00  0.00    -0.177 NA
ATOM      3  C   UNL     1       5.603  47.034  52.924  1.00  0.00     0.229 A 
ATOM      4  N   UNL     1       6.739  47.504  53.412  1.00  0.00    -0.177 NA
ATOM      5  C   UNL     1       7.860  47.028  52.882  1.00  0.00     0.231 A 
ATOM      6  N   UNL     1       7.860  46.118  51.912  1.00  0.00    -0.176 NA
ENDROOT
BRANCH   1   7
ATOM      7  N   UNL     1       6.734  44.737  50.469  1.00  0.00    -0.324 N 
ATOM      8  H   UNL     1       7.363  45.053  49.746  1.00  0.00     0.170 HD
BRANCH   7   9
ATOM      9  C   UNL     1       6.002  43.576  50.194  1.00  0.00     0.041 A 
ATOM     10  C   UNL     1       4.384  41.297  49.691  1.00  0.00    -0.051 A 
ATOM     11  C   UNL     1       5.545  41.529  48.949  1.00  0.00     0.005 A 
ATOM     12  C   UNL     1       4.018  42.225  50.668  1.00  0.00     0.005 A 
ATOM     13  C   UNL     1       6.340  42.654  49.200  1.00  0.00     0.026 A 
ATOM     14  C   UNL     1       4.818  43.346  50.913  1.00  0.00     0.026 A 
ATOM     15  C   UNL     1       3.515  40.111  49.399  1.00  0.00     0.044 C 
ENDBRANCH   7   9
ENDBRANCH   1   7
BRANCH   3  16
ATOM     16  N   UNL     1       4.445  47.551  53.491  1.00  0.00    -0.350 N 
ATOM     17  H   UNL     1       4.388  47.175  54.431  1.00  0.00     0.164 HD
BRANCH  16  18
ATOM     18  C   UNL     1       3.256  47.373  52.685  1.00  0.00     0.152 C 
BRANCH  18  19
ATOM     19  C   UNL     1       2.534  46.128  53.138  1.00  0.00    -0.026 A 
ATOM     20  C   UNL     1       1.872  45.303  52.224  1.00  0.00     0.025 A 
ATOM     21  C   UNL     1       2.518  45.769  54.490  1.00  0.00     0.025 A 
ATOM     22  C   UNL     1       1.227  44.171  52.699  1.00  0.00     0.111 A 
ATOM     23  C   UNL     1       1.848  44.616  54.865  1.00  0.00     0.111 A 
ATOM     24  N   UNL     1       1.199  43.809  53.999  1.00  0.00    -0.265 NA
ENDBRANCH  18  19
ENDBRANCH  16  18
ENDBRANCH   3  16
BRANCH   5  25
ATOM     25  N   UNL     1       9.085  47.517  53.343  1.00  0.00    -0.347 N 
ATOM     26  C   UNL     1      10.253  46.798  52.863  1.00  0.00     0.146 C 
ATOM     27  C   UNL     1       9.095  47.933  54.737  1.00  0.00     0.146 C 
ENDBRANCH   5  25
TORSDOF 6
ENDMDL
MODEL 15
REMARK VINA RESULT:    -7.918      2.303      7.617
REMARK INTER + INTRA:         -11.503
REMARK INTER:                 -10.784
REMARK INTRA:                  -0.719
REMARK UNBOUND:                -0.808
REMARK SMILES Cc1ccc(Nc2nc(NCc3ccncc3)nc(N(C)C)n2)cc1
REMARK SMILES IDX 7 1 8 2 9 3 18 4 19 5 23 6 6 7 5 9 2 10 3 11 25 12 4 13
REMARK SMILES IDX 24 14 1 15 10 16 11 18 12 19 13 20 17 21 14 22 16 23 15 24
REMARK SMILES IDX 20 25 21 26 22 27
REMARK H PARENT 6 8 10 17
ROOT
ATOM      1  C   UNL     1       3.879  43.759  52.595  1.00  0.00     0.233 A 
ATOM      2  N   UNL     1       4.539  44.864  52.283  1.00  0.00    -0.177 NA
ATOM      3  C   UNL     1       5.306  44.794  51.208  1.00  0.00     0.229 A 
ATOM      4  N   UNL     1       5.456  43.708  50.469  1.00  0.00    -0.177 NA
ATOM      5  C   UNL     1       4.771  42.632  50.843  1.00  0.00     0.231 A 
ATOM      6  N   UNL     1       3.976  42.627  51.909  1.00  0.00    -0.176 NA
ENDROOT
BRANCH   1   7
ATOM      7  N   UNL     1       3.043  43.696  53.710  1.00  0.00    -0.324 N 
ATOM      8  H   UNL     1       3.591  43.440  54.518  1.00  0.00     0.170 HD
BRANCH   7   9
ATOM      9  C   UNL     1       1.655  43.739  53.887  1.00  0.00     0.041 A 
ATOM     10  C   UNL     1      -1.148  43.988  54.268  1.00  0.00    -0.051 A 
ATOM     11  C   UNL     1      -0.620  42.955  53.489  1.00  0.00     0.005 A 
ATOM     12  C   UNL     1      -0.270  44.914  54.834  1.00  0.00     0.005 A 
ATOM     13  C   UNL     1       0.763  42.837  53.303  1.00  0.00     0.026 A 
ATOM     14  C   UNL     1       1.110  44.788  54.644  1.00  0.00     0.026 A 
ATOM     15  C   UNL     1      -2.630  44.133  54.439  1.00  0.00     0.044 C 
ENDBRANCH   7   9
ENDBRANCH   1   7
BRANCH   3  16
ATOM     16  N   UNL     1       6.028  45.907  50.795  1.00  0.00    -0.350 N 
ATOM     17  H   UNL     1       5.509  46.323  50.029  1.00  0.00     0.164 HD
BRANCH  16  18
ATOM     18  C   UNL     1       7.424  45.642  50.519  1.00  0.00     0.152 C 
BRANCH  18  19
ATOM     19  C   UNL     1       8.271  46.313  51.572  1.00  0.00    -0.026 A 
ATOM     20  C   UNL     1       7.739  47.298  52.409  1.00  0.00     0.025 A 
ATOM     21  C   UNL     1       9.614  45.956  51.737  1.00  0.00     0.025 A 
ATOM     22  C   UNL     1       8.565  47.878  53.360  1.00  0.00     0.111 A 
ATOM     23  C   UNL     1      10.357  46.592  52.718  1.00  0.00     0.111 A 
ATOM     24  N   UNL     1       9.862  47.549  53.532  1.00  0.00    -0.265 NA
ENDBRANCH  18  19
ENDBRANCH  16  18
ENDBRANCH   3  16
BRANCH   5  25
ATOM     25  N   UNL     1       4.873  41.469  50.076  1.00  0.00    -0.347 N 
ATOM     26  C   UNL     1       5.878  41.510  49.027  1.00  0.00     0.146 C 
ATOM     27  C   UNL     1       3.604  40.837  49.747  1.00  0.00     0.146 C 
ENDBRANCH   5  25
TORSDOF 6
ENDMDL
MODEL 16
REMARK VINA RESULT:    -7.890      1.603      8.064
REMARK INTER + INTRA:         -11.465
REMARK INTER:                 -10.773
REMARK INTRA:                  -0.692
REMARK UNBOUND:                -0.808
REMARK SMILES Cc1ccc(Nc2nc(NCc3ccncc3)nc(N(C)C)n2)cc1
REMARK SMILES IDX 7 1 8 2 9 3 18 4 19 5 23 6 6 7 5 9 2 10 3 11 25 12 4 13
REMARK SMILES IDX 24 14 1 15 10 16 11 18 12 19 13 20 17 21 14 22 16 23 15 24
REMARK SMILES IDX 20 25 21 26 22 27
REMARK H PARENT 6 8 10 17
ROOT
ATOM      1  C   UNL     1       6.004  42.556  49.585  1.00  0.00     0.233 A 
ATOM      2  N   UNL     1       7.003  43.423  49.513  1.00  0.00    -0.177 NA
ATOM      3  C   UNL     1       6.967  44.419  50.381  1.00  0.00     0.229 A 
ATOM      4  N   UNL     1       6.005  44.598  51.271  1.00  0.00    -0.177 NA
ATOM      5  C   UNL     1       5.028  43.698  51.284  1.00  0.00     0.231 A 
ATOM      6  N   UNL     1       4.998  42.666  50.446  1.00  0.00    -0.176 NA
ENDROOT
BRANCH   1   7
ATOM      7  N   UNL     1       5.917  41.465  48.722  1.00  0.00    -0.324 N 
ATOM      8  H   UNL     1       6.705  40.855  48.883  1.00  0.00     0.170 HD
BRANCH   7   9
ATOM      9  C   UNL     1       5.105  41.157  47.624  1.00  0.00     0.041 A 
ATOM     10  C   UNL     1       3.588  40.553  45.301  1.00  0.00    -0.051 A 
ATOM     11  C   UNL     1       3.226  40.036  46.547  1.00  0.00     0.005 A 
ATOM     12  C   UNL     1       4.729  41.353  45.215  1.00  0.00     0.005 A 
ATOM     13  C   UNL     1       3.978  40.336  47.690  1.00  0.00     0.026 A 
ATOM     14  C   UNL     1       5.474  41.649  46.362  1.00  0.00     0.026 A 
ATOM     15  C   UNL     1       2.803  40.205  44.072  1.00  0.00     0.044 C 
ENDBRANCH   7   9
ENDBRANCH   1   7
BRANCH   3  16
ATOM     16  N   UNL     1       7.979  45.372  50.391  1.00  0.00    -0.350 N 
ATOM     17  H   UNL     1       8.774  44.948  50.856  1.00  0.00     0.164 HD
BRANCH  16  18
ATOM     18  C   UNL     1       7.578  46.662  50.911  1.00  0.00     0.152 C 
BRANCH  18  19
ATOM     19  C   UNL     1       8.241  46.883  52.248  1.00  0.00    -0.026 A 
ATOM     20  C   UNL     1       9.632  46.855  52.379  1.00  0.00     0.025 A 
ATOM     21  C   UNL     1       7.471  47.127  53.391  1.00  0.00     0.025 A 
ATOM     22  C   UNL     1      10.185  47.066  53.633  1.00  0.00     0.111 A 
ATOM     23  C   UNL     1       8.118  47.329  54.599  1.00  0.00     0.111 A 
ATOM     24  N   UNL     1       9.459  47.301  54.746  1.00  0.00    -0.265 NA
ENDBRANCH  18  19
ENDBRANCH  16  18
ENDBRANCH   3  16
BRANCH   5  25
ATOM     25  N   UNL     1       4.005  43.827  52.226  1.00  0.00    -0.347 N 
ATOM     26  C   UNL     1       4.382  44.511  53.453  1.00  0.00     0.146 C 
ATOM     27  C   UNL     1       3.142  42.663  52.361  1.00  0.00     0.146 C 
ENDBRANCH   5  25
TORSDOF 6
ENDMDL
MODEL 17
REMARK VINA RESULT:    -7.845      3.084      6.670
REMARK INTER + INTRA:         -11.405
REMARK INTER:                 -10.536
REMARK INTRA:                  -0.869
REMARK UNBOUND:                -0.808
REMARK SMILES Cc1ccc(Nc2nc(NCc3ccncc3)nc(N(C)C)n2)cc1
REMARK SMILES IDX 7 1 8 2 9 3 18 4 19 5 23 6 6 7 5 9 2 10 3 11 25 12 4 13
REMARK SMILES IDX 24 14 1 15 10 16 11 18 12 19 13 20 17 21 14 22 16 23 15 24
REMARK SMILES IDX 20 25 21 26 22 27
REMARK H PARENT 6 8 10 17
ROOT
ATOM      1  C   UNL     1       2.102  42.920  52.366  1.00  0.00     0.233 A 
ATOM      2  N   UNL     1       2.579  43.371  53.516  1.00  0.00    -0.177 NA
ATOM      3  C   UNL     1       1.713  44.000  54.293  1.00  0.00     0.229 A 
ATOM      4  N   UNL     1       0.446  44.210  53.978  1.00  0.00    -0.177 NA
ATOM      5  C   UNL     1       0.035  43.739  52.806  1.00  0.00     0.231 A 
ATOM      6  N   UNL     1       0.846  43.092  51.974  1.00  0.00    -0.176 NA
ENDROOT
BRANCH   1   7
ATOM      7  N   UNL     1       2.912  42.247  51.451  1.00  0.00    -0.324 N 
ATOM      8  H   UNL     1       2.556  41.312  51.322  1.00  0.00     0.170 HD
BRANCH   7   9
ATOM      9  C   UNL     1       4.145  42.533  50.853  1.00  0.00     0.041 A 
ATOM     10  C   UNL     1       6.668  43.229  49.751  1.00  0.00    -0.051 A 
ATOM     11  C   UNL     1       6.156  41.937  49.607  1.00  0.00     0.005 A 
ATOM     12  C   UNL     1       5.926  44.167  50.472  1.00  0.00     0.005 A 
ATOM     13  C   UNL     1       4.911  41.598  50.153  1.00  0.00     0.026 A 
ATOM     14  C   UNL     1       4.683  43.820  51.013  1.00  0.00     0.026 A 
ATOM     15  C   UNL     1       8.015  43.582  49.196  1.00  0.00     0.044 C 
ENDBRANCH   7   9
ENDBRANCH   1   7
BRANCH   3  16
ATOM     16  N   UNL     1       2.117  44.498  55.526  1.00  0.00    -0.350 N 
ATOM     17  H   UNL     1       1.394  44.250  56.192  1.00  0.00     0.164 HD
BRANCH  16  18
ATOM     18  C   UNL     1       2.485  45.898  55.510  1.00  0.00     0.152 C 
BRANCH  18  19
ATOM     19  C   UNL     1       3.845  46.044  54.873  1.00  0.00    -0.026 A 
ATOM     20  C   UNL     1       4.939  45.299  55.323  1.00  0.00     0.025 A 
ATOM     21  C   UNL     1       4.039  46.930  53.807  1.00  0.00     0.025 A 
ATOM     22  C   UNL     1       6.164  45.474  54.697  1.00  0.00     0.111 A 
ATOM     23  C   UNL     1       5.301  47.032  53.246  1.00  0.00     0.111 A 
ATOM     24  N   UNL     1       6.370  46.324  53.670  1.00  0.00    -0.265 NA
ENDBRANCH  18  19
ENDBRANCH  16  18
ENDBRANCH   3  16
BRANCH   5  25
ATOM     25  N   UNL     1      -1.303  43.910  52.443  1.00  0.00    -0.347 N 
ATOM     26  C   UNL     1      -1.867  42.829  51.650  1.00  0.00     0.146 C 
ATOM     27  C   UNL     1      -1.669  45.265  52.062  1.00  0.00     0.146 C 
ENDBRANCH   5  25
TORSDOF 6
ENDMDL
MODEL 18
REMARK VINA RESULT:    -7.818      1.448      5.041
REMARK INTER + INTRA:         -11.369
REMARK INTER:                 -11.046
REMARK INTRA:                  -0.322
REMARK UNBOUND:                -0.808
REMARK SMILES Cc1ccc(Nc2nc(NCc3ccncc3)nc(N(C)C)n2)cc1
REMARK SMILES IDX 7 1 8 2 9 3 18 4 19 5 23 6 6 7 5 9 2 10 3 11 25 12 4 13
REMARK SMILES IDX 24 14 1 15 10 16 11 18 12 19 13 20 17 21 14 22 16 23 15 24
REMARK SMILES IDX 20 25 21 26 22 27
REMARK H PARENT 6 8 10 17
ROOT
ATOM      1  C   UNL     1       6.082  43.869  50.527  1.00  0.00     0.233 A 
ATOM      2  N   UNL     1       5.251  43.748  51.551  1.00  0.00    -0.177 NA
ATOM      3  C   UNL     1       4.391  42.746  51.481  1.00  0.00     0.229 A 
ATOM      4  N   UNL     1       4.310  41.904  50.465  1.00  0.00    -0.177 NA
ATOM      5  C   UNL     1       5.167  42.087  49.467  1.00  0.00     0.231 A 
ATOM      6  N   UNL     1       6.064  43.069  49.468  1.00  0.00    -0.176 NA
ENDROOT
BRANCH   1   7
ATOM      7  N   UNL     1       7.032  44.889  50.472  1.00  0.00    -0.324 N 
ATOM      8  H   UNL     1       7.370  44.972  49.524  1.00  0.00     0.170 HD
BRANCH   7   9
ATOM      9  C   UNL     1       7.697  45.650  51.441  1.00  0.00     0.041 A 
ATOM     10  C   UNL     1       8.939  47.137  53.517  1.00  0.00    -0.051 A 
ATOM     11  C   UNL     1       9.667  46.723  52.398  1.00  0.00     0.005 A 
ATOM     12  C   UNL     1       7.592  46.780  53.608  1.00  0.00     0.005 A 
ATOM     13  C   UNL     1       9.050  45.989  51.377  1.00  0.00     0.026 A 
ATOM     14  C   UNL     1       6.984  46.048  52.582  1.00  0.00     0.026 A 
ATOM     15  C   UNL     1       9.607  47.893  54.625  1.00  0.00     0.044 C 
ENDBRANCH   7   9
ENDBRANCH   1   7
BRANCH   3  16
ATOM     16  N   UNL     1       3.488  42.531  52.514  1.00  0.00    -0.350 N 
ATOM     17  H   UNL     1       3.283  41.537  52.521  1.00  0.00     0.164 HD
BRANCH  16  18
ATOM     18  C   UNL     1       2.328  43.397  52.481  1.00  0.00     0.152 C 
BRANCH  18  19
ATOM     19  C   UNL     1       2.748  44.798  52.851  1.00  0.00    -0.026 A 
ATOM     20  C   UNL     1       3.336  45.074  54.088  1.00  0.00     0.025 A 
ATOM     21  C   UNL     1       2.561  45.856  51.954  1.00  0.00     0.025 A 
ATOM     22  C   UNL     1       3.703  46.381  54.372  1.00  0.00     0.111 A 
ATOM     23  C   UNL     1       2.963  47.127  52.329  1.00  0.00     0.111 A 
ATOM     24  N   UNL     1       3.529  47.414  53.521  1.00  0.00    -0.265 NA
ENDBRANCH  18  19
ENDBRANCH  16  18
ENDBRANCH   3  16
BRANCH   5  25
ATOM     25  N   UNL     1       5.141  41.203  48.385  1.00  0.00    -0.347 N 
ATOM     26  C   UNL     1       5.738  41.713  47.161  1.00  0.00     0.146 C 
ATOM     27  C   UNL     1       3.913  40.435  48.247  1.00  0.00     0.146 C 
ENDBRANCH   5  25
TORSDOF 6
ENDMDL
