MODEL 1
REMARK VINA RESULT:    -8.256      0.000      0.000
REMARK INTER + INTRA:         -12.368
REMARK INTER:                 -11.635
REMARK INTRA:                  -0.733
REMARK UNBOUND:                -0.733
REMARK SMILES COCCNc1nc(Nc2ccccc2OC)c2cnn(C)c2n1
REMARK SMILES IDX 6 1 7 2 8 3 18 4 19 5 20 6 21 7 22 8 23 9 24 10 5 11 4 13
REMARK SMILES IDX 3 14 2 15 1 16 9 17 10 19 11 20 15 21 12 22 14 23 13 24
REMARK SMILES IDX 16 25 17 26
REMARK H PARENT 5 12 9 18
ROOT
ATOM      1  C   UNL     1       4.444  43.859  52.187  1.00  0.00     0.226 A 
ATOM      2  N   UNL     1       5.082  45.038  52.308  1.00  0.00    -0.195 NA
ATOM      3  C   UNL     1       6.087  45.358  51.454  1.00  0.00     0.147 A 
ATOM      4  C   UNL     1       6.444  44.419  50.484  1.00  0.00     0.082 A 
ATOM      5  C   UNL     1       7.384  44.273  49.443  1.00  0.00     0.149 A 
ATOM      6  N   UNL     1       7.265  43.108  48.792  1.00  0.00    -0.179 NA
ATOM      7  N   UNL     1       6.242  42.500  49.438  1.00  0.00    -0.250 N 
ATOM      8  C   UNL     1       5.818  41.190  49.017  1.00  0.00     0.176 C 
ATOM      9  C   UNL     1       5.719  43.246  50.459  1.00  0.00     0.165 A 
ATOM     10  N   UNL     1       4.708  42.913  51.276  1.00  0.00    -0.193 NA
ENDROOT
BRANCH   1  11
ATOM     11  N   UNL     1       3.430  43.659  53.119  1.00  0.00    -0.352 N 
ATOM     12  H   UNL     1       3.777  44.084  53.973  1.00  0.00     0.163 HD
BRANCH  11  13
ATOM     13  C   UNL     1       2.110  44.120  52.711  1.00  0.00     0.144 C 
BRANCH  13  14
ATOM     14  C   UNL     1       1.714  45.427  53.405  1.00  0.00     0.181 C 
BRANCH  14  15
ATOM     15  O   UNL     1       1.654  46.475  52.431  1.00  0.00    -0.383 OA
ATOM     16  C   UNL     1       2.828  47.276  52.459  1.00  0.00     0.194 C 
ENDBRANCH  14  15
ENDBRANCH  13  14
ENDBRANCH  11  13
ENDBRANCH   1  11
BRANCH   3  17
ATOM     17  N   UNL     1       6.716  46.604  51.644  1.00  0.00    -0.336 N 
ATOM     18  H   UNL     1       6.901  46.954  50.706  1.00  0.00     0.168 HD
BRANCH  17  19
ATOM     19  C   UNL     1       7.836  46.853  52.478  1.00  0.00     0.082 A 
ATOM     20  C   UNL     1       9.098  46.505  51.973  1.00  0.00     0.030 A 
ATOM     21  C   UNL     1       7.733  47.303  53.812  1.00  0.00     0.142 A 
ATOM     22  C   UNL     1      10.248  46.664  52.746  1.00  0.00     0.002 A 
ATOM     23  C   UNL     1       8.892  47.455  54.582  1.00  0.00     0.048 A 
ATOM     24  C   UNL     1      10.144  47.145  54.046  1.00  0.00     0.004 A 
BRANCH  21  25
ATOM     25  O   UNL     1       6.466  47.525  54.292  1.00  0.00    -0.495 OA
ATOM     26  C   UNL     1       5.883  46.493  55.077  1.00  0.00     0.278 C 
ENDBRANCH  21  25
ENDBRANCH  17  19
ENDBRANCH   3  17
TORSDOF 7
ENDMDL
MODEL 2
REMARK VINA RESULT:    -8.191      0.847      1.119
REMARK INTER + INTRA:         -12.276
REMARK INTER:                 -11.435
REMARK INTRA:                  -0.841
REMARK UNBOUND:                -0.733
REMARK SMILES COCCNc1nc(Nc2ccccc2OC)c2cnn(C)c2n1
REMARK SMILES IDX 6 1 7 2 8 3 18 4 19 5 20 6 21 7 22 8 23 9 24 10 5 11 4 13
REMARK SMILES IDX 3 14 2 15 1 16 9 17 10 19 11 20 15 21 12 22 14 23 13 24
REMARK SMILES IDX 16 25 17 26
REMARK H PARENT 5 12 9 18
ROOT
ATOM      1  C   UNL     1       4.363  43.951  52.133  1.00  0.00     0.226 A 
ATOM      2  N   UNL     1       5.018  45.119  52.260  1.00  0.00    -0.195 NA
ATOM      3  C   UNL     1       6.067  45.404  51.446  1.00  0.00     0.147 A 
ATOM      4  C   UNL     1       6.448  44.439  50.512  1.00  0.00     0.082 A 
ATOM      5  C   UNL     1       7.430  44.255  49.517  1.00  0.00     0.149 A 
ATOM      6  N   UNL     1       7.316  43.080  48.883  1.00  0.00    -0.179 NA
ATOM      7  N   UNL     1       6.254  42.504  49.493  1.00  0.00    -0.250 N 
ATOM      8  C   UNL     1       5.823  41.194  49.079  1.00  0.00     0.176 C 
ATOM      9  C   UNL     1       5.701  43.279  50.476  1.00  0.00     0.165 A 
ATOM     10  N   UNL     1       4.649  42.982  51.253  1.00  0.00    -0.193 NA
ENDROOT
BRANCH   1  11
ATOM     11  N   UNL     1       3.305  43.788  53.022  1.00  0.00    -0.352 N 
ATOM     12  H   UNL     1       3.710  43.952  53.939  1.00  0.00     0.163 HD
BRANCH  11  13
ATOM     13  C   UNL     1       2.123  44.589  52.735  1.00  0.00     0.144 C 
BRANCH  13  14
ATOM     14  C   UNL     1       1.845  45.624  53.831  1.00  0.00     0.181 C 
BRANCH  14  15
ATOM     15  O   UNL     1       2.327  45.121  55.081  1.00  0.00    -0.383 OA
ATOM     16  C   UNL     1       1.291  45.072  56.054  1.00  0.00     0.194 C 
ENDBRANCH  14  15
ENDBRANCH  13  14
ENDBRANCH  11  13
ENDBRANCH   1  11
BRANCH   3  17
ATOM     17  N   UNL     1       6.711  46.641  51.641  1.00  0.00    -0.336 N 
ATOM     18  H   UNL     1       6.906  46.988  50.704  1.00  0.00     0.168 HD
BRANCH  17  19
ATOM     19  C   UNL     1       7.829  46.874  52.483  1.00  0.00     0.082 A 
ATOM     20  C   UNL     1       9.094  46.553  51.966  1.00  0.00     0.030 A 
ATOM     21  C   UNL     1       7.723  47.282  53.830  1.00  0.00     0.142 A 
ATOM     22  C   UNL     1      10.243  46.699  52.744  1.00  0.00     0.002 A 
ATOM     23  C   UNL     1       8.881  47.420  54.603  1.00  0.00     0.048 A 
ATOM     24  C   UNL     1      10.135  47.139  54.058  1.00  0.00     0.004 A 
BRANCH  21  25
ATOM     25  O   UNL     1       6.455  47.478  54.317  1.00  0.00    -0.495 OA
ATOM     26  C   UNL     1       5.887  46.424  55.082  1.00  0.00     0.278 C 
ENDBRANCH  21  25
ENDBRANCH  17  19
ENDBRANCH   3  17
TORSDOF 7
ENDMDL
MODEL 3
REMARK VINA RESULT:    -8.152      1.934      5.066
REMARK INTER + INTRA:         -12.220
REMARK INTER:                 -11.248
REMARK INTRA:                  -0.972
REMARK UNBOUND:                -0.733
REMARK SMILES COCCNc1nc(Nc2ccccc2OC)c2cnn(C)c2n1
REMARK SMILES IDX 6 1 7 2 8 3 18 4 19 5 20 6 21 7 22 8 23 9 24 10 5 11 4 13
REMARK SMILES IDX 3 14 2 15 1 16 9 17 10 19 11 20 15 21 12 22 14 23 13 24
REMARK SMILES IDX 16 25 17 26
REMARK H PARENT 5 12 9 18
ROOT
ATOM      1  C   UNL     1       5.462  46.790  54.188  1.00  0.00     0.226 A 
ATOM      2  N   UNL     1       5.213  46.250  52.980  1.00  0.00    -0.195 NA
ATOM      3  C   UNL     1       6.228  46.061  52.097  1.00  0.00     0.147 A 
ATOM      4  C   UNL     1       7.508  46.469  52.477  1.00  0.00     0.082 A 
ATOM      5  C   UNL     1       8.811  46.511  51.940  1.00  0.00     0.149 A 
ATOM      6  N   UNL     1       9.710  47.024  52.791  1.00  0.00    -0.179 NA
ATOM      7  N   UNL     1       8.964  47.322  53.881  1.00  0.00    -0.250 N 
ATOM      8  C   UNL     1       9.596  47.915  55.031  1.00  0.00     0.176 C 
ATOM      9  C   UNL     1       7.639  47.009  53.740  1.00  0.00     0.165 A 
ATOM     10  N   UNL     1       6.659  47.189  54.639  1.00  0.00    -0.193 NA
ENDROOT
BRANCH   1  11
ATOM     11  N   UNL     1       4.339  46.922  54.998  1.00  0.00    -0.352 N 
ATOM     12  H   UNL     1       3.757  47.606  54.524  1.00  0.00     0.163 HD
BRANCH  11  13
ATOM     13  C   UNL     1       3.657  45.677  55.324  1.00  0.00     0.144 C 
BRANCH  13  14
ATOM     14  C   UNL     1       2.193  45.684  54.872  1.00  0.00     0.181 C 
BRANCH  14  15
ATOM     15  O   UNL     1       2.080  46.445  53.665  1.00  0.00    -0.383 OA
ATOM     16  C   UNL     1       1.259  45.784  52.710  1.00  0.00     0.194 C 
ENDBRANCH  14  15
ENDBRANCH  13  14
ENDBRANCH  11  13
ENDBRANCH   1  11
BRANCH   3  17
ATOM     17  N   UNL     1       5.893  45.500  50.850  1.00  0.00    -0.336 N 
ATOM     18  H   UNL     1       4.954  45.841  50.650  1.00  0.00     0.168 HD
BRANCH  17  19
ATOM     19  C   UNL     1       5.991  44.128  50.500  1.00  0.00     0.082 A 
ATOM     20  C   UNL     1       7.091  43.747  49.716  1.00  0.00     0.030 A 
ATOM     21  C   UNL     1       4.991  43.175  50.787  1.00  0.00     0.142 A 
ATOM     22  C   UNL     1       7.237  42.430  49.281  1.00  0.00     0.002 A 
ATOM     23  C   UNL     1       5.144  41.857  50.341  1.00  0.00     0.048 A 
ATOM     24  C   UNL     1       6.268  41.486  49.600  1.00  0.00     0.004 A 
BRANCH  21  25
ATOM     25  O   UNL     1       3.884  43.625  51.463  1.00  0.00    -0.495 OA
ATOM     26  C   UNL     1       3.226  42.698  52.316  1.00  0.00     0.278 C 
ENDBRANCH  21  25
ENDBRANCH  17  19
ENDBRANCH   3  17
TORSDOF 7
ENDMDL
MODEL 4
REMARK VINA RESULT:    -7.950      2.183      5.288
REMARK INTER + INTRA:         -11.936
REMARK INTER:                 -10.982
REMARK INTRA:                  -0.954
REMARK UNBOUND:                -0.733
REMARK SMILES COCCNc1nc(Nc2ccccc2OC)c2cnn(C)c2n1
REMARK SMILES IDX 6 1 7 2 8 3 18 4 19 5 20 6 21 7 22 8 23 9 24 10 5 11 4 13
REMARK SMILES IDX 3 14 2 15 1 16 9 17 10 19 11 20 15 21 12 22 14 23 13 24
REMARK SMILES IDX 16 25 17 26
REMARK H PARENT 5 12 9 18
ROOT
ATOM      1  C   UNL     1       5.626  46.744  54.328  1.00  0.00     0.226 A 
ATOM      2  N   UNL     1       5.374  46.295  53.084  1.00  0.00    -0.195 NA
ATOM      3  C   UNL     1       6.384  46.188  52.182  1.00  0.00     0.147 A 
ATOM      4  C   UNL     1       7.661  46.584  52.582  1.00  0.00     0.082 A 
ATOM      5  C   UNL     1       8.959  46.686  52.040  1.00  0.00     0.149 A 
ATOM      6  N   UNL     1       9.858  47.144  52.922  1.00  0.00    -0.179 NA
ATOM      7  N   UNL     1       9.117  47.347  54.036  1.00  0.00    -0.250 N 
ATOM      8  C   UNL     1       9.751  47.860  55.224  1.00  0.00     0.176 C 
ATOM      9  C   UNL     1       7.796  47.028  53.882  1.00  0.00     0.165 A 
ATOM     10  N   UNL     1       6.821  47.124  54.799  1.00  0.00    -0.193 NA
ENDROOT
BRANCH   1  11
ATOM     11  N   UNL     1       4.508  46.797  55.153  1.00  0.00    -0.352 N 
ATOM     12  H   UNL     1       3.926  47.528  54.755  1.00  0.00     0.163 HD
BRANCH  11  13
ATOM     13  C   UNL     1       3.823  45.528  55.357  1.00  0.00     0.144 C 
BRANCH  13  14
ATOM     14  C   UNL     1       2.330  45.617  55.022  1.00  0.00     0.181 C 
BRANCH  14  15
ATOM     15  O   UNL     1       2.102  45.019  53.741  1.00  0.00    -0.383 OA
ATOM     16  C   UNL     1       1.807  46.002  52.756  1.00  0.00     0.194 C 
ENDBRANCH  14  15
ENDBRANCH  13  14
ENDBRANCH  11  13
ENDBRANCH   1  11
BRANCH   3  17
ATOM     17  N   UNL     1       6.046  45.720  50.897  1.00  0.00    -0.336 N 
ATOM     18  H   UNL     1       5.190  46.214  50.652  1.00  0.00     0.168 HD
BRANCH  17  19
ATOM     19  C   UNL     1       5.944  44.359  50.507  1.00  0.00     0.082 A 
ATOM     20  C   UNL     1       4.894  43.613  51.064  1.00  0.00     0.030 A 
ATOM     21  C   UNL     1       6.902  43.702  49.705  1.00  0.00     0.142 A 
ATOM     22  C   UNL     1       4.751  42.255  50.778  1.00  0.00     0.002 A 
ATOM     23  C   UNL     1       6.753  42.338  49.428  1.00  0.00     0.048 A 
ATOM     24  C   UNL     1       5.676  41.622  49.956  1.00  0.00     0.004 A 
BRANCH  21  25
ATOM     25  O   UNL     1       7.968  44.453  49.276  1.00  0.00    -0.495 OA
ATOM     26  C   UNL     1       9.263  44.026  49.678  1.00  0.00     0.278 C 
ENDBRANCH  21  25
ENDBRANCH  17  19
ENDBRANCH   3  17
TORSDOF 7
ENDMDL
MODEL 5
REMARK VINA RESULT:    -7.918      2.195      4.239
REMARK INTER + INTRA:         -11.891
REMARK INTER:                 -11.168
REMARK INTRA:                  -0.723
REMARK UNBOUND:                -0.733
REMARK SMILES COCCNc1nc(Nc2ccccc2OC)c2cnn(C)c2n1
REMARK SMILES IDX 6 1 7 2 8 3 18 4 19 5 20 6 21 7 22 8 23 9 24 10 5 11 4 13
REMARK SMILES IDX 3 14 2 15 1 16 9 17 10 19 11 20 15 21 12 22 14 23 13 24
REMARK SMILES IDX 16 25 17 26
REMARK H PARENT 5 12 9 18
ROOT
ATOM      1  C   UNL     1       5.795  42.921  50.367  1.00  0.00     0.226 A 
ATOM      2  N   UNL     1       6.442  44.100  50.413  1.00  0.00    -0.195 NA
ATOM      3  C   UNL     1       5.902  45.146  51.091  1.00  0.00     0.147 A 
ATOM      4  C   UNL     1       4.659  44.957  51.700  1.00  0.00     0.082 A 
ATOM      5  C   UNL     1       3.723  45.696  52.452  1.00  0.00     0.149 A 
ATOM      6  N   UNL     1       2.650  44.974  52.802  1.00  0.00    -0.179 NA
ATOM      7  N   UNL     1       2.903  43.763  52.254  1.00  0.00    -0.250 N 
ATOM      8  C   UNL     1       1.945  42.699  52.413  1.00  0.00     0.176 C 
ATOM      9  C   UNL     1       4.094  43.704  51.582  1.00  0.00     0.165 A 
ATOM     10  N   UNL     1       4.614  42.649  50.937  1.00  0.00    -0.193 NA
ENDROOT
BRANCH   1  11
ATOM     11  N   UNL     1       6.460  41.933  49.647  1.00  0.00    -0.352 N 
ATOM     12  H   UNL     1       6.810  41.291  50.352  1.00  0.00     0.163 HD
BRANCH  11  13
ATOM     13  C   UNL     1       5.680  41.300  48.592  1.00  0.00     0.144 C 
BRANCH  13  14
ATOM     14  C   UNL     1       5.823  42.027  47.251  1.00  0.00     0.181 C 
BRANCH  14  15
ATOM     15  O   UNL     1       5.029  41.354  46.268  1.00  0.00    -0.383 OA
ATOM     16  C   UNL     1       5.038  42.051  45.028  1.00  0.00     0.194 C 
ENDBRANCH  14  15
ENDBRANCH  13  14
ENDBRANCH  11  13
ENDBRANCH   1  11
BRANCH   3  17
ATOM     17  N   UNL     1       6.628  46.352  51.091  1.00  0.00    -0.336 N 
ATOM     18  H   UNL     1       6.860  46.521  50.114  1.00  0.00     0.168 HD
BRANCH  17  19
ATOM     19  C   UNL     1       7.749  46.649  51.908  1.00  0.00     0.082 A 
ATOM     20  C   UNL     1       9.001  46.197  51.463  1.00  0.00     0.030 A 
ATOM     21  C   UNL     1       7.651  47.251  53.181  1.00  0.00     0.142 A 
ATOM     22  C   UNL     1      10.149  46.398  52.230  1.00  0.00     0.002 A 
ATOM     23  C   UNL     1       8.808  47.443  53.946  1.00  0.00     0.048 A 
ATOM     24  C   UNL     1      10.051  47.026  53.466  1.00  0.00     0.004 A 
BRANCH  21  25
ATOM     25  O   UNL     1       6.390  47.575  53.615  1.00  0.00    -0.495 OA
ATOM     26  C   UNL     1       5.906  46.892  54.764  1.00  0.00     0.278 C 
ENDBRANCH  21  25
ENDBRANCH  17  19
ENDBRANCH   3  17
TORSDOF 7
ENDMDL
MODEL 6
REMARK VINA RESULT:    -7.798      1.524      2.331
REMARK INTER + INTRA:         -11.722
REMARK INTER:                 -10.798
REMARK INTRA:                  -0.924
REMARK UNBOUND:                -0.733
REMARK SMILES COCCNc1nc(Nc2ccccc2OC)c2cnn(C)c2n1
REMARK SMILES IDX 6 1 7 2 8 3 18 4 19 5 20 6 21 7 22 8 23 9 24 10 5 11 4 13
REMARK SMILES IDX 3 14 2 15 1 16 9 17 10 19 11 20 15 21 12 22 14 23 13 24
REMARK SMILES IDX 16 25 17 26
REMARK H PARENT 5 12 9 18
ROOT
ATOM      1  C   UNL     1       3.964  44.430  53.286  1.00  0.00     0.226 A 
ATOM      2  N   UNL     1       4.814  45.459  53.116  1.00  0.00    -0.195 NA
ATOM      3  C   UNL     1       5.680  45.462  52.070  1.00  0.00     0.147 A 
ATOM      4  C   UNL     1       5.670  44.359  51.213  1.00  0.00     0.082 A 
ATOM      5  C   UNL     1       6.352  43.900  50.068  1.00  0.00     0.149 A 
ATOM      6  N   UNL     1       5.903  42.714  49.633  1.00  0.00    -0.179 NA
ATOM      7  N   UNL     1       4.930  42.411  50.523  1.00  0.00    -0.250 N 
ATOM      8  C   UNL     1       4.204  41.175  50.387  1.00  0.00     0.176 C 
ATOM      9  C   UNL     1       4.754  43.365  51.489  1.00  0.00     0.165 A 
ATOM     10  N   UNL     1       3.875  43.347  52.502  1.00  0.00    -0.193 NA
ENDROOT
BRANCH   1  11
ATOM     11  N   UNL     1       3.127  44.556  54.390  1.00  0.00    -0.352 N 
ATOM     12  H   UNL     1       3.755  44.605  55.186  1.00  0.00     0.163 HD
BRANCH  11  13
ATOM     13  C   UNL     1       2.161  45.644  54.319  1.00  0.00     0.144 C 
BRANCH  13  14
ATOM     14  C   UNL     1       0.799  45.175  53.797  1.00  0.00     0.181 C 
BRANCH  14  15
ATOM     15  O   UNL     1       0.630  45.634  52.452  1.00  0.00    -0.383 OA
ATOM     16  C   UNL     1       0.558  44.547  51.538  1.00  0.00     0.194 C 
ENDBRANCH  14  15
ENDBRANCH  13  14
ENDBRANCH  11  13
ENDBRANCH   1  11
BRANCH   3  17
ATOM     17  N   UNL     1       6.547  46.566  51.959  1.00  0.00    -0.336 N 
ATOM     18  H   UNL     1       6.659  46.715  50.958  1.00  0.00     0.168 HD
BRANCH  17  19
ATOM     19  C   UNL     1       7.800  46.709  52.610  1.00  0.00     0.082 A 
ATOM     20  C   UNL     1       7.814  47.431  53.814  1.00  0.00     0.030 A 
ATOM     21  C   UNL     1       9.024  46.282  52.053  1.00  0.00     0.142 A 
ATOM     22  C   UNL     1       9.009  47.667  54.492  1.00  0.00     0.002 A 
ATOM     23  C   UNL     1      10.219  46.529  52.739  1.00  0.00     0.048 A 
ATOM     24  C   UNL     1      10.208  47.210  53.958  1.00  0.00     0.004 A 
BRANCH  21  25
ATOM     25  O   UNL     1       8.964  45.678  50.822  1.00  0.00    -0.495 OA
ATOM     26  C   UNL     1      10.016  44.782  50.490  1.00  0.00     0.278 C 
ENDBRANCH  21  25
ENDBRANCH  17  19
ENDBRANCH   3  17
TORSDOF 7
ENDMDL
MODEL 7
REMARK VINA RESULT:    -7.771      2.026      4.149
REMARK INTER + INTRA:         -11.684
REMARK INTER:                 -10.790
REMARK INTRA:                  -0.894
REMARK UNBOUND:                -0.733
REMARK SMILES COCCNc1nc(Nc2ccccc2OC)c2cnn(C)c2n1
REMARK SMILES IDX 6 1 7 2 8 3 18 4 19 5 20 6 21 7 22 8 23 9 24 10 5 11 4 13
REMARK SMILES IDX 3 14 2 15 1 16 9 17 10 19 11 20 15 21 12 22 14 23 13 24
REMARK SMILES IDX 16 25 17 26
REMARK H PARENT 5 12 9 18
ROOT
ATOM      1  C   UNL     1       4.883  43.169  51.154  1.00  0.00     0.226 A 
ATOM      2  N   UNL     1       5.805  44.132  50.975  1.00  0.00    -0.195 NA
ATOM      3  C   UNL     1       5.495  45.428  51.235  1.00  0.00     0.147 A 
ATOM      4  C   UNL     1       4.195  45.715  51.659  1.00  0.00     0.082 A 
ATOM      5  C   UNL     1       3.418  46.837  52.010  1.00  0.00     0.149 A 
ATOM      6  N   UNL     1       2.167  46.514  52.367  1.00  0.00    -0.179 NA
ATOM      7  N   UNL     1       2.147  45.168  52.229  1.00  0.00    -0.250 N 
ATOM      8  C   UNL     1       0.937  44.444  52.519  1.00  0.00     0.176 C 
ATOM      9  C   UNL     1       3.338  44.644  51.806  1.00  0.00     0.165 A 
ATOM     10  N   UNL     1       3.625  43.353  51.576  1.00  0.00    -0.193 NA
ENDROOT
BRANCH   1  11
ATOM     11  N   UNL     1       5.333  41.885  50.859  1.00  0.00    -0.352 N 
ATOM     12  H   UNL     1       4.487  41.331  50.761  1.00  0.00     0.163 HD
BRANCH  11  13
ATOM     13  C   UNL     1       6.248  41.790  49.730  1.00  0.00     0.144 C 
BRANCH  13  14
ATOM     14  C   UNL     1       5.525  41.419  48.430  1.00  0.00     0.181 C 
BRANCH  14  15
ATOM     15  O   UNL     1       4.325  40.707  48.750  1.00  0.00    -0.383 OA
ATOM     16  C   UNL     1       3.637  40.297  47.574  1.00  0.00     0.194 C 
ENDBRANCH  14  15
ENDBRANCH  13  14
ENDBRANCH  11  13
ENDBRANCH   1  11
BRANCH   3  17
ATOM     17  N   UNL     1       6.505  46.384  51.017  1.00  0.00    -0.336 N 
ATOM     18  H   UNL     1       6.762  46.279  50.037  1.00  0.00     0.168 HD
BRANCH  17  19
ATOM     19  C   UNL     1       7.673  46.556  51.804  1.00  0.00     0.082 A 
ATOM     20  C   UNL     1       8.866  46.015  51.302  1.00  0.00     0.030 A 
ATOM     21  C   UNL     1       7.668  47.119  53.099  1.00  0.00     0.142 A 
ATOM     22  C   UNL     1      10.051  46.090  52.034  1.00  0.00     0.002 A 
ATOM     23  C   UNL     1       8.861  47.185  53.828  1.00  0.00     0.048 A 
ATOM     24  C   UNL     1      10.048  46.680  53.292  1.00  0.00     0.004 A 
BRANCH  21  25
ATOM     25  O   UNL     1       6.454  47.534  53.586  1.00  0.00    -0.495 OA
ATOM     26  C   UNL     1       5.942  46.843  54.718  1.00  0.00     0.278 C 
ENDBRANCH  21  25
ENDBRANCH  17  19
ENDBRANCH   3  17
TORSDOF 7
ENDMDL
MODEL 8
REMARK VINA RESULT:    -7.735      2.432      4.787
REMARK INTER + INTRA:         -11.633
REMARK INTER:                 -10.684
REMARK INTRA:                  -0.949
REMARK UNBOUND:                -0.733
REMARK SMILES COCCNc1nc(Nc2ccccc2OC)c2cnn(C)c2n1
REMARK SMILES IDX 6 1 7 2 8 3 18 4 19 5 20 6 21 7 22 8 23 9 24 10 5 11 4 13
REMARK SMILES IDX 3 14 2 15 1 16 9 17 10 19 11 20 15 21 12 22 14 23 13 24
REMARK SMILES IDX 16 25 17 26
REMARK H PARENT 5 12 9 18
ROOT
ATOM      1  C   UNL     1       3.530  43.668  51.837  1.00  0.00     0.226 A 
ATOM      2  N   UNL     1       4.469  44.495  51.342  1.00  0.00    -0.195 NA
ATOM      3  C   UNL     1       4.868  45.577  52.059  1.00  0.00     0.147 A 
ATOM      4  C   UNL     1       4.255  45.805  53.292  1.00  0.00     0.082 A 
ATOM      5  C   UNL     1       4.296  46.749  54.339  1.00  0.00     0.149 A 
ATOM      6  N   UNL     1       3.453  46.456  55.339  1.00  0.00    -0.179 NA
ATOM      7  N   UNL     1       2.859  45.316  54.914  1.00  0.00    -0.250 N 
ATOM      8  C   UNL     1       1.859  44.688  55.739  1.00  0.00     0.176 C 
ATOM      9  C   UNL     1       3.305  44.888  53.694  1.00  0.00     0.165 A 
ATOM     10  N   UNL     1       2.907  43.801  53.015  1.00  0.00    -0.193 NA
ENDROOT
BRANCH   1  11
ATOM     11  N   UNL     1       3.218  42.596  51.007  1.00  0.00    -0.352 N 
ATOM     12  H   UNL     1       2.897  43.022  50.143  1.00  0.00     0.163 HD
BRANCH  11  13
ATOM     13  C   UNL     1       4.278  41.613  50.834  1.00  0.00     0.144 C 
BRANCH  13  14
ATOM     14  C   UNL     1       4.427  41.174  49.373  1.00  0.00     0.181 C 
BRANCH  14  15
ATOM     15  O   UNL     1       5.781  41.388  48.957  1.00  0.00    -0.383 OA
ATOM     16  C   UNL     1       6.647  41.549  50.074  1.00  0.00     0.194 C 
ENDBRANCH  14  15
ENDBRANCH  13  14
ENDBRANCH  11  13
ENDBRANCH   1  11
BRANCH   3  17
ATOM     17  N   UNL     1       5.848  46.404  51.476  1.00  0.00    -0.336 N 
ATOM     18  H   UNL     1       5.767  46.244  50.474  1.00  0.00     0.168 HD
BRANCH  17  19
ATOM     19  C   UNL     1       7.217  46.461  51.845  1.00  0.00     0.082 A 
ATOM     20  C   UNL     1       7.563  47.346  52.878  1.00  0.00     0.030 A 
ATOM     21  C   UNL     1       8.242  45.782  51.152  1.00  0.00     0.142 A 
ATOM     22  C   UNL     1       8.892  47.506  53.268  1.00  0.00     0.002 A 
ATOM     23  C   UNL     1       9.574  45.953  51.548  1.00  0.00     0.048 A 
ATOM     24  C   UNL     1       9.894  46.805  52.607  1.00  0.00     0.004 A 
BRANCH  21  25
ATOM     25  O   UNL     1       7.859  45.014  50.081  1.00  0.00    -0.495 OA
ATOM     26  C   UNL     1       8.875  44.269  49.424  1.00  0.00     0.278 C 
ENDBRANCH  21  25
ENDBRANCH  17  19
ENDBRANCH   3  17
TORSDOF 7
ENDMDL
MODEL 9
REMARK VINA RESULT:    -7.701      2.287      4.819
REMARK INTER + INTRA:         -11.585
REMARK INTER:                 -10.606
REMARK INTRA:                  -0.979
REMARK UNBOUND:                -0.733
REMARK SMILES COCCNc1nc(Nc2ccccc2OC)c2cnn(C)c2n1
REMARK SMILES IDX 6 1 7 2 8 3 18 4 19 5 20 6 21 7 22 8 23 9 24 10 5 11 4 13
REMARK SMILES IDX 3 14 2 15 1 16 9 17 10 19 11 20 15 21 12 22 14 23 13 24
REMARK SMILES IDX 16 25 17 26
REMARK H PARENT 5 12 9 18
ROOT
ATOM      1  C   UNL     1       4.229  42.802  51.581  1.00  0.00     0.226 A 
ATOM      2  N   UNL     1       5.052  43.824  51.282  1.00  0.00    -0.195 NA
ATOM      3  C   UNL     1       4.825  45.056  51.807  1.00  0.00     0.147 A 
ATOM      4  C   UNL     1       3.707  45.220  52.628  1.00  0.00     0.082 A 
ATOM      5  C   UNL     1       3.062  46.245  53.349  1.00  0.00     0.149 A 
ATOM      6  N   UNL     1       1.974  45.817  54.004  1.00  0.00    -0.179 NA
ATOM      7  N   UNL     1       1.922  44.503  53.684  1.00  0.00    -0.250 N 
ATOM      8  C   UNL     1       0.855  43.689  54.206  1.00  0.00     0.176 C 
ATOM      9  C   UNL     1       2.937  44.099  52.861  1.00  0.00     0.165 A 
ATOM     10  N   UNL     1       3.150  42.867  52.373  1.00  0.00    -0.193 NA
ENDROOT
BRANCH   1  11
ATOM     11  N   UNL     1       4.577  41.594  50.986  1.00  0.00    -0.352 N 
ATOM     12  H   UNL     1       3.715  41.249  50.575  1.00  0.00     0.163 HD
BRANCH  11  13
ATOM     13  C   UNL     1       5.700  41.657  50.060  1.00  0.00     0.144 C 
BRANCH  13  14
ATOM     14  C   UNL     1       5.306  41.232  48.642  1.00  0.00     0.181 C 
BRANCH  14  15
ATOM     15  O   UNL     1       3.974  40.705  48.666  1.00  0.00    -0.383 OA
ATOM     16  C   UNL     1       3.597  40.193  47.394  1.00  0.00     0.194 C 
ENDBRANCH  14  15
ENDBRANCH  13  14
ENDBRANCH  11  13
ENDBRANCH   1  11
BRANCH   3  17
ATOM     17  N   UNL     1       5.721  46.080  51.444  1.00  0.00    -0.336 N 
ATOM     18  H   UNL     1       5.681  46.119  50.427  1.00  0.00     0.168 HD
BRANCH  17  19
ATOM     19  C   UNL     1       7.067  46.200  51.877  1.00  0.00     0.082 A 
ATOM     20  C   UNL     1       7.282  46.767  53.142  1.00  0.00     0.030 A 
ATOM     21  C   UNL     1       8.180  45.904  51.061  1.00  0.00     0.142 A 
ATOM     22  C   UNL     1       8.574  46.973  53.624  1.00  0.00     0.002 A 
ATOM     23  C   UNL     1       9.473  46.119  51.552  1.00  0.00     0.048 A 
ATOM     24  C   UNL     1       9.667  46.643  52.832  1.00  0.00     0.004 A 
BRANCH  21  25
ATOM     25  O   UNL     1       7.913  45.455  49.792  1.00  0.00    -0.495 OA
ATOM     26  C   UNL     1       8.306  44.125  49.481  1.00  0.00     0.278 C 
ENDBRANCH  21  25
ENDBRANCH  17  19
ENDBRANCH   3  17
TORSDOF 7
ENDMDL
MODEL 10
REMARK VINA RESULT:    -7.567      1.453      2.236
REMARK INTER + INTRA:         -11.396
REMARK INTER:                 -10.438
REMARK INTRA:                  -0.958
REMARK UNBOUND:                -0.733
REMARK SMILES COCCNc1nc(Nc2ccccc2OC)c2cnn(C)c2n1
REMARK SMILES IDX 6 1 7 2 8 3 18 4 19 5 20 6 21 7 22 8 23 9 24 10 5 11 4 13
REMARK SMILES IDX 3 14 2 15 1 16 9 17 10 19 11 20 15 21 12 22 14 23 13 24
REMARK SMILES IDX 16 25 17 26
REMARK H PARENT 5 12 9 18
ROOT
ATOM      1  C   UNL     1       4.528  43.954  52.192  1.00  0.00     0.226 A 
ATOM      2  N   UNL     1       5.280  45.067  52.273  1.00  0.00    -0.195 NA
ATOM      3  C   UNL     1       6.277  45.281  51.376  1.00  0.00     0.147 A 
ATOM      4  C   UNL     1       6.502  44.303  50.405  1.00  0.00     0.082 A 
ATOM      5  C   UNL     1       7.381  44.058  49.330  1.00  0.00     0.149 A 
ATOM      6  N   UNL     1       7.124  42.905  48.699  1.00  0.00    -0.179 NA
ATOM      7  N   UNL     1       6.075  42.404  49.391  1.00  0.00    -0.250 N 
ATOM      8  C   UNL     1       5.510  41.137  49.004  1.00  0.00     0.176 C 
ATOM      9  C   UNL     1       5.667  43.205  50.423  1.00  0.00     0.165 A 
ATOM     10  N   UNL     1       4.663  42.978  51.284  1.00  0.00    -0.193 NA
ENDROOT
BRANCH   1  11
ATOM     11  N   UNL     1       3.538  43.860  53.165  1.00  0.00    -0.352 N 
ATOM     12  H   UNL     1       3.955  43.305  53.906  1.00  0.00     0.163 HD
BRANCH  11  13
ATOM     13  C   UNL     1       2.980  45.130  53.609  1.00  0.00     0.144 C 
BRANCH  13  14
ATOM     14  C   UNL     1       3.015  45.276  55.134  1.00  0.00     0.181 C 
BRANCH  14  15
ATOM     15  O   UNL     1       4.145  46.076  55.501  1.00  0.00    -0.383 OA
ATOM     16  C   UNL     1       4.255  47.227  54.674  1.00  0.00     0.194 C 
ENDBRANCH  14  15
ENDBRANCH  13  14
ENDBRANCH  11  13
ENDBRANCH   1  11
BRANCH   3  17
ATOM     17  N   UNL     1       7.029  46.462  51.526  1.00  0.00    -0.336 N 
ATOM     18  H   UNL     1       7.376  46.676  50.592  1.00  0.00     0.168 HD
BRANCH  17  19
ATOM     19  C   UNL     1       8.055  46.680  52.481  1.00  0.00     0.082 A 
ATOM     20  C   UNL     1       7.697  47.356  53.658  1.00  0.00     0.030 A 
ATOM     21  C   UNL     1       9.414  46.373  52.253  1.00  0.00     0.142 A 
ATOM     22  C   UNL     1       8.653  47.661  54.627  1.00  0.00     0.002 A 
ATOM     23  C   UNL     1      10.366  46.688  53.230  1.00  0.00     0.048 A 
ATOM     24  C   UNL     1       9.984  47.321  54.415  1.00  0.00     0.004 A 
BRANCH  21  25
ATOM     25  O   UNL     1       9.724  45.812  51.040  1.00  0.00    -0.495 OA
ATOM     26  C   UNL     1      10.600  44.692  51.051  1.00  0.00     0.278 C 
ENDBRANCH  21  25
ENDBRANCH  17  19
ENDBRANCH   3  17
TORSDOF 7
ENDMDL
MODEL 11
REMARK VINA RESULT:    -7.525      2.423      3.624
REMARK INTER + INTRA:         -11.337
REMARK INTER:                 -10.597
REMARK INTRA:                  -0.739
REMARK UNBOUND:                -0.733
REMARK SMILES COCCNc1nc(Nc2ccccc2OC)c2cnn(C)c2n1
REMARK SMILES IDX 6 1 7 2 8 3 18 4 19 5 20 6 21 7 22 8 23 9 24 10 5 11 4 13
REMARK SMILES IDX 3 14 2 15 1 16 9 17 10 19 11 20 15 21 12 22 14 23 13 24
REMARK SMILES IDX 16 25 17 26
REMARK H PARENT 5 12 9 18
ROOT
ATOM      1  C   UNL     1       3.421  45.735  54.861  1.00  0.00     0.226 A 
ATOM      2  N   UNL     1       4.403  46.543  54.420  1.00  0.00    -0.195 NA
ATOM      3  C   UNL     1       4.984  46.313  53.215  1.00  0.00     0.147 A 
ATOM      4  C   UNL     1       4.549  45.207  52.482  1.00  0.00     0.082 A 
ATOM      5  C   UNL     1       4.838  44.564  51.261  1.00  0.00     0.149 A 
ATOM      6  N   UNL     1       4.066  43.491  51.041  1.00  0.00    -0.179 NA
ATOM      7  N   UNL     1       3.284  43.446  52.144  1.00  0.00    -0.250 N 
ATOM      8  C   UNL     1       2.307  42.395  52.278  1.00  0.00     0.176 C 
ATOM      9  C   UNL     1       3.537  44.452  53.037  1.00  0.00     0.165 A 
ATOM     10  N   UNL     1       2.931  44.668  54.214  1.00  0.00    -0.193 NA
ENDROOT
BRANCH   1  11
ATOM     11  N   UNL     1       2.907  46.085  56.105  1.00  0.00    -0.352 N 
ATOM     12  H   UNL     1       2.851  47.099  56.086  1.00  0.00     0.163 HD
BRANCH  11  13
ATOM     13  C   UNL     1       1.664  45.422  56.474  1.00  0.00     0.144 C 
BRANCH  13  14
ATOM     14  C   UNL     1       0.938  46.146  57.614  1.00  0.00     0.181 C 
BRANCH  14  15
ATOM     15  O   UNL     1      -0.454  45.816  57.566  1.00  0.00    -0.383 OA
ATOM     16  C   UNL     1      -0.773  45.084  56.389  1.00  0.00     0.194 C 
ENDBRANCH  14  15
ENDBRANCH  13  14
ENDBRANCH  11  13
ENDBRANCH   1  11
BRANCH   3  17
ATOM     17  N   UNL     1       6.011  47.193  52.822  1.00  0.00    -0.336 N 
ATOM     18  H   UNL     1       5.804  47.425  51.852  1.00  0.00     0.168 HD
BRANCH  17  19
ATOM     19  C   UNL     1       7.403  46.969  52.975  1.00  0.00     0.082 A 
ATOM     20  C   UNL     1       7.982  47.362  54.192  1.00  0.00     0.030 A 
ATOM     21  C   UNL     1       8.240  46.501  51.939  1.00  0.00     0.142 A 
ATOM     22  C   UNL     1       9.353  47.229  54.409  1.00  0.00     0.002 A 
ATOM     23  C   UNL     1       9.616  46.377  52.164  1.00  0.00     0.048 A 
ATOM     24  C   UNL     1      10.166  46.731  53.398  1.00  0.00     0.004 A 
BRANCH  21  25
ATOM     25  O   UNL     1       7.638  46.235  50.734  1.00  0.00    -0.495 OA
ATOM     26  C   UNL     1       8.079  45.080  50.034  1.00  0.00     0.278 C 
ENDBRANCH  21  25
ENDBRANCH  17  19
ENDBRANCH   3  17
TORSDOF 7
ENDMDL
MODEL 12
REMARK VINA RESULT:    -7.430      2.269      6.262
REMARK INTER + INTRA:         -11.203
REMARK INTER:                 -10.895
REMARK INTRA:                  -0.307
REMARK UNBOUND:                -0.733
REMARK SMILES COCCNc1nc(Nc2ccccc2OC)c2cnn(C)c2n1
REMARK SMILES IDX 6 1 7 2 8 3 18 4 19 5 20 6 21 7 22 8 23 9 24 10 5 11 4 13
REMARK SMILES IDX 3 14 2 15 1 16 9 17 10 19 11 20 15 21 12 22 14 23 13 24
REMARK SMILES IDX 16 25 17 26
REMARK H PARENT 5 12 9 18
ROOT
ATOM      1  C   UNL     1       4.761  45.878  54.380  1.00  0.00     0.226 A 
ATOM      2  N   UNL     1       4.783  45.185  53.227  1.00  0.00    -0.195 NA
ATOM      3  C   UNL     1       3.698  44.464  52.846  1.00  0.00     0.147 A 
ATOM      4  C   UNL     1       2.592  44.449  53.698  1.00  0.00     0.082 A 
ATOM      5  C   UNL     1       1.310  43.865  53.763  1.00  0.00     0.149 A 
ATOM      6  N   UNL     1       0.630  44.220  54.862  1.00  0.00    -0.179 NA
ATOM      7  N   UNL     1       1.499  45.031  55.510  1.00  0.00    -0.250 N 
ATOM      8  C   UNL     1       1.117  45.614  56.771  1.00  0.00     0.176 C 
ATOM      9  C   UNL     1       2.687  45.197  54.853  1.00  0.00     0.165 A 
ATOM     10  N   UNL     1       3.738  45.934  55.244  1.00  0.00    -0.193 NA
ENDROOT
BRANCH   1  11
ATOM     11  N   UNL     1       5.932  46.579  54.649  1.00  0.00    -0.352 N 
ATOM     12  H   UNL     1       6.112  46.415  55.635  1.00  0.00     0.163 HD
BRANCH  11  13
ATOM     13  C   UNL     1       7.056  46.272  53.774  1.00  0.00     0.144 C 
BRANCH  13  14
ATOM     14  C   UNL     1       7.400  47.439  52.843  1.00  0.00     0.181 C 
BRANCH  14  15
ATOM     15  O   UNL     1       8.408  48.248  53.460  1.00  0.00    -0.383 OA
ATOM     16  C   UNL     1       9.544  47.473  53.822  1.00  0.00     0.194 C 
ENDBRANCH  14  15
ENDBRANCH  13  14
ENDBRANCH  11  13
ENDBRANCH   1  11
BRANCH   3  17
ATOM     17  N   UNL     1       3.794  43.756  51.632  1.00  0.00    -0.336 N 
ATOM     18  H   UNL     1       3.232  42.918  51.768  1.00  0.00     0.168 HD
BRANCH  17  19
ATOM     19  C   UNL     1       4.996  43.423  50.956  1.00  0.00     0.082 A 
ATOM     20  C   UNL     1       5.838  44.485  50.590  1.00  0.00     0.030 A 
ATOM     21  C   UNL     1       5.317  42.117  50.528  1.00  0.00     0.142 A 
ATOM     22  C   UNL     1       7.013  44.255  49.875  1.00  0.00     0.002 A 
ATOM     23  C   UNL     1       6.496  41.896  49.805  1.00  0.00     0.048 A 
ATOM     24  C   UNL     1       7.343  42.960  49.490  1.00  0.00     0.004 A 
BRANCH  21  25
ATOM     25  O   UNL     1       4.406  41.132  50.816  1.00  0.00    -0.495 OA
ATOM     26  C   UNL     1       3.550  40.714  49.761  1.00  0.00     0.278 C 
ENDBRANCH  21  25
ENDBRANCH  17  19
ENDBRANCH   3  17
TORSDOF 7
ENDMDL
MODEL 13
REMARK VINA RESULT:    -7.409      1.977      5.263
REMARK INTER + INTRA:         -11.174
REMARK INTER:                 -10.103
REMARK INTRA:                  -1.071
REMARK UNBOUND:                -0.733
REMARK SMILES COCCNc1nc(Nc2ccccc2OC)c2cnn(C)c2n1
REMARK SMILES IDX 6 1 7 2 8 3 18 4 19 5 20 6 21 7 22 8 23 9 24 10 5 11 4 13
REMARK SMILES IDX 3 14 2 15 1 16 9 17 10 19 11 20 15 21 12 22 14 23 13 24
REMARK SMILES IDX 16 25 17 26
REMARK H PARENT 5 12 9 18
ROOT
ATOM      1  C   UNL     1       6.429  44.678  50.403  1.00  0.00     0.226 A 
ATOM      2  N   UNL     1       5.355  45.287  50.938  1.00  0.00    -0.195 NA
ATOM      3  C   UNL     1       5.519  46.343  51.777  1.00  0.00     0.147 A 
ATOM      4  C   UNL     1       6.823  46.742  52.077  1.00  0.00     0.082 A 
ATOM      5  C   UNL     1       7.482  47.705  52.867  1.00  0.00     0.149 A 
ATOM      6  N   UNL     1       8.816  47.640  52.765  1.00  0.00    -0.179 NA
ATOM      7  N   UNL     1       9.007  46.611  51.907  1.00  0.00    -0.250 N 
ATOM      8  C   UNL     1      10.348  46.224  51.551  1.00  0.00     0.176 C 
ATOM      9  C   UNL     1       7.843  46.040  51.469  1.00  0.00     0.165 A 
ATOM     10  N   UNL     1       7.709  45.009  50.621  1.00  0.00    -0.193 NA
ENDROOT
BRANCH   1  11
ATOM     11  N   UNL     1       6.123  43.618  49.557  1.00  0.00    -0.352 N 
ATOM     12  H   UNL     1       6.736  43.740  48.756  1.00  0.00     0.163 HD
BRANCH  11  13
ATOM     13  C   UNL     1       6.187  42.296  50.166  1.00  0.00     0.144 C 
BRANCH  13  14
ATOM     14  C   UNL     1       4.871  41.525  50.015  1.00  0.00     0.181 C 
BRANCH  14  15
ATOM     15  O   UNL     1       4.354  41.226  51.316  1.00  0.00    -0.383 OA
ATOM     16  C   UNL     1       3.590  42.309  51.832  1.00  0.00     0.194 C 
ENDBRANCH  14  15
ENDBRANCH  13  14
ENDBRANCH  11  13
ENDBRANCH   1  11
BRANCH   3  17
ATOM     17  N   UNL     1       4.351  46.926  52.307  1.00  0.00    -0.336 N 
ATOM     18  H   UNL     1       4.679  47.699  52.882  1.00  0.00     0.168 HD
BRANCH  17  19
ATOM     19  C   UNL     1       3.307  46.237  52.977  1.00  0.00     0.082 A 
ATOM     20  C   UNL     1       2.110  46.048  52.269  1.00  0.00     0.030 A 
ATOM     21  C   UNL     1       3.368  45.855  54.335  1.00  0.00     0.142 A 
ATOM     22  C   UNL     1       1.014  45.430  52.870  1.00  0.00     0.002 A 
ATOM     23  C   UNL     1       2.260  45.240  54.930  1.00  0.00     0.048 A 
ATOM     24  C   UNL     1       1.093  45.021  54.196  1.00  0.00     0.004 A 
BRANCH  21  25
ATOM     25  O   UNL     1       4.523  46.162  55.011  1.00  0.00    -0.495 OA
ATOM     26  C   UNL     1       5.412  45.089  55.291  1.00  0.00     0.278 C 
ENDBRANCH  21  25
ENDBRANCH  17  19
ENDBRANCH   3  17
TORSDOF 7
ENDMDL
MODEL 14
REMARK VINA RESULT:    -7.339      2.060      5.443
REMARK INTER + INTRA:         -11.074
REMARK INTER:                 -10.046
REMARK INTRA:                  -1.029
REMARK UNBOUND:                -0.733
REMARK SMILES COCCNc1nc(Nc2ccccc2OC)c2cnn(C)c2n1
REMARK SMILES IDX 6 1 7 2 8 3 18 4 19 5 20 6 21 7 22 8 23 9 24 10 5 11 4 13
REMARK SMILES IDX 3 14 2 15 1 16 9 17 10 19 11 20 15 21 12 22 14 23 13 24
REMARK SMILES IDX 16 25 17 26
REMARK H PARENT 5 12 9 18
ROOT
ATOM      1  C   UNL     1       6.569  44.516  50.224  1.00  0.00     0.226 A 
ATOM      2  N   UNL     1       5.423  45.067  50.665  1.00  0.00    -0.195 NA
ATOM      3  C   UNL     1       5.460  46.153  51.479  1.00  0.00     0.147 A 
ATOM      4  C   UNL     1       6.712  46.645  51.855  1.00  0.00     0.082 A 
ATOM      5  C   UNL     1       7.251  47.671  52.657  1.00  0.00     0.149 A 
ATOM      6  N   UNL     1       8.591  47.690  52.649  1.00  0.00    -0.179 NA
ATOM      7  N   UNL     1       8.906  46.653  51.838  1.00  0.00    -0.250 N 
ATOM      8  C   UNL     1      10.291  46.346  51.588  1.00  0.00     0.176 C 
ATOM      9  C   UNL     1       7.815  45.996  51.340  1.00  0.00     0.165 A 
ATOM     10  N   UNL     1       7.807  44.935  50.518  1.00  0.00    -0.193 NA
ENDROOT
BRANCH   1  11
ATOM     11  N   UNL     1       6.391  43.415  49.393  1.00  0.00    -0.352 N 
ATOM     12  H   UNL     1       7.170  43.452  48.743  1.00  0.00     0.163 HD
BRANCH  11  13
ATOM     13  C   UNL     1       6.240  42.137  50.075  1.00  0.00     0.144 C 
BRANCH  13  14
ATOM     14  C   UNL     1       5.076  41.314  49.512  1.00  0.00     0.181 C 
BRANCH  14  15
ATOM     15  O   UNL     1       4.223  40.912  50.589  1.00  0.00    -0.383 OA
ATOM     16  C   UNL     1       3.849  42.023  51.396  1.00  0.00     0.194 C 
ENDBRANCH  14  15
ENDBRANCH  13  14
ENDBRANCH  11  13
ENDBRANCH   1  11
BRANCH   3  17
ATOM     17  N   UNL     1       4.224  46.672  51.909  1.00  0.00    -0.336 N 
ATOM     18  H   UNL     1       4.380  47.671  52.021  1.00  0.00     0.168 HD
BRANCH  17  19
ATOM     19  C   UNL     1       3.447  46.183  52.992  1.00  0.00     0.082 A 
ATOM     20  C   UNL     1       3.968  46.362  54.283  1.00  0.00     0.030 A 
ATOM     21  C   UNL     1       2.265  45.428  52.829  1.00  0.00     0.142 A 
ATOM     22  C   UNL     1       3.298  45.865  55.400  1.00  0.00     0.002 A 
ATOM     23  C   UNL     1       1.603  44.929  53.957  1.00  0.00     0.048 A 
ATOM     24  C   UNL     1       2.114  45.156  55.236  1.00  0.00     0.004 A 
BRANCH  21  25
ATOM     25  O   UNL     1       1.858  45.190  51.540  1.00  0.00    -0.495 OA
ATOM     26  C   UNL     1       0.790  44.271  51.359  1.00  0.00     0.278 C 
ENDBRANCH  21  25
ENDBRANCH  17  19
ENDBRANCH   3  17
TORSDOF 7
ENDMDL
MODEL 15
REMARK VINA RESULT:    -7.322      2.969      4.767
REMARK INTER + INTRA:         -11.050
REMARK INTER:                 -10.188
REMARK INTRA:                  -0.862
REMARK UNBOUND:                -0.733
REMARK SMILES COCCNc1nc(Nc2ccccc2OC)c2cnn(C)c2n1
REMARK SMILES IDX 6 1 7 2 8 3 18 4 19 5 20 6 21 7 22 8 23 9 24 10 5 11 4 13
REMARK SMILES IDX 3 14 2 15 1 16 9 17 10 19 11 20 15 21 12 22 14 23 13 24
REMARK SMILES IDX 16 25 17 26
REMARK H PARENT 5 12 9 18
ROOT
ATOM      1  C   UNL     1       2.012  45.283  55.028  1.00  0.00     0.226 A 
ATOM      2  N   UNL     1       2.776  46.053  54.232  1.00  0.00    -0.195 NA
ATOM      3  C   UNL     1       2.820  45.817  52.895  1.00  0.00     0.147 A 
ATOM      4  C   UNL     1       2.077  44.745  52.398  1.00  0.00     0.082 A 
ATOM      5  C   UNL     1       1.827  44.110  51.164  1.00  0.00     0.149 A 
ATOM      6  N   UNL     1       0.981  43.077  51.271  1.00  0.00    -0.179 NA
ATOM      7  N   UNL     1       0.699  43.048  52.595  1.00  0.00    -0.250 N 
ATOM      8  C   UNL     1      -0.193  42.041  53.108  1.00  0.00     0.176 C 
ATOM      9  C   UNL     1       1.333  44.027  53.310  1.00  0.00     0.165 A 
ATOM     10  N   UNL     1       1.255  44.251  54.631  1.00  0.00    -0.193 NA
ENDROOT
BRANCH   1  11
ATOM     11  N   UNL     1       2.051  45.635  56.373  1.00  0.00    -0.352 N 
ATOM     12  H   UNL     1       2.311  46.617  56.376  1.00  0.00     0.163 HD
BRANCH  11  13
ATOM     13  C   UNL     1       0.845  45.331  57.131  1.00  0.00     0.144 C 
BRANCH  13  14
ATOM     14  C   UNL     1       0.202  46.590  57.724  1.00  0.00     0.181 C 
BRANCH  14  15
ATOM     15  O   UNL     1       0.862  46.917  58.952  1.00  0.00    -0.383 OA
ATOM     16  C   UNL     1       0.157  47.925  59.667  1.00  0.00     0.194 C 
ENDBRANCH  14  15
ENDBRANCH  13  14
ENDBRANCH  11  13
ENDBRANCH   1  11
BRANCH   3  17
ATOM     17  N   UNL     1       3.647  46.657  52.125  1.00  0.00    -0.336 N 
ATOM     18  H   UNL     1       3.100  46.879  51.296  1.00  0.00     0.168 HD
BRANCH  17  19
ATOM     19  C   UNL     1       4.991  46.390  51.756  1.00  0.00     0.082 A 
ATOM     20  C   UNL     1       5.195  45.543  50.656  1.00  0.00     0.030 A 
ATOM     21  C   UNL     1       6.108  46.822  52.504  1.00  0.00     0.142 A 
ATOM     22  C   UNL     1       6.482  45.184  50.257  1.00  0.00     0.002 A 
ATOM     23  C   UNL     1       7.396  46.452  52.099  1.00  0.00     0.048 A 
ATOM     24  C   UNL     1       7.580  45.644  50.975  1.00  0.00     0.004 A 
BRANCH  21  25
ATOM     25  O   UNL     1       5.847  47.557  53.633  1.00  0.00    -0.495 OA
ATOM     26  C   UNL     1       6.140  46.947  54.883  1.00  0.00     0.278 C 
ENDBRANCH  21  25
ENDBRANCH  17  19
ENDBRANCH   3  17
TORSDOF 7
ENDMDL
MODEL 16
REMARK VINA RESULT:    -7.319      2.027      6.203
REMARK INTER + INTRA:         -11.047
REMARK INTER:                 -10.246
REMARK INTRA:                  -0.801
REMARK UNBOUND:                -0.733
REMARK SMILES COCCNc1nc(Nc2ccccc2OC)c2cnn(C)c2n1
REMARK SMILES IDX 6 1 7 2 8 3 18 4 19 5 20 6 21 7 22 8 23 9 24 10 5 11 4 13
REMARK SMILES IDX 3 14 2 15 1 16 9 17 10 19 11 20 15 21 12 22 14 23 13 24
REMARK SMILES IDX 16 25 17 26
REMARK H PARENT 5 12 9 18
ROOT
ATOM      1  C   UNL     1       6.153  44.589  51.058  1.00  0.00     0.226 A 
ATOM      2  N   UNL     1       5.135  44.179  51.837  1.00  0.00    -0.195 NA
ATOM      3  C   UNL     1       4.993  44.683  53.090  1.00  0.00     0.147 A 
ATOM      4  C   UNL     1       5.945  45.601  53.536  1.00  0.00     0.082 A 
ATOM      5  C   UNL     1       6.237  46.347  54.697  1.00  0.00     0.149 A 
ATOM      6  N   UNL     1       7.325  47.117  54.562  1.00  0.00    -0.179 NA
ATOM      7  N   UNL     1       7.737  46.847  53.301  1.00  0.00    -0.250 N 
ATOM      8  C   UNL     1       8.915  47.495  52.786  1.00  0.00     0.176 C 
ATOM      9  C   UNL     1       6.943  45.944  52.648  1.00  0.00     0.165 A 
ATOM     10  N   UNL     1       7.096  45.478  51.399  1.00  0.00    -0.193 NA
ENDROOT
BRANCH   1  11
ATOM     11  N   UNL     1       6.180  44.002  49.797  1.00  0.00    -0.352 N 
ATOM     12  H   UNL     1       6.327  44.775  49.155  1.00  0.00     0.163 HD
BRANCH  11  13
ATOM     13  C   UNL     1       7.124  42.904  49.641  1.00  0.00     0.144 C 
BRANCH  13  14
ATOM     14  C   UNL     1       6.489  41.546  49.956  1.00  0.00     0.181 C 
BRANCH  14  15
ATOM     15  O   UNL     1       5.262  41.423  49.229  1.00  0.00    -0.383 OA
ATOM     16  C   UNL     1       4.170  41.152  50.098  1.00  0.00     0.194 C 
ENDBRANCH  14  15
ENDBRANCH  13  14
ENDBRANCH  11  13
ENDBRANCH   1  11
BRANCH   3  17
ATOM     17  N   UNL     1       3.910  44.203  53.852  1.00  0.00    -0.336 N 
ATOM     18  H   UNL     1       4.191  43.272  54.155  1.00  0.00     0.168 HD
BRANCH  17  19
ATOM     19  C   UNL     1       2.550  44.186  53.449  1.00  0.00     0.082 A 
ATOM     20  C   UNL     1       1.997  42.939  53.120  1.00  0.00     0.030 A 
ATOM     21  C   UNL     1       1.781  45.352  53.243  1.00  0.00     0.142 A 
ATOM     22  C   UNL     1       0.684  42.836  52.662  1.00  0.00     0.002 A 
ATOM     23  C   UNL     1       0.466  45.239  52.777  1.00  0.00     0.048 A 
ATOM     24  C   UNL     1      -0.081  43.985  52.498  1.00  0.00     0.004 A 
BRANCH  21  25
ATOM     25  O   UNL     1       2.406  46.552  53.475  1.00  0.00    -0.495 OA
ATOM     26  C   UNL     1       2.859  47.275  52.338  1.00  0.00     0.278 C 
ENDBRANCH  21  25
ENDBRANCH  17  19
ENDBRANCH   3  17
TORSDOF 7
ENDMDL
MODEL 17
REMARK VINA RESULT:    -7.313      2.247      6.323
REMARK INTER + INTRA:         -11.038
REMARK INTER:                 -10.169
REMARK INTRA:                  -0.870
REMARK UNBOUND:                -0.733
REMARK SMILES COCCNc1nc(Nc2ccccc2OC)c2cnn(C)c2n1
REMARK SMILES IDX 6 1 7 2 8 3 18 4 19 5 20 6 21 7 22 8 23 9 24 10 5 11 4 13
REMARK SMILES IDX 3 14 2 15 1 16 9 17 10 19 11 20 15 21 12 22 14 23 13 24
REMARK SMILES IDX 16 25 17 26
REMARK H PARENT 5 12 9 18
ROOT
ATOM      1  C   UNL     1       4.674  46.005  54.577  1.00  0.00     0.226 A 
ATOM      2  N   UNL     1       4.653  45.602  53.294  1.00  0.00    -0.195 NA
ATOM      3  C   UNL     1       3.516  45.086  52.761  1.00  0.00     0.147 A 
ATOM      4  C   UNL     1       2.402  44.965  53.594  1.00  0.00     0.082 A 
ATOM      5  C   UNL     1       1.075  44.494  53.528  1.00  0.00     0.149 A 
ATOM      6  N   UNL     1       0.413  44.637  54.685  1.00  0.00    -0.179 NA
ATOM      7  N   UNL     1       1.337  45.197  55.499  1.00  0.00    -0.250 N 
ATOM      8  C   UNL     1       0.990  45.498  56.864  1.00  0.00     0.176 C 
ATOM      9  C   UNL     1       2.545  45.411  54.891  1.00  0.00     0.165 A 
ATOM     10  N   UNL     1       3.649  45.944  55.437  1.00  0.00    -0.193 NA
ENDROOT
BRANCH   1  11
ATOM     11  N   UNL     1       5.897  46.521  54.995  1.00  0.00    -0.352 N 
ATOM     12  H   UNL     1       5.946  46.301  55.985  1.00  0.00     0.163 HD
BRANCH  11  13
ATOM     13  C   UNL     1       7.053  46.083  54.225  1.00  0.00     0.144 C 
BRANCH  13  14
ATOM     14  C   UNL     1       7.929  47.258  53.777  1.00  0.00     0.181 C 
BRANCH  14  15
ATOM     15  O   UNL     1       8.648  47.763  54.908  1.00  0.00    -0.383 OA
ATOM     16  C   UNL     1      10.016  47.378  54.866  1.00  0.00     0.194 C 
ENDBRANCH  14  15
ENDBRANCH  13  14
ENDBRANCH  11  13
ENDBRANCH   1  11
BRANCH   3  17
ATOM     17  N   UNL     1       3.569  44.677  51.414  1.00  0.00    -0.336 N 
ATOM     18  H   UNL     1       2.601  44.492  51.156  1.00  0.00     0.168 HD
BRANCH  17  19
ATOM     19  C   UNL     1       4.410  43.666  50.883  1.00  0.00     0.082 A 
ATOM     20  C   UNL     1       3.967  42.340  51.003  1.00  0.00     0.030 A 
ATOM     21  C   UNL     1       5.701  43.913  50.368  1.00  0.00     0.142 A 
ATOM     22  C   UNL     1       4.755  41.279  50.558  1.00  0.00     0.002 A 
ATOM     23  C   UNL     1       6.487  42.841  49.929  1.00  0.00     0.048 A 
ATOM     24  C   UNL     1       6.010  41.531  50.016  1.00  0.00     0.004 A 
BRANCH  21  25
ATOM     25  O   UNL     1       6.129  45.217  50.375  1.00  0.00    -0.495 OA
ATOM     26  C   UNL     1       7.533  45.437  50.390  1.00  0.00     0.278 C 
ENDBRANCH  21  25
ENDBRANCH  17  19
ENDBRANCH   3  17
TORSDOF 7
ENDMDL
MODEL 18
REMARK VINA RESULT:    -7.240      1.584      5.912
REMARK INTER + INTRA:         -10.936
REMARK INTER:                 -10.067
REMARK INTRA:                  -0.869
REMARK UNBOUND:                -0.733
REMARK SMILES COCCNc1nc(Nc2ccccc2OC)c2cnn(C)c2n1
REMARK SMILES IDX 6 1 7 2 8 3 18 4 19 5 20 6 21 7 22 8 23 9 24 10 5 11 4 13
REMARK SMILES IDX 3 14 2 15 1 16 9 17 10 19 11 20 15 21 12 22 14 23 13 24
REMARK SMILES IDX 16 25 17 26
REMARK H PARENT 5 12 9 18
ROOT
ATOM      1  C   UNL     1       5.521  45.697  51.962  1.00  0.00     0.226 A 
ATOM      2  N   UNL     1       4.542  44.947  52.500  1.00  0.00    -0.195 NA
ATOM      3  C   UNL     1       4.369  43.662  52.095  1.00  0.00     0.147 A 
ATOM      4  C   UNL     1       5.214  43.174  51.096  1.00  0.00     0.082 A 
ATOM      5  C   UNL     1       5.409  41.988  50.358  1.00  0.00     0.149 A 
ATOM      6  N   UNL     1       6.425  42.076  49.490  1.00  0.00    -0.179 NA
ATOM      7  N   UNL     1       6.874  43.340  49.671  1.00  0.00    -0.250 N 
ATOM      8  C   UNL     1       7.982  43.817  48.885  1.00  0.00     0.176 C 
ATOM      9  C   UNL     1       6.179  44.037  50.621  1.00  0.00     0.165 A 
ATOM     10  N   UNL     1       6.385  45.302  51.017  1.00  0.00    -0.193 NA
ENDROOT
BRANCH   1  11
ATOM     11  N   UNL     1       5.594  46.990  52.469  1.00  0.00    -0.352 N 
ATOM     12  H   UNL     1       4.882  47.026  53.192  1.00  0.00     0.163 HD
BRANCH  11  13
ATOM     13  C   UNL     1       6.917  47.413  52.909  1.00  0.00     0.144 C 
BRANCH  13  14
ATOM     14  C   UNL     1       7.311  46.779  54.247  1.00  0.00     0.181 C 
BRANCH  14  15
ATOM     15  O   UNL     1       8.259  47.627  54.905  1.00  0.00    -0.383 OA
ATOM     16  C   UNL     1       9.540  47.545  54.293  1.00  0.00     0.194 C 
ENDBRANCH  14  15
ENDBRANCH  13  14
ENDBRANCH  11  13
ENDBRANCH   1  11
BRANCH   3  17
ATOM     17  N   UNL     1       3.319  42.939  52.694  1.00  0.00    -0.336 N 
ATOM     18  H   UNL     1       3.495  41.966  52.450  1.00  0.00     0.168 HD
BRANCH  17  19
ATOM     19  C   UNL     1       1.935  43.223  52.569  1.00  0.00     0.082 A 
ATOM     20  C   UNL     1       1.335  42.941  51.332  1.00  0.00     0.030 A 
ATOM     21  C   UNL     1       1.179  43.880  53.564  1.00  0.00     0.142 A 
ATOM     22  C   UNL     1      -0.008  43.239  51.103  1.00  0.00     0.002 A 
ATOM     23  C   UNL     1      -0.167  44.179  53.322  1.00  0.00     0.048 A 
ATOM     24  C   UNL     1      -0.759  43.851  52.100  1.00  0.00     0.004 A 
BRANCH  21  25
ATOM     25  O   UNL     1       1.842  44.230  54.712  1.00  0.00    -0.495 OA
ATOM     26  C   UNL     1       1.195  45.156  55.576  1.00  0.00     0.278 C 
ENDBRANCH  21  25
ENDBRANCH  17  19
ENDBRANCH   3  17
TORSDOF 7
ENDMDL
MODEL 19
REMARK VINA RESULT:    -7.236      1.640      5.438
REMARK INTER + INTRA:         -10.929
REMARK INTER:                 -10.161
REMARK INTRA:                  -0.769
REMARK UNBOUND:                -0.733
REMARK SMILES COCCNc1nc(Nc2ccccc2OC)c2cnn(C)c2n1
REMARK SMILES IDX 6 1 7 2 8 3 18 4 19 5 20 6 21 7 22 8 23 9 24 10 5 11 4 13
REMARK SMILES IDX 3 14 2 15 1 16 9 17 10 19 11 20 15 21 12 22 14 23 13 24
REMARK SMILES IDX 16 25 17 26
REMARK H PARENT 5 12 9 18
ROOT
ATOM      1  C   UNL     1       6.896  45.677  50.979  1.00  0.00     0.226 A 
ATOM      2  N   UNL     1       5.862  46.298  51.577  1.00  0.00    -0.195 NA
ATOM      3  C   UNL     1       4.700  45.630  51.792  1.00  0.00     0.147 A 
ATOM      4  C   UNL     1       4.616  44.308  51.349  1.00  0.00     0.082 A 
ATOM      5  C   UNL     1       3.674  43.260  51.313  1.00  0.00     0.149 A 
ATOM      6  N   UNL     1       4.156  42.144  50.750  1.00  0.00    -0.179 NA
ATOM      7  N   UNL     1       5.419  42.494  50.412  1.00  0.00    -0.250 N 
ATOM      8  C   UNL     1       6.270  41.533  49.758  1.00  0.00     0.176 C 
ATOM      9  C   UNL     1       5.740  43.780  50.750  1.00  0.00     0.165 A 
ATOM     10  N   UNL     1       6.907  44.411  50.543  1.00  0.00    -0.193 NA
ENDROOT
BRANCH   1  11
ATOM     11  N   UNL     1       8.029  46.471  50.826  1.00  0.00    -0.352 N 
ATOM     12  H   UNL     1       7.811  47.086  50.048  1.00  0.00     0.163 HD
BRANCH  11  13
ATOM     13  C   UNL     1       8.473  47.161  52.029  1.00  0.00     0.144 C 
BRANCH  13  14
ATOM     14  C   UNL     1       9.905  46.778  52.420  1.00  0.00     0.181 C 
BRANCH  14  15
ATOM     15  O   UNL     1       9.956  46.538  53.831  1.00  0.00    -0.383 OA
ATOM     16  C   UNL     1       9.325  47.586  54.557  1.00  0.00     0.194 C 
ENDBRANCH  14  15
ENDBRANCH  13  14
ENDBRANCH  11  13
ENDBRANCH   1  11
BRANCH   3  17
ATOM     17  N   UNL     1       3.658  46.344  52.414  1.00  0.00    -0.336 N 
ATOM     18  H   UNL     1       4.088  47.205  52.747  1.00  0.00     0.168 HD
BRANCH  17  19
ATOM     19  C   UNL     1       2.774  45.836  53.402  1.00  0.00     0.082 A 
ATOM     20  C   UNL     1       1.450  45.591  53.007  1.00  0.00     0.030 A 
ATOM     21  C   UNL     1       3.122  45.692  54.762  1.00  0.00     0.142 A 
ATOM     22  C   UNL     1       0.501  45.143  53.926  1.00  0.00     0.002 A 
ATOM     23  C   UNL     1       2.160  45.247  55.678  1.00  0.00     0.048 A 
ATOM     24  C   UNL     1       0.859  44.966  55.257  1.00  0.00     0.004 A 
BRANCH  21  25
ATOM     25  O   UNL     1       4.399  46.050  55.114  1.00  0.00    -0.495 OA
ATOM     26  C   UNL     1       5.327  44.996  55.337  1.00  0.00     0.278 C 
ENDBRANCH  21  25
ENDBRANCH  17  19
ENDBRANCH   3  17
TORSDOF 7
ENDMDL
