MODEL 1
REMARK VINA RESULT:    -8.262      0.000      0.000
REMARK INTER + INTRA:         -12.223
REMARK INTER:                 -11.643
REMARK INTRA:                  -0.580
REMARK UNBOUND:                -0.580
REMARK SMILES CCCNc1nc(Nc2ccc(C(=O)OC)cc2)c2cnn(C)c2n1
REMARK SMILES IDX 5 1 6 2 7 3 19 4 20 5 21 6 22 7 23 8 24 9 25 10 4 11 3 13
REMARK SMILES IDX 2 14 1 15 8 16 9 18 10 19 18 20 11 21 17 22 12 23 13 24
REMARK SMILES IDX 14 25 15 26 16 27
REMARK H PARENT 4 12 8 17
ROOT
ATOM      1  C   UNL     1       4.187  42.595  50.958  1.00  0.00     0.226 A 
ATOM      2  N   UNL     1       5.299  43.345  50.835  1.00  0.00    -0.195 NA
ATOM      3  C   UNL     1       5.234  44.692  50.971  1.00  0.00     0.147 A 
ATOM      4  C   UNL     1       3.998  45.256  51.289  1.00  0.00     0.082 A 
ATOM      5  C   UNL     1       3.452  46.525  51.572  1.00  0.00     0.149 A 
ATOM      6  N   UNL     1       2.138  46.482  51.821  1.00  0.00    -0.179 NA
ATOM      7  N   UNL     1       1.845  45.165  51.705  1.00  0.00    -0.250 N 
ATOM      8  C   UNL     1       0.490  44.721  51.911  1.00  0.00     0.176 C 
ATOM      9  C   UNL     1       2.930  44.389  51.400  1.00  0.00     0.165 A 
ATOM     10  N   UNL     1       2.961  43.057  51.241  1.00  0.00    -0.193 NA
ENDROOT
BRANCH   1  11
ATOM     11  N   UNL     1       4.260  41.218  50.788  1.00  0.00    -0.354 N 
ATOM     12  H   UNL     1       5.249  40.994  50.795  1.00  0.00     0.163 HD
BRANCH  11  13
ATOM     13  C   UNL     1       3.512  40.669  49.670  1.00  0.00     0.116 C 
BRANCH  13  14
ATOM     14  C   UNL     1       4.314  40.784  48.374  1.00  0.00     0.018 C 
ATOM     15  C   UNL     1       3.584  40.135  47.210  1.00  0.00     0.006 C 
ENDBRANCH  13  14
ENDBRANCH  11  13
ENDBRANCH   1  11
BRANCH   3  16
ATOM     16  N   UNL     1       6.437  45.402  50.831  1.00  0.00    -0.339 N 
ATOM     17  H   UNL     1       6.310  46.021  50.031  1.00  0.00     0.168 HD
BRANCH  16  18
ATOM     18  C   UNL     1       7.181  46.045  51.842  1.00  0.00     0.040 A 
ATOM     19  C   UNL     1       8.420  46.655  51.610  1.00  0.00     0.027 A 
ATOM     20  C   UNL     1       6.698  45.997  53.155  1.00  0.00     0.027 A 
ATOM     21  C   UNL     1       9.136  47.241  52.659  1.00  0.00     0.018 A 
ATOM     22  C   UNL     1       7.409  46.582  54.210  1.00  0.00     0.018 A 
ATOM     23  C   UNL     1       8.634  47.212  53.965  1.00  0.00     0.060 A 
BRANCH  23  24
ATOM     24  C   UNL     1       9.438  47.850  55.044  1.00  0.00     0.337 C 
ATOM     25  O   UNL     1       9.105  48.875  55.615  1.00  0.00    -0.246 OA
BRANCH  24  26
ATOM     26  O   UNL     1      10.564  47.134  55.289  1.00  0.00    -0.465 OA
ATOM     27  C   UNL     1      11.240  47.511  56.489  1.00  0.00     0.282 C 
ENDBRANCH  24  26
ENDBRANCH  23  24
ENDBRANCH  16  18
ENDBRANCH   3  16
TORSDOF 7
ENDMDL
MODEL 2
REMARK VINA RESULT:    -8.117      1.642      2.048
REMARK INTER + INTRA:         -12.018
REMARK INTER:                 -11.223
REMARK INTRA:                  -0.795
REMARK UNBOUND:                -0.580
REMARK SMILES CCCNc1nc(Nc2ccc(C(=O)OC)cc2)c2cnn(C)c2n1
REMARK SMILES IDX 5 1 6 2 7 3 19 4 20 5 21 6 22 7 23 8 24 9 25 10 4 11 3 13
REMARK SMILES IDX 2 14 1 15 8 16 9 18 10 19 18 20 11 21 17 22 12 23 13 24
REMARK SMILES IDX 14 25 15 26 16 27
REMARK H PARENT 4 12 8 17
ROOT
ATOM      1  C   UNL     1       3.665  42.631  51.707  1.00  0.00     0.226 A 
ATOM      2  N   UNL     1       4.314  43.804  51.584  1.00  0.00    -0.195 NA
ATOM      3  C   UNL     1       3.736  44.954  52.009  1.00  0.00     0.147 A 
ATOM      4  C   UNL     1       2.483  44.867  52.616  1.00  0.00     0.082 A 
ATOM      5  C   UNL     1       1.544  45.716  53.238  1.00  0.00     0.149 A 
ATOM      6  N   UNL     1       0.455  45.064  53.662  1.00  0.00    -0.179 NA
ATOM      7  N   UNL     1       0.708  43.780  53.315  1.00  0.00    -0.250 N 
ATOM      8  C   UNL     1      -0.262  42.759  53.619  1.00  0.00     0.176 C 
ATOM      9  C   UNL     1       1.918  43.610  52.697  1.00  0.00     0.165 A 
ATOM     10  N   UNL     1       2.455  42.462  52.257  1.00  0.00    -0.193 NA
ENDROOT
BRANCH   1  11
ATOM     11  N   UNL     1       4.256  41.462  51.241  1.00  0.00    -0.354 N 
ATOM     12  H   UNL     1       4.912  41.181  51.962  1.00  0.00     0.163 HD
BRANCH  11  13
ATOM     13  C   UNL     1       4.803  41.511  49.896  1.00  0.00     0.116 C 
BRANCH  13  14
ATOM     14  C   UNL     1       6.331  41.497  49.934  1.00  0.00     0.018 C 
ATOM     15  C   UNL     1       6.911  42.806  49.424  1.00  0.00     0.006 C 
ENDBRANCH  13  14
ENDBRANCH  11  13
ENDBRANCH   1  11
BRANCH   3  16
ATOM     16  N   UNL     1       4.478  46.135  51.848  1.00  0.00    -0.339 N 
ATOM     17  H   UNL     1       3.840  46.902  52.054  1.00  0.00     0.168 HD
BRANCH  16  18
ATOM     18  C   UNL     1       5.768  46.417  52.343  1.00  0.00     0.040 A 
ATOM     19  C   UNL     1       6.927  46.307  51.566  1.00  0.00     0.027 A 
ATOM     20  C   UNL     1       5.903  46.740  53.699  1.00  0.00     0.027 A 
ATOM     21  C   UNL     1       8.186  46.557  52.121  1.00  0.00     0.018 A 
ATOM     22  C   UNL     1       7.160  46.993  54.261  1.00  0.00     0.018 A 
ATOM     23  C   UNL     1       8.311  46.906  53.471  1.00  0.00     0.060 A 
BRANCH  23  24
ATOM     24  C   UNL     1       9.676  47.160  54.011  1.00  0.00     0.337 C 
ATOM     25  O   UNL     1      10.700  46.916  53.394  1.00  0.00    -0.246 OA
BRANCH  24  26
ATOM     26  O   UNL     1       9.606  47.690  55.257  1.00  0.00    -0.465 OA
ATOM     27  C   UNL     1      10.813  47.561  56.010  1.00  0.00     0.282 C 
ENDBRANCH  24  26
ENDBRANCH  23  24
ENDBRANCH  16  18
ENDBRANCH   3  16
TORSDOF 7
ENDMDL
MODEL 3
REMARK VINA RESULT:    -8.073      2.056      2.711
REMARK INTER + INTRA:         -11.956
REMARK INTER:                 -11.240
REMARK INTRA:                  -0.716
REMARK UNBOUND:                -0.580
REMARK SMILES CCCNc1nc(Nc2ccc(C(=O)OC)cc2)c2cnn(C)c2n1
REMARK SMILES IDX 5 1 6 2 7 3 19 4 20 5 21 6 22 7 23 8 24 9 25 10 4 11 3 13
REMARK SMILES IDX 2 14 1 15 8 16 9 18 10 19 18 20 11 21 17 22 12 23 13 24
REMARK SMILES IDX 14 25 15 26 16 27
REMARK H PARENT 4 12 8 17
ROOT
ATOM      1  C   UNL     1       3.059  41.964  51.030  1.00  0.00     0.226 A 
ATOM      2  N   UNL     1       3.806  42.549  51.985  1.00  0.00    -0.195 NA
ATOM      3  C   UNL     1       3.317  43.598  52.689  1.00  0.00     0.147 A 
ATOM      4  C   UNL     1       2.009  44.007  52.425  1.00  0.00     0.082 A 
ATOM      5  C   UNL     1       1.079  44.956  52.898  1.00  0.00     0.149 A 
ATOM      6  N   UNL     1      -0.090  44.906  52.247  1.00  0.00    -0.179 NA
ATOM      7  N   UNL     1       0.097  43.905  51.354  1.00  0.00    -0.250 N 
ATOM      8  C   UNL     1      -0.973  43.549  50.456  1.00  0.00     0.176 C 
ATOM      9  C   UNL     1       1.335  43.326  51.432  1.00  0.00     0.165 A 
ATOM     10  N   UNL     1       1.806  42.306  50.700  1.00  0.00    -0.193 NA
ENDROOT
BRANCH   1  11
ATOM     11  N   UNL     1       3.581  40.907  50.293  1.00  0.00    -0.354 N 
ATOM     12  H   UNL     1       3.914  40.236  50.977  1.00  0.00     0.163 HD
BRANCH  11  13
ATOM     13  C   UNL     1       4.539  41.258  49.258  1.00  0.00     0.116 C 
BRANCH  13  14
ATOM     14  C   UNL     1       5.945  41.387  49.844  1.00  0.00     0.018 C 
ATOM     15  C   UNL     1       6.544  42.753  49.553  1.00  0.00     0.006 C 
ENDBRANCH  13  14
ENDBRANCH  11  13
ENDBRANCH   1  11
BRANCH   3  16
ATOM     16  N   UNL     1       4.158  44.152  53.668  1.00  0.00    -0.339 N 
ATOM     17  H   UNL     1       4.453  43.376  54.260  1.00  0.00     0.168 HD
BRANCH  16  18
ATOM     18  C   UNL     1       5.217  45.064  53.480  1.00  0.00     0.040 A 
ATOM     19  C   UNL     1       5.962  45.599  54.537  1.00  0.00     0.027 A 
ATOM     20  C   UNL     1       5.479  45.519  52.182  1.00  0.00     0.027 A 
ATOM     21  C   UNL     1       6.974  46.534  54.296  1.00  0.00     0.018 A 
ATOM     22  C   UNL     1       6.491  46.453  51.934  1.00  0.00     0.018 A 
ATOM     23  C   UNL     1       7.249  46.964  52.993  1.00  0.00     0.060 A 
BRANCH  23  24
ATOM     24  C   UNL     1       8.336  47.962  52.793  1.00  0.00     0.337 C 
ATOM     25  O   UNL     1       8.154  49.068  52.312  1.00  0.00    -0.246 OA
BRANCH  24  26
ATOM     26  O   UNL     1       9.525  47.466  53.218  1.00  0.00    -0.465 OA
ATOM     27  C   UNL     1      10.140  46.566  52.296  1.00  0.00     0.282 C 
ENDBRANCH  24  26
ENDBRANCH  23  24
ENDBRANCH  16  18
ENDBRANCH   3  16
TORSDOF 7
ENDMDL
MODEL 4
REMARK VINA RESULT:    -8.067      4.034      7.808
REMARK INTER + INTRA:         -11.948
REMARK INTER:                 -11.265
REMARK INTRA:                  -0.683
REMARK UNBOUND:                -0.580
REMARK SMILES CCCNc1nc(Nc2ccc(C(=O)OC)cc2)c2cnn(C)c2n1
REMARK SMILES IDX 5 1 6 2 7 3 19 4 20 5 21 6 22 7 23 8 24 9 25 10 4 11 3 13
REMARK SMILES IDX 2 14 1 15 8 16 9 18 10 19 18 20 11 21 17 22 12 23 13 24
REMARK SMILES IDX 14 25 15 26 16 27
REMARK H PARENT 4 12 8 17
ROOT
ATOM      1  C   UNL     1       8.023  47.083  52.440  1.00  0.00     0.226 A 
ATOM      2  N   UNL     1       6.819  47.423  52.939  1.00  0.00    -0.195 NA
ATOM      3  C   UNL     1       5.695  46.815  52.487  1.00  0.00     0.147 A 
ATOM      4  C   UNL     1       5.839  45.803  51.538  1.00  0.00     0.082 A 
ATOM      5  C   UNL     1       5.031  44.884  50.836  1.00  0.00     0.149 A 
ATOM      6  N   UNL     1       5.733  44.103  50.006  1.00  0.00    -0.179 NA
ATOM      7  N   UNL     1       7.007  44.524  50.189  1.00  0.00    -0.250 N 
ATOM      8  C   UNL     1       8.072  43.900  49.447  1.00  0.00     0.176 C 
ATOM      9  C   UNL     1       7.122  45.532  51.108  1.00  0.00     0.165 A 
ATOM     10  N   UNL     1       8.247  46.139  51.516  1.00  0.00    -0.193 NA
ENDROOT
BRANCH   1  11
ATOM     11  N   UNL     1       9.166  47.733  52.890  1.00  0.00    -0.354 N 
ATOM     12  H   UNL     1       9.709  47.938  52.058  1.00  0.00     0.163 HD
BRANCH  11  13
ATOM     13  C   UNL     1       9.900  47.076  53.958  1.00  0.00     0.116 C 
BRANCH  13  14
ATOM     14  C   UNL     1       9.816  47.888  55.250  1.00  0.00     0.018 C 
ATOM     15  C   UNL     1      10.951  47.540  56.200  1.00  0.00     0.006 C 
ENDBRANCH  13  14
ENDBRANCH  11  13
ENDBRANCH   1  11
BRANCH   3  16
ATOM     16  N   UNL     1       4.480  47.224  53.058  1.00  0.00    -0.339 N 
ATOM     17  H   UNL     1       4.179  48.042  52.530  1.00  0.00     0.168 HD
BRANCH  16  18
ATOM     18  C   UNL     1       3.372  46.419  53.398  1.00  0.00     0.040 A 
ATOM     19  C   UNL     1       3.378  45.526  54.476  1.00  0.00     0.027 A 
ATOM     20  C   UNL     1       2.246  46.454  52.567  1.00  0.00     0.027 A 
ATOM     21  C   UNL     1       2.267  44.720  54.742  1.00  0.00     0.018 A 
ATOM     22  C   UNL     1       1.130  45.651  52.828  1.00  0.00     0.018 A 
ATOM     23  C   UNL     1       1.133  44.779  53.923  1.00  0.00     0.060 A 
BRANCH  23  24
ATOM     24  C   UNL     1      -0.021  43.898  54.250  1.00  0.00     0.337 C 
ATOM     25  O   UNL     1      -1.021  44.286  54.831  1.00  0.00    -0.246 OA
BRANCH  24  26
ATOM     26  O   UNL     1       0.203  42.633  53.814  1.00  0.00    -0.465 OA
ATOM     27  C   UNL     1      -0.491  42.304  52.610  1.00  0.00     0.282 C 
ENDBRANCH  24  26
ENDBRANCH  23  24
ENDBRANCH  16  18
ENDBRANCH   3  16
TORSDOF 7
ENDMDL
MODEL 5
REMARK VINA RESULT:    -8.006      4.742      8.721
REMARK INTER + INTRA:         -11.863
REMARK INTER:                 -11.110
REMARK INTRA:                  -0.752
REMARK UNBOUND:                -0.580
REMARK SMILES CCCNc1nc(Nc2ccc(C(=O)OC)cc2)c2cnn(C)c2n1
REMARK SMILES IDX 5 1 6 2 7 3 19 4 20 5 21 6 22 7 23 8 24 9 25 10 4 11 3 13
REMARK SMILES IDX 2 14 1 15 8 16 9 18 10 19 18 20 11 21 17 22 12 23 13 24
REMARK SMILES IDX 14 25 15 26 16 27
REMARK H PARENT 4 12 8 17
ROOT
ATOM      1  C   UNL     1       6.824  44.920  50.687  1.00  0.00     0.226 A 
ATOM      2  N   UNL     1       6.913  43.869  49.850  1.00  0.00    -0.195 NA
ATOM      3  C   UNL     1       6.061  42.823  49.973  1.00  0.00     0.147 A 
ATOM      4  C   UNL     1       5.070  42.901  50.952  1.00  0.00     0.082 A 
ATOM      5  C   UNL     1       3.974  42.144  51.414  1.00  0.00     0.149 A 
ATOM      6  N   UNL     1       3.334  42.727  52.435  1.00  0.00    -0.179 NA
ATOM      7  N   UNL     1       4.026  43.875  52.619  1.00  0.00    -0.250 N 
ATOM      8  C   UNL     1       3.620  44.789  53.657  1.00  0.00     0.176 C 
ATOM      9  C   UNL     1       5.068  44.031  51.745  1.00  0.00     0.165 A 
ATOM     10  N   UNL     1       5.918  45.065  51.664  1.00  0.00    -0.193 NA
ENDROOT
BRANCH   1  11
ATOM     11  N   UNL     1       7.721  45.975  50.571  1.00  0.00    -0.354 N 
ATOM     12  H   UNL     1       8.543  45.586  50.120  1.00  0.00     0.163 HD
BRANCH  11  13
ATOM     13  C   UNL     1       7.984  46.730  51.784  1.00  0.00     0.116 C 
BRANCH  13  14
ATOM     14  C   UNL     1       9.488  46.898  52.001  1.00  0.00     0.018 C 
ATOM     15  C   UNL     1       9.822  47.061  53.474  1.00  0.00     0.006 C 
ENDBRANCH  13  14
ENDBRANCH  11  13
ENDBRANCH   1  11
BRANCH   3  16
ATOM     16  N   UNL     1       6.218  41.767  49.061  1.00  0.00    -0.339 N 
ATOM     17  H   UNL     1       6.431  40.940  49.618  1.00  0.00     0.168 HD
BRANCH  16  18
ATOM     18  C   UNL     1       5.381  41.432  47.977  1.00  0.00     0.040 A 
ATOM     19  C   UNL     1       4.262  40.601  48.103  1.00  0.00     0.027 A 
ATOM     20  C   UNL     1       5.736  41.884  46.699  1.00  0.00     0.027 A 
ATOM     21  C   UNL     1       3.490  40.266  46.985  1.00  0.00     0.018 A 
ATOM     22  C   UNL     1       4.967  41.554  45.577  1.00  0.00     0.018 A 
ATOM     23  C   UNL     1       3.835  40.744  45.715  1.00  0.00     0.060 A 
BRANCH  23  24
ATOM     24  C   UNL     1       2.980  40.355  44.559  1.00  0.00     0.337 C 
ATOM     25  O   UNL     1       3.415  39.829  43.547  1.00  0.00    -0.246 OA
BRANCH  24  26
ATOM     26  O   UNL     1       1.682  40.666  44.798  1.00  0.00    -0.465 OA
ATOM     27  C   UNL     1       1.368  42.044  44.588  1.00  0.00     0.282 C 
ENDBRANCH  24  26
ENDBRANCH  23  24
ENDBRANCH  16  18
ENDBRANCH   3  16
TORSDOF 7
ENDMDL
MODEL 6
REMARK VINA RESULT:    -7.992      1.976      2.722
REMARK INTER + INTRA:         -11.842
REMARK INTER:                 -11.050
REMARK INTRA:                  -0.792
REMARK UNBOUND:                -0.580
REMARK SMILES CCCNc1nc(Nc2ccc(C(=O)OC)cc2)c2cnn(C)c2n1
REMARK SMILES IDX 5 1 6 2 7 3 19 4 20 5 21 6 22 7 23 8 24 9 25 10 4 11 3 13
REMARK SMILES IDX 2 14 1 15 8 16 9 18 10 19 18 20 11 21 17 22 12 23 13 24
REMARK SMILES IDX 14 25 15 26 16 27
REMARK H PARENT 4 12 8 17
ROOT
ATOM      1  C   UNL     1       3.199  42.510  51.606  1.00  0.00     0.226 A 
ATOM      2  N   UNL     1       3.820  43.410  52.392  1.00  0.00    -0.195 NA
ATOM      3  C   UNL     1       3.174  44.533  52.788  1.00  0.00     0.147 A 
ATOM      4  C   UNL     1       1.844  44.692  52.398  1.00  0.00     0.082 A 
ATOM      5  C   UNL     1       0.785  45.604  52.587  1.00  0.00     0.149 A 
ATOM      6  N   UNL     1      -0.333  45.242  51.946  1.00  0.00    -0.179 NA
ATOM      7  N   UNL     1       0.017  44.078  51.349  1.00  0.00    -0.250 N 
ATOM      8  C   UNL     1      -0.953  43.373  50.551  1.00  0.00     0.176 C 
ATOM      9  C   UNL     1       1.308  43.701  51.602  1.00  0.00     0.165 A 
ATOM     10  N   UNL     1       1.934  42.596  51.171  1.00  0.00    -0.193 NA
ENDROOT
BRANCH   1  11
ATOM     11  N   UNL     1       3.880  41.376  51.181  1.00  0.00    -0.354 N 
ATOM     12  H   UNL     1       4.459  41.095  51.966  1.00  0.00     0.163 HD
BRANCH  11  13
ATOM     13  C   UNL     1       4.576  41.483  49.910  1.00  0.00     0.116 C 
BRANCH  13  14
ATOM     14  C   UNL     1       6.065  41.749  50.129  1.00  0.00     0.018 C 
ATOM     15  C   UNL     1       6.441  43.167  49.731  1.00  0.00     0.006 C 
ENDBRANCH  13  14
ENDBRANCH  11  13
ENDBRANCH   1  11
BRANCH   3  16
ATOM     16  N   UNL     1       3.890  45.421  53.608  1.00  0.00    -0.339 N 
ATOM     17  H   UNL     1       3.678  45.153  54.569  1.00  0.00     0.168 HD
BRANCH  16  18
ATOM     18  C   UNL     1       5.242  45.806  53.488  1.00  0.00     0.040 A 
ATOM     19  C   UNL     1       6.070  46.043  54.591  1.00  0.00     0.027 A 
ATOM     20  C   UNL     1       5.752  46.046  52.206  1.00  0.00     0.027 A 
ATOM     21  C   UNL     1       7.392  46.466  54.414  1.00  0.00     0.018 A 
ATOM     22  C   UNL     1       7.074  46.468  52.022  1.00  0.00     0.018 A 
ATOM     23  C   UNL     1       7.904  46.677  53.129  1.00  0.00     0.060 A 
BRANCH  23  24
ATOM     24  C   UNL     1       9.317  47.129  52.998  1.00  0.00     0.337 C 
ATOM     25  O   UNL     1       9.957  47.615  53.917  1.00  0.00    -0.246 OA
BRANCH  24  26
ATOM     26  O   UNL     1       9.771  46.922  51.736  1.00  0.00    -0.465 OA
ATOM     27  C   UNL     1      10.607  45.772  51.603  1.00  0.00     0.282 C 
ENDBRANCH  24  26
ENDBRANCH  23  24
ENDBRANCH  16  18
ENDBRANCH   3  16
TORSDOF 7
ENDMDL
MODEL 7
REMARK VINA RESULT:    -7.988      4.106      7.870
REMARK INTER + INTRA:         -11.837
REMARK INTER:                 -11.201
REMARK INTRA:                  -0.635
REMARK UNBOUND:                -0.580
REMARK SMILES CCCNc1nc(Nc2ccc(C(=O)OC)cc2)c2cnn(C)c2n1
REMARK SMILES IDX 5 1 6 2 7 3 19 4 20 5 21 6 22 7 23 8 24 9 25 10 4 11 3 13
REMARK SMILES IDX 2 14 1 15 8 16 9 18 10 19 18 20 11 21 17 22 12 23 13 24
REMARK SMILES IDX 14 25 15 26 16 27
REMARK H PARENT 4 12 8 17
ROOT
ATOM      1  C   UNL     1       7.955  47.212  52.541  1.00  0.00     0.226 A 
ATOM      2  N   UNL     1       6.739  47.498  53.044  1.00  0.00    -0.195 NA
ATOM      3  C   UNL     1       5.639  46.859  52.578  1.00  0.00     0.147 A 
ATOM      4  C   UNL     1       5.820  45.872  51.608  1.00  0.00     0.082 A 
ATOM      5  C   UNL     1       5.047  44.940  50.886  1.00  0.00     0.149 A 
ATOM      6  N   UNL     1       5.778  44.203  50.041  1.00  0.00    -0.179 NA
ATOM      7  N   UNL     1       7.036  44.666  50.235  1.00  0.00    -0.250 N 
ATOM      8  C   UNL     1       8.124  44.096  49.482  1.00  0.00     0.176 C 
ATOM      9  C   UNL     1       7.113  45.658  51.175  1.00  0.00     0.165 A 
ATOM     10  N   UNL     1       8.214  46.297  51.598  1.00  0.00    -0.193 NA
ENDROOT
BRANCH   1  11
ATOM     11  N   UNL     1       9.073  47.894  53.007  1.00  0.00    -0.354 N 
ATOM     12  H   UNL     1       9.569  48.204  52.178  1.00  0.00     0.163 HD
BRANCH  11  13
ATOM     13  C   UNL     1       9.887  47.197  53.988  1.00  0.00     0.116 C 
BRANCH  13  14
ATOM     14  C   UNL     1       9.826  47.905  55.341  1.00  0.00     0.018 C 
ATOM     15  C   UNL     1      11.023  47.548  56.208  1.00  0.00     0.006 C 
ENDBRANCH  13  14
ENDBRANCH  11  13
ENDBRANCH   1  11
BRANCH   3  16
ATOM     16  N   UNL     1       4.408  47.211  53.155  1.00  0.00    -0.339 N 
ATOM     17  H   UNL     1       4.117  48.074  52.697  1.00  0.00     0.168 HD
BRANCH  16  18
ATOM     18  C   UNL     1       3.296  46.376  53.392  1.00  0.00     0.040 A 
ATOM     19  C   UNL     1       3.273  45.401  54.396  1.00  0.00     0.027 A 
ATOM     20  C   UNL     1       2.198  46.471  52.529  1.00  0.00     0.027 A 
ATOM     21  C   UNL     1       2.160  44.570  54.560  1.00  0.00     0.018 A 
ATOM     22  C   UNL     1       1.080  45.644  52.688  1.00  0.00     0.018 A 
ATOM     23  C   UNL     1       1.054  44.689  53.710  1.00  0.00     0.060 A 
BRANCH  23  24
ATOM     24  C   UNL     1      -0.104  43.778  53.927  1.00  0.00     0.337 C 
ATOM     25  O   UNL     1      -0.056  42.573  53.747  1.00  0.00    -0.246 OA
BRANCH  24  26
ATOM     26  O   UNL     1      -1.190  44.476  54.346  1.00  0.00    -0.465 OA
ATOM     27  C   UNL     1      -1.272  44.622  55.764  1.00  0.00     0.282 C 
ENDBRANCH  24  26
ENDBRANCH  23  24
ENDBRANCH  16  18
ENDBRANCH   3  16
TORSDOF 7
ENDMDL
MODEL 8
REMARK VINA RESULT:    -7.956      1.472      1.815
REMARK INTER + INTRA:         -11.792
REMARK INTER:                 -11.499
REMARK INTRA:                  -0.292
REMARK UNBOUND:                -0.580
REMARK SMILES CCCNc1nc(Nc2ccc(C(=O)OC)cc2)c2cnn(C)c2n1
REMARK SMILES IDX 5 1 6 2 7 3 19 4 20 5 21 6 22 7 23 8 24 9 25 10 4 11 3 13
REMARK SMILES IDX 2 14 1 15 8 16 9 18 10 19 18 20 11 21 17 22 12 23 13 24
REMARK SMILES IDX 14 25 15 26 16 27
REMARK H PARENT 4 12 8 17
ROOT
ATOM      1  C   UNL     1       5.968  42.518  49.587  1.00  0.00     0.226 A 
ATOM      2  N   UNL     1       6.779  43.590  49.669  1.00  0.00    -0.195 NA
ATOM      3  C   UNL     1       6.453  44.636  50.467  1.00  0.00     0.147 A 
ATOM      4  C   UNL     1       5.287  44.535  51.228  1.00  0.00     0.082 A 
ATOM      5  C   UNL     1       4.584  45.284  52.194  1.00  0.00     0.149 A 
ATOM      6  N   UNL     1       3.464  44.677  52.607  1.00  0.00    -0.179 NA
ATOM      7  N   UNL     1       3.461  43.522  51.901  1.00  0.00    -0.250 N 
ATOM      8  C   UNL     1       2.383  42.584  52.084  1.00  0.00     0.176 C 
ATOM      9  C   UNL     1       4.540  43.385  51.070  1.00  0.00     0.165 A 
ATOM     10  N   UNL     1       4.825  42.351  50.266  1.00  0.00    -0.193 NA
ENDROOT
BRANCH   1  11
ATOM     11  N   UNL     1       6.299  41.464  48.744  1.00  0.00    -0.354 N 
ATOM     12  H   UNL     1       7.246  41.650  48.431  1.00  0.00     0.163 HD
BRANCH  11  13
ATOM     13  C   UNL     1       5.348  41.167  47.686  1.00  0.00     0.116 C 
BRANCH  13  14
ATOM     14  C   UNL     1       5.698  41.938  46.413  1.00  0.00     0.018 C 
ATOM     15  C   UNL     1       4.722  41.627  45.290  1.00  0.00     0.006 C 
ENDBRANCH  13  14
ENDBRANCH  11  13
ENDBRANCH   1  11
BRANCH   3  16
ATOM     16  N   UNL     1       7.351  45.714  50.498  1.00  0.00    -0.339 N 
ATOM     17  H   UNL     1       6.944  46.440  49.909  1.00  0.00     0.168 HD
BRANCH  16  18
ATOM     18  C   UNL     1       7.975  46.284  51.628  1.00  0.00     0.040 A 
ATOM     19  C   UNL     1       9.302  46.020  51.983  1.00  0.00     0.027 A 
ATOM     20  C   UNL     1       7.203  47.085  52.479  1.00  0.00     0.027 A 
ATOM     21  C   UNL     1       9.858  46.579  53.139  1.00  0.00     0.018 A 
ATOM     22  C   UNL     1       7.753  47.649  53.636  1.00  0.00     0.018 A 
ATOM     23  C   UNL     1       9.088  47.400  53.971  1.00  0.00     0.060 A 
BRANCH  23  24
ATOM     24  C   UNL     1       9.729  47.968  55.190  1.00  0.00     0.337 C 
ATOM     25  O   UNL     1       9.239  48.870  55.850  1.00  0.00    -0.246 OA
BRANCH  24  26
ATOM     26  O   UNL     1      10.906  47.345  55.447  1.00  0.00    -0.465 OA
ATOM     27  C   UNL     1      11.413  47.584  56.761  1.00  0.00     0.282 C 
ENDBRANCH  24  26
ENDBRANCH  23  24
ENDBRANCH  16  18
ENDBRANCH   3  16
TORSDOF 7
ENDMDL
MODEL 9
REMARK VINA RESULT:    -7.933      1.417      3.868
REMARK INTER + INTRA:         -11.759
REMARK INTER:                 -11.316
REMARK INTRA:                  -0.443
REMARK UNBOUND:                -0.580
REMARK SMILES CCCNc1nc(Nc2ccc(C(=O)OC)cc2)c2cnn(C)c2n1
REMARK SMILES IDX 5 1 6 2 7 3 19 4 20 5 21 6 22 7 23 8 24 9 25 10 4 11 3 13
REMARK SMILES IDX 2 14 1 15 8 16 9 18 10 19 18 20 11 21 17 22 12 23 13 24
REMARK SMILES IDX 14 25 15 26 16 27
REMARK H PARENT 4 12 8 17
ROOT
ATOM      1  C   UNL     1       3.596  44.356  51.653  1.00  0.00     0.226 A 
ATOM      2  N   UNL     1       4.724  45.080  51.524  1.00  0.00    -0.195 NA
ATOM      3  C   UNL     1       5.788  44.575  50.853  1.00  0.00     0.147 A 
ATOM      4  C   UNL     1       5.650  43.317  50.266  1.00  0.00     0.082 A 
ATOM      5  C   UNL     1       6.401  42.432  49.465  1.00  0.00     0.149 A 
ATOM      6  N   UNL     1       5.743  41.302  49.180  1.00  0.00    -0.179 NA
ATOM      7  N   UNL     1       4.552  41.474  49.802  1.00  0.00    -0.250 N 
ATOM      8  C   UNL     1       3.554  40.439  49.717  1.00  0.00     0.176 C 
ATOM      9  C   UNL     1       4.444  42.672  50.455  1.00  0.00     0.165 A 
ATOM     10  N   UNL     1       3.388  43.136  51.139  1.00  0.00    -0.193 NA
ENDROOT
BRANCH   1  11
ATOM     11  N   UNL     1       2.521  44.872  52.368  1.00  0.00    -0.354 N 
ATOM     12  H   UNL     1       1.835  45.143  51.672  1.00  0.00     0.163 HD
BRANCH  11  13
ATOM     13  C   UNL     1       2.837  45.892  53.353  1.00  0.00     0.116 C 
BRANCH  13  14
ATOM     14  C   UNL     1       2.900  45.287  54.756  1.00  0.00     0.018 C 
ATOM     15  C   UNL     1       4.313  45.324  55.313  1.00  0.00     0.006 C 
ENDBRANCH  13  14
ENDBRANCH  11  13
ENDBRANCH   1  11
BRANCH   3  16
ATOM     16  N   UNL     1       6.926  45.392  50.762  1.00  0.00    -0.339 N 
ATOM     17  H   UNL     1       6.752  46.036  49.991  1.00  0.00     0.168 HD
BRANCH  16  18
ATOM     18  C   UNL     1       7.604  46.046  51.811  1.00  0.00     0.040 A 
ATOM     19  C   UNL     1       8.978  46.312  51.785  1.00  0.00     0.027 A 
ATOM     20  C   UNL     1       6.884  46.368  52.969  1.00  0.00     0.027 A 
ATOM     21  C   UNL     1       9.608  46.926  52.873  1.00  0.00     0.018 A 
ATOM     22  C   UNL     1       7.508  46.983  54.060  1.00  0.00     0.018 A 
ATOM     23  C   UNL     1       8.877  47.269  54.016  1.00  0.00     0.060 A 
BRANCH  23  24
ATOM     24  C   UNL     1       9.598  47.919  55.146  1.00  0.00     0.337 C 
ATOM     25  O   UNL     1       9.151  48.864  55.775  1.00  0.00    -0.246 OA
BRANCH  24  26
ATOM     26  O   UNL     1      10.793  47.315  55.362  1.00  0.00    -0.465 OA
ATOM     27  C   UNL     1      11.325  47.536  56.669  1.00  0.00     0.282 C 
ENDBRANCH  24  26
ENDBRANCH  23  24
ENDBRANCH  16  18
ENDBRANCH   3  16
TORSDOF 7
ENDMDL
MODEL 10
REMARK VINA RESULT:    -7.837      3.696      7.124
REMARK INTER + INTRA:         -11.624
REMARK INTER:                 -10.877
REMARK INTRA:                  -0.748
REMARK UNBOUND:                -0.580
REMARK SMILES CCCNc1nc(Nc2ccc(C(=O)OC)cc2)c2cnn(C)c2n1
REMARK SMILES IDX 5 1 6 2 7 3 19 4 20 5 21 6 22 7 23 8 24 9 25 10 4 11 3 13
REMARK SMILES IDX 2 14 1 15 8 16 9 18 10 19 18 20 11 21 17 22 12 23 13 24
REMARK SMILES IDX 14 25 15 26 16 27
REMARK H PARENT 4 12 8 17
ROOT
ATOM      1  C   UNL     1       7.043  45.684  50.970  1.00  0.00     0.226 A 
ATOM      2  N   UNL     1       6.000  46.352  51.498  1.00  0.00    -0.195 NA
ATOM      3  C   UNL     1       4.796  45.745  51.633  1.00  0.00     0.147 A 
ATOM      4  C   UNL     1       4.696  44.405  51.257  1.00  0.00     0.082 A 
ATOM      5  C   UNL     1       3.735  43.373  51.254  1.00  0.00     0.149 A 
ATOM      6  N   UNL     1       4.207  42.225  50.752  1.00  0.00    -0.179 NA
ATOM      7  N   UNL     1       5.489  42.529  50.441  1.00  0.00    -0.250 N 
ATOM      8  C   UNL     1       6.336  41.515  49.865  1.00  0.00     0.176 C 
ATOM      9  C   UNL     1       5.833  43.820  50.738  1.00  0.00     0.165 A 
ATOM     10  N   UNL     1       7.027  44.406  50.566  1.00  0.00    -0.193 NA
ENDROOT
BRANCH   1  11
ATOM     11  N   UNL     1       8.265  46.325  50.809  1.00  0.00    -0.354 N 
ATOM     12  H   UNL     1       8.932  45.592  50.590  1.00  0.00     0.163 HD
BRANCH  11  13
ATOM     13  C   UNL     1       8.665  47.221  51.880  1.00  0.00     0.116 C 
BRANCH  13  14
ATOM     14  C   UNL     1       9.803  46.610  52.699  1.00  0.00     0.018 C 
ATOM     15  C   UNL     1       9.920  47.269  54.064  1.00  0.00     0.006 C 
ENDBRANCH  13  14
ENDBRANCH  11  13
ENDBRANCH   1  11
BRANCH   3  16
ATOM     16  N   UNL     1       3.760  46.509  52.195  1.00  0.00    -0.339 N 
ATOM     17  H   UNL     1       3.223  46.878  51.411  1.00  0.00     0.168 HD
BRANCH  16  18
ATOM     18  C   UNL     1       2.905  46.152  53.258  1.00  0.00     0.040 A 
ATOM     19  C   UNL     1       3.341  46.035  54.583  1.00  0.00     0.027 A 
ATOM     20  C   UNL     1       1.578  45.818  52.960  1.00  0.00     0.027 A 
ATOM     21  C   UNL     1       2.459  45.636  55.593  1.00  0.00     0.018 A 
ATOM     22  C   UNL     1       0.690  45.419  53.966  1.00  0.00     0.018 A 
ATOM     23  C   UNL     1       1.126  45.329  55.292  1.00  0.00     0.060 A 
BRANCH  23  24
ATOM     24  C   UNL     1       0.230  44.908  56.404  1.00  0.00     0.337 C 
ATOM     25  O   UNL     1       0.534  44.995  57.583  1.00  0.00    -0.246 OA
BRANCH  24  26
ATOM     26  O   UNL     1      -0.942  44.428  55.920  1.00  0.00    -0.465 OA
ATOM     27  C   UNL     1      -1.970  44.309  56.903  1.00  0.00     0.282 C 
ENDBRANCH  24  26
ENDBRANCH  23  24
ENDBRANCH  16  18
ENDBRANCH   3  16
TORSDOF 7
ENDMDL
MODEL 11
REMARK VINA RESULT:    -7.837      3.284      4.453
REMARK INTER + INTRA:         -11.624
REMARK INTER:                 -10.675
REMARK INTRA:                  -0.948
REMARK UNBOUND:                -0.580
REMARK SMILES CCCNc1nc(Nc2ccc(C(=O)OC)cc2)c2cnn(C)c2n1
REMARK SMILES IDX 5 1 6 2 7 3 19 4 20 5 21 6 22 7 23 8 24 9 25 10 4 11 3 13
REMARK SMILES IDX 2 14 1 15 8 16 9 18 10 19 18 20 11 21 17 22 12 23 13 24
REMARK SMILES IDX 14 25 15 26 16 27
REMARK H PARENT 4 12 8 17
ROOT
ATOM      1  C   UNL     1       1.299  43.524  53.690  1.00  0.00     0.226 A 
ATOM      2  N   UNL     1       2.382  44.160  54.176  1.00  0.00    -0.195 NA
ATOM      3  C   UNL     1       2.279  44.940  55.279  1.00  0.00     0.147 A 
ATOM      4  C   UNL     1       1.038  45.015  55.911  1.00  0.00     0.082 A 
ATOM      5  C   UNL     1       0.462  45.611  57.052  1.00  0.00     0.149 A 
ATOM      6  N   UNL     1      -0.841  45.335  57.182  1.00  0.00    -0.179 NA
ATOM      7  N   UNL     1      -1.096  44.543  56.113  1.00  0.00    -0.250 N 
ATOM      8  C   UNL     1      -2.429  44.034  55.912  1.00  0.00     0.176 C 
ATOM      9  C   UNL     1       0.002  44.312  55.329  1.00  0.00     0.165 A 
ATOM     10  N   UNL     1       0.070  43.558  54.222  1.00  0.00    -0.193 NA
ENDROOT
BRANCH   1  11
ATOM     11  N   UNL     1       1.410  42.749  52.542  1.00  0.00    -0.354 N 
ATOM     12  H   UNL     1       1.715  41.835  52.857  1.00  0.00     0.163 HD
BRANCH  11  13
ATOM     13  C   UNL     1       2.191  43.319  51.457  1.00  0.00     0.116 C 
BRANCH  13  14
ATOM     14  C   UNL     1       3.527  42.590  51.313  1.00  0.00     0.018 C 
ATOM     15  C   UNL     1       4.699  43.535  51.520  1.00  0.00     0.006 C 
ENDBRANCH  13  14
ENDBRANCH  11  13
ENDBRANCH   1  11
BRANCH   3  16
ATOM     16  N   UNL     1       3.454  45.568  55.724  1.00  0.00    -0.339 N 
ATOM     17  H   UNL     1       3.830  44.976  56.463  1.00  0.00     0.168 HD
BRANCH  16  18
ATOM     18  C   UNL     1       4.497  46.102  54.938  1.00  0.00     0.040 A 
ATOM     19  C   UNL     1       4.314  47.162  54.043  1.00  0.00     0.027 A 
ATOM     20  C   UNL     1       5.754  45.486  54.996  1.00  0.00     0.027 A 
ATOM     21  C   UNL     1       5.374  47.624  53.256  1.00  0.00     0.018 A 
ATOM     22  C   UNL     1       6.819  45.945  54.212  1.00  0.00     0.018 A 
ATOM     23  C   UNL     1       6.635  47.021  53.338  1.00  0.00     0.060 A 
BRANCH  23  24
ATOM     24  C   UNL     1       7.728  47.552  52.477  1.00  0.00     0.337 C 
ATOM     25  O   UNL     1       7.974  48.741  52.357  1.00  0.00    -0.246 OA
BRANCH  24  26
ATOM     26  O   UNL     1       8.391  46.538  51.866  1.00  0.00    -0.465 OA
ATOM     27  C   UNL     1       9.806  46.573  52.056  1.00  0.00     0.282 C 
ENDBRANCH  24  26
ENDBRANCH  23  24
ENDBRANCH  16  18
ENDBRANCH   3  16
TORSDOF 7
ENDMDL
MODEL 12
REMARK VINA RESULT:    -7.804      3.995      7.679
REMARK INTER + INTRA:         -11.578
REMARK INTER:                 -10.942
REMARK INTRA:                  -0.636
REMARK UNBOUND:                -0.580
REMARK SMILES CCCNc1nc(Nc2ccc(C(=O)OC)cc2)c2cnn(C)c2n1
REMARK SMILES IDX 5 1 6 2 7 3 19 4 20 5 21 6 22 7 23 8 24 9 25 10 4 11 3 13
REMARK SMILES IDX 2 14 1 15 8 16 9 18 10 19 18 20 11 21 17 22 12 23 13 24
REMARK SMILES IDX 14 25 15 26 16 27
REMARK H PARENT 4 12 8 17
ROOT
ATOM      1  C   UNL     1       6.229  46.963  54.214  1.00  0.00     0.226 A 
ATOM      2  N   UNL     1       6.107  46.490  52.959  1.00  0.00    -0.195 NA
ATOM      3  C   UNL     1       7.207  46.293  52.193  1.00  0.00     0.147 A 
ATOM      4  C   UNL     1       8.454  46.546  52.765  1.00  0.00     0.082 A 
ATOM      5  C   UNL     1       9.818  46.451  52.421  1.00  0.00     0.149 A 
ATOM      6  N   UNL     1      10.632  46.850  53.406  1.00  0.00    -0.179 NA
ATOM      7  N   UNL     1       9.773  47.196  54.394  1.00  0.00    -0.250 N 
ATOM      8  C   UNL     1      10.295  47.685  55.645  1.00  0.00     0.176 C 
ATOM      9  C   UNL     1       8.458  47.019  54.062  1.00  0.00     0.165 A 
ATOM     10  N   UNL     1       7.384  47.251  54.831  1.00  0.00    -0.193 NA
ENDROOT
BRANCH   1  11
ATOM     11  N   UNL     1       5.093  47.189  54.981  1.00  0.00    -0.354 N 
ATOM     12  H   UNL     1       5.284  46.766  55.884  1.00  0.00     0.163 HD
BRANCH  11  13
ATOM     13  C   UNL     1       3.826  46.809  54.379  1.00  0.00     0.116 C 
BRANCH  13  14
ATOM     14  C   UNL     1       3.303  45.511  54.995  1.00  0.00     0.018 C 
ATOM     15  C   UNL     1       2.777  44.563  53.930  1.00  0.00     0.006 C 
ENDBRANCH  13  14
ENDBRANCH  11  13
ENDBRANCH   1  11
BRANCH   3  16
ATOM     16  N   UNL     1       6.996  45.795  50.897  1.00  0.00    -0.339 N 
ATOM     17  H   UNL     1       7.899  45.837  50.426  1.00  0.00     0.168 HD
BRANCH  16  18
ATOM     18  C   UNL     1       6.297  44.628  50.524  1.00  0.00     0.040 A 
ATOM     19  C   UNL     1       5.017  44.319  51.000  1.00  0.00     0.027 A 
ATOM     20  C   UNL     1       6.948  43.696  49.707  1.00  0.00     0.027 A 
ATOM     21  C   UNL     1       4.387  43.126  50.632  1.00  0.00     0.018 A 
ATOM     22  C   UNL     1       6.322  42.501  49.334  1.00  0.00     0.018 A 
ATOM     23  C   UNL     1       5.033  42.211  49.793  1.00  0.00     0.060 A 
BRANCH  23  24
ATOM     24  C   UNL     1       4.317  40.956  49.433  1.00  0.00     0.337 C 
ATOM     25  O   UNL     1       3.578  40.359  50.199  1.00  0.00    -0.246 OA
BRANCH  24  26
ATOM     26  O   UNL     1       4.603  40.589  48.159  1.00  0.00    -0.465 OA
ATOM     27  C   UNL     1       3.454  40.251  47.381  1.00  0.00     0.282 C 
ENDBRANCH  24  26
ENDBRANCH  23  24
ENDBRANCH  16  18
ENDBRANCH   3  16
TORSDOF 7
ENDMDL
MODEL 13
REMARK VINA RESULT:    -7.710      3.606      4.927
REMARK INTER + INTRA:         -11.445
REMARK INTER:                 -10.507
REMARK INTRA:                  -0.939
REMARK UNBOUND:                -0.580
REMARK SMILES CCCNc1nc(Nc2ccc(C(=O)OC)cc2)c2cnn(C)c2n1
REMARK SMILES IDX 5 1 6 2 7 3 19 4 20 5 21 6 22 7 23 8 24 9 25 10 4 11 3 13
REMARK SMILES IDX 2 14 1 15 8 16 9 18 10 19 18 20 11 21 17 22 12 23 13 24
REMARK SMILES IDX 14 25 15 26 16 27
REMARK H PARENT 4 12 8 17
ROOT
ATOM      1  C   UNL     1       0.841  43.964  54.174  1.00  0.00     0.226 A 
ATOM      2  N   UNL     1       2.032  44.458  54.563  1.00  0.00    -0.195 NA
ATOM      3  C   UNL     1       2.119  45.251  55.658  1.00  0.00     0.147 A 
ATOM      4  C   UNL     1       0.952  45.487  56.386  1.00  0.00     0.082 A 
ATOM      5  C   UNL     1       0.551  46.158  57.560  1.00  0.00     0.149 A 
ATOM      6  N   UNL     1      -0.762  46.052  57.796  1.00  0.00    -0.179 NA
ATOM      7  N   UNL     1      -1.201  45.294  56.764  1.00  0.00    -0.250 N 
ATOM      8  C   UNL     1      -2.600  44.959  56.677  1.00  0.00     0.176 C 
ATOM      9  C   UNL     1      -0.209  44.920  55.899  1.00  0.00     0.165 A 
ATOM     10  N   UNL     1      -0.327  44.158  54.802  1.00  0.00    -0.193 NA
ENDROOT
BRANCH   1  11
ATOM     11  N   UNL     1       0.759  43.176  53.032  1.00  0.00    -0.354 N 
ATOM     12  H   UNL     1       0.576  42.234  53.363  1.00  0.00     0.163 HD
BRANCH  11  13
ATOM     13  C   UNL     1       1.858  43.296  52.090  1.00  0.00     0.116 C 
BRANCH  13  14
ATOM     14  C   UNL     1       1.634  44.478  51.147  1.00  0.00     0.018 C 
ATOM     15  C   UNL     1       2.813  45.438  51.171  1.00  0.00     0.006 C 
ENDBRANCH  13  14
ENDBRANCH  11  13
ENDBRANCH   1  11
BRANCH   3  16
ATOM     16  N   UNL     1       3.396  45.725  55.999  1.00  0.00    -0.339 N 
ATOM     17  H   UNL     1       3.755  45.088  56.709  1.00  0.00     0.168 HD
BRANCH  16  18
ATOM     18  C   UNL     1       4.428  46.126  55.125  1.00  0.00     0.040 A 
ATOM     19  C   UNL     1       5.677  45.498  55.078  1.00  0.00     0.027 A 
ATOM     20  C   UNL     1       4.221  47.259  54.329  1.00  0.00     0.027 A 
ATOM     21  C   UNL     1       6.681  45.965  54.222  1.00  0.00     0.018 A 
ATOM     22  C   UNL     1       5.220  47.731  53.469  1.00  0.00     0.018 A 
ATOM     23  C   UNL     1       6.457  47.082  53.409  1.00  0.00     0.060 A 
BRANCH  23  24
ATOM     24  C   UNL     1       7.560  47.538  52.518  1.00  0.00     0.337 C 
ATOM     25  O   UNL     1       7.845  48.712  52.346  1.00  0.00    -0.246 OA
BRANCH  24  26
ATOM     26  O   UNL     1       8.181  46.478  51.944  1.00  0.00    -0.465 OA
ATOM     27  C   UNL     1       9.607  46.560  51.968  1.00  0.00     0.282 C 
ENDBRANCH  24  26
ENDBRANCH  23  24
ENDBRANCH  16  18
ENDBRANCH   3  16
TORSDOF 7
ENDMDL
MODEL 14
REMARK VINA RESULT:    -7.658      2.750      5.079
REMARK INTER + INTRA:         -11.372
REMARK INTER:                 -10.586
REMARK INTRA:                  -0.786
REMARK UNBOUND:                -0.580
REMARK SMILES CCCNc1nc(Nc2ccc(C(=O)OC)cc2)c2cnn(C)c2n1
REMARK SMILES IDX 5 1 6 2 7 3 19 4 20 5 21 6 22 7 23 8 24 9 25 10 4 11 3 13
REMARK SMILES IDX 2 14 1 15 8 16 9 18 10 19 18 20 11 21 17 22 12 23 13 24
REMARK SMILES IDX 14 25 15 26 16 27
REMARK H PARENT 4 12 8 17
ROOT
ATOM      1  C   UNL     1       0.714  45.010  54.314  1.00  0.00     0.226 A 
ATOM      2  N   UNL     1       2.045  44.860  54.455  1.00  0.00    -0.195 NA
ATOM      3  C   UNL     1       2.759  44.184  53.522  1.00  0.00     0.147 A 
ATOM      4  C   UNL     1       2.079  43.703  52.403  1.00  0.00     0.082 A 
ATOM      5  C   UNL     1       2.363  43.026  51.199  1.00  0.00     0.149 A 
ATOM      6  N   UNL     1       1.272  42.809  50.455  1.00  0.00    -0.179 NA
ATOM      7  N   UNL     1       0.281  43.365  51.191  1.00  0.00    -0.250 N 
ATOM      8  C   UNL     1      -1.072  43.328  50.698  1.00  0.00     0.176 C 
ATOM      9  C   UNL     1       0.717  43.925  52.361  1.00  0.00     0.165 A 
ATOM     10  N   UNL     1      -0.017  44.564  53.283  1.00  0.00    -0.193 NA
ENDROOT
BRANCH   1  11
ATOM     11  N   UNL     1      -0.013  45.680  55.291  1.00  0.00    -0.354 N 
ATOM     12  H   UNL     1       0.317  46.639  55.267  1.00  0.00     0.163 HD
BRANCH  11  13
ATOM     13  C   UNL     1      -0.034  45.067  56.608  1.00  0.00     0.116 C 
BRANCH  13  14
ATOM     14  C   UNL     1      -1.471  44.811  57.062  1.00  0.00     0.018 C 
ATOM     15  C   UNL     1      -2.169  43.810  56.155  1.00  0.00     0.006 C 
ENDBRANCH  13  14
ENDBRANCH  11  13
ENDBRANCH   1  11
BRANCH   3  16
ATOM     16  N   UNL     1       4.142  44.072  53.741  1.00  0.00    -0.339 N 
ATOM     17  H   UNL     1       4.401  43.133  53.442  1.00  0.00     0.168 HD
BRANCH  16  18
ATOM     18  C   UNL     1       5.147  44.999  53.393  1.00  0.00     0.040 A 
ATOM     19  C   UNL     1       5.696  45.909  54.304  1.00  0.00     0.027 A 
ATOM     20  C   UNL     1       5.553  45.067  52.055  1.00  0.00     0.027 A 
ATOM     21  C   UNL     1       6.661  46.836  53.895  1.00  0.00     0.018 A 
ATOM     22  C   UNL     1       6.519  45.991  51.639  1.00  0.00     0.018 A 
ATOM     23  C   UNL     1       7.082  46.881  52.561  1.00  0.00     0.060 A 
BRANCH  23  24
ATOM     24  C   UNL     1       8.110  47.888  52.179  1.00  0.00     0.337 C 
ATOM     25  O   UNL     1       7.976  49.087  52.358  1.00  0.00    -0.246 OA
BRANCH  24  26
ATOM     26  O   UNL     1       9.187  47.284  51.618  1.00  0.00    -0.465 OA
ATOM     27  C   UNL     1      10.080  46.697  52.566  1.00  0.00     0.282 C 
ENDBRANCH  24  26
ENDBRANCH  23  24
ENDBRANCH  16  18
ENDBRANCH   3  16
TORSDOF 7
ENDMDL
MODEL 15
REMARK VINA RESULT:    -7.651      3.852      7.245
REMARK INTER + INTRA:         -11.362
REMARK INTER:                 -11.229
REMARK INTRA:                  -0.133
REMARK UNBOUND:                -0.580
REMARK SMILES CCCNc1nc(Nc2ccc(C(=O)OC)cc2)c2cnn(C)c2n1
REMARK SMILES IDX 5 1 6 2 7 3 19 4 20 5 21 6 22 7 23 8 24 9 25 10 4 11 3 13
REMARK SMILES IDX 2 14 1 15 8 16 9 18 10 19 18 20 11 21 17 22 12 23 13 24
REMARK SMILES IDX 14 25 15 26 16 27
REMARK H PARENT 4 12 8 17
ROOT
ATOM      1  C   UNL     1       6.203  46.311  51.991  1.00  0.00     0.226 A 
ATOM      2  N   UNL     1       5.068  45.777  52.480  1.00  0.00    -0.195 NA
ATOM      3  C   UNL     1       4.616  44.587  52.014  1.00  0.00     0.147 A 
ATOM      4  C   UNL     1       5.389  43.924  51.061  1.00  0.00     0.082 A 
ATOM      5  C   UNL     1       5.380  42.709  50.346  1.00  0.00     0.149 A 
ATOM      6  N   UNL     1       6.424  42.585  49.518  1.00  0.00    -0.179 NA
ATOM      7  N   UNL     1       7.113  43.734  49.716  1.00  0.00    -0.250 N 
ATOM      8  C   UNL     1       8.330  43.965  48.980  1.00  0.00     0.176 C 
ATOM      9  C   UNL     1       6.539  44.563  50.641  1.00  0.00     0.165 A 
ATOM     10  N   UNL     1       6.992  45.752  51.064  1.00  0.00    -0.193 NA
ENDROOT
BRANCH   1  11
ATOM     11  N   UNL     1       6.642  47.545  52.456  1.00  0.00    -0.354 N 
ATOM     12  H   UNL     1       5.957  48.219  52.131  1.00  0.00     0.163 HD
BRANCH  11  13
ATOM     13  C   UNL     1       8.025  47.884  52.165  1.00  0.00     0.116 C 
BRANCH  13  14
ATOM     14  C   UNL     1       8.859  47.894  53.447  1.00  0.00     0.018 C 
ATOM     15  C   UNL     1       9.906  46.792  53.436  1.00  0.00     0.006 C 
ENDBRANCH  13  14
ENDBRANCH  11  13
ENDBRANCH   1  11
BRANCH   3  16
ATOM     16  N   UNL     1       3.426  44.097  52.576  1.00  0.00    -0.339 N 
ATOM     17  H   UNL     1       3.522  43.082  52.604  1.00  0.00     0.168 HD
BRANCH  16  18
ATOM     18  C   UNL     1       2.760  44.563  53.729  1.00  0.00     0.040 A 
ATOM     19  C   UNL     1       3.398  45.295  54.737  1.00  0.00     0.027 A 
ATOM     20  C   UNL     1       1.419  44.204  53.912  1.00  0.00     0.027 A 
ATOM     21  C   UNL     1       2.700  45.696  55.881  1.00  0.00     0.018 A 
ATOM     22  C   UNL     1       0.714  44.603  55.054  1.00  0.00     0.018 A 
ATOM     23  C   UNL     1       1.352  45.356  56.045  1.00  0.00     0.060 A 
BRANCH  23  24
ATOM     24  C   UNL     1       0.656  45.807  57.282  1.00  0.00     0.337 C 
ATOM     25  O   UNL     1       1.196  46.466  58.156  1.00  0.00    -0.246 OA
BRANCH  24  26
ATOM     26  O   UNL     1      -0.633  45.385  57.288  1.00  0.00    -0.465 OA
ATOM     27  C   UNL     1      -1.586  46.436  57.454  1.00  0.00     0.282 C 
ENDBRANCH  24  26
ENDBRANCH  23  24
ENDBRANCH  16  18
ENDBRANCH   3  16
TORSDOF 7
ENDMDL
MODEL 16
REMARK VINA RESULT:    -7.631      4.448      8.399
REMARK INTER + INTRA:         -11.334
REMARK INTER:                 -10.586
REMARK INTRA:                  -0.747
REMARK UNBOUND:                -0.580
REMARK SMILES CCCNc1nc(Nc2ccc(C(=O)OC)cc2)c2cnn(C)c2n1
REMARK SMILES IDX 5 1 6 2 7 3 19 4 20 5 21 6 22 7 23 8 24 9 25 10 4 11 3 13
REMARK SMILES IDX 2 14 1 15 8 16 9 18 10 19 18 20 11 21 17 22 12 23 13 24
REMARK SMILES IDX 14 25 15 26 16 27
REMARK H PARENT 4 12 8 17
ROOT
ATOM      1  C   UNL     1       6.333  46.071  52.123  1.00  0.00     0.226 A 
ATOM      2  N   UNL     1       5.282  45.520  52.760  1.00  0.00    -0.195 NA
ATOM      3  C   UNL     1       4.775  44.334  52.342  1.00  0.00     0.147 A 
ATOM      4  C   UNL     1       5.407  43.694  51.276  1.00  0.00     0.082 A 
ATOM      5  C   UNL     1       5.302  42.490  50.549  1.00  0.00     0.149 A 
ATOM      6  N   UNL     1       6.218  42.388  49.578  1.00  0.00    -0.179 NA
ATOM      7  N   UNL     1       6.921  43.539  49.695  1.00  0.00    -0.250 N 
ATOM      8  C   UNL     1       8.019  43.792  48.797  1.00  0.00     0.176 C 
ATOM      9  C   UNL     1       6.481  44.348  50.708  1.00  0.00     0.165 A 
ATOM     10  N   UNL     1       6.984  45.534  51.082  1.00  0.00    -0.193 NA
ENDROOT
BRANCH   1  11
ATOM     11  N   UNL     1       6.827  47.301  52.541  1.00  0.00    -0.354 N 
ATOM     12  H   UNL     1       6.076  47.965  52.385  1.00  0.00     0.163 HD
BRANCH  11  13
ATOM     13  C   UNL     1       8.117  47.692  51.998  1.00  0.00     0.116 C 
BRANCH  13  14
ATOM     14  C   UNL     1       9.238  47.376  52.989  1.00  0.00     0.018 C 
ATOM     15  C   UNL     1      10.259  46.425  52.387  1.00  0.00     0.006 C 
ENDBRANCH  13  14
ENDBRANCH  11  13
ENDBRANCH   1  11
BRANCH   3  16
ATOM     16  N   UNL     1       3.680  43.825  53.060  1.00  0.00    -0.339 N 
ATOM     17  H   UNL     1       3.668  44.322  53.950  1.00  0.00     0.168 HD
BRANCH  16  18
ATOM     18  C   UNL     1       2.366  43.612  52.593  1.00  0.00     0.040 A 
ATOM     19  C   UNL     1       1.794  44.355  51.555  1.00  0.00     0.027 A 
ATOM     20  C   UNL     1       1.570  42.672  53.258  1.00  0.00     0.027 A 
ATOM     21  C   UNL     1       0.471  44.132  51.160  1.00  0.00     0.018 A 
ATOM     22  C   UNL     1       0.245  42.442  52.868  1.00  0.00     0.018 A 
ATOM     23  C   UNL     1      -0.311  43.170  51.811  1.00  0.00     0.060 A 
BRANCH  23  24
ATOM     24  C   UNL     1      -1.714  42.974  51.352  1.00  0.00     0.337 C 
ATOM     25  O   UNL     1      -2.264  43.697  50.537  1.00  0.00    -0.246 OA
BRANCH  24  26
ATOM     26  O   UNL     1      -2.271  41.898  51.962  1.00  0.00    -0.465 OA
ATOM     27  C   UNL     1      -3.213  41.195  51.150  1.00  0.00     0.282 C 
ENDBRANCH  24  26
ENDBRANCH  23  24
ENDBRANCH  16  18
ENDBRANCH   3  16
TORSDOF 7
ENDMDL
MODEL 17
REMARK VINA RESULT:    -7.566      3.862      6.561
REMARK INTER + INTRA:         -11.243
REMARK INTER:                 -10.534
REMARK INTRA:                  -0.708
REMARK UNBOUND:                -0.580
REMARK SMILES CCCNc1nc(Nc2ccc(C(=O)OC)cc2)c2cnn(C)c2n1
REMARK SMILES IDX 5 1 6 2 7 3 19 4 20 5 21 6 22 7 23 8 24 9 25 10 4 11 3 13
REMARK SMILES IDX 2 14 1 15 8 16 9 18 10 19 18 20 11 21 17 22 12 23 13 24
REMARK SMILES IDX 14 25 15 26 16 27
REMARK H PARENT 4 12 8 17
ROOT
ATOM      1  C   UNL     1       6.469  44.942  50.647  1.00  0.00     0.226 A 
ATOM      2  N   UNL     1       5.516  45.617  51.317  1.00  0.00    -0.195 NA
ATOM      3  C   UNL     1       5.857  46.554  52.234  1.00  0.00     0.147 A 
ATOM      4  C   UNL     1       7.214  46.825  52.415  1.00  0.00     0.082 A 
ATOM      5  C   UNL     1       8.031  47.697  53.164  1.00  0.00     0.149 A 
ATOM      6  N   UNL     1       9.336  47.512  52.933  1.00  0.00    -0.179 NA
ATOM      7  N   UNL     1       9.350  46.515  52.018  1.00  0.00    -0.250 N 
ATOM      8  C   UNL     1      10.611  46.033  51.514  1.00  0.00     0.176 C 
ATOM      9  C   UNL     1       8.101  46.079  51.665  1.00  0.00     0.165 A 
ATOM     10  N   UNL     1       7.791  45.126  50.774  1.00  0.00    -0.193 NA
ENDROOT
BRANCH   1  11
ATOM     11  N   UNL     1       6.109  43.963  49.730  1.00  0.00    -0.354 N 
ATOM     12  H   UNL     1       5.217  43.602  50.052  1.00  0.00     0.163 HD
BRANCH  11  13
ATOM     13  C   UNL     1       7.113  42.954  49.440  1.00  0.00     0.116 C 
BRANCH  13  14
ATOM     14  C   UNL     1       6.658  41.581  49.934  1.00  0.00     0.018 C 
ATOM     15  C   UNL     1       5.168  41.565  50.234  1.00  0.00     0.006 C 
ENDBRANCH  13  14
ENDBRANCH  11  13
ENDBRANCH   1  11
BRANCH   3  16
ATOM     16  N   UNL     1       4.804  47.214  52.889  1.00  0.00    -0.339 N 
ATOM     17  H   UNL     1       4.500  47.956  52.260  1.00  0.00     0.168 HD
BRANCH  16  18
ATOM     18  C   UNL     1       3.698  46.634  53.543  1.00  0.00     0.040 A 
ATOM     19  C   UNL     1       3.749  46.160  54.859  1.00  0.00     0.027 A 
ATOM     20  C   UNL     1       2.517  46.447  52.813  1.00  0.00     0.027 A 
ATOM     21  C   UNL     1       2.633  45.554  55.445  1.00  0.00     0.018 A 
ATOM     22  C   UNL     1       1.396  45.843  53.393  1.00  0.00     0.018 A 
ATOM     23  C   UNL     1       1.447  45.395  54.717  1.00  0.00     0.060 A 
BRANCH  23  24
ATOM     24  C   UNL     1       0.290  44.742  55.389  1.00  0.00     0.337 C 
ATOM     25  O   UNL     1      -0.500  44.013  54.811  1.00  0.00    -0.246 OA
BRANCH  24  26
ATOM     26  O   UNL     1       0.251  45.071  56.704  1.00  0.00    -0.465 OA
ATOM     27  C   UNL     1      -0.681  46.109  57.014  1.00  0.00     0.282 C 
ENDBRANCH  24  26
ENDBRANCH  23  24
ENDBRANCH  16  18
ENDBRANCH   3  16
TORSDOF 7
ENDMDL
MODEL 18
REMARK VINA RESULT:    -7.520      3.968      6.959
REMARK INTER + INTRA:         -11.177
REMARK INTER:                 -10.309
REMARK INTRA:                  -0.867
REMARK UNBOUND:                -0.580
REMARK SMILES CCCNc1nc(Nc2ccc(C(=O)OC)cc2)c2cnn(C)c2n1
REMARK SMILES IDX 5 1 6 2 7 3 19 4 20 5 21 6 22 7 23 8 24 9 25 10 4 11 3 13
REMARK SMILES IDX 2 14 1 15 8 16 9 18 10 19 18 20 11 21 17 22 12 23 13 24
REMARK SMILES IDX 14 25 15 26 16 27
REMARK H PARENT 4 12 8 17
ROOT
ATOM      1  C   UNL     1       6.892  44.539  50.217  1.00  0.00     0.226 A 
ATOM      2  N   UNL     1       5.596  44.851  50.411  1.00  0.00    -0.195 NA
ATOM      3  C   UNL     1       5.249  45.823  51.289  1.00  0.00     0.147 A 
ATOM      4  C   UNL     1       6.276  46.514  51.934  1.00  0.00     0.082 A 
ATOM      5  C   UNL     1       6.428  47.583  52.841  1.00  0.00     0.149 A 
ATOM      6  N   UNL     1       7.709  47.836  53.135  1.00  0.00    -0.179 NA
ATOM      7  N   UNL     1       8.382  46.922  52.397  1.00  0.00    -0.250 N 
ATOM      8  C   UNL     1       9.821  46.889  52.452  1.00  0.00     0.176 C 
ATOM      9  C   UNL     1       7.567  46.116  51.650  1.00  0.00     0.165 A 
ATOM     10  N   UNL     1       7.934  45.137  50.810  1.00  0.00    -0.193 NA
ENDROOT
BRANCH   1  11
ATOM     11  N   UNL     1       7.234  43.521  49.337  1.00  0.00    -0.354 N 
ATOM     12  H   UNL     1       7.644  43.982  48.531  1.00  0.00     0.163 HD
BRANCH  11  13
ATOM     13  C   UNL     1       6.188  42.559  49.030  1.00  0.00     0.116 C 
BRANCH  13  14
ATOM     14  C   UNL     1       6.104  41.488  50.117  1.00  0.00     0.018 C 
ATOM     15  C   UNL     1       4.696  41.378  50.679  1.00  0.00     0.006 C 
ENDBRANCH  13  14
ENDBRANCH  11  13
ENDBRANCH   1  11
BRANCH   3  16
ATOM     16  N   UNL     1       3.878  46.089  51.432  1.00  0.00    -0.339 N 
ATOM     17  H   UNL     1       3.574  46.495  50.549  1.00  0.00     0.168 HD
BRANCH  16  18
ATOM     18  C   UNL     1       2.884  45.235  51.954  1.00  0.00     0.040 A 
ATOM     19  C   UNL     1       1.994  44.516  51.149  1.00  0.00     0.027 A 
ATOM     20  C   UNL     1       2.727  45.172  53.345  1.00  0.00     0.027 A 
ATOM     21  C   UNL     1       0.999  43.716  51.721  1.00  0.00     0.018 A 
ATOM     22  C   UNL     1       1.734  44.373  53.924  1.00  0.00     0.018 A 
ATOM     23  C   UNL     1       0.864  43.636  53.112  1.00  0.00     0.060 A 
BRANCH  23  24
ATOM     24  C   UNL     1      -0.213  42.772  53.668  1.00  0.00     0.337 C 
ATOM     25  O   UNL     1      -0.246  41.560  53.525  1.00  0.00    -0.246 OA
BRANCH  24  26
ATOM     26  O   UNL     1      -1.126  43.517  54.340  1.00  0.00    -0.465 OA
ATOM     27  C   UNL     1      -2.270  43.872  53.562  1.00  0.00     0.282 C 
ENDBRANCH  24  26
ENDBRANCH  23  24
ENDBRANCH  16  18
ENDBRANCH   3  16
TORSDOF 7
ENDMDL
MODEL 19
REMARK VINA RESULT:    -7.496      4.454      8.313
REMARK INTER + INTRA:         -11.143
REMARK INTER:                 -10.293
REMARK INTRA:                  -0.851
REMARK UNBOUND:                -0.580
REMARK SMILES CCCNc1nc(Nc2ccc(C(=O)OC)cc2)c2cnn(C)c2n1
REMARK SMILES IDX 5 1 6 2 7 3 19 4 20 5 21 6 22 7 23 8 24 9 25 10 4 11 3 13
REMARK SMILES IDX 2 14 1 15 8 16 9 18 10 19 18 20 11 21 17 22 12 23 13 24
REMARK SMILES IDX 14 25 15 26 16 27
REMARK H PARENT 4 12 8 17
ROOT
ATOM      1  C   UNL     1       5.935  45.882  52.192  1.00  0.00     0.226 A 
ATOM      2  N   UNL     1       4.916  45.555  53.010  1.00  0.00    -0.195 NA
ATOM      3  C   UNL     1       4.228  44.403  52.819  1.00  0.00     0.147 A 
ATOM      4  C   UNL     1       4.644  43.558  51.789  1.00  0.00     0.082 A 
ATOM      5  C   UNL     1       4.313  42.298  51.252  1.00  0.00     0.149 A 
ATOM      6  N   UNL     1       5.082  41.958  50.210  1.00  0.00    -0.179 NA
ATOM      7  N   UNL     1       5.921  43.013  50.089  1.00  0.00    -0.250 N 
ATOM      8  C   UNL     1       6.919  43.008  49.050  1.00  0.00     0.176 C 
ATOM      9  C   UNL     1       5.707  43.992  51.022  1.00  0.00     0.165 A 
ATOM     10  N   UNL     1       6.384  45.140  51.171  1.00  0.00    -0.193 NA
ENDROOT
BRANCH   1  11
ATOM     11  N   UNL     1       6.615  47.079  52.379  1.00  0.00    -0.354 N 
ATOM     12  H   UNL     1       5.938  47.810  52.188  1.00  0.00     0.163 HD
BRANCH  11  13
ATOM     13  C   UNL     1       7.881  47.214  51.680  1.00  0.00     0.116 C 
BRANCH  13  14
ATOM     14  C   UNL     1       9.006  47.549  52.660  1.00  0.00     0.018 C 
ATOM     15  C   UNL     1      10.036  46.433  52.725  1.00  0.00     0.006 C 
ENDBRANCH  13  14
ENDBRANCH  11  13
ENDBRANCH   1  11
BRANCH   3  16
ATOM     16  N   UNL     1       3.181  44.133  53.715  1.00  0.00    -0.339 N 
ATOM     17  H   UNL     1       3.301  44.780  54.494  1.00  0.00     0.168 HD
BRANCH  16  18
ATOM     18  C   UNL     1       1.813  43.963  53.417  1.00  0.00     0.040 A 
ATOM     19  C   UNL     1       1.163  42.726  53.490  1.00  0.00     0.027 A 
ATOM     20  C   UNL     1       1.094  45.068  52.945  1.00  0.00     0.027 A 
ATOM     21  C   UNL     1      -0.187  42.607  53.141  1.00  0.00     0.018 A 
ATOM     22  C   UNL     1      -0.257  44.956  52.596  1.00  0.00     0.018 A 
ATOM     23  C   UNL     1      -0.907  43.721  52.696  1.00  0.00     0.060 A 
BRANCH  23  24
ATOM     24  C   UNL     1      -2.340  43.538  52.336  1.00  0.00     0.337 C 
ATOM     25  O   UNL     1      -3.168  43.055  53.091  1.00  0.00    -0.246 OA
BRANCH  24  26
ATOM     26  O   UNL     1      -2.578  43.979  51.075  1.00  0.00    -0.465 OA
ATOM     27  C   UNL     1      -2.272  43.023  50.059  1.00  0.00     0.282 C 
ENDBRANCH  24  26
ENDBRANCH  23  24
ENDBRANCH  16  18
ENDBRANCH   3  16
TORSDOF 7
ENDMDL
MODEL 20
REMARK VINA RESULT:    -7.472      3.116      5.650
REMARK INTER + INTRA:         -11.110
REMARK INTER:                 -10.629
REMARK INTRA:                  -0.480
REMARK UNBOUND:                -0.580
REMARK SMILES CCCNc1nc(Nc2ccc(C(=O)OC)cc2)c2cnn(C)c2n1
REMARK SMILES IDX 5 1 6 2 7 3 19 4 20 5 21 6 22 7 23 8 24 9 25 10 4 11 3 13
REMARK SMILES IDX 2 14 1 15 8 16 9 18 10 19 18 20 11 21 17 22 12 23 13 24
REMARK SMILES IDX 14 25 15 26 16 27
REMARK H PARENT 4 12 8 17
ROOT
ATOM      1  C   UNL     1       2.407  44.551  54.741  1.00  0.00     0.226 A 
ATOM      2  N   UNL     1       2.936  44.086  53.594  1.00  0.00    -0.195 NA
ATOM      3  C   UNL     1       2.167  43.399  52.715  1.00  0.00     0.147 A 
ATOM      4  C   UNL     1       0.814  43.241  53.017  1.00  0.00     0.082 A 
ATOM      5  C   UNL     1      -0.345  42.687  52.436  1.00  0.00     0.149 A 
ATOM      6  N   UNL     1      -1.430  42.826  53.207  1.00  0.00    -0.179 NA
ATOM      7  N   UNL     1      -0.957  43.486  54.290  1.00  0.00    -0.250 N 
ATOM      8  C   UNL     1      -1.857  43.824  55.363  1.00  0.00     0.176 C 
ATOM      9  C   UNL     1       0.380  43.769  54.216  1.00  0.00     0.165 A 
ATOM     10  N   UNL     1       1.126  44.426  55.117  1.00  0.00    -0.193 NA
ENDROOT
BRANCH   1  11
ATOM     11  N   UNL     1       3.211  45.229  55.649  1.00  0.00    -0.354 N 
ATOM     12  H   UNL     1       2.573  45.674  56.301  1.00  0.00     0.163 HD
BRANCH  11  13
ATOM     13  C   UNL     1       4.221  46.105  55.081  1.00  0.00     0.116 C 
BRANCH  13  14
ATOM     14  C   UNL     1       5.605  45.460  55.165  1.00  0.00     0.018 C 
ATOM     15  C   UNL     1       6.599  46.159  54.251  1.00  0.00     0.006 C 
ENDBRANCH  13  14
ENDBRANCH  11  13
ENDBRANCH   1  11
BRANCH   3  16
ATOM     16  N   UNL     1       2.793  42.949  51.541  1.00  0.00    -0.339 N 
ATOM     17  H   UNL     1       2.096  43.022  50.801  1.00  0.00     0.168 HD
BRANCH  16  18
ATOM     18  C   UNL     1       4.070  43.300  51.056  1.00  0.00     0.040 A 
ATOM     19  C   UNL     1       4.989  42.361  50.572  1.00  0.00     0.027 A 
ATOM     20  C   UNL     1       4.468  44.640  51.143  1.00  0.00     0.027 A 
ATOM     21  C   UNL     1       6.259  42.760  50.143  1.00  0.00     0.018 A 
ATOM     22  C   UNL     1       5.738  45.046  50.714  1.00  0.00     0.018 A 
ATOM     23  C   UNL     1       6.641  44.105  50.207  1.00  0.00     0.060 A 
BRANCH  23  24
ATOM     24  C   UNL     1       8.005  44.475  49.739  1.00  0.00     0.337 C 
ATOM     25  O   UNL     1       8.681  43.769  49.008  1.00  0.00    -0.246 OA
BRANCH  24  26
ATOM     26  O   UNL     1       8.371  45.684  50.234  1.00  0.00    -0.465 OA
ATOM     27  C   UNL     1       9.402  45.618  51.220  1.00  0.00     0.282 C 
ENDBRANCH  24  26
ENDBRANCH  23  24
ENDBRANCH  16  18
ENDBRANCH   3  16
TORSDOF 7
ENDMDL
