MODEL 1
REMARK VINA RESULT:    -8.887      0.000      0.000
REMARK INTER + INTRA:         -13.878
REMARK INTER:                 -12.784
REMARK INTRA:                  -1.094
REMARK UNBOUND:                -1.094
REMARK SMILES Cc1cc(O)ccc1Nc1nc(NCCOC(C)C)nc2c1cnn2C
REMARK SMILES IDX 13 1 12 3 10 4 11 5 22 6 21 7 23 8 20 9 25 10 24 11 26 12
REMARK SMILES IDX 9 13 8 15 2 16 3 17 4 18 7 19 6 20 1 21 5 22 14 24 15 25
REMARK SMILES IDX 16 26 17 27 18 28 19 29
REMARK H PARENT 13 2 9 14 5 23
ROOT
ATOM      1  N   UNL     1       4.932  46.892  55.054  1.00  0.00    -0.352 N 
ATOM      2  H   UNL     1       5.245  47.521  55.790  1.00  0.00     0.163 HD
ENDROOT
BRANCH   1   3
ATOM      3  C   UNL     1       6.022  46.706  54.216  1.00  0.00     0.226 A 
ATOM      4  C   UNL     1       6.705  45.967  52.100  1.00  0.00     0.147 A 
ATOM      5  N   UNL     1       5.723  46.195  53.007  1.00  0.00    -0.195 NA
ATOM      6  C   UNL     1       8.016  46.281  52.464  1.00  0.00     0.082 A 
ATOM      7  C   UNL     1       8.201  46.806  53.727  1.00  0.00     0.165 A 
ATOM      8  C   UNL     1       9.313  46.228  51.913  1.00  0.00     0.149 A 
ATOM      9  N   UNL     1       7.247  47.050  54.639  1.00  0.00    -0.193 NA
ATOM     10  N   UNL     1       9.546  47.019  53.853  1.00  0.00    -0.250 N 
ATOM     11  N   UNL     1      10.253  46.681  52.750  1.00  0.00    -0.179 NA
ATOM     12  C   UNL     1      10.236  47.544  55.005  1.00  0.00     0.176 C 
BRANCH   4  13
ATOM     13  N   UNL     1       6.313  45.415  50.865  1.00  0.00    -0.339 N 
ATOM     14  H   UNL     1       7.115  45.527  50.250  1.00  0.00     0.168 HD
BRANCH  13  15
ATOM     15  C   UNL     1       5.713  44.149  50.700  1.00  0.00     0.043 A 
ATOM     16  C   UNL     1       6.288  43.121  49.926  1.00  0.00    -0.024 A 
ATOM     17  C   UNL     1       5.615  41.892  49.818  1.00  0.00     0.051 A 
ATOM     18  C   UNL     1       4.381  41.705  50.431  1.00  0.00     0.115 A 
ATOM     19  C   UNL     1       4.453  43.945  51.287  1.00  0.00     0.030 A 
ATOM     20  C   UNL     1       3.789  42.725  51.161  1.00  0.00     0.048 A 
ATOM     21  C   UNL     1       7.613  43.282  49.234  1.00  0.00     0.047 C 
BRANCH  18  22
ATOM     22  O   UNL     1       3.776  40.493  50.283  1.00  0.00    -0.508 OA
ATOM     23  H   UNL     1       3.050  40.428  50.925  1.00  0.00     0.293 HD
ENDBRANCH  18  22
ENDBRANCH  13  15
ENDBRANCH   4  13
ENDBRANCH   1   3
BRANCH   1  24
ATOM     24  C   UNL     1       4.311  45.680  55.577  1.00  0.00     0.144 C 
BRANCH  24  25
ATOM     25  C   UNL     1       2.800  45.647  55.309  1.00  0.00     0.181 C 
BRANCH  25  26
ATOM     26  O   UNL     1       2.570  45.082  54.011  1.00  0.00    -0.377 OA
BRANCH  26  27
ATOM     27  C   UNL     1       1.683  45.862  53.206  1.00  0.00     0.112 C 
ATOM     28  C   UNL     1       0.904  44.890  52.328  1.00  0.00     0.038 C 
ATOM     29  C   UNL     1       2.475  46.836  52.342  1.00  0.00     0.038 C 
ENDBRANCH  26  27
ENDBRANCH  25  26
ENDBRANCH  24  25
ENDBRANCH   1  24
TORSDOF 8
ENDMDL
MODEL 2
REMARK VINA RESULT:    -8.682      2.599      5.831
REMARK INTER + INTRA:         -13.583
REMARK INTER:                 -12.690
REMARK INTRA:                  -0.893
REMARK UNBOUND:                -1.094
REMARK SMILES Cc1cc(O)ccc1Nc1nc(NCCOC(C)C)nc2c1cnn2C
REMARK SMILES IDX 13 1 12 3 10 4 11 5 22 6 21 7 23 8 20 9 25 10 24 11 26 12
REMARK SMILES IDX 9 13 8 15 2 16 3 17 4 18 7 19 6 20 1 21 5 22 14 24 15 25
REMARK SMILES IDX 16 26 17 27 18 28 19 29
REMARK H PARENT 13 2 9 14 5 23
ROOT
ATOM      1  N   UNL     1       4.621  45.471  55.729  1.00  0.00    -0.352 N 
ATOM      2  H   UNL     1       4.408  46.346  56.203  1.00  0.00     0.163 HD
ENDROOT
BRANCH   1   3
ATOM      3  C   UNL     1       3.493  45.153  54.985  1.00  0.00     0.226 A 
ATOM      4  C   UNL     1       2.709  44.563  52.858  1.00  0.00     0.147 A 
ATOM      5  N   UNL     1       3.732  44.886  53.688  1.00  0.00    -0.195 NA
ATOM      6  C   UNL     1       1.421  44.518  53.395  1.00  0.00     0.082 A 
ATOM      7  C   UNL     1       1.299  44.805  54.740  1.00  0.00     0.165 A 
ATOM      8  C   UNL     1       0.102  44.255  52.972  1.00  0.00     0.149 A 
ATOM      9  N   UNL     1       2.294  45.117  55.584  1.00  0.00    -0.193 NA
ATOM     10  N   UNL     1      -0.035  44.708  55.026  1.00  0.00    -0.250 N 
ATOM     11  N   UNL     1      -0.793  44.363  53.960  1.00  0.00    -0.179 NA
ATOM     12  C   UNL     1      -0.666  44.935  56.302  1.00  0.00     0.176 C 
BRANCH   4  13
ATOM     13  N   UNL     1       3.039  44.312  51.512  1.00  0.00    -0.339 N 
ATOM     14  H   UNL     1       3.081  45.226  51.067  1.00  0.00     0.168 HD
BRANCH  13  15
ATOM     15  C   UNL     1       4.095  43.483  51.080  1.00  0.00     0.043 A 
ATOM     16  C   UNL     1       5.364  43.980  50.718  1.00  0.00    -0.024 A 
ATOM     17  C   UNL     1       6.354  43.076  50.298  1.00  0.00     0.051 A 
ATOM     18  C   UNL     1       6.077  41.717  50.201  1.00  0.00     0.115 A 
ATOM     19  C   UNL     1       3.831  42.110  50.947  1.00  0.00     0.030 A 
ATOM     20  C   UNL     1       4.819  41.225  50.516  1.00  0.00     0.048 A 
ATOM     21  C   UNL     1       5.706  45.442  50.794  1.00  0.00     0.047 C 
BRANCH  18  22
ATOM     22  O   UNL     1       7.078  40.894  49.780  1.00  0.00    -0.508 OA
ATOM     23  H   UNL     1       6.749  40.356  49.041  1.00  0.00     0.293 HD
ENDBRANCH  18  22
ENDBRANCH  13  15
ENDBRANCH   4  13
ENDBRANCH   1   3
BRANCH   1  24
ATOM     24  C   UNL     1       5.881  45.521  54.995  1.00  0.00     0.144 C 
BRANCH  24  25
ATOM     25  C   UNL     1       6.231  46.947  54.552  1.00  0.00     0.181 C 
BRANCH  25  26
ATOM     26  O   UNL     1       7.595  47.222  54.898  1.00  0.00    -0.377 OA
BRANCH  26  27
ATOM     27  C   UNL     1       8.509  46.983  53.825  1.00  0.00     0.112 C 
ATOM     28  C   UNL     1       9.913  47.202  54.375  1.00  0.00     0.038 C 
ATOM     29  C   UNL     1       8.234  47.947  52.676  1.00  0.00     0.038 C 
ENDBRANCH  26  27
ENDBRANCH  25  26
ENDBRANCH  24  25
ENDBRANCH   1  24
TORSDOF 8
ENDMDL
MODEL 3
REMARK VINA RESULT:    -8.511      2.305      5.499
REMARK INTER + INTRA:         -13.337
REMARK INTER:                 -11.847
REMARK INTRA:                  -1.490
REMARK UNBOUND:                -1.094
REMARK SMILES Cc1cc(O)ccc1Nc1nc(NCCOC(C)C)nc2c1cnn2C
REMARK SMILES IDX 13 1 12 3 10 4 11 5 22 6 21 7 23 8 20 9 25 10 24 11 26 12
REMARK SMILES IDX 9 13 8 15 2 16 3 17 4 18 7 19 6 20 1 21 5 22 14 24 15 25
REMARK SMILES IDX 16 26 17 27 18 28 19 29
REMARK H PARENT 13 2 9 14 5 23
ROOT
ATOM      1  N   UNL     1       2.851  46.125  51.792  1.00  0.00    -0.352 N 
ATOM      2  H   UNL     1       3.206  47.034  52.078  1.00  0.00     0.163 HD
ENDROOT
BRANCH   1   3
ATOM      3  C   UNL     1       3.956  45.392  51.381  1.00  0.00     0.226 A 
ATOM      4  C   UNL     1       6.261  45.476  50.970  1.00  0.00     0.147 A 
ATOM      5  N   UNL     1       5.111  46.083  51.355  1.00  0.00    -0.195 NA
ATOM      6  C   UNL     1       6.199  44.129  50.608  1.00  0.00     0.082 A 
ATOM      7  C   UNL     1       4.960  43.523  50.679  1.00  0.00     0.165 A 
ATOM      8  C   UNL     1       7.062  43.110  50.156  1.00  0.00     0.149 A 
ATOM      9  N   UNL     1       3.811  44.097  51.066  1.00  0.00    -0.193 NA
ATOM     10  N   UNL     1       5.149  42.231  50.273  1.00  0.00    -0.250 N 
ATOM     11  N   UNL     1       6.433  41.946  49.954  1.00  0.00    -0.179 NA
ATOM     12  C   UNL     1       4.146  41.203  50.161  1.00  0.00     0.176 C 
BRANCH   4  13
ATOM     13  N   UNL     1       7.423  46.270  50.956  1.00  0.00    -0.339 N 
ATOM     14  H   UNL     1       7.181  47.098  50.415  1.00  0.00     0.168 HD
BRANCH  13  15
ATOM     15  C   UNL     1       8.186  46.607  52.094  1.00  0.00     0.043 A 
ATOM     16  C   UNL     1       9.531  46.220  52.260  1.00  0.00    -0.024 A 
ATOM     17  C   UNL     1      10.209  46.602  53.430  1.00  0.00     0.051 A 
ATOM     18  C   UNL     1       9.553  47.313  54.429  1.00  0.00     0.115 A 
ATOM     19  C   UNL     1       7.537  47.302  53.128  1.00  0.00     0.030 A 
ATOM     20  C   UNL     1       8.218  47.662  54.291  1.00  0.00     0.048 A 
ATOM     21  C   UNL     1      10.278  45.440  51.214  1.00  0.00     0.047 C 
BRANCH  18  22
ATOM     22  O   UNL     1      10.265  47.647  55.542  1.00  0.00    -0.508 OA
ATOM     23  H   UNL     1      10.062  48.568  55.776  1.00  0.00     0.293 HD
ENDBRANCH  18  22
ENDBRANCH  13  15
ENDBRANCH   4  13
ENDBRANCH   1   3
BRANCH   1  24
ATOM     24  C   UNL     1       2.012  45.502  52.811  1.00  0.00     0.144 C 
BRANCH  24  25
ATOM     25  C   UNL     1       2.381  45.974  54.224  1.00  0.00     0.181 C 
BRANCH  25  26
ATOM     26  O   UNL     1       3.161  44.956  54.865  1.00  0.00    -0.377 OA
BRANCH  26  27
ATOM     27  C   UNL     1       4.438  45.421  55.311  1.00  0.00     0.112 C 
ATOM     28  C   UNL     1       4.537  46.893  54.929  1.00  0.00     0.038 C 
ATOM     29  C   UNL     1       5.551  44.625  54.641  1.00  0.00     0.038 C 
ENDBRANCH  26  27
ENDBRANCH  25  26
ENDBRANCH  24  25
ENDBRANCH   1  24
TORSDOF 8
ENDMDL
MODEL 4
REMARK VINA RESULT:    -8.501      2.545      5.766
REMARK INTER + INTRA:         -13.323
REMARK INTER:                 -12.871
REMARK INTRA:                  -0.452
REMARK UNBOUND:                -1.094
REMARK SMILES Cc1cc(O)ccc1Nc1nc(NCCOC(C)C)nc2c1cnn2C
REMARK SMILES IDX 13 1 12 3 10 4 11 5 22 6 21 7 23 8 20 9 25 10 24 11 26 12
REMARK SMILES IDX 9 13 8 15 2 16 3 17 4 18 7 19 6 20 1 21 5 22 14 24 15 25
REMARK SMILES IDX 16 26 17 27 18 28 19 29
REMARK H PARENT 13 2 9 14 5 23
ROOT
ATOM      1  N   UNL     1       5.692  45.683  55.218  1.00  0.00    -0.352 N 
ATOM      2  H   UNL     1       5.525  45.795  56.215  1.00  0.00     0.163 HD
ENDROOT
BRANCH   1   3
ATOM      3  C   UNL     1       4.489  45.256  54.672  1.00  0.00     0.226 A 
ATOM      4  C   UNL     1       3.470  44.334  52.774  1.00  0.00     0.147 A 
ATOM      5  N   UNL     1       4.578  44.781  53.416  1.00  0.00    -0.195 NA
ATOM      6  C   UNL     1       2.255  44.384  53.460  1.00  0.00     0.082 A 
ATOM      7  C   UNL     1       2.287  44.885  54.746  1.00  0.00     0.165 A 
ATOM      8  C   UNL     1       0.898  44.064  53.242  1.00  0.00     0.149 A 
ATOM      9  N   UNL     1       3.369  45.324  55.405  1.00  0.00    -0.193 NA
ATOM     10  N   UNL     1       0.997  44.844  55.198  1.00  0.00    -0.250 N 
ATOM     11  N   UNL     1       0.123  44.336  54.298  1.00  0.00    -0.179 NA
ATOM     12  C   UNL     1       0.516  45.277  56.486  1.00  0.00     0.176 C 
BRANCH   4  13
ATOM     13  N   UNL     1       3.643  43.867  51.458  1.00  0.00    -0.339 N 
ATOM     14  H   UNL     1       2.997  44.411  50.889  1.00  0.00     0.168 HD
BRANCH  13  15
ATOM     15  C   UNL     1       4.889  43.714  50.812  1.00  0.00     0.043 A 
ATOM     16  C   UNL     1       5.355  42.476  50.325  1.00  0.00    -0.024 A 
ATOM     17  C   UNL     1       6.610  42.420  49.697  1.00  0.00     0.051 A 
ATOM     18  C   UNL     1       7.401  43.560  49.594  1.00  0.00     0.115 A 
ATOM     19  C   UNL     1       5.717  44.844  50.721  1.00  0.00     0.030 A 
ATOM     20  C   UNL     1       6.968  44.773  50.107  1.00  0.00     0.048 A 
ATOM     21  C   UNL     1       4.541  41.215  50.426  1.00  0.00     0.047 C 
BRANCH  18  22
ATOM     22  O   UNL     1       8.611  43.438  48.980  1.00  0.00    -0.508 OA
ATOM     23  H   UNL     1       8.705  42.527  48.656  1.00  0.00     0.293 HD
ENDBRANCH  18  22
ENDBRANCH  13  15
ENDBRANCH   4  13
ENDBRANCH   1   3
BRANCH   1  24
ATOM     24  C   UNL     1       6.286  46.870  54.611  1.00  0.00     0.144 C 
BRANCH  24  25
ATOM     25  C   UNL     1       7.454  46.514  53.681  1.00  0.00     0.181 C 
BRANCH  25  26
ATOM     26  O   UNL     1       8.137  47.719  53.310  1.00  0.00    -0.377 OA
BRANCH  26  27
ATOM     27  C   UNL     1       9.561  47.588  53.326  1.00  0.00     0.112 C 
ATOM     28  C   UNL     1       9.919  46.475  52.347  1.00  0.00     0.038 C 
ATOM     29  C   UNL     1      10.041  47.232  54.728  1.00  0.00     0.038 C 
ENDBRANCH  26  27
ENDBRANCH  25  26
ENDBRANCH  24  25
ENDBRANCH   1  24
TORSDOF 8
ENDMDL
MODEL 5
REMARK VINA RESULT:    -8.415      1.124      1.977
REMARK INTER + INTRA:         -13.199
REMARK INTER:                 -12.175
REMARK INTRA:                  -1.024
REMARK UNBOUND:                -1.094
REMARK SMILES Cc1cc(O)ccc1Nc1nc(NCCOC(C)C)nc2c1cnn2C
REMARK SMILES IDX 13 1 12 3 10 4 11 5 22 6 21 7 23 8 20 9 25 10 24 11 26 12
REMARK SMILES IDX 9 13 8 15 2 16 3 17 4 18 7 19 6 20 1 21 5 22 14 24 15 25
REMARK SMILES IDX 16 26 17 27 18 28 19 29
REMARK H PARENT 13 2 9 14 5 23
ROOT
ATOM      1  N   UNL     1       4.897  47.150  55.139  1.00  0.00    -0.352 N 
ATOM      2  H   UNL     1       5.108  46.651  56.001  1.00  0.00     0.163 HD
ENDROOT
BRANCH   1   3
ATOM      3  C   UNL     1       6.010  46.996  54.324  1.00  0.00     0.226 A 
ATOM      4  C   UNL     1       6.739  46.435  52.170  1.00  0.00     0.147 A 
ATOM      5  N   UNL     1       5.735  46.619  53.062  1.00  0.00    -0.195 NA
ATOM      6  C   UNL     1       8.048  46.650  52.607  1.00  0.00     0.082 A 
ATOM      7  C   UNL     1       8.207  47.040  53.921  1.00  0.00     0.165 A 
ATOM      8  C   UNL     1       9.362  46.590  52.097  1.00  0.00     0.149 A 
ATOM      9  N   UNL     1       7.232  47.238  54.820  1.00  0.00    -0.193 NA
ATOM     10  N   UNL     1       9.555  47.176  54.113  1.00  0.00    -0.250 N 
ATOM     11  N   UNL     1      10.288  46.915  53.006  1.00  0.00    -0.179 NA
ATOM     12  C   UNL     1      10.223  47.552  55.333  1.00  0.00     0.176 C 
BRANCH   4  13
ATOM     13  N   UNL     1       6.370  46.027  50.874  1.00  0.00    -0.339 N 
ATOM     14  H   UNL     1       6.888  46.632  50.240  1.00  0.00     0.168 HD
BRANCH  13  15
ATOM     15  C   UNL     1       6.367  44.692  50.418  1.00  0.00     0.043 A 
ATOM     16  C   UNL     1       5.317  43.791  50.686  1.00  0.00    -0.024 A 
ATOM     17  C   UNL     1       5.402  42.479  50.191  1.00  0.00     0.051 A 
ATOM     18  C   UNL     1       6.524  42.061  49.483  1.00  0.00     0.115 A 
ATOM     19  C   UNL     1       7.501  44.239  49.724  1.00  0.00     0.030 A 
ATOM     20  C   UNL     1       7.580  42.929  49.250  1.00  0.00     0.048 A 
ATOM     21  C   UNL     1       4.090  44.193  51.457  1.00  0.00     0.047 C 
BRANCH  18  22
ATOM     22  O   UNL     1       6.549  40.774  49.036  1.00  0.00    -0.508 OA
ATOM     23  H   UNL     1       6.863  40.771  48.116  1.00  0.00     0.293 HD
ENDBRANCH  18  22
ENDBRANCH  13  15
ENDBRANCH   4  13
ENDBRANCH   1   3
BRANCH   1  24
ATOM     24  C   UNL     1       3.617  46.755  54.560  1.00  0.00     0.144 C 
BRANCH  24  25
ATOM     25  C   UNL     1       2.912  45.684  55.403  1.00  0.00     0.181 C 
BRANCH  25  26
ATOM     26  O   UNL     1       2.650  44.540  54.579  1.00  0.00    -0.377 OA
BRANCH  26  27
ATOM     27  C   UNL     1       1.297  44.472  54.122  1.00  0.00     0.112 C 
ATOM     28  C   UNL     1       0.406  44.842  55.302  1.00  0.00     0.038 C 
ATOM     29  C   UNL     1       0.976  43.063  53.639  1.00  0.00     0.038 C 
ENDBRANCH  26  27
ENDBRANCH  25  26
ENDBRANCH  24  25
ENDBRANCH   1  24
TORSDOF 8
ENDMDL
MODEL 6
REMARK VINA RESULT:    -8.330      2.951      6.977
REMARK INTER + INTRA:         -13.076
REMARK INTER:                 -12.375
REMARK INTRA:                  -0.701
REMARK UNBOUND:                -1.094
REMARK SMILES Cc1cc(O)ccc1Nc1nc(NCCOC(C)C)nc2c1cnn2C
REMARK SMILES IDX 13 1 12 3 10 4 11 5 22 6 21 7 23 8 20 9 25 10 24 11 26 12
REMARK SMILES IDX 9 13 8 15 2 16 3 17 4 18 7 19 6 20 1 21 5 22 14 24 15 25
REMARK SMILES IDX 16 26 17 27 18 28 19 29
REMARK H PARENT 13 2 9 14 5 23
ROOT
ATOM      1  N   UNL     1       6.582  42.412  49.130  1.00  0.00    -0.352 N 
ATOM      2  H   UNL     1       6.628  42.930  48.255  1.00  0.00     0.163 HD
ENDROOT
BRANCH   1   3
ATOM      3  C   UNL     1       6.138  43.313  50.088  1.00  0.00     0.226 A 
ATOM      4  C   UNL     1       6.578  45.361  51.136  1.00  0.00     0.147 A 
ATOM      5  N   UNL     1       6.908  44.407  50.231  1.00  0.00    -0.195 NA
ATOM      6  C   UNL     1       5.427  45.165  51.901  1.00  0.00     0.082 A 
ATOM      7  C   UNL     1       4.712  44.008  51.662  1.00  0.00     0.165 A 
ATOM      8  C   UNL     1       4.703  45.820  52.919  1.00  0.00     0.149 A 
ATOM      9  N   UNL     1       5.011  43.055  50.767  1.00  0.00    -0.193 NA
ATOM     10  N   UNL     1       3.651  44.035  52.524  1.00  0.00    -0.250 N 
ATOM     11  N   UNL     1       3.615  45.142  53.302  1.00  0.00    -0.179 NA
ATOM     12  C   UNL     1       2.624  43.035  52.667  1.00  0.00     0.176 C 
BRANCH   4  13
ATOM     13  N   UNL     1       7.443  46.468  51.236  1.00  0.00    -0.339 N 
ATOM     14  H   UNL     1       6.889  47.273  50.952  1.00  0.00     0.168 HD
BRANCH  13  15
ATOM     15  C   UNL     1       8.244  46.769  52.358  1.00  0.00     0.043 A 
ATOM     16  C   UNL     1       9.599  46.392  52.458  1.00  0.00    -0.024 A 
ATOM     17  C   UNL     1      10.317  46.735  53.616  1.00  0.00     0.051 A 
ATOM     18  C   UNL     1       9.691  47.399  54.666  1.00  0.00     0.115 A 
ATOM     19  C   UNL     1       7.628  47.414  53.442  1.00  0.00     0.030 A 
ATOM     20  C   UNL     1       8.348  47.737  54.593  1.00  0.00     0.048 A 
ATOM     21  C   UNL     1      10.314  45.663  51.355  1.00  0.00     0.047 C 
BRANCH  18  22
ATOM     22  O   UNL     1      10.441  47.697  55.764  1.00  0.00    -0.508 OA
ATOM     23  H   UNL     1      11.047  48.422  55.539  1.00  0.00     0.293 HD
ENDBRANCH  18  22
ENDBRANCH  13  15
ENDBRANCH   4  13
ENDBRANCH   1   3
BRANCH   1  24
ATOM     24  C   UNL     1       5.818  41.174  49.010  1.00  0.00     0.144 C 
BRANCH  24  25
ATOM     25  C   UNL     1       4.972  41.144  47.730  1.00  0.00     0.181 C 
BRANCH  25  26
ATOM     26  O   UNL     1       5.708  41.769  46.671  1.00  0.00    -0.377 OA
BRANCH  26  27
ATOM     27  C   UNL     1       5.226  41.425  45.369  1.00  0.00     0.112 C 
ATOM     28  C   UNL     1       5.204  42.708  44.546  1.00  0.00     0.038 C 
ATOM     29  C   UNL     1       3.824  40.836  45.467  1.00  0.00     0.038 C 
ENDBRANCH  26  27
ENDBRANCH  25  26
ENDBRANCH  24  25
ENDBRANCH   1  24
TORSDOF 8
ENDMDL
MODEL 7
REMARK VINA RESULT:    -8.248      2.345      5.537
REMARK INTER + INTRA:         -12.959
REMARK INTER:                 -12.108
REMARK INTRA:                  -0.851
REMARK UNBOUND:                -1.094
REMARK SMILES Cc1cc(O)ccc1Nc1nc(NCCOC(C)C)nc2c1cnn2C
REMARK SMILES IDX 13 1 12 3 10 4 11 5 22 6 21 7 23 8 20 9 25 10 24 11 26 12
REMARK SMILES IDX 9 13 8 15 2 16 3 17 4 18 7 19 6 20 1 21 5 22 14 24 15 25
REMARK SMILES IDX 16 26 17 27 18 28 19 29
REMARK H PARENT 13 2 9 14 5 23
ROOT
ATOM      1  N   UNL     1       3.604  45.120  52.269  1.00  0.00    -0.352 N 
ATOM      2  H   UNL     1       3.585  44.420  53.007  1.00  0.00     0.163 HD
ENDROOT
BRANCH   1   3
ATOM      3  C   UNL     1       4.787  44.912  51.573  1.00  0.00     0.226 A 
ATOM      4  C   UNL     1       6.906  45.791  51.096  1.00  0.00     0.147 A 
ATOM      5  N   UNL     1       5.709  45.881  51.727  1.00  0.00    -0.195 NA
ATOM      6  C   UNL     1       7.139  44.672  50.295  1.00  0.00     0.082 A 
ATOM      7  C   UNL     1       6.122  43.740  50.217  1.00  0.00     0.165 A 
ATOM      8  C   UNL     1       8.159  44.147  49.473  1.00  0.00     0.149 A 
ATOM      9  N   UNL     1       4.935  43.800  50.838  1.00  0.00    -0.193 NA
ATOM     10  N   UNL     1       6.575  42.758  49.380  1.00  0.00    -0.250 N 
ATOM     11  N   UNL     1       7.827  42.977  48.916  1.00  0.00    -0.179 NA
ATOM     12  C   UNL     1       5.864  41.572  48.972  1.00  0.00     0.176 C 
BRANCH   4  13
ATOM     13  N   UNL     1       7.809  46.852  51.296  1.00  0.00    -0.339 N 
ATOM     14  H   UNL     1       7.324  47.687  50.976  1.00  0.00     0.168 HD
BRANCH  13  15
ATOM     15  C   UNL     1       8.516  47.096  52.492  1.00  0.00     0.043 A 
ATOM     16  C   UNL     1       9.814  46.604  52.733  1.00  0.00    -0.024 A 
ATOM     17  C   UNL     1      10.439  46.899  53.957  1.00  0.00     0.051 A 
ATOM     18  C   UNL     1       9.771  47.630  54.934  1.00  0.00     0.115 A 
ATOM     19  C   UNL     1       7.852  47.809  53.505  1.00  0.00     0.030 A 
ATOM     20  C   UNL     1       8.477  48.083  54.721  1.00  0.00     0.048 A 
ATOM     21  C   UNL     1      10.571  45.800  51.712  1.00  0.00     0.047 C 
BRANCH  18  22
ATOM     22  O   UNL     1      10.428  47.876  56.102  1.00  0.00    -0.508 OA
ATOM     23  H   UNL     1      11.013  48.641  55.973  1.00  0.00     0.293 HD
ENDBRANCH  18  22
ENDBRANCH  13  15
ENDBRANCH   4  13
ENDBRANCH   1   3
BRANCH   1  24
ATOM     24  C   UNL     1       2.382  45.128  51.471  1.00  0.00     0.144 C 
BRANCH  24  25
ATOM     25  C   UNL     1       1.169  45.595  52.285  1.00  0.00     0.181 C 
BRANCH  25  26
ATOM     26  O   UNL     1       1.597  45.919  53.614  1.00  0.00    -0.377 OA
BRANCH  26  27
ATOM     27  C   UNL     1       0.837  45.258  54.629  1.00  0.00     0.112 C 
ATOM     28  C   UNL     1       1.808  44.881  55.742  1.00  0.00     0.038 C 
ATOM     29  C   UNL     1       0.174  44.010  54.060  1.00  0.00     0.038 C 
ENDBRANCH  26  27
ENDBRANCH  25  26
ENDBRANCH  24  25
ENDBRANCH   1  24
TORSDOF 8
ENDMDL
MODEL 8
REMARK VINA RESULT:    -8.218      2.316      5.396
REMARK INTER + INTRA:         -12.915
REMARK INTER:                 -11.961
REMARK INTRA:                  -0.954
REMARK UNBOUND:                -1.094
REMARK SMILES Cc1cc(O)ccc1Nc1nc(NCCOC(C)C)nc2c1cnn2C
REMARK SMILES IDX 13 1 12 3 10 4 11 5 22 6 21 7 23 8 20 9 25 10 24 11 26 12
REMARK SMILES IDX 9 13 8 15 2 16 3 17 4 18 7 19 6 20 1 21 5 22 14 24 15 25
REMARK SMILES IDX 16 26 17 27 18 28 19 29
REMARK H PARENT 13 2 9 14 5 23
ROOT
ATOM      1  N   UNL     1       3.838  44.164  53.510  1.00  0.00    -0.352 N 
ATOM      2  H   UNL     1       2.994  43.699  53.185  1.00  0.00     0.163 HD
ENDROOT
BRANCH   1   3
ATOM      3  C   UNL     1       4.728  44.135  52.445  1.00  0.00     0.226 A 
ATOM      4  C   UNL     1       6.515  45.245  51.414  1.00  0.00     0.147 A 
ATOM      5  N   UNL     1       5.596  45.163  52.408  1.00  0.00    -0.195 NA
ATOM      6  C   UNL     1       6.524  44.236  50.449  1.00  0.00     0.082 A 
ATOM      7  C   UNL     1       5.591  43.229  50.593  1.00  0.00     0.165 A 
ATOM      8  C   UNL     1       7.235  43.890  49.281  1.00  0.00     0.149 A 
ATOM      9  N   UNL     1       4.679  43.119  51.571  1.00  0.00    -0.193 NA
ATOM     10  N   UNL     1       5.787  42.379  49.540  1.00  0.00    -0.250 N 
ATOM     11  N   UNL     1       6.797  42.756  48.722  1.00  0.00    -0.179 NA
ATOM     12  C   UNL     1       5.044  41.181  49.243  1.00  0.00     0.176 C 
BRANCH   4  13
ATOM     13  N   UNL     1       7.376  46.358  51.437  1.00  0.00    -0.339 N 
ATOM     14  H   UNL     1       6.818  47.142  51.104  1.00  0.00     0.168 HD
BRANCH  13  15
ATOM     15  C   UNL     1       8.184  46.733  52.531  1.00  0.00     0.043 A 
ATOM     16  C   UNL     1       9.560  46.438  52.608  1.00  0.00    -0.024 A 
ATOM     17  C   UNL     1      10.282  46.851  53.740  1.00  0.00     0.051 A 
ATOM     18  C   UNL     1       9.643  47.503  54.788  1.00  0.00     0.115 A 
ATOM     19  C   UNL     1       7.555  47.369  53.615  1.00  0.00     0.030 A 
ATOM     20  C   UNL     1       8.281  47.761  54.739  1.00  0.00     0.048 A 
ATOM     21  C   UNL     1      10.291  45.723  51.506  1.00  0.00     0.047 C 
BRANCH  18  22
ATOM     22  O   UNL     1      10.399  47.871  55.861  1.00  0.00    -0.508 OA
ATOM     23  H   UNL     1      10.372  48.840  55.942  1.00  0.00     0.293 HD
ENDBRANCH  18  22
ENDBRANCH  13  15
ENDBRANCH   4  13
ENDBRANCH   1   3
BRANCH   1  24
ATOM     24  C   UNL     1       3.570  45.478  54.086  1.00  0.00     0.144 C 
BRANCH  24  25
ATOM     25  C   UNL     1       2.085  45.852  53.996  1.00  0.00     0.181 C 
BRANCH  25  26
ATOM     26  O   UNL     1       1.744  46.078  52.622  1.00  0.00    -0.377 OA
BRANCH  26  27
ATOM     27  C   UNL     1       0.619  45.311  52.186  1.00  0.00     0.112 C 
ATOM     28  C   UNL     1      -0.011  44.694  53.429  1.00  0.00     0.038 C 
ATOM     29  C   UNL     1       1.068  44.219  51.223  1.00  0.00     0.038 C 
ENDBRANCH  26  27
ENDBRANCH  25  26
ENDBRANCH  24  25
ENDBRANCH   1  24
TORSDOF 8
ENDMDL
MODEL 9
REMARK VINA RESULT:    -7.958      2.502      6.370
REMARK INTER + INTRA:         -12.541
REMARK INTER:                 -11.229
REMARK INTRA:                  -1.312
REMARK UNBOUND:                -1.094
REMARK SMILES Cc1cc(O)ccc1Nc1nc(NCCOC(C)C)nc2c1cnn2C
REMARK SMILES IDX 13 1 12 3 10 4 11 5 22 6 21 7 23 8 20 9 25 10 24 11 26 12
REMARK SMILES IDX 9 13 8 15 2 16 3 17 4 18 7 19 6 20 1 21 5 22 14 24 15 25
REMARK SMILES IDX 16 26 17 27 18 28 19 29
REMARK H PARENT 13 2 9 14 5 23
ROOT
ATOM      1  N   UNL     1       7.898  46.267  50.729  1.00  0.00    -0.352 N 
ATOM      2  H   UNL     1       7.917  46.569  49.758  1.00  0.00     0.163 HD
ENDROOT
BRANCH   1   3
ATOM      3  C   UNL     1       6.784  45.449  50.857  1.00  0.00     0.226 A 
ATOM      4  C   UNL     1       4.539  45.365  51.522  1.00  0.00     0.147 A 
ATOM      5  N   UNL     1       5.691  46.060  51.351  1.00  0.00    -0.195 NA
ATOM      6  C   UNL     1       4.533  44.014  51.170  1.00  0.00     0.082 A 
ATOM      7  C   UNL     1       5.711  43.498  50.667  1.00  0.00     0.165 A 
ATOM      8  C   UNL     1       3.641  42.922  51.164  1.00  0.00     0.149 A 
ATOM      9  N   UNL     1       6.859  44.165  50.479  1.00  0.00    -0.193 NA
ATOM     10  N   UNL     1       5.464  42.178  50.409  1.00  0.00    -0.250 N 
ATOM     11  N   UNL     1       4.197  41.798  50.696  1.00  0.00    -0.179 NA
ATOM     12  C   UNL     1       6.394  41.208  49.887  1.00  0.00     0.176 C 
BRANCH   4  13
ATOM     13  N   UNL     1       3.446  46.072  52.059  1.00  0.00    -0.339 N 
ATOM     14  H   UNL     1       2.748  46.096  51.318  1.00  0.00     0.168 HD
BRANCH  13  15
ATOM     15  C   UNL     1       2.853  45.812  53.313  1.00  0.00     0.043 A 
ATOM     16  C   UNL     1       1.494  45.472  53.465  1.00  0.00    -0.024 A 
ATOM     17  C   UNL     1       0.993  45.233  54.756  1.00  0.00     0.051 A 
ATOM     18  C   UNL     1       1.813  45.370  55.870  1.00  0.00     0.115 A 
ATOM     19  C   UNL     1       3.655  45.971  54.455  1.00  0.00     0.030 A 
ATOM     20  C   UNL     1       3.142  45.744  55.732  1.00  0.00     0.048 A 
ATOM     21  C   UNL     1       0.566  45.325  52.291  1.00  0.00     0.047 C 
BRANCH  18  22
ATOM     22  O   UNL     1       1.265  45.131  57.095  1.00  0.00    -0.508 OA
ATOM     23  H   UNL     1       1.573  45.816  57.712  1.00  0.00     0.293 HD
ENDBRANCH  18  22
ENDBRANCH  13  15
ENDBRANCH   4  13
ENDBRANCH   1   3
BRANCH   1  24
ATOM     24  C   UNL     1       9.168  45.693  51.164  1.00  0.00     0.144 C 
BRANCH  24  25
ATOM     25  C   UNL     1       9.914  46.618  52.134  1.00  0.00     0.181 C 
BRANCH  25  26
ATOM     26  O   UNL     1       9.036  47.680  52.532  1.00  0.00    -0.377 OA
BRANCH  26  27
ATOM     27  C   UNL     1       8.803  47.722  53.942  1.00  0.00     0.112 C 
ATOM     28  C   UNL     1      10.064  47.199  54.620  1.00  0.00     0.038 C 
ATOM     29  C   UNL     1       7.608  46.848  54.303  1.00  0.00     0.038 C 
ENDBRANCH  26  27
ENDBRANCH  25  26
ENDBRANCH  24  25
ENDBRANCH   1  24
TORSDOF 8
ENDMDL
MODEL 10
REMARK VINA RESULT:    -7.914      2.768      5.617
REMARK INTER + INTRA:         -12.478
REMARK INTER:                 -12.348
REMARK INTRA:                  -0.130
REMARK UNBOUND:                -1.094
REMARK SMILES Cc1cc(O)ccc1Nc1nc(NCCOC(C)C)nc2c1cnn2C
REMARK SMILES IDX 13 1 12 3 10 4 11 5 22 6 21 7 23 8 20 9 25 10 24 11 26 12
REMARK SMILES IDX 9 13 8 15 2 16 3 17 4 18 7 19 6 20 1 21 5 22 14 24 15 25
REMARK SMILES IDX 16 26 17 27 18 28 19 29
REMARK H PARENT 13 2 9 14 5 23
ROOT
ATOM      1  N   UNL     1       4.414  47.389  53.420  1.00  0.00    -0.352 N 
ATOM      2  H   UNL     1       5.024  47.507  52.614  1.00  0.00     0.163 HD
ENDROOT
BRANCH   1   3
ATOM      3  C   UNL     1       3.733  46.197  53.216  1.00  0.00     0.226 A 
ATOM      4  C   UNL     1       3.660  44.229  51.947  1.00  0.00     0.147 A 
ATOM      5  N   UNL     1       4.239  45.419  52.241  1.00  0.00    -0.195 NA
ATOM      6  C   UNL     1       2.537  43.849  52.685  1.00  0.00     0.082 A 
ATOM      7  C   UNL     1       2.112  44.725  53.665  1.00  0.00     0.165 A 
ATOM      8  C   UNL     1       1.626  42.775  52.756  1.00  0.00     0.149 A 
ATOM      9  N   UNL     1       2.672  45.902  53.981  1.00  0.00    -0.193 NA
ATOM     10  N   UNL     1       1.010  44.148  54.234  1.00  0.00    -0.250 N 
ATOM     11  N   UNL     1       0.694  42.945  53.701  1.00  0.00    -0.179 NA
ATOM     12  C   UNL     1       0.200  44.689  55.295  1.00  0.00     0.176 C 
BRANCH   4  13
ATOM     13  N   UNL     1       4.240  43.481  50.905  1.00  0.00    -0.339 N 
ATOM     14  H   UNL     1       3.569  43.515  50.140  1.00  0.00     0.168 HD
BRANCH  13  15
ATOM     15  C   UNL     1       5.560  43.640  50.435  1.00  0.00     0.043 A 
ATOM     16  C   UNL     1       6.285  42.603  49.814  1.00  0.00    -0.024 A 
ATOM     17  C   UNL     1       7.597  42.854  49.379  1.00  0.00     0.051 A 
ATOM     18  C   UNL     1       8.188  44.095  49.594  1.00  0.00     0.115 A 
ATOM     19  C   UNL     1       6.188  44.875  50.665  1.00  0.00     0.030 A 
ATOM     20  C   UNL     1       7.497  45.108  50.241  1.00  0.00     0.048 A 
ATOM     21  C   UNL     1       5.693  41.242  49.571  1.00  0.00     0.047 C 
BRANCH  18  22
ATOM     22  O   UNL     1       9.466  44.273  49.155  1.00  0.00    -0.508 OA
ATOM     23  H   UNL     1       9.495  44.089  48.201  1.00  0.00     0.293 HD
ENDBRANCH  18  22
ENDBRANCH  13  15
ENDBRANCH   4  13
ENDBRANCH   1   3
BRANCH   1  24
ATOM     24  C   UNL     1       5.127  47.512  54.688  1.00  0.00     0.144 C 
BRANCH  24  25
ATOM     25  C   UNL     1       6.427  46.697  54.696  1.00  0.00     0.181 C 
BRANCH  25  26
ATOM     26  O   UNL     1       7.523  47.566  54.381  1.00  0.00    -0.377 OA
BRANCH  26  27
ATOM     27  C   UNL     1       8.220  47.188  53.191  1.00  0.00     0.112 C 
ATOM     28  C   UNL     1       9.672  46.939  53.581  1.00  0.00     0.038 C 
ATOM     29  C   UNL     1       8.134  48.303  52.155  1.00  0.00     0.038 C 
ENDBRANCH  26  27
ENDBRANCH  25  26
ENDBRANCH  24  25
ENDBRANCH   1  24
TORSDOF 8
ENDMDL
MODEL 11
REMARK VINA RESULT:    -7.854      2.690      5.954
REMARK INTER + INTRA:         -12.392
REMARK INTER:                 -11.506
REMARK INTRA:                  -0.885
REMARK UNBOUND:                -1.094
REMARK SMILES Cc1cc(O)ccc1Nc1nc(NCCOC(C)C)nc2c1cnn2C
REMARK SMILES IDX 13 1 12 3 10 4 11 5 22 6 21 7 23 8 20 9 25 10 24 11 26 12
REMARK SMILES IDX 9 13 8 15 2 16 3 17 4 18 7 19 6 20 1 21 5 22 14 24 15 25
REMARK SMILES IDX 16 26 17 27 18 28 19 29
REMARK H PARENT 13 2 9 14 5 23
ROOT
ATOM      1  N   UNL     1       5.568  46.765  52.382  1.00  0.00    -0.352 N 
ATOM      2  H   UNL     1       6.313  47.126  51.790  1.00  0.00     0.163 HD
ENDROOT
BRANCH   1   3
ATOM      3  C   UNL     1       5.343  45.461  51.965  1.00  0.00     0.226 A 
ATOM      4  C   UNL     1       4.019  43.553  52.281  1.00  0.00     0.147 A 
ATOM      5  N   UNL     1       4.335  44.833  52.599  1.00  0.00    -0.195 NA
ATOM      6  C   UNL     1       4.768  42.925  51.284  1.00  0.00     0.082 A 
ATOM      7  C   UNL     1       5.773  43.670  50.699  1.00  0.00     0.165 A 
ATOM      8  C   UNL     1       4.835  41.675  50.633  1.00  0.00     0.149 A 
ATOM      9  N   UNL     1       6.099  44.938  50.989  1.00  0.00    -0.193 NA
ATOM     10  N   UNL     1       6.362  42.850  49.777  1.00  0.00    -0.250 N 
ATOM     11  N   UNL     1       5.800  41.621  49.708  1.00  0.00    -0.179 NA
ATOM     12  C   UNL     1       7.475  43.170  48.919  1.00  0.00     0.176 C 
BRANCH   4  13
ATOM     13  N   UNL     1       2.963  42.962  53.000  1.00  0.00    -0.339 N 
ATOM     14  H   UNL     1       3.371  42.654  53.879  1.00  0.00     0.168 HD
BRANCH  13  15
ATOM     15  C   UNL     1       1.695  43.548  53.201  1.00  0.00     0.043 A 
ATOM     16  C   UNL     1       0.736  43.677  52.176  1.00  0.00    -0.024 A 
ATOM     17  C   UNL     1      -0.500  44.277  52.472  1.00  0.00     0.051 A 
ATOM     18  C   UNL     1      -0.759  44.773  53.745  1.00  0.00     0.115 A 
ATOM     19  C   UNL     1       1.421  44.082  54.471  1.00  0.00     0.030 A 
ATOM     20  C   UNL     1       0.195  44.687  54.748  1.00  0.00     0.048 A 
ATOM     21  C   UNL     1       0.976  43.167  50.782  1.00  0.00     0.047 C 
BRANCH  18  22
ATOM     22  O   UNL     1      -1.974  45.350  53.965  1.00  0.00    -0.508 OA
ATOM     23  H   UNL     1      -2.666  44.689  53.794  1.00  0.00     0.293 HD
ENDBRANCH  18  22
ENDBRANCH  13  15
ENDBRANCH   4  13
ENDBRANCH   1   3
BRANCH   1  24
ATOM     24  C   UNL     1       5.841  46.947  53.804  1.00  0.00     0.144 C 
BRANCH  24  25
ATOM     25  C   UNL     1       7.299  46.623  54.154  1.00  0.00     0.181 C 
BRANCH  25  26
ATOM     26  O   UNL     1       8.063  47.837  54.134  1.00  0.00    -0.377 OA
BRANCH  26  27
ATOM     27  C   UNL     1       9.428  47.638  53.760  1.00  0.00     0.112 C 
ATOM     28  C   UNL     1       9.455  46.492  52.755  1.00  0.00     0.038 C 
ATOM     29  C   UNL     1      10.264  47.286  54.985  1.00  0.00     0.038 C 
ENDBRANCH  26  27
ENDBRANCH  25  26
ENDBRANCH  24  25
ENDBRANCH   1  24
TORSDOF 8
ENDMDL
MODEL 12
REMARK VINA RESULT:    -7.827      3.187      6.047
REMARK INTER + INTRA:         -12.353
REMARK INTER:                 -11.414
REMARK INTRA:                  -0.939
REMARK UNBOUND:                -1.094
REMARK SMILES Cc1cc(O)ccc1Nc1nc(NCCOC(C)C)nc2c1cnn2C
REMARK SMILES IDX 13 1 12 3 10 4 11 5 22 6 21 7 23 8 20 9 25 10 24 11 26 12
REMARK SMILES IDX 9 13 8 15 2 16 3 17 4 18 7 19 6 20 1 21 5 22 14 24 15 25
REMARK SMILES IDX 16 26 17 27 18 28 19 29
REMARK H PARENT 13 2 9 14 5 23
ROOT
ATOM      1  N   UNL     1       7.945  45.403  50.110  1.00  0.00    -0.352 N 
ATOM      2  H   UNL     1       7.778  45.754  49.170  1.00  0.00     0.163 HD
ENDROOT
BRANCH   1   3
ATOM      3  C   UNL     1       6.914  44.512  50.377  1.00  0.00     0.226 A 
ATOM      4  C   UNL     1       5.926  42.485  49.744  1.00  0.00     0.147 A 
ATOM      5  N   UNL     1       6.887  43.427  49.581  1.00  0.00    -0.195 NA
ATOM      6  C   UNL     1       4.983  42.682  50.754  1.00  0.00     0.082 A 
ATOM      7  C   UNL     1       5.114  43.829  51.512  1.00  0.00     0.165 A 
ATOM      8  C   UNL     1       3.849  42.036  51.290  1.00  0.00     0.149 A 
ATOM      9  N   UNL     1       6.060  44.771  51.377  1.00  0.00    -0.193 NA
ATOM     10  N   UNL     1       4.086  43.805  52.413  1.00  0.00    -0.250 N 
ATOM     11  N   UNL     1       3.298  42.710  52.306  1.00  0.00    -0.179 NA
ATOM     12  C   UNL     1       3.788  44.799  53.414  1.00  0.00     0.176 C 
BRANCH   4  13
ATOM     13  N   UNL     1       5.957  41.388  48.862  1.00  0.00    -0.339 N 
ATOM     14  H   UNL     1       5.827  40.565  49.447  1.00  0.00     0.168 HD
BRANCH  13  15
ATOM     15  C   UNL     1       5.212  41.290  47.668  1.00  0.00     0.043 A 
ATOM     16  C   UNL     1       4.029  40.532  47.560  1.00  0.00    -0.024 A 
ATOM     17  C   UNL     1       3.355  40.494  46.327  1.00  0.00     0.051 A 
ATOM     18  C   UNL     1       3.870  41.158  45.219  1.00  0.00     0.115 A 
ATOM     19  C   UNL     1       5.726  41.929  46.528  1.00  0.00     0.030 A 
ATOM     20  C   UNL     1       5.055  41.872  45.306  1.00  0.00     0.048 A 
ATOM     21  C   UNL     1       3.442  39.788  48.727  1.00  0.00     0.047 C 
BRANCH  18  22
ATOM     22  O   UNL     1       3.173  41.075  44.050  1.00  0.00    -0.508 OA
ATOM     23  H   UNL     1       2.244  41.301  44.226  1.00  0.00     0.293 HD
ENDBRANCH  18  22
ENDBRANCH  13  15
ENDBRANCH   4  13
ENDBRANCH   1   3
BRANCH   1  24
ATOM     24  C   UNL     1       9.299  44.887  50.284  1.00  0.00     0.144 C 
BRANCH  24  25
ATOM     25  C   UNL     1      10.059  45.634  51.388  1.00  0.00     0.181 C 
BRANCH  25  26
ATOM     26  O   UNL     1       9.120  46.101  52.366  1.00  0.00    -0.377 OA
BRANCH  26  27
ATOM     27  C   UNL     1       9.300  47.477  52.710  1.00  0.00     0.112 C 
ATOM     28  C   UNL     1       9.524  47.537  54.216  1.00  0.00     0.038 C 
ATOM     29  C   UNL     1       8.062  48.280  52.327  1.00  0.00     0.038 C 
ENDBRANCH  26  27
ENDBRANCH  25  26
ENDBRANCH  24  25
ENDBRANCH   1  24
TORSDOF 8
ENDMDL
MODEL 13
REMARK VINA RESULT:    -7.778      2.793      5.944
REMARK INTER + INTRA:         -12.283
REMARK INTER:                 -11.268
REMARK INTRA:                  -1.015
REMARK UNBOUND:                -1.094
REMARK SMILES Cc1cc(O)ccc1Nc1nc(NCCOC(C)C)nc2c1cnn2C
REMARK SMILES IDX 13 1 12 3 10 4 11 5 22 6 21 7 23 8 20 9 25 10 24 11 26 12
REMARK SMILES IDX 9 13 8 15 2 16 3 17 4 18 7 19 6 20 1 21 5 22 14 24 15 25
REMARK SMILES IDX 16 26 17 27 18 28 19 29
REMARK H PARENT 13 2 9 14 5 23
ROOT
ATOM      1  N   UNL     1       4.995  46.795  52.374  1.00  0.00    -0.352 N 
ATOM      2  H   UNL     1       5.737  47.182  51.796  1.00  0.00     0.163 HD
ENDROOT
BRANCH   1   3
ATOM      3  C   UNL     1       4.879  45.461  52.009  1.00  0.00     0.226 A 
ATOM      4  C   UNL     1       3.699  43.472  52.382  1.00  0.00     0.147 A 
ATOM      5  N   UNL     1       3.910  44.784  52.651  1.00  0.00    -0.195 NA
ATOM      6  C   UNL     1       4.515  42.863  51.426  1.00  0.00     0.082 A 
ATOM      7  C   UNL     1       5.472  43.659  50.828  1.00  0.00     0.165 A 
ATOM      8  C   UNL     1       4.690  41.597  50.830  1.00  0.00     0.149 A 
ATOM      9  N   UNL     1       5.694  44.960  51.070  1.00  0.00    -0.193 NA
ATOM     10  N   UNL     1       6.141  42.850  49.951  1.00  0.00    -0.250 N 
ATOM     11  N   UNL     1       5.676  41.580  49.925  1.00  0.00    -0.179 NA
ATOM     12  C   UNL     1       7.244  43.220  49.100  1.00  0.00     0.176 C 
BRANCH   4  13
ATOM     13  N   UNL     1       2.677  42.831  53.106  1.00  0.00    -0.339 N 
ATOM     14  H   UNL     1       3.013  42.780  54.065  1.00  0.00     0.168 HD
BRANCH  13  15
ATOM     15  C   UNL     1       1.311  43.183  53.060  1.00  0.00     0.043 A 
ATOM     16  C   UNL     1       0.690  43.983  54.039  1.00  0.00    -0.024 A 
ATOM     17  C   UNL     1      -0.678  44.280  53.909  1.00  0.00     0.051 A 
ATOM     18  C   UNL     1      -1.417  43.758  52.853  1.00  0.00     0.115 A 
ATOM     19  C   UNL     1       0.537  42.646  52.017  1.00  0.00     0.030 A 
ATOM     20  C   UNL     1      -0.823  42.937  51.907  1.00  0.00     0.048 A 
ATOM     21  C   UNL     1       1.445  44.558  55.205  1.00  0.00     0.047 C 
BRANCH  18  22
ATOM     22  O   UNL     1      -2.740  44.078  52.787  1.00  0.00    -0.508 OA
ATOM     23  H   UNL     1      -3.116  43.681  51.983  1.00  0.00     0.293 HD
ENDBRANCH  18  22
ENDBRANCH  13  15
ENDBRANCH   4  13
ENDBRANCH   1   3
BRANCH   1  24
ATOM     24  C   UNL     1       5.195  47.057  53.796  1.00  0.00     0.144 C 
BRANCH  24  25
ATOM     25  C   UNL     1       6.513  46.462  54.309  1.00  0.00     0.181 C 
BRANCH  25  26
ATOM     26  O   UNL     1       7.555  47.435  54.153  1.00  0.00    -0.377 OA
BRANCH  26  27
ATOM     27  C   UNL     1       8.526  47.070  53.170  1.00  0.00     0.112 C 
ATOM     28  C   UNL     1       9.898  47.236  53.812  1.00  0.00     0.038 C 
ATOM     29  C   UNL     1       8.402  47.972  51.948  1.00  0.00     0.038 C 
ENDBRANCH  26  27
ENDBRANCH  25  26
ENDBRANCH  24  25
ENDBRANCH   1  24
TORSDOF 8
ENDMDL
MODEL 14
REMARK VINA RESULT:    -7.754      3.104      6.916
REMARK INTER + INTRA:         -12.248
REMARK INTER:                 -11.347
REMARK INTRA:                  -0.901
REMARK UNBOUND:                -1.094
REMARK SMILES Cc1cc(O)ccc1Nc1nc(NCCOC(C)C)nc2c1cnn2C
REMARK SMILES IDX 13 1 12 3 10 4 11 5 22 6 21 7 23 8 20 9 25 10 24 11 26 12
REMARK SMILES IDX 9 13 8 15 2 16 3 17 4 18 7 19 6 20 1 21 5 22 14 24 15 25
REMARK SMILES IDX 16 26 17 27 18 28 19 29
REMARK H PARENT 13 2 9 14 5 23
ROOT
ATOM      1  N   UNL     1       5.079  41.387  50.586  1.00  0.00    -0.352 N 
ATOM      2  H   UNL     1       5.604  40.912  51.317  1.00  0.00     0.163 HD
ENDROOT
BRANCH   1   3
ATOM      3  C   UNL     1       4.499  42.495  51.188  1.00  0.00     0.226 A 
ATOM      4  C   UNL     1       4.693  44.804  51.537  1.00  0.00     0.147 A 
ATOM      5  N   UNL     1       5.161  43.651  50.998  1.00  0.00    -0.195 NA
ATOM      6  C   UNL     1       3.515  44.743  52.284  1.00  0.00     0.082 A 
ATOM      7  C   UNL     1       2.920  43.503  52.406  1.00  0.00     0.165 A 
ATOM      8  C   UNL     1       2.673  45.610  53.013  1.00  0.00     0.149 A 
ATOM      9  N   UNL     1       3.357  42.352  51.876  1.00  0.00    -0.193 NA
ATOM     10  N   UNL     1       1.806  43.694  53.177  1.00  0.00    -0.250 N 
ATOM     11  N   UNL     1       1.625  44.981  53.557  1.00  0.00    -0.179 NA
ATOM     12  C   UNL     1       0.862  42.691  53.599  1.00  0.00     0.176 C 
BRANCH   4  13
ATOM     13  N   UNL     1       5.451  45.967  51.306  1.00  0.00    -0.339 N 
ATOM     14  H   UNL     1       4.796  46.741  51.395  1.00  0.00     0.168 HD
BRANCH  13  15
ATOM     15  C   UNL     1       6.684  46.265  51.924  1.00  0.00     0.043 A 
ATOM     16  C   UNL     1       7.930  45.967  51.338  1.00  0.00    -0.024 A 
ATOM     17  C   UNL     1       9.106  46.300  52.032  1.00  0.00     0.051 A 
ATOM     18  C   UNL     1       9.043  46.877  53.295  1.00  0.00     0.115 A 
ATOM     19  C   UNL     1       6.646  46.823  53.213  1.00  0.00     0.030 A 
ATOM     20  C   UNL     1       7.820  47.137  53.897  1.00  0.00     0.048 A 
ATOM     21  C   UNL     1       8.048  45.331  49.980  1.00  0.00     0.047 C 
BRANCH  18  22
ATOM     22  O   UNL     1      10.219  47.170  53.918  1.00  0.00    -0.508 OA
ATOM     23  H   UNL     1      10.713  46.344  54.053  1.00  0.00     0.293 HD
ENDBRANCH  18  22
ENDBRANCH  13  15
ENDBRANCH   4  13
ENDBRANCH   1   3
BRANCH   1  24
ATOM     24  C   UNL     1       5.884  41.651  49.397  1.00  0.00     0.144 C 
BRANCH  24  25
ATOM     25  C   UNL     1       5.181  41.187  48.115  1.00  0.00     0.181 C 
BRANCH  25  26
ATOM     26  O   UNL     1       5.725  41.905  47.000  1.00  0.00    -0.377 OA
BRANCH  26  27
ATOM     27  C   UNL     1       5.269  41.415  45.736  1.00  0.00     0.112 C 
ATOM     28  C   UNL     1       5.194  42.610  44.793  1.00  0.00     0.038 C 
ATOM     29  C   UNL     1       3.895  40.773  45.886  1.00  0.00     0.038 C 
ENDBRANCH  26  27
ENDBRANCH  25  26
ENDBRANCH  24  25
ENDBRANCH   1  24
TORSDOF 8
ENDMDL
MODEL 15
REMARK VINA RESULT:    -7.719      2.603      5.675
REMARK INTER + INTRA:         -12.197
REMARK INTER:                 -11.375
REMARK INTRA:                  -0.823
REMARK UNBOUND:                -1.094
REMARK SMILES Cc1cc(O)ccc1Nc1nc(NCCOC(C)C)nc2c1cnn2C
REMARK SMILES IDX 13 1 12 3 10 4 11 5 22 6 21 7 23 8 20 9 25 10 24 11 26 12
REMARK SMILES IDX 9 13 8 15 2 16 3 17 4 18 7 19 6 20 1 21 5 22 14 24 15 25
REMARK SMILES IDX 16 26 17 27 18 28 19 29
REMARK H PARENT 13 2 9 14 5 23
ROOT
ATOM      1  N   UNL     1       3.133  43.354  53.016  1.00  0.00    -0.352 N 
ATOM      2  H   UNL     1       2.655  42.535  52.647  1.00  0.00     0.163 HD
ENDROOT
BRANCH   1   3
ATOM      3  C   UNL     1       4.182  43.612  52.144  1.00  0.00     0.226 A 
ATOM      4  C   UNL     1       5.825  45.166  51.536  1.00  0.00     0.147 A 
ATOM      5  N   UNL     1       4.787  44.800  52.327  1.00  0.00    -0.195 NA
ATOM      6  C   UNL     1       6.235  44.275  50.542  1.00  0.00     0.082 A 
ATOM      7  C   UNL     1       5.543  43.084  50.453  1.00  0.00     0.165 A 
ATOM      8  C   UNL     1       7.203  44.197  49.519  1.00  0.00     0.149 A 
ATOM      9  N   UNL     1       4.520  42.693  51.228  1.00  0.00    -0.193 NA
ATOM     10  N   UNL     1       6.112  42.395  49.417  1.00  0.00    -0.250 N 
ATOM     11  N   UNL     1       7.140  43.051  48.830  1.00  0.00    -0.179 NA
ATOM     12  C   UNL     1       5.724  41.098  48.922  1.00  0.00     0.176 C 
BRANCH   4  13
ATOM     13  N   UNL     1       6.395  46.430  51.781  1.00  0.00    -0.339 N 
ATOM     14  H   UNL     1       5.610  47.052  51.963  1.00  0.00     0.168 HD
BRANCH  13  15
ATOM     15  C   UNL     1       7.461  46.677  52.671  1.00  0.00     0.043 A 
ATOM     16  C   UNL     1       7.269  47.008  54.027  1.00  0.00    -0.024 A 
ATOM     17  C   UNL     1       8.394  47.239  54.838  1.00  0.00     0.051 A 
ATOM     18  C   UNL     1       9.676  47.182  54.302  1.00  0.00     0.115 A 
ATOM     19  C   UNL     1       8.764  46.653  52.147  1.00  0.00     0.030 A 
ATOM     20  C   UNL     1       9.872  46.897  52.959  1.00  0.00     0.048 A 
ATOM     21  C   UNL     1       5.902  47.094  54.648  1.00  0.00     0.047 C 
BRANCH  18  22
ATOM     22  O   UNL     1      10.724  47.422  55.139  1.00  0.00    -0.508 OA
ATOM     23  H   UNL     1      11.282  46.627  55.174  1.00  0.00     0.293 HD
ENDBRANCH  18  22
ENDBRANCH  13  15
ENDBRANCH   4  13
ENDBRANCH   1   3
BRANCH   1  24
ATOM     24  C   UNL     1       2.224  44.467  53.274  1.00  0.00     0.144 C 
BRANCH  24  25
ATOM     25  C   UNL     1       1.218  44.140  54.386  1.00  0.00     0.181 C 
BRANCH  25  26
ATOM     26  O   UNL     1       1.714  44.656  55.628  1.00  0.00    -0.377 OA
BRANCH  26  27
ATOM     27  C   UNL     1       0.687  44.864  56.602  1.00  0.00     0.112 C 
ATOM     28  C   UNL     1      -0.629  44.992  55.845  1.00  0.00     0.038 C 
ATOM     29  C   UNL     1       0.966  46.134  57.397  1.00  0.00     0.038 C 
ENDBRANCH  26  27
ENDBRANCH  25  26
ENDBRANCH  24  25
ENDBRANCH   1  24
TORSDOF 8
ENDMDL
MODEL 16
REMARK VINA RESULT:    -7.676      1.719      4.613
REMARK INTER + INTRA:         -12.135
REMARK INTER:                 -10.935
REMARK INTRA:                  -1.200
REMARK UNBOUND:                -1.094
REMARK SMILES Cc1cc(O)ccc1Nc1nc(NCCOC(C)C)nc2c1cnn2C
REMARK SMILES IDX 13 1 12 3 10 4 11 5 22 6 21 7 23 8 20 9 25 10 24 11 26 12
REMARK SMILES IDX 9 13 8 15 2 16 3 17 4 18 7 19 6 20 1 21 5 22 14 24 15 25
REMARK SMILES IDX 16 26 17 27 18 28 19 29
REMARK H PARENT 13 2 9 14 5 23
ROOT
ATOM      1  N   UNL     1       7.672  45.355  49.504  1.00  0.00    -0.352 N 
ATOM      2  H   UNL     1       6.852  45.487  48.917  1.00  0.00     0.163 HD
ENDROOT
BRANCH   1   3
ATOM      3  C   UNL     1       7.327  45.834  50.760  1.00  0.00     0.226 A 
ATOM      4  C   UNL     1       5.542  46.418  52.160  1.00  0.00     0.147 A 
ATOM      5  N   UNL     1       6.004  45.959  50.971  1.00  0.00    -0.195 NA
ATOM      6  C   UNL     1       6.479  46.748  53.141  1.00  0.00     0.082 A 
ATOM      7  C   UNL     1       7.809  46.572  52.814  1.00  0.00     0.165 A 
ATOM      8  C   UNL     1       6.506  47.244  54.461  1.00  0.00     0.149 A 
ATOM      9  N   UNL     1       8.291  46.112  51.650  1.00  0.00    -0.193 NA
ATOM     10  N   UNL     1       8.523  46.967  53.912  1.00  0.00    -0.250 N 
ATOM     11  N   UNL     1       7.747  47.376  54.943  1.00  0.00    -0.179 NA
ATOM     12  C   UNL     1       9.957  46.984  54.053  1.00  0.00     0.176 C 
BRANCH   4  13
ATOM     13  N   UNL     1       4.145  46.535  52.297  1.00  0.00    -0.339 N 
ATOM     14  H   UNL     1       3.861  47.224  51.605  1.00  0.00     0.168 HD
BRANCH  13  15
ATOM     15  C   UNL     1       3.244  45.450  52.339  1.00  0.00     0.043 A 
ATOM     16  C   UNL     1       2.959  44.734  53.519  1.00  0.00    -0.024 A 
ATOM     17  C   UNL     1       2.047  43.666  53.463  1.00  0.00     0.051 A 
ATOM     18  C   UNL     1       1.467  43.293  52.256  1.00  0.00     0.115 A 
ATOM     19  C   UNL     1       2.666  45.038  51.127  1.00  0.00     0.030 A 
ATOM     20  C   UNL     1       1.774  43.967  51.083  1.00  0.00     0.048 A 
ATOM     21  C   UNL     1       3.571  45.091  54.845  1.00  0.00     0.047 C 
BRANCH  18  22
ATOM     22  O   UNL     1       0.597  42.244  52.267  1.00  0.00    -0.508 OA
ATOM     23  H   UNL     1       0.046  42.289  51.468  1.00  0.00     0.293 HD
ENDBRANCH  18  22
ENDBRANCH  13  15
ENDBRANCH   4  13
ENDBRANCH   1   3
BRANCH   1  24
ATOM     24  C   UNL     1       8.184  43.989  49.456  1.00  0.00     0.144 C 
BRANCH  24  25
ATOM     25  C   UNL     1       7.095  42.982  49.061  1.00  0.00     0.181 C 
BRANCH  25  26
ATOM     26  O   UNL     1       6.353  42.615  50.232  1.00  0.00    -0.377 OA
BRANCH  26  27
ATOM     27  C   UNL     1       5.624  41.395  50.078  1.00  0.00     0.112 C 
ATOM     28  C   UNL     1       5.324  41.236  48.592  1.00  0.00     0.038 C 
ATOM     29  C   UNL     1       4.326  41.454  50.875  1.00  0.00     0.038 C 
ENDBRANCH  26  27
ENDBRANCH  25  26
ENDBRANCH  24  25
ENDBRANCH   1  24
TORSDOF 8
ENDMDL
MODEL 17
REMARK VINA RESULT:    -7.671      3.058      7.244
REMARK INTER + INTRA:         -12.129
REMARK INTER:                 -10.698
REMARK INTRA:                  -1.431
REMARK UNBOUND:                -1.094
REMARK SMILES Cc1cc(O)ccc1Nc1nc(NCCOC(C)C)nc2c1cnn2C
REMARK SMILES IDX 13 1 12 3 10 4 11 5 22 6 21 7 23 8 20 9 25 10 24 11 26 12
REMARK SMILES IDX 9 13 8 15 2 16 3 17 4 18 7 19 6 20 1 21 5 22 14 24 15 25
REMARK SMILES IDX 16 26 17 27 18 28 19 29
REMARK H PARENT 13 2 9 14 5 23
ROOT
ATOM      1  N   UNL     1       3.871  41.287  51.075  1.00  0.00    -0.352 N 
ATOM      2  H   UNL     1       4.741  41.352  51.598  1.00  0.00     0.163 HD
ENDROOT
BRANCH   1   3
ATOM      3  C   UNL     1       3.056  42.301  51.558  1.00  0.00     0.226 A 
ATOM      4  C   UNL     1       2.913  44.083  53.072  1.00  0.00     0.147 A 
ATOM      5  N   UNL     1       3.611  43.060  52.520  1.00  0.00    -0.195 NA
ATOM      6  C   UNL     1       1.616  44.312  52.608  1.00  0.00     0.082 A 
ATOM      7  C   UNL     1       1.154  43.473  51.614  1.00  0.00     0.165 A 
ATOM      8  C   UNL     1       0.542  45.195  52.849  1.00  0.00     0.149 A 
ATOM      9  N   UNL     1       1.827  42.462  51.045  1.00  0.00    -0.193 NA
ATOM     10  N   UNL     1      -0.122  43.882  51.338  1.00  0.00    -0.250 N 
ATOM     11  N   UNL     1      -0.521  44.944  52.076  1.00  0.00    -0.179 NA
ATOM     12  C   UNL     1      -1.028  43.304  50.378  1.00  0.00     0.176 C 
BRANCH   4  13
ATOM     13  N   UNL     1       3.558  44.821  54.082  1.00  0.00    -0.339 N 
ATOM     14  H   UNL     1       3.685  44.170  54.855  1.00  0.00     0.168 HD
BRANCH  13  15
ATOM     15  C   UNL     1       4.705  45.620  53.892  1.00  0.00     0.043 A 
ATOM     16  C   UNL     1       4.672  46.866  53.234  1.00  0.00    -0.024 A 
ATOM     17  C   UNL     1       5.867  47.592  53.090  1.00  0.00     0.051 A 
ATOM     18  C   UNL     1       7.071  47.070  53.552  1.00  0.00     0.115 A 
ATOM     19  C   UNL     1       5.937  45.103  54.324  1.00  0.00     0.030 A 
ATOM     20  C   UNL     1       7.119  45.827  54.163  1.00  0.00     0.048 A 
ATOM     21  C   UNL     1       3.397  47.464  52.708  1.00  0.00     0.047 C 
BRANCH  18  22
ATOM     22  O   UNL     1       8.196  47.820  53.375  1.00  0.00    -0.508 OA
ATOM     23  H   UNL     1       8.886  47.490  53.975  1.00  0.00     0.293 HD
ENDBRANCH  18  22
ENDBRANCH  13  15
ENDBRANCH   4  13
ENDBRANCH   1   3
BRANCH   1  24
ATOM     24  C   UNL     1       4.083  41.266  49.631  1.00  0.00     0.144 C 
BRANCH  24  25
ATOM     25  C   UNL     1       5.574  41.287  49.270  1.00  0.00     0.181 C 
BRANCH  25  26
ATOM     26  O   UNL     1       6.254  42.187  50.154  1.00  0.00    -0.377 OA
BRANCH  26  27
ATOM     27  C   UNL     1       6.468  43.482  49.587  1.00  0.00     0.112 C 
ATOM     28  C   UNL     1       7.948  43.578  49.234  1.00  0.00     0.038 C 
ATOM     29  C   UNL     1       6.093  44.565  50.592  1.00  0.00     0.038 C 
ENDBRANCH  26  27
ENDBRANCH  25  26
ENDBRANCH  24  25
ENDBRANCH   1  24
TORSDOF 8
ENDMDL
MODEL 18
REMARK VINA RESULT:    -7.627      3.071      6.758
REMARK INTER + INTRA:         -12.065
REMARK INTER:                 -11.139
REMARK INTRA:                  -0.926
REMARK UNBOUND:                -1.094
REMARK SMILES Cc1cc(O)ccc1Nc1nc(NCCOC(C)C)nc2c1cnn2C
REMARK SMILES IDX 13 1 12 3 10 4 11 5 22 6 21 7 23 8 20 9 25 10 24 11 26 12
REMARK SMILES IDX 9 13 8 15 2 16 3 17 4 18 7 19 6 20 1 21 5 22 14 24 15 25
REMARK SMILES IDX 16 26 17 27 18 28 19 29
REMARK H PARENT 13 2 9 14 5 23
ROOT
ATOM      1  N   UNL     1       4.350  41.304  50.786  1.00  0.00    -0.352 N 
ATOM      2  H   UNL     1       5.325  41.384  50.506  1.00  0.00     0.163 HD
ENDROOT
BRANCH   1   3
ATOM      3  C   UNL     1       3.991  42.548  51.288  1.00  0.00     0.226 A 
ATOM      4  C   UNL     1       4.520  44.830  51.302  1.00  0.00     0.147 A 
ATOM      5  N   UNL     1       4.770  43.566  50.879  1.00  0.00    -0.195 NA
ATOM      6  C   UNL     1       3.439  45.028  52.164  1.00  0.00     0.082 A 
ATOM      7  C   UNL     1       2.708  43.909  52.510  1.00  0.00     0.165 A 
ATOM      8  C   UNL     1       2.807  46.086  52.849  1.00  0.00     0.149 A 
ATOM      9  N   UNL     1       2.928  42.652  52.098  1.00  0.00    -0.193 NA
ATOM     10  N   UNL     1       1.726  44.348  53.355  1.00  0.00    -0.250 N 
ATOM     11  N   UNL     1       1.757  45.683  53.574  1.00  0.00    -0.179 NA
ATOM     12  C   UNL     1       0.716  43.547  53.999  1.00  0.00     0.176 C 
BRANCH   4  13
ATOM     13  N   UNL     1       5.389  45.837  50.842  1.00  0.00    -0.339 N 
ATOM     14  H   UNL     1       4.806  46.660  50.708  1.00  0.00     0.168 HD
BRANCH  13  15
ATOM     15  C   UNL     1       6.622  46.175  51.438  1.00  0.00     0.043 A 
ATOM     16  C   UNL     1       7.862  45.708  50.958  1.00  0.00    -0.024 A 
ATOM     17  C   UNL     1       9.039  46.098  51.620  1.00  0.00     0.051 A 
ATOM     18  C   UNL     1       8.980  46.898  52.756  1.00  0.00     0.115 A 
ATOM     19  C   UNL     1       6.587  46.960  52.603  1.00  0.00     0.030 A 
ATOM     20  C   UNL     1       7.761  47.328  53.259  1.00  0.00     0.048 A 
ATOM     21  C   UNL     1       7.974  44.831  49.742  1.00  0.00     0.047 C 
BRANCH  18  22
ATOM     22  O   UNL     1      10.156  47.235  53.356  1.00  0.00    -0.508 OA
ATOM     23  H   UNL     1      10.335  48.174  53.182  1.00  0.00     0.293 HD
ENDBRANCH  18  22
ENDBRANCH  13  15
ENDBRANCH   4  13
ENDBRANCH   1   3
BRANCH   1  24
ATOM     24  C   UNL     1       3.502  40.772  49.724  1.00  0.00     0.144 C 
BRANCH  24  25
ATOM     25  C   UNL     1       4.256  40.657  48.392  1.00  0.00     0.181 C 
BRANCH  25  26
ATOM     26  O   UNL     1       3.303  40.548  47.326  1.00  0.00    -0.377 OA
BRANCH  26  27
ATOM     27  C   UNL     1       3.882  40.727  46.031  1.00  0.00     0.112 C 
ATOM     28  C   UNL     1       5.137  41.572  46.214  1.00  0.00     0.038 C 
ATOM     29  C   UNL     1       2.897  41.435  45.108  1.00  0.00     0.038 C 
ENDBRANCH  26  27
ENDBRANCH  25  26
ENDBRANCH  24  25
ENDBRANCH   1  24
TORSDOF 8
ENDMDL
MODEL 19
REMARK VINA RESULT:    -7.499      2.369      6.517
REMARK INTER + INTRA:         -11.881
REMARK INTER:                 -10.918
REMARK INTRA:                  -0.963
REMARK UNBOUND:                -1.094
REMARK SMILES Cc1cc(O)ccc1Nc1nc(NCCOC(C)C)nc2c1cnn2C
REMARK SMILES IDX 13 1 12 3 10 4 11 5 22 6 21 7 23 8 20 9 25 10 24 11 26 12
REMARK SMILES IDX 9 13 8 15 2 16 3 17 4 18 7 19 6 20 1 21 5 22 14 24 15 25
REMARK SMILES IDX 16 26 17 27 18 28 19 29
REMARK H PARENT 13 2 9 14 5 23
ROOT
ATOM      1  N   UNL     1       6.445  43.869  49.334  1.00  0.00    -0.352 N 
ATOM      2  H   UNL     1       5.575  43.617  48.872  1.00  0.00     0.163 HD
ENDROOT
BRANCH   1   3
ATOM      3  C   UNL     1       6.097  44.722  50.372  1.00  0.00     0.226 A 
ATOM      4  C   UNL     1       6.787  46.559  51.652  1.00  0.00     0.147 A 
ATOM      5  N   UNL     1       7.013  45.666  50.657  1.00  0.00    -0.195 NA
ATOM      6  C   UNL     1       5.585  46.462  52.356  1.00  0.00     0.082 A 
ATOM      7  C   UNL     1       4.719  45.458  51.971  1.00  0.00     0.165 A 
ATOM      8  C   UNL     1       4.921  47.110  53.418  1.00  0.00     0.149 A 
ATOM      9  N   UNL     1       4.914  44.569  50.985  1.00  0.00    -0.193 NA
ATOM     10  N   UNL     1       3.635  45.557  52.799  1.00  0.00    -0.250 N 
ATOM     11  N   UNL     1       3.728  46.569  53.693  1.00  0.00    -0.179 NA
ATOM     12  C   UNL     1       2.466  44.715  52.800  1.00  0.00     0.176 C 
BRANCH   4  13
ATOM     13  N   UNL     1       7.801  47.505  51.899  1.00  0.00    -0.339 N 
ATOM     14  H   UNL     1       7.356  48.414  51.792  1.00  0.00     0.168 HD
BRANCH  13  15
ATOM     15  C   UNL     1       8.670  47.486  53.010  1.00  0.00     0.043 A 
ATOM     16  C   UNL     1       9.863  46.737  53.041  1.00  0.00    -0.024 A 
ATOM     17  C   UNL     1      10.665  46.781  54.194  1.00  0.00     0.051 A 
ATOM     18  C   UNL     1      10.267  47.517  55.305  1.00  0.00     0.115 A 
ATOM     19  C   UNL     1       8.277  48.201  54.154  1.00  0.00     0.030 A 
ATOM     20  C   UNL     1       9.074  48.224  55.298  1.00  0.00     0.048 A 
ATOM     21  C   UNL     1      10.327  45.916  51.870  1.00  0.00     0.047 C 
BRANCH  18  22
ATOM     22  O   UNL     1      11.086  47.513  56.394  1.00  0.00    -0.508 OA
ATOM     23  H   UNL     1      11.784  48.176  56.261  1.00  0.00     0.293 HD
ENDBRANCH  18  22
ENDBRANCH  13  15
ENDBRANCH   4  13
ENDBRANCH   1   3
BRANCH   1  24
ATOM     24  C   UNL     1       7.245  42.704  49.702  1.00  0.00     0.144 C 
BRANCH  24  25
ATOM     25  C   UNL     1       6.369  41.490  50.037  1.00  0.00     0.181 C 
BRANCH  25  26
ATOM     26  O   UNL     1       5.694  41.061  48.847  1.00  0.00    -0.377 OA
BRANCH  26  27
ATOM     27  C   UNL     1       4.270  41.154  48.941  1.00  0.00     0.112 C 
ATOM     28  C   UNL     1       3.916  41.124  50.423  1.00  0.00     0.038 C 
ATOM     29  C   UNL     1       3.617  39.982  48.217  1.00  0.00     0.038 C 
ENDBRANCH  26  27
ENDBRANCH  25  26
ENDBRANCH  24  25
ENDBRANCH   1  24
TORSDOF 8
ENDMDL
MODEL 20
REMARK VINA RESULT:    -7.482      2.741      6.771
REMARK INTER + INTRA:         -11.857
REMARK INTER:                 -10.755
REMARK INTRA:                  -1.102
REMARK UNBOUND:                -1.094
REMARK SMILES Cc1cc(O)ccc1Nc1nc(NCCOC(C)C)nc2c1cnn2C
REMARK SMILES IDX 13 1 12 3 10 4 11 5 22 6 21 7 23 8 20 9 25 10 24 11 26 12
REMARK SMILES IDX 9 13 8 15 2 16 3 17 4 18 7 19 6 20 1 21 5 22 14 24 15 25
REMARK SMILES IDX 16 26 17 27 18 28 19 29
REMARK H PARENT 13 2 9 14 5 23
ROOT
ATOM      1  N   UNL     1       4.142  41.549  51.248  1.00  0.00    -0.352 N 
ATOM      2  H   UNL     1       5.144  41.695  51.144  1.00  0.00     0.163 HD
ENDROOT
BRANCH   1   3
ATOM      3  C   UNL     1       3.635  42.726  51.781  1.00  0.00     0.226 A 
ATOM      4  C   UNL     1       3.979  45.034  51.990  1.00  0.00     0.147 A 
ATOM      5  N   UNL     1       4.371  43.823  51.522  1.00  0.00    -0.195 NA
ATOM      6  C   UNL     1       2.800  45.095  52.736  1.00  0.00     0.082 A 
ATOM      7  C   UNL     1       2.126  43.906  52.932  1.00  0.00     0.165 A 
ATOM      8  C   UNL     1       2.017  46.056  53.409  1.00  0.00     0.149 A 
ATOM      9  N   UNL     1       2.487  42.698  52.473  1.00  0.00    -0.193 NA
ATOM     10  N   UNL     1       1.029  44.214  53.687  1.00  0.00    -0.250 N 
ATOM     11  N   UNL     1       0.931  45.530  53.987  1.00  0.00    -0.179 NA
ATOM     12  C   UNL     1       0.022  43.301  54.166  1.00  0.00     0.176 C 
BRANCH   4  13
ATOM     13  N   UNL     1       4.810  46.130  51.690  1.00  0.00    -0.339 N 
ATOM     14  H   UNL     1       4.274  46.956  51.947  1.00  0.00     0.168 HD
BRANCH  13  15
ATOM     15  C   UNL     1       6.159  46.252  52.083  1.00  0.00     0.043 A 
ATOM     16  C   UNL     1       6.550  46.642  53.379  1.00  0.00    -0.024 A 
ATOM     17  C   UNL     1       7.920  46.737  53.678  1.00  0.00     0.051 A 
ATOM     18  C   UNL     1       8.876  46.490  52.699  1.00  0.00     0.115 A 
ATOM     19  C   UNL     1       7.143  46.034  51.104  1.00  0.00     0.030 A 
ATOM     20  C   UNL     1       8.500  46.145  51.409  1.00  0.00     0.048 A 
ATOM     21  C   UNL     1       5.553  46.932  54.467  1.00  0.00     0.047 C 
BRANCH  18  22
ATOM     22  O   UNL     1      10.188  46.606  53.050  1.00  0.00    -0.508 OA
ATOM     23  H   UNL     1      10.244  46.700  54.016  1.00  0.00     0.293 HD
ENDBRANCH  18  22
ENDBRANCH  13  15
ENDBRANCH   4  13
ENDBRANCH   1   3
BRANCH   1  24
ATOM     24  C   UNL     1       3.512  41.076  50.019  1.00  0.00     0.144 C 
BRANCH  24  25
ATOM     25  C   UNL     1       4.546  40.750  48.934  1.00  0.00     0.181 C 
BRANCH  25  26
ATOM     26  O   UNL     1       5.811  41.309  49.313  1.00  0.00    -0.377 OA
BRANCH  26  27
ATOM     27  C   UNL     1       6.115  42.530  48.634  1.00  0.00     0.112 C 
ATOM     28  C   UNL     1       6.109  42.226  47.140  1.00  0.00     0.038 C 
ATOM     29  C   UNL     1       7.485  43.043  49.063  1.00  0.00     0.038 C 
ENDBRANCH  26  27
ENDBRANCH  25  26
ENDBRANCH  24  25
ENDBRANCH   1  24
TORSDOF 8
ENDMDL
