MODEL 1
REMARK VINA RESULT:    -8.315      0.000      0.000
REMARK INTER + INTRA:         -11.936
REMARK INTER:                 -11.474
REMARK INTRA:                  -0.462
REMARK UNBOUND:                -0.462
REMARK SMILES CCc1ccc(Nc2nc(NCCO)nc3c2ncn3C)cc1
REMARK SMILES IDX 8 1 9 2 10 3 15 4 16 5 17 6 18 7 19 8 20 9 21 10 7 11 6 13
REMARK SMILES IDX 3 14 4 15 23 16 5 17 22 18 2 19 1 20 11 21 12 23 13 24 14 25
REMARK H PARENT 7 12 11 22 14 26
ROOT
ATOM      1  C   UNL     1       3.009  44.310  53.913  1.00  0.00     0.164 A 
ATOM      2  N   UNL     1       3.060  45.022  55.073  1.00  0.00    -0.193 NA
ATOM      3  C   UNL     1       1.930  45.306  55.756  1.00  0.00     0.226 A 
ATOM      4  N   UNL     1       0.684  44.956  55.396  1.00  0.00    -0.193 NA
ATOM      5  C   UNL     1       0.662  44.257  54.255  1.00  0.00     0.167 A 
ATOM      6  C   UNL     1       1.740  43.903  53.468  1.00  0.00     0.150 A 
ATOM      7  N   UNL     1       1.328  43.195  52.355  1.00  0.00    -0.231 NA
ATOM      8  C   UNL     1       0.019  43.115  52.476  1.00  0.00     0.201 A 
ATOM      9  N   UNL     1      -0.425  43.742  53.609  1.00  0.00    -0.318 N 
ATOM     10  C   UNL     1      -1.789  43.846  54.054  1.00  0.00     0.153 C 
ENDROOT
BRANCH   1  11
ATOM     11  N   UNL     1       4.146  44.006  53.149  1.00  0.00    -0.338 N 
ATOM     12  H   UNL     1       4.138  43.035  52.849  1.00  0.00     0.168 HD
BRANCH  11  13
ATOM     13  C   UNL     1       5.309  44.725  52.843  1.00  0.00     0.040 A 
ATOM     14  C   UNL     1       7.590  46.239  52.091  1.00  0.00    -0.048 A 
ATOM     15  C   UNL     1       6.739  45.707  51.120  1.00  0.00     0.006 A 
ATOM     16  C   UNL     1       7.295  46.008  53.438  1.00  0.00     0.006 A 
ATOM     17  C   UNL     1       5.612  44.967  51.494  1.00  0.00     0.026 A 
ATOM     18  C   UNL     1       6.165  45.267  53.804  1.00  0.00     0.026 A 
BRANCH  14  19
ATOM     19  C   UNL     1       8.815  47.020  51.696  1.00  0.00     0.032 C 
ATOM     20  C   UNL     1      10.003  46.700  52.591  1.00  0.00     0.009 C 
ENDBRANCH  14  19
ENDBRANCH  11  13
ENDBRANCH   1  11
BRANCH   3  21
ATOM     21  N   UNL     1       2.013  46.044  56.929  1.00  0.00    -0.352 N 
ATOM     22  H   UNL     1       2.703  45.576  57.511  1.00  0.00     0.163 HD
BRANCH  21  23
ATOM     23  C   UNL     1       0.753  46.280  57.628  1.00  0.00     0.144 C 
BRANCH  23  24
ATOM     24  C   UNL     1       0.949  47.119  58.896  1.00  0.00     0.177 C 
BRANCH  24  25
ATOM     25  O   UNL     1       2.187  46.774  59.522  1.00  0.00    -0.395 OA
ATOM     26  H   UNL     1       1.969  46.482  60.424  1.00  0.00     0.210 HD
ENDBRANCH  24  25
ENDBRANCH  23  24
ENDBRANCH  21  23
ENDBRANCH   3  21
TORSDOF 7
ENDMDL
MODEL 2
REMARK VINA RESULT:    -8.304      2.703      4.628
REMARK INTER + INTRA:         -11.922
REMARK INTER:                 -11.526
REMARK INTRA:                  -0.395
REMARK UNBOUND:                -0.462
REMARK SMILES CCc1ccc(Nc2nc(NCCO)nc3c2ncn3C)cc1
REMARK SMILES IDX 8 1 9 2 10 3 15 4 16 5 17 6 18 7 19 8 20 9 21 10 7 11 6 13
REMARK SMILES IDX 3 14 4 15 23 16 5 17 22 18 2 19 1 20 11 21 12 23 13 24 14 25
REMARK H PARENT 7 12 11 22 14 26
ROOT
ATOM      1  C   UNL     1       5.889  44.510  51.567  1.00  0.00     0.164 A 
ATOM      2  N   UNL     1       4.921  44.638  52.516  1.00  0.00    -0.193 NA
ATOM      3  C   UNL     1       3.881  43.778  52.560  1.00  0.00     0.226 A 
ATOM      4  N   UNL     1       3.672  42.754  51.716  1.00  0.00    -0.193 NA
ATOM      5  C   UNL     1       4.636  42.650  50.794  1.00  0.00     0.167 A 
ATOM      6  C   UNL     1       5.744  43.460  50.645  1.00  0.00     0.150 A 
ATOM      7  N   UNL     1       6.512  43.055  49.569  1.00  0.00    -0.231 NA
ATOM      8  C   UNL     1       5.878  42.006  49.084  1.00  0.00     0.201 A 
ATOM      9  N   UNL     1       4.742  41.727  49.793  1.00  0.00    -0.318 N 
ATOM     10  C   UNL     1       3.816  40.655  49.543  1.00  0.00     0.153 C 
ENDROOT
BRANCH   1  11
ATOM     11  N   UNL     1       6.978  45.388  51.458  1.00  0.00    -0.338 N 
ATOM     12  H   UNL     1       7.329  45.422  50.505  1.00  0.00     0.168 HD
BRANCH  11  13
ATOM     13  C   UNL     1       7.728  46.098  52.405  1.00  0.00     0.040 A 
ATOM     14  C   UNL     1       9.160  47.468  54.438  1.00  0.00    -0.048 A 
ATOM     15  C   UNL     1       7.810  47.150  54.610  1.00  0.00     0.006 A 
ATOM     16  C   UNL     1       9.787  47.099  53.245  1.00  0.00     0.006 A 
ATOM     17  C   UNL     1       7.110  46.470  53.609  1.00  0.00     0.026 A 
ATOM     18  C   UNL     1       9.079  46.417  52.247  1.00  0.00     0.026 A 
BRANCH  14  19
ATOM     19  C   UNL     1       9.916  48.217  55.503  1.00  0.00     0.032 C 
ATOM     20  C   UNL     1      11.020  47.369  56.116  1.00  0.00     0.009 C 
ENDBRANCH  14  19
ENDBRANCH  11  13
ENDBRANCH   1  11
BRANCH   3  21
ATOM     21  N   UNL     1       2.904  43.942  53.533  1.00  0.00    -0.352 N 
ATOM     22  H   UNL     1       2.082  43.445  53.197  1.00  0.00     0.163 HD
BRANCH  21  23
ATOM     23  C   UNL     1       2.611  45.319  53.920  1.00  0.00     0.144 C 
BRANCH  23  24
ATOM     24  C   UNL     1       3.009  45.602  55.374  1.00  0.00     0.177 C 
BRANCH  24  25
ATOM     25  O   UNL     1       4.188  44.865  55.709  1.00  0.00    -0.395 OA
ATOM     26  H   UNL     1       4.141  44.029  55.214  1.00  0.00     0.210 HD
ENDBRANCH  24  25
ENDBRANCH  23  24
ENDBRANCH  21  23
ENDBRANCH   3  21
TORSDOF 7
ENDMDL
MODEL 3
REMARK VINA RESULT:    -8.292      1.349      1.720
REMARK INTER + INTRA:         -11.904
REMARK INTER:                 -11.316
REMARK INTRA:                  -0.588
REMARK UNBOUND:                -0.462
REMARK SMILES CCc1ccc(Nc2nc(NCCO)nc3c2ncn3C)cc1
REMARK SMILES IDX 8 1 9 2 10 3 15 4 16 5 17 6 18 7 19 8 20 9 21 10 7 11 6 13
REMARK SMILES IDX 3 14 4 15 23 16 5 17 22 18 2 19 1 20 11 21 12 23 13 24 14 25
REMARK H PARENT 7 12 11 22 14 26
ROOT
ATOM      1  C   UNL     1       3.052  45.584  52.948  1.00  0.00     0.164 A 
ATOM      2  N   UNL     1       2.961  45.786  54.291  1.00  0.00    -0.193 NA
ATOM      3  C   UNL     1       2.111  45.054  55.043  1.00  0.00     0.226 A 
ATOM      4  N   UNL     1       1.285  44.097  54.588  1.00  0.00    -0.193 NA
ATOM      5  C   UNL     1       1.393  43.917  53.267  1.00  0.00     0.167 A 
ATOM      6  C   UNL     1       2.220  44.596  52.394  1.00  0.00     0.150 A 
ATOM      7  N   UNL     1       2.046  44.147  51.098  1.00  0.00    -0.231 NA
ATOM      8  C   UNL     1       1.133  43.201  51.193  1.00  0.00     0.201 A 
ATOM      9  N   UNL     1       0.713  43.030  52.484  1.00  0.00    -0.318 N 
ATOM     10  C   UNL     1      -0.268  42.086  52.948  1.00  0.00     0.153 C 
ENDROOT
BRANCH   1  11
ATOM     11  N   UNL     1       3.898  46.329  52.114  1.00  0.00    -0.338 N 
ATOM     12  H   UNL     1       3.372  46.802  51.385  1.00  0.00     0.168 HD
BRANCH  11  13
ATOM     13  C   UNL     1       5.292  46.436  52.021  1.00  0.00     0.040 A 
ATOM     14  C   UNL     1       8.121  46.675  51.993  1.00  0.00    -0.048 A 
ATOM     15  C   UNL     1       7.358  47.381  52.925  1.00  0.00     0.006 A 
ATOM     16  C   UNL     1       7.462  45.851  51.075  1.00  0.00     0.006 A 
ATOM     17  C   UNL     1       5.965  47.257  52.940  1.00  0.00     0.026 A 
ATOM     18  C   UNL     1       6.067  45.731  51.098  1.00  0.00     0.026 A 
BRANCH  14  19
ATOM     19  C   UNL     1       9.620  46.818  51.957  1.00  0.00     0.032 C 
ATOM     20  C   UNL     1      10.209  46.949  53.354  1.00  0.00     0.009 C 
ENDBRANCH  14  19
ENDBRANCH  11  13
ENDBRANCH   1  11
BRANCH   3  21
ATOM     21  N   UNL     1       2.033  45.293  56.408  1.00  0.00    -0.352 N 
ATOM     22  H   UNL     1       2.495  44.508  56.861  1.00  0.00     0.163 HD
BRANCH  21  23
ATOM     23  C   UNL     1       0.696  45.542  56.939  1.00  0.00     0.144 C 
BRANCH  23  24
ATOM     24  C   UNL     1       0.700  46.643  58.007  1.00  0.00     0.177 C 
BRANCH  24  25
ATOM     25  O   UNL     1       1.947  46.639  58.707  1.00  0.00    -0.395 OA
ATOM     26  H   UNL     1       2.210  47.570  58.809  1.00  0.00     0.210 HD
ENDBRANCH  24  25
ENDBRANCH  23  24
ENDBRANCH  21  23
ENDBRANCH   3  21
TORSDOF 7
ENDMDL
MODEL 4
REMARK VINA RESULT:    -8.291      3.501      5.363
REMARK INTER + INTRA:         -11.903
REMARK INTER:                 -11.365
REMARK INTRA:                  -0.539
REMARK UNBOUND:                -0.462
REMARK SMILES CCc1ccc(Nc2nc(NCCO)nc3c2ncn3C)cc1
REMARK SMILES IDX 8 1 9 2 10 3 15 4 16 5 17 6 18 7 19 8 20 9 21 10 7 11 6 13
REMARK SMILES IDX 3 14 4 15 23 16 5 17 22 18 2 19 1 20 11 21 12 23 13 24 14 25
REMARK H PARENT 7 12 11 22 14 26
ROOT
ATOM      1  C   UNL     1       4.290  44.831  51.856  1.00  0.00     0.164 A 
ATOM      2  N   UNL     1       4.558  43.592  51.358  1.00  0.00    -0.193 NA
ATOM      3  C   UNL     1       3.720  42.560  51.592  1.00  0.00     0.226 A 
ATOM      4  N   UNL     1       2.588  42.614  52.314  1.00  0.00    -0.193 NA
ATOM      5  C   UNL     1       2.348  43.841  52.790  1.00  0.00     0.167 A 
ATOM      6  C   UNL     1       3.121  44.972  52.621  1.00  0.00     0.150 A 
ATOM      7  N   UNL     1       2.561  46.055  53.273  1.00  0.00    -0.231 NA
ATOM      8  C   UNL     1       1.459  45.582  53.819  1.00  0.00     0.201 A 
ATOM      9  N   UNL     1       1.292  44.251  53.552  1.00  0.00    -0.318 N 
ATOM     10  C   UNL     1       0.201  43.419  53.987  1.00  0.00     0.153 C 
ENDROOT
BRANCH   1  11
ATOM     11  N   UNL     1       5.135  45.934  51.665  1.00  0.00    -0.338 N 
ATOM     12  H   UNL     1       4.762  46.566  50.962  1.00  0.00     0.168 HD
BRANCH  11  13
ATOM     13  C   UNL     1       6.412  46.252  52.147  1.00  0.00     0.040 A 
ATOM     14  C   UNL     1       8.960  46.822  53.263  1.00  0.00    -0.048 A 
ATOM     15  C   UNL     1       7.824  46.772  54.074  1.00  0.00     0.006 A 
ATOM     16  C   UNL     1       8.814  46.587  51.893  1.00  0.00     0.006 A 
ATOM     17  C   UNL     1       6.571  46.485  53.522  1.00  0.00     0.026 A 
ATOM     18  C   UNL     1       7.557  46.298  51.347  1.00  0.00     0.026 A 
BRANCH  14  19
ATOM     19  C   UNL     1      10.309  47.149  53.846  1.00  0.00     0.032 C 
ATOM     20  C   UNL     1      10.219  47.478  55.329  1.00  0.00     0.009 C 
ENDBRANCH  14  19
ENDBRANCH  11  13
ENDBRANCH   1  11
BRANCH   3  21
ATOM     21  N   UNL     1       4.028  41.306  51.081  1.00  0.00    -0.352 N 
ATOM     22  H   UNL     1       4.824  40.968  51.616  1.00  0.00     0.163 HD
BRANCH  21  23
ATOM     23  C   UNL     1       4.249  41.239  49.639  1.00  0.00     0.144 C 
BRANCH  23  24
ATOM     24  C   UNL     1       5.742  41.252  49.287  1.00  0.00     0.177 C 
BRANCH  24  25
ATOM     25  O   UNL     1       5.907  41.274  47.867  1.00  0.00    -0.395 OA
ATOM     26  H   UNL     1       5.026  41.437  47.488  1.00  0.00     0.210 HD
ENDBRANCH  24  25
ENDBRANCH  23  24
ENDBRANCH  21  23
ENDBRANCH   3  21
TORSDOF 7
ENDMDL
MODEL 5
REMARK VINA RESULT:    -8.208      3.525      5.320
REMARK INTER + INTRA:         -11.789
REMARK INTER:                 -11.123
REMARK INTRA:                  -0.667
REMARK UNBOUND:                -0.462
REMARK SMILES CCc1ccc(Nc2nc(NCCO)nc3c2ncn3C)cc1
REMARK SMILES IDX 8 1 9 2 10 3 15 4 16 5 17 6 18 7 19 8 20 9 21 10 7 11 6 13
REMARK SMILES IDX 3 14 4 15 23 16 5 17 22 18 2 19 1 20 11 21 12 23 13 24 14 25
REMARK H PARENT 7 12 11 22 14 26
ROOT
ATOM      1  C   UNL     1       4.232  44.802  51.804  1.00  0.00     0.164 A 
ATOM      2  N   UNL     1       4.350  43.582  51.210  1.00  0.00    -0.193 NA
ATOM      3  C   UNL     1       3.443  42.610  51.447  1.00  0.00     0.226 A 
ATOM      4  N   UNL     1       2.379  42.708  52.261  1.00  0.00    -0.193 NA
ATOM      5  C   UNL     1       2.286  43.915  52.831  1.00  0.00     0.167 A 
ATOM      6  C   UNL     1       3.141  44.987  52.670  1.00  0.00     0.150 A 
ATOM      7  N   UNL     1       2.732  46.065  53.432  1.00  0.00    -0.231 NA
ATOM      8  C   UNL     1       1.637  45.650  54.036  1.00  0.00     0.201 A 
ATOM      9  N   UNL     1       1.331  44.359  53.701  1.00  0.00    -0.318 N 
ATOM     10  C   UNL     1       0.207  43.594  54.171  1.00  0.00     0.153 C 
ENDROOT
BRANCH   1  11
ATOM     11  N   UNL     1       5.155  45.840  51.614  1.00  0.00    -0.338 N 
ATOM     12  H   UNL     1       4.898  46.420  50.820  1.00  0.00     0.168 HD
BRANCH  11  13
ATOM     13  C   UNL     1       6.388  46.140  52.209  1.00  0.00     0.040 A 
ATOM     14  C   UNL     1       8.929  46.821  53.277  1.00  0.00    -0.048 A 
ATOM     15  C   UNL     1       8.781  46.548  51.915  1.00  0.00     0.006 A 
ATOM     16  C   UNL     1       7.802  46.750  54.100  1.00  0.00     0.006 A 
ATOM     17  C   UNL     1       7.526  46.219  51.391  1.00  0.00     0.026 A 
ATOM     18  C   UNL     1       6.549  46.422  53.568  1.00  0.00     0.026 A 
BRANCH  14  19
ATOM     19  C   UNL     1      10.280  47.157  53.851  1.00  0.00     0.032 C 
ATOM     20  C   UNL     1      10.191  47.531  55.323  1.00  0.00     0.009 C 
ENDBRANCH  14  19
ENDBRANCH  11  13
ENDBRANCH   1  11
BRANCH   3  21
ATOM     21  N   UNL     1       3.598  41.373  50.835  1.00  0.00    -0.352 N 
ATOM     22  H   UNL     1       3.462  40.676  51.563  1.00  0.00     0.163 HD
BRANCH  21  23
ATOM     23  C   UNL     1       4.839  41.177  50.092  1.00  0.00     0.144 C 
BRANCH  23  24
ATOM     24  C   UNL     1       4.583  40.943  48.598  1.00  0.00     0.177 C 
BRANCH  24  25
ATOM     25  O   UNL     1       5.785  41.167  47.857  1.00  0.00    -0.395 OA
ATOM     26  H   UNL     1       5.958  42.124  47.894  1.00  0.00     0.210 HD
ENDBRANCH  24  25
ENDBRANCH  23  24
ENDBRANCH  21  23
ENDBRANCH   3  21
TORSDOF 7
ENDMDL
MODEL 6
REMARK VINA RESULT:    -8.208      3.784      5.103
REMARK INTER + INTRA:         -11.789
REMARK INTER:                 -11.213
REMARK INTRA:                  -0.577
REMARK UNBOUND:                -0.462
REMARK SMILES CCc1ccc(Nc2nc(NCCO)nc3c2ncn3C)cc1
REMARK SMILES IDX 8 1 9 2 10 3 15 4 16 5 17 6 18 7 19 8 20 9 21 10 7 11 6 13
REMARK SMILES IDX 3 14 4 15 23 16 5 17 22 18 2 19 1 20 11 21 12 23 13 24 14 25
REMARK H PARENT 7 12 11 22 14 26
ROOT
ATOM      1  C   UNL     1       3.757  44.873  51.971  1.00  0.00     0.164 A 
ATOM      2  N   UNL     1       4.371  43.695  51.674  1.00  0.00    -0.193 NA
ATOM      3  C   UNL     1       3.646  42.583  51.428  1.00  0.00     0.226 A 
ATOM      4  N   UNL     1       2.305  42.497  51.454  1.00  0.00    -0.193 NA
ATOM      5  C   UNL     1       1.727  43.667  51.748  1.00  0.00     0.167 A 
ATOM      6  C   UNL     1       2.353  44.868  52.017  1.00  0.00     0.150 A 
ATOM      7  N   UNL     1       1.428  45.857  52.293  1.00  0.00    -0.231 NA
ATOM      8  C   UNL     1       0.258  45.260  52.180  1.00  0.00     0.201 A 
ATOM      9  N   UNL     1       0.393  43.939  51.851  1.00  0.00    -0.318 N 
ATOM     10  C   UNL     1      -0.672  42.993  51.646  1.00  0.00     0.153 C 
ENDROOT
BRANCH   1  11
ATOM     11  N   UNL     1       4.459  46.053  52.260  1.00  0.00    -0.338 N 
ATOM     12  H   UNL     1       3.888  46.874  52.076  1.00  0.00     0.168 HD
BRANCH  11  13
ATOM     13  C   UNL     1       5.790  46.308  52.614  1.00  0.00     0.040 A 
ATOM     14  C   UNL     1       8.508  46.896  53.189  1.00  0.00    -0.048 A 
ATOM     15  C   UNL     1       8.101  46.623  51.881  1.00  0.00     0.006 A 
ATOM     16  C   UNL     1       7.549  46.871  54.206  1.00  0.00     0.006 A 
ATOM     17  C   UNL     1       6.760  46.340  51.601  1.00  0.00     0.026 A 
ATOM     18  C   UNL     1       6.208  46.589  53.918  1.00  0.00     0.026 A 
BRANCH  14  19
ATOM     19  C   UNL     1       9.953  47.182  53.502  1.00  0.00     0.032 C 
ATOM     20  C   UNL     1      10.193  47.306  54.999  1.00  0.00     0.009 C 
ENDBRANCH  14  19
ENDBRANCH  11  13
ENDBRANCH   1  11
BRANCH   3  21
ATOM     21  N   UNL     1       4.302  41.394  51.139  1.00  0.00    -0.352 N 
ATOM     22  H   UNL     1       5.140  41.384  51.715  1.00  0.00     0.163 HD
BRANCH  21  23
ATOM     23  C   UNL     1       4.585  41.145  49.728  1.00  0.00     0.144 C 
BRANCH  23  24
ATOM     24  C   UNL     1       5.981  41.640  49.328  1.00  0.00     0.177 C 
BRANCH  24  25
ATOM     25  O   UNL     1       6.982  40.835  49.956  1.00  0.00    -0.395 OA
ATOM     26  H   UNL     1       6.527  40.047  50.301  1.00  0.00     0.210 HD
ENDBRANCH  24  25
ENDBRANCH  23  24
ENDBRANCH  21  23
ENDBRANCH   3  21
TORSDOF 7
ENDMDL
MODEL 7
REMARK VINA RESULT:    -8.203      3.789      5.129
REMARK INTER + INTRA:         -11.782
REMARK INTER:                 -11.292
REMARK INTRA:                  -0.489
REMARK UNBOUND:                -0.462
REMARK SMILES CCc1ccc(Nc2nc(NCCO)nc3c2ncn3C)cc1
REMARK SMILES IDX 8 1 9 2 10 3 15 4 16 5 17 6 18 7 19 8 20 9 21 10 7 11 6 13
REMARK SMILES IDX 3 14 4 15 23 16 5 17 22 18 2 19 1 20 11 21 12 23 13 24 14 25
REMARK H PARENT 7 12 11 22 14 26
ROOT
ATOM      1  C   UNL     1       3.654  44.923  52.120  1.00  0.00     0.164 A 
ATOM      2  N   UNL     1       4.281  43.754  51.813  1.00  0.00    -0.193 NA
ATOM      3  C   UNL     1       3.568  42.656  51.480  1.00  0.00     0.226 A 
ATOM      4  N   UNL     1       2.229  42.576  51.423  1.00  0.00    -0.193 NA
ATOM      5  C   UNL     1       1.637  43.737  51.728  1.00  0.00     0.167 A 
ATOM      6  C   UNL     1       2.249  44.922  52.082  1.00  0.00     0.150 A 
ATOM      7  N   UNL     1       1.312  45.905  52.341  1.00  0.00    -0.231 NA
ATOM      8  C   UNL     1       0.149  45.319  52.135  1.00  0.00     0.201 A 
ATOM      9  N   UNL     1       0.300  44.011  51.763  1.00  0.00    -0.318 N 
ATOM     10  C   UNL     1      -0.754  43.080  51.458  1.00  0.00     0.153 C 
ENDROOT
BRANCH   1  11
ATOM     11  N   UNL     1       4.340  46.087  52.496  1.00  0.00    -0.338 N 
ATOM     12  H   UNL     1       3.711  46.883  52.550  1.00  0.00     0.168 HD
BRANCH  11  13
ATOM     13  C   UNL     1       5.699  46.376  52.677  1.00  0.00     0.040 A 
ATOM     14  C   UNL     1       8.443  46.896  53.191  1.00  0.00    -0.048 A 
ATOM     15  C   UNL     1       7.508  46.921  54.229  1.00  0.00     0.006 A 
ATOM     16  C   UNL     1       7.997  46.612  51.897  1.00  0.00     0.006 A 
ATOM     17  C   UNL     1       6.158  46.658  53.973  1.00  0.00     0.026 A 
ATOM     18  C   UNL     1       6.644  46.348  51.649  1.00  0.00     0.026 A 
BRANCH  14  19
ATOM     19  C   UNL     1       9.894  47.197  53.455  1.00  0.00     0.032 C 
ATOM     20  C   UNL     1      10.181  47.340  54.942  1.00  0.00     0.009 C 
ENDBRANCH  14  19
ENDBRANCH  11  13
ENDBRANCH   1  11
BRANCH   3  21
ATOM     21  N   UNL     1       4.237  41.476  51.184  1.00  0.00    -0.352 N 
ATOM     22  H   UNL     1       4.944  41.361  51.905  1.00  0.00     0.163 HD
BRANCH  21  23
ATOM     23  C   UNL     1       4.786  41.373  49.834  1.00  0.00     0.144 C 
BRANCH  23  24
ATOM     24  C   UNL     1       6.233  41.876  49.765  1.00  0.00     0.177 C 
BRANCH  24  25
ATOM     25  O   UNL     1       7.137  40.796  50.014  1.00  0.00    -0.395 OA
ATOM     26  H   UNL     1       6.901  40.088  49.390  1.00  0.00     0.210 HD
ENDBRANCH  24  25
ENDBRANCH  23  24
ENDBRANCH  21  23
ENDBRANCH   3  21
TORSDOF 7
ENDMDL
MODEL 8
REMARK VINA RESULT:    -8.191      2.738      4.525
REMARK INTER + INTRA:         -11.766
REMARK INTER:                 -11.157
REMARK INTRA:                  -0.608
REMARK UNBOUND:                -0.462
REMARK SMILES CCc1ccc(Nc2nc(NCCO)nc3c2ncn3C)cc1
REMARK SMILES IDX 8 1 9 2 10 3 15 4 16 5 17 6 18 7 19 8 20 9 21 10 7 11 6 13
REMARK SMILES IDX 3 14 4 15 23 16 5 17 22 18 2 19 1 20 11 21 12 23 13 24 14 25
REMARK H PARENT 7 12 11 22 14 26
ROOT
ATOM      1  C   UNL     1       5.568  44.342  51.507  1.00  0.00     0.164 A 
ATOM      2  N   UNL     1       4.562  44.404  52.423  1.00  0.00    -0.193 NA
ATOM      3  C   UNL     1       3.566  43.493  52.416  1.00  0.00     0.226 A 
ATOM      4  N   UNL     1       3.438  42.475  51.548  1.00  0.00    -0.193 NA
ATOM      5  C   UNL     1       4.438  42.436  50.660  1.00  0.00     0.167 A 
ATOM      6  C   UNL     1       5.508  43.303  50.564  1.00  0.00     0.150 A 
ATOM      7  N   UNL     1       6.333  42.955  49.510  1.00  0.00    -0.231 NA
ATOM      8  C   UNL     1       5.770  41.885  48.985  1.00  0.00     0.201 A 
ATOM      9  N   UNL     1       4.625  41.538  49.649  1.00  0.00    -0.318 N 
ATOM     10  C   UNL     1       3.764  40.425  49.348  1.00  0.00     0.153 C 
ENDROOT
BRANCH   1  11
ATOM     11  N   UNL     1       6.614  45.274  51.452  1.00  0.00    -0.338 N 
ATOM     12  H   UNL     1       6.971  45.370  50.505  1.00  0.00     0.168 HD
BRANCH  11  13
ATOM     13  C   UNL     1       7.322  45.974  52.439  1.00  0.00     0.040 A 
ATOM     14  C   UNL     1       8.838  47.464  54.321  1.00  0.00    -0.048 A 
ATOM     15  C   UNL     1       9.403  47.070  53.106  1.00  0.00     0.006 A 
ATOM     16  C   UNL     1       7.513  47.107  54.589  1.00  0.00     0.006 A 
ATOM     17  C   UNL     1       8.651  46.341  52.178  1.00  0.00     0.026 A 
ATOM     18  C   UNL     1       6.766  46.379  53.655  1.00  0.00     0.026 A 
BRANCH  14  19
ATOM     19  C   UNL     1       9.646  48.231  55.333  1.00  0.00     0.032 C 
ATOM     20  C   UNL     1      10.833  47.425  55.839  1.00  0.00     0.009 C 
ENDBRANCH  14  19
ENDBRANCH  11  13
ENDBRANCH   1  11
BRANCH   3  21
ATOM     21  N   UNL     1       2.548  43.591  53.356  1.00  0.00    -0.352 N 
ATOM     22  H   UNL     1       1.735  43.142  52.942  1.00  0.00     0.163 HD
BRANCH  21  23
ATOM     23  C   UNL     1       2.261  44.934  53.850  1.00  0.00     0.144 C 
BRANCH  23  24
ATOM     24  C   UNL     1       2.553  45.068  55.350  1.00  0.00     0.177 C 
BRANCH  24  25
ATOM     25  O   UNL     1       3.954  44.915  55.588  1.00  0.00    -0.395 OA
ATOM     26  H   UNL     1       4.328  45.813  55.626  1.00  0.00     0.210 HD
ENDBRANCH  24  25
ENDBRANCH  23  24
ENDBRANCH  21  23
ENDBRANCH   3  21
TORSDOF 7
ENDMDL
MODEL 9
REMARK VINA RESULT:    -8.043      3.850      5.554
REMARK INTER + INTRA:         -11.561
REMARK INTER:                 -10.916
REMARK INTRA:                  -0.645
REMARK UNBOUND:                -0.462
REMARK SMILES CCc1ccc(Nc2nc(NCCO)nc3c2ncn3C)cc1
REMARK SMILES IDX 8 1 9 2 10 3 15 4 16 5 17 6 18 7 19 8 20 9 21 10 7 11 6 13
REMARK SMILES IDX 3 14 4 15 23 16 5 17 22 18 2 19 1 20 11 21 12 23 13 24 14 25
REMARK H PARENT 7 12 11 22 14 26
ROOT
ATOM      1  C   UNL     1       4.992  44.715  51.254  1.00  0.00     0.164 A 
ATOM      2  N   UNL     1       5.087  43.382  50.995  1.00  0.00    -0.193 NA
ATOM      3  C   UNL     1       4.005  42.580  51.104  1.00  0.00     0.226 A 
ATOM      4  N   UNL     1       2.773  42.967  51.470  1.00  0.00    -0.193 NA
ATOM      5  C   UNL     1       2.706  44.281  51.718  1.00  0.00     0.167 A 
ATOM      6  C   UNL     1       3.732  45.201  51.643  1.00  0.00     0.150 A 
ATOM      7  N   UNL     1       3.288  46.465  51.986  1.00  0.00    -0.231 NA
ATOM      8  C   UNL     1       2.008  46.307  52.253  1.00  0.00     0.201 A 
ATOM      9  N   UNL     1       1.615  45.005  52.103  1.00  0.00    -0.318 N 
ATOM     10  C   UNL     1       0.291  44.480  52.309  1.00  0.00     0.153 C 
ENDROOT
BRANCH   1  11
ATOM     11  N   UNL     1       6.084  45.591  51.183  1.00  0.00    -0.338 N 
ATOM     12  H   UNL     1       6.386  45.725  50.222  1.00  0.00     0.168 HD
BRANCH  11  13
ATOM     13  C   UNL     1       6.892  46.190  52.159  1.00  0.00     0.040 A 
ATOM     14  C   UNL     1       8.565  47.519  54.029  1.00  0.00    -0.048 A 
ATOM     15  C   UNL     1       8.867  47.539  52.665  1.00  0.00     0.006 A 
ATOM     16  C   UNL     1       7.424  46.830  54.451  1.00  0.00     0.006 A 
ATOM     17  C   UNL     1       8.037  46.889  51.746  1.00  0.00     0.026 A 
ATOM     18  C   UNL     1       6.597  46.182  53.525  1.00  0.00     0.026 A 
BRANCH  14  19
ATOM     19  C   UNL     1       9.464  48.200  55.027  1.00  0.00     0.032 C 
ATOM     20  C   UNL     1      10.575  47.278  55.508  1.00  0.00     0.009 C 
ENDBRANCH  14  19
ENDBRANCH  11  13
ENDBRANCH   1  11
BRANCH   3  21
ATOM     21  N   UNL     1       4.138  41.222  50.844  1.00  0.00    -0.352 N 
ATOM     22  H   UNL     1       5.067  40.961  51.165  1.00  0.00     0.163 HD
BRANCH  21  23
ATOM     23  C   UNL     1       3.878  40.805  49.469  1.00  0.00     0.144 C 
BRANCH  23  24
ATOM     24  C   UNL     1       5.065  41.102  48.546  1.00  0.00     0.177 C 
BRANCH  24  25
ATOM     25  O   UNL     1       6.291  40.965  49.269  1.00  0.00    -0.395 OA
ATOM     26  H   UNL     1       6.498  40.014  49.286  1.00  0.00     0.210 HD
ENDBRANCH  24  25
ENDBRANCH  23  24
ENDBRANCH  21  23
ENDBRANCH   3  21
TORSDOF 7
ENDMDL
MODEL 10
REMARK VINA RESULT:    -7.936      1.257      1.845
REMARK INTER + INTRA:         -11.413
REMARK INTER:                 -10.539
REMARK INTRA:                  -0.874
REMARK UNBOUND:                -0.462
REMARK SMILES CCc1ccc(Nc2nc(NCCO)nc3c2ncn3C)cc1
REMARK SMILES IDX 8 1 9 2 10 3 15 4 16 5 17 6 18 7 19 8 20 9 21 10 7 11 6 13
REMARK SMILES IDX 3 14 4 15 23 16 5 17 22 18 2 19 1 20 11 21 12 23 13 24 14 25
REMARK H PARENT 7 12 11 22 14 26
ROOT
ATOM      1  C   UNL     1       2.751  44.362  53.805  1.00  0.00     0.164 A 
ATOM      2  N   UNL     1       1.976  44.966  54.748  1.00  0.00    -0.193 NA
ATOM      3  C   UNL     1       0.643  45.092  54.567  1.00  0.00     0.226 A 
ATOM      4  N   UNL     1      -0.047  44.675  53.494  1.00  0.00    -0.193 NA
ATOM      5  C   UNL     1       0.736  44.084  52.583  1.00  0.00     0.167 A 
ATOM      6  C   UNL     1       2.102  43.894  52.651  1.00  0.00     0.150 A 
ATOM      7  N   UNL     1       2.569  43.259  51.515  1.00  0.00    -0.231 NA
ATOM      8  C   UNL     1       1.494  43.060  50.778  1.00  0.00     0.201 A 
ATOM      9  N   UNL     1       0.367  43.542  51.386  1.00  0.00    -0.318 N 
ATOM     10  C   UNL     1      -0.975  43.492  50.869  1.00  0.00     0.153 C 
ENDROOT
BRANCH   1  11
ATOM     11  N   UNL     1       4.141  44.224  53.928  1.00  0.00    -0.338 N 
ATOM     12  H   UNL     1       4.382  43.433  54.518  1.00  0.00     0.168 HD
BRANCH  11  13
ATOM     13  C   UNL     1       5.218  45.019  53.512  1.00  0.00     0.040 A 
ATOM     14  C   UNL     1       7.472  46.596  52.810  1.00  0.00    -0.048 A 
ATOM     15  C   UNL     1       7.067  46.489  54.142  1.00  0.00     0.006 A 
ATOM     16  C   UNL     1       6.744  45.911  51.832  1.00  0.00     0.006 A 
ATOM     17  C   UNL     1       5.959  45.707  54.485  1.00  0.00     0.026 A 
ATOM     18  C   UNL     1       5.637  45.129  52.184  1.00  0.00     0.026 A 
BRANCH  14  19
ATOM     19  C   UNL     1       8.651  47.451  52.430  1.00  0.00     0.032 C 
ATOM     20  C   UNL     1       9.964  46.690  52.547  1.00  0.00     0.009 C 
ENDBRANCH  14  19
ENDBRANCH  11  13
ENDBRANCH   1  11
BRANCH   3  21
ATOM     21  N   UNL     1      -0.117  45.724  55.542  1.00  0.00    -0.352 N 
ATOM     22  H   UNL     1       0.044  46.722  55.426  1.00  0.00     0.163 HD
BRANCH  21  23
ATOM     23  C   UNL     1       0.098  45.274  56.914  1.00  0.00     0.144 C 
BRANCH  23  24
ATOM     24  C   UNL     1       0.718  46.371  57.787  1.00  0.00     0.177 C 
BRANCH  24  25
ATOM     25  O   UNL     1       2.133  46.413  57.585  1.00  0.00    -0.395 OA
ATOM     26  H   UNL     1       2.403  45.514  57.332  1.00  0.00     0.210 HD
ENDBRANCH  24  25
ENDBRANCH  23  24
ENDBRANCH  21  23
ENDBRANCH   3  21
TORSDOF 7
ENDMDL
MODEL 11
REMARK VINA RESULT:    -7.815      2.924      4.479
REMARK INTER + INTRA:         -11.247
REMARK INTER:                 -10.837
REMARK INTRA:                  -0.410
REMARK UNBOUND:                -0.462
REMARK SMILES CCc1ccc(Nc2nc(NCCO)nc3c2ncn3C)cc1
REMARK SMILES IDX 8 1 9 2 10 3 15 4 16 5 17 6 18 7 19 8 20 9 21 10 7 11 6 13
REMARK SMILES IDX 3 14 4 15 23 16 5 17 22 18 2 19 1 20 11 21 12 23 13 24 14 25
REMARK H PARENT 7 12 11 22 14 26
ROOT
ATOM      1  C   UNL     1       3.233  44.879  53.903  1.00  0.00     0.164 A 
ATOM      2  N   UNL     1       3.377  43.946  52.921  1.00  0.00    -0.193 NA
ATOM      3  C   UNL     1       2.354  43.126  52.594  1.00  0.00     0.226 A 
ATOM      4  N   UNL     1       1.140  43.117  53.168  1.00  0.00    -0.193 NA
ATOM      5  C   UNL     1       1.024  44.043  54.128  1.00  0.00     0.167 A 
ATOM      6  C   UNL     1       1.988  44.935  54.552  1.00  0.00     0.150 A 
ATOM      7  N   UNL     1       1.510  45.730  55.577  1.00  0.00    -0.231 NA
ATOM      8  C   UNL     1       0.268  45.327  55.759  1.00  0.00     0.201 A 
ATOM      9  N   UNL     1      -0.066  44.311  54.905  1.00  0.00    -0.318 N 
ATOM     10  C   UNL     1      -1.335  43.639  54.827  1.00  0.00     0.153 C 
ENDROOT
BRANCH   1  11
ATOM     11  N   UNL     1       4.266  45.739  54.301  1.00  0.00    -0.338 N 
ATOM     12  H   UNL     1       3.990  46.299  55.103  1.00  0.00     0.168 HD
BRANCH  11  13
ATOM     13  C   UNL     1       5.513  46.055  53.744  1.00  0.00     0.040 A 
ATOM     14  C   UNL     1       7.961  46.782  52.504  1.00  0.00    -0.048 A 
ATOM     15  C   UNL     1       6.797  46.634  51.746  1.00  0.00     0.006 A 
ATOM     16  C   UNL     1       7.894  46.562  53.883  1.00  0.00     0.006 A 
ATOM     17  C   UNL     1       5.591  46.282  52.361  1.00  0.00     0.026 A 
ATOM     18  C   UNL     1       6.683  46.211  54.492  1.00  0.00     0.026 A 
BRANCH  14  19
ATOM     19  C   UNL     1       9.267  47.142  51.847  1.00  0.00     0.032 C 
ATOM     20  C   UNL     1      10.313  46.052  52.031  1.00  0.00     0.009 C 
ENDBRANCH  14  19
ENDBRANCH  11  13
ENDBRANCH   1  11
BRANCH   3  21
ATOM     21  N   UNL     1       2.537  42.178  51.597  1.00  0.00    -0.352 N 
ATOM     22  H   UNL     1       2.021  41.352  51.892  1.00  0.00     0.163 HD
BRANCH  21  23
ATOM     23  C   UNL     1       3.921  41.880  51.242  1.00  0.00     0.144 C 
BRANCH  23  24
ATOM     24  C   UNL     1       4.022  41.121  49.913  1.00  0.00     0.177 C 
BRANCH  24  25
ATOM     25  O   UNL     1       3.131  40.003  49.922  1.00  0.00    -0.395 OA
ATOM     26  H   UNL     1       3.641  39.245  50.257  1.00  0.00     0.210 HD
ENDBRANCH  24  25
ENDBRANCH  23  24
ENDBRANCH  21  23
ENDBRANCH   3  21
TORSDOF 7
ENDMDL
MODEL 12
REMARK VINA RESULT:    -7.812      4.314      6.808
REMARK INTER + INTRA:         -11.243
REMARK INTER:                 -10.683
REMARK INTRA:                  -0.560
REMARK UNBOUND:                -0.462
REMARK SMILES CCc1ccc(Nc2nc(NCCO)nc3c2ncn3C)cc1
REMARK SMILES IDX 8 1 9 2 10 3 15 4 16 5 17 6 18 7 19 8 20 9 21 10 7 11 6 13
REMARK SMILES IDX 3 14 4 15 23 16 5 17 22 18 2 19 1 20 11 21 12 23 13 24 14 25
REMARK H PARENT 7 12 11 22 14 26
ROOT
ATOM      1  C   UNL     1       6.738  45.388  51.165  1.00  0.00     0.164 A 
ATOM      2  N   UNL     1       7.094  44.544  50.159  1.00  0.00    -0.193 NA
ATOM      3  C   UNL     1       6.382  43.422  49.916  1.00  0.00     0.226 A 
ATOM      4  N   UNL     1       5.302  43.013  50.602  1.00  0.00    -0.193 NA
ATOM      5  C   UNL     1       4.973  43.860  51.585  1.00  0.00     0.167 A 
ATOM      6  C   UNL     1       5.615  45.032  51.931  1.00  0.00     0.150 A 
ATOM      7  N   UNL     1       4.997  45.635  53.010  1.00  0.00    -0.231 NA
ATOM      8  C   UNL     1       3.987  44.840  53.302  1.00  0.00     0.201 A 
ATOM      9  N   UNL     1       3.936  43.758  52.466  1.00  0.00    -0.318 N 
ATOM     10  C   UNL     1       2.966  42.695  52.497  1.00  0.00     0.153 C 
ENDROOT
BRANCH   1  11
ATOM     11  N   UNL     1       7.454  46.553  51.479  1.00  0.00    -0.338 N 
ATOM     12  H   UNL     1       7.448  47.209  50.703  1.00  0.00     0.168 HD
BRANCH  11  13
ATOM     13  C   UNL     1       8.255  46.915  52.570  1.00  0.00     0.040 A 
ATOM     14  C   UNL     1       9.745  47.650  54.873  1.00  0.00    -0.048 A 
ATOM     15  C   UNL     1       8.427  48.085  54.711  1.00  0.00     0.006 A 
ATOM     16  C   UNL     1      10.312  46.849  53.878  1.00  0.00     0.006 A 
ATOM     17  C   UNL     1       7.694  47.716  53.578  1.00  0.00     0.026 A 
ATOM     18  C   UNL     1       9.571  46.482  52.747  1.00  0.00     0.026 A 
BRANCH  14  19
ATOM     19  C   UNL     1      10.547  48.059  56.080  1.00  0.00     0.032 C 
ATOM     20  C   UNL     1      11.542  46.983  56.488  1.00  0.00     0.009 C 
ENDBRANCH  14  19
ENDBRANCH  11  13
ENDBRANCH   1  11
BRANCH   3  21
ATOM     21  N   UNL     1       6.777  42.575  48.890  1.00  0.00    -0.352 N 
ATOM     22  H   UNL     1       6.915  43.163  48.072  1.00  0.00     0.163 HD
BRANCH  21  23
ATOM     23  C   UNL     1       5.900  41.438  48.624  1.00  0.00     0.144 C 
BRANCH  23  24
ATOM     24  C   UNL     1       5.342  41.466  47.196  1.00  0.00     0.177 C 
BRANCH  24  25
ATOM     25  O   UNL     1       4.239  40.563  47.087  1.00  0.00    -0.395 OA
ATOM     26  H   UNL     1       3.579  40.850  47.742  1.00  0.00     0.210 HD
ENDBRANCH  24  25
ENDBRANCH  23  24
ENDBRANCH  21  23
ENDBRANCH   3  21
TORSDOF 7
ENDMDL
MODEL 13
REMARK VINA RESULT:    -7.808      3.511      6.773
REMARK INTER + INTRA:         -11.237
REMARK INTER:                 -10.784
REMARK INTRA:                  -0.453
REMARK UNBOUND:                -0.462
REMARK SMILES CCc1ccc(Nc2nc(NCCO)nc3c2ncn3C)cc1
REMARK SMILES IDX 8 1 9 2 10 3 15 4 16 5 17 6 18 7 19 8 20 9 21 10 7 11 6 13
REMARK SMILES IDX 3 14 4 15 23 16 5 17 22 18 2 19 1 20 11 21 12 23 13 24 14 25
REMARK H PARENT 7 12 11 22 14 26
ROOT
ATOM      1  C   UNL     1       6.856  45.998  52.140  1.00  0.00     0.164 A 
ATOM      2  N   UNL     1       5.813  46.336  52.948  1.00  0.00    -0.193 NA
ATOM      3  C   UNL     1       6.030  46.937  54.138  1.00  0.00     0.226 A 
ATOM      4  N   UNL     1       7.230  47.249  54.654  1.00  0.00    -0.193 NA
ATOM      5  C   UNL     1       8.237  46.907  53.841  1.00  0.00     0.167 A 
ATOM      6  C   UNL     1       8.147  46.293  52.608  1.00  0.00     0.150 A 
ATOM      7  N   UNL     1       9.402  46.082  52.068  1.00  0.00    -0.231 NA
ATOM      8  C   UNL     1      10.236  46.574  52.962  1.00  0.00     0.201 A 
ATOM      9  N   UNL     1       9.575  47.082  54.046  1.00  0.00    -0.318 N 
ATOM     10  C   UNL     1      10.171  47.696  55.203  1.00  0.00     0.153 C 
ENDROOT
BRANCH   1  11
ATOM     11  N   UNL     1       6.693  45.351  50.906  1.00  0.00    -0.338 N 
ATOM     12  H   UNL     1       7.011  45.936  50.139  1.00  0.00     0.168 HD
BRANCH  11  13
ATOM     13  C   UNL     1       6.076  44.149  50.534  1.00  0.00     0.040 A 
ATOM     14  C   UNL     1       4.683  41.785  49.802  1.00  0.00    -0.048 A 
ATOM     15  C   UNL     1       4.144  42.665  50.744  1.00  0.00     0.006 A 
ATOM     16  C   UNL     1       5.921  42.093  49.231  1.00  0.00     0.006 A 
ATOM     17  C   UNL     1       4.830  43.832  51.097  1.00  0.00     0.026 A 
ATOM     18  C   UNL     1       6.601  43.264  49.589  1.00  0.00     0.026 A 
BRANCH  14  19
ATOM     19  C   UNL     1       3.960  40.518  49.430  1.00  0.00     0.032 C 
ATOM     20  C   UNL     1       3.747  40.408  47.928  1.00  0.00     0.009 C 
ENDBRANCH  14  19
ENDBRANCH  11  13
ENDBRANCH   1  11
BRANCH   3  21
ATOM     21  N   UNL     1       4.946  47.259  54.944  1.00  0.00    -0.352 N 
ATOM     22  H   UNL     1       5.191  46.958  55.883  1.00  0.00     0.163 HD
BRANCH  21  23
ATOM     23  C   UNL     1       3.650  46.747  54.508  1.00  0.00     0.144 C 
BRANCH  23  24
ATOM     24  C   UNL     1       3.174  45.577  55.378  1.00  0.00     0.177 C 
BRANCH  24  25
ATOM     25  O   UNL     1       4.197  44.580  55.456  1.00  0.00    -0.395 OA
ATOM     26  H   UNL     1       4.646  44.711  56.310  1.00  0.00     0.210 HD
ENDBRANCH  24  25
ENDBRANCH  23  24
ENDBRANCH  21  23
ENDBRANCH   3  21
TORSDOF 7
ENDMDL
MODEL 14
REMARK VINA RESULT:    -7.764      1.836      2.205
REMARK INTER + INTRA:         -11.176
REMARK INTER:                 -10.667
REMARK INTRA:                  -0.509
REMARK UNBOUND:                -0.462
REMARK SMILES CCc1ccc(Nc2nc(NCCO)nc3c2ncn3C)cc1
REMARK SMILES IDX 8 1 9 2 10 3 15 4 16 5 17 6 18 7 19 8 20 9 21 10 7 11 6 13
REMARK SMILES IDX 3 14 4 15 23 16 5 17 22 18 2 19 1 20 11 21 12 23 13 24 14 25
REMARK H PARENT 7 12 11 22 14 26
ROOT
ATOM      1  C   UNL     1       2.365  45.588  53.626  1.00  0.00     0.164 A 
ATOM      2  N   UNL     1       2.401  45.694  54.983  1.00  0.00    -0.193 NA
ATOM      3  C   UNL     1       1.324  45.367  55.729  1.00  0.00     0.226 A 
ATOM      4  N   UNL     1       0.144  44.932  55.257  1.00  0.00    -0.193 NA
ATOM      5  C   UNL     1       0.135  44.835  53.922  1.00  0.00     0.167 A 
ATOM      6  C   UNL     1       1.165  45.136  53.053  1.00  0.00     0.150 A 
ATOM      7  N   UNL     1       0.782  44.927  51.741  1.00  0.00    -0.231 NA
ATOM      8  C   UNL     1      -0.461  44.495  51.822  1.00  0.00     0.201 A 
ATOM      9  N   UNL     1      -0.890  44.424  53.119  1.00  0.00    -0.318 N 
ATOM     10  C   UNL     1      -2.186  43.992  53.572  1.00  0.00     0.153 C 
ENDROOT
BRANCH   1  11
ATOM     11  N   UNL     1       3.444  45.936  52.800  1.00  0.00    -0.338 N 
ATOM     12  H   UNL     1       3.555  46.944  52.746  1.00  0.00     0.168 HD
BRANCH  11  13
ATOM     13  C   UNL     1       4.283  45.189  51.963  1.00  0.00     0.040 A 
ATOM     14  C   UNL     1       6.103  43.778  50.301  1.00  0.00    -0.048 A 
ATOM     15  C   UNL     1       6.212  45.162  50.460  1.00  0.00     0.006 A 
ATOM     16  C   UNL     1       5.080  43.106  50.976  1.00  0.00     0.006 A 
ATOM     17  C   UNL     1       5.317  45.853  51.284  1.00  0.00     0.026 A 
ATOM     18  C   UNL     1       4.189  43.804  51.800  1.00  0.00     0.026 A 
BRANCH  14  19
ATOM     19  C   UNL     1       7.050  43.030  49.401  1.00  0.00     0.032 C 
ATOM     20  C   UNL     1       8.294  43.847  49.084  1.00  0.00     0.009 C 
ENDBRANCH  14  19
ENDBRANCH  11  13
ENDBRANCH   1  11
BRANCH   3  21
ATOM     21  N   UNL     1       1.388  45.498  57.110  1.00  0.00    -0.352 N 
ATOM     22  H   UNL     1       1.367  44.553  57.486  1.00  0.00     0.163 HD
BRANCH  21  23
ATOM     23  C   UNL     1       0.387  46.370  57.717  1.00  0.00     0.144 C 
BRANCH  23  24
ATOM     24  C   UNL     1       0.964  47.176  58.888  1.00  0.00     0.177 C 
BRANCH  24  25
ATOM     25  O   UNL     1       2.222  46.625  59.285  1.00  0.00    -0.395 OA
ATOM     26  H   UNL     1       2.810  47.379  59.466  1.00  0.00     0.210 HD
ENDBRANCH  24  25
ENDBRANCH  23  24
ENDBRANCH  21  23
ENDBRANCH   3  21
TORSDOF 7
ENDMDL
MODEL 15
REMARK VINA RESULT:    -7.652      3.447      7.268
REMARK INTER + INTRA:         -11.021
REMARK INTER:                 -10.499
REMARK INTRA:                  -0.522
REMARK UNBOUND:                -0.462
REMARK SMILES CCc1ccc(Nc2nc(NCCO)nc3c2ncn3C)cc1
REMARK SMILES IDX 8 1 9 2 10 3 15 4 16 5 17 6 18 7 19 8 20 9 21 10 7 11 6 13
REMARK SMILES IDX 3 14 4 15 23 16 5 17 22 18 2 19 1 20 11 21 12 23 13 24 14 25
REMARK H PARENT 7 12 11 22 14 26
ROOT
ATOM      1  C   UNL     1       6.025  47.039  52.713  1.00  0.00     0.164 A 
ATOM      2  N   UNL     1       7.163  47.502  53.300  1.00  0.00    -0.193 NA
ATOM      3  C   UNL     1       8.376  47.106  52.858  1.00  0.00     0.226 A 
ATOM      4  N   UNL     1       8.605  46.247  51.851  1.00  0.00    -0.193 NA
ATOM      5  C   UNL     1       7.471  45.808  51.291  1.00  0.00     0.167 A 
ATOM      6  C   UNL     1       6.178  46.136  51.647  1.00  0.00     0.150 A 
ATOM      7  N   UNL     1       5.263  45.474  50.851  1.00  0.00    -0.231 NA
ATOM      8  C   UNL     1       5.997  44.764  50.018  1.00  0.00     0.201 A 
ATOM      9  N   UNL     1       7.335  44.937  50.248  1.00  0.00    -0.318 N 
ATOM     10  C   UNL     1       8.416  44.321  49.526  1.00  0.00     0.153 C 
ENDROOT
BRANCH   1  11
ATOM     11  N   UNL     1       4.739  47.395  53.144  1.00  0.00    -0.338 N 
ATOM     12  H   UNL     1       4.643  48.404  53.218  1.00  0.00     0.168 HD
BRANCH  11  13
ATOM     13  C   UNL     1       3.645  46.648  53.600  1.00  0.00     0.040 A 
ATOM     14  C   UNL     1       1.398  45.092  54.372  1.00  0.00    -0.048 A 
ATOM     15  C   UNL     1       1.418  45.751  53.140  1.00  0.00     0.006 A 
ATOM     16  C   UNL     1       2.507  45.218  55.214  1.00  0.00     0.006 A 
ATOM     17  C   UNL     1       2.529  46.512  52.761  1.00  0.00     0.026 A 
ATOM     18  C   UNL     1       3.616  45.980  54.827  1.00  0.00     0.026 A 
BRANCH  14  19
ATOM     19  C   UNL     1       0.199  44.288  54.796  1.00  0.00     0.032 C 
ATOM     20  C   UNL     1      -0.199  43.266  53.741  1.00  0.00     0.009 C 
ENDBRANCH  14  19
ENDBRANCH  11  13
ENDBRANCH   1  11
BRANCH   3  21
ATOM     21  N   UNL     1       9.518  47.586  53.485  1.00  0.00    -0.352 N 
ATOM     22  H   UNL     1      10.239  46.884  53.340  1.00  0.00     0.163 HD
BRANCH  21  23
ATOM     23  C   UNL     1       9.368  47.959  54.889  1.00  0.00     0.144 C 
BRANCH  23  24
ATOM     24  C   UNL     1      10.587  47.549  55.724  1.00  0.00     0.177 C 
BRANCH  24  25
ATOM     25  O   UNL     1      10.571  48.235  56.979  1.00  0.00    -0.395 OA
ATOM     26  H   UNL     1      11.239  47.802  57.539  1.00  0.00     0.210 HD
ENDBRANCH  24  25
ENDBRANCH  23  24
ENDBRANCH  21  23
ENDBRANCH   3  21
TORSDOF 7
ENDMDL
MODEL 16
REMARK VINA RESULT:    -7.648      2.740      4.482
REMARK INTER + INTRA:         -11.016
REMARK INTER:                 -10.327
REMARK INTRA:                  -0.689
REMARK UNBOUND:                -0.462
REMARK SMILES CCc1ccc(Nc2nc(NCCO)nc3c2ncn3C)cc1
REMARK SMILES IDX 8 1 9 2 10 3 15 4 16 5 17 6 18 7 19 8 20 9 21 10 7 11 6 13
REMARK SMILES IDX 3 14 4 15 23 16 5 17 22 18 2 19 1 20 11 21 12 23 13 24 14 25
REMARK H PARENT 7 12 11 22 14 26
ROOT
ATOM      1  C   UNL     1       4.630  45.099  52.148  1.00  0.00     0.164 A 
ATOM      2  N   UNL     1       3.567  44.955  52.987  1.00  0.00    -0.193 NA
ATOM      3  C   UNL     1       2.807  43.839  52.951  1.00  0.00     0.226 A 
ATOM      4  N   UNL     1       2.983  42.794  52.126  1.00  0.00    -0.193 NA
ATOM      5  C   UNL     1       4.033  42.960  51.313  1.00  0.00     0.167 A 
ATOM      6  C   UNL     1       4.883  44.046  51.253  1.00  0.00     0.150 A 
ATOM      7  N   UNL     1       5.846  43.867  50.277  1.00  0.00    -0.231 NA
ATOM      8  C   UNL     1       5.584  42.681  49.764  1.00  0.00     0.201 A 
ATOM      9  N   UNL     1       4.499  42.099  50.361  1.00  0.00    -0.318 N 
ATOM     10  C   UNL     1       3.939  40.810  50.052  1.00  0.00     0.153 C 
ENDROOT
BRANCH   1  11
ATOM     11  N   UNL     1       5.438  46.244  52.123  1.00  0.00    -0.338 N 
ATOM     12  H   UNL     1       5.034  46.967  51.535  1.00  0.00     0.168 HD
BRANCH  11  13
ATOM     13  C   UNL     1       6.715  46.521  52.632  1.00  0.00     0.040 A 
ATOM     14  C   UNL     1       9.252  47.024  53.803  1.00  0.00    -0.048 A 
ATOM     15  C   UNL     1       8.086  47.108  54.569  1.00  0.00     0.006 A 
ATOM     16  C   UNL     1       9.140  46.690  52.450  1.00  0.00     0.006 A 
ATOM     17  C   UNL     1       6.838  46.853  53.989  1.00  0.00     0.026 A 
ATOM     18  C   UNL     1       7.888  46.435  51.878  1.00  0.00     0.026 A 
BRANCH  14  19
ATOM     19  C   UNL     1      10.596  47.316  54.414  1.00  0.00     0.032 C 
ATOM     20  C   UNL     1      10.485  47.645  55.896  1.00  0.00     0.009 C 
ENDBRANCH  14  19
ENDBRANCH  11  13
ENDBRANCH   1  11
BRANCH   3  21
ATOM     21  N   UNL     1       1.722  43.728  53.811  1.00  0.00    -0.352 N 
ATOM     22  H   UNL     1       1.311  42.815  53.634  1.00  0.00     0.163 HD
BRANCH  21  23
ATOM     23  C   UNL     1       0.743  44.809  53.750  1.00  0.00     0.144 C 
BRANCH  23  24
ATOM     24  C   UNL     1      -0.093  44.753  52.465  1.00  0.00     0.177 C 
BRANCH  24  25
ATOM     25  O   UNL     1      -0.909  45.923  52.363  1.00  0.00    -0.395 OA
ATOM     26  H   UNL     1      -0.360  46.670  52.658  1.00  0.00     0.210 HD
ENDBRANCH  24  25
ENDBRANCH  23  24
ENDBRANCH  21  23
ENDBRANCH   3  21
TORSDOF 7
ENDMDL
MODEL 17
REMARK VINA RESULT:    -7.520      2.557      3.489
REMARK INTER + INTRA:         -10.839
REMARK INTER:                 -10.252
REMARK INTRA:                  -0.587
REMARK UNBOUND:                -0.462
REMARK SMILES CCc1ccc(Nc2nc(NCCO)nc3c2ncn3C)cc1
REMARK SMILES IDX 8 1 9 2 10 3 15 4 16 5 17 6 18 7 19 8 20 9 21 10 7 11 6 13
REMARK SMILES IDX 3 14 4 15 23 16 5 17 22 18 2 19 1 20 11 21 12 23 13 24 14 25
REMARK H PARENT 7 12 11 22 14 26
ROOT
ATOM      1  C   UNL     1       2.475  43.650  53.423  1.00  0.00     0.164 A 
ATOM      2  N   UNL     1       3.339  44.498  54.046  1.00  0.00    -0.193 NA
ATOM      3  C   UNL     1       2.914  45.307  55.040  1.00  0.00     0.226 A 
ATOM      4  N   UNL     1       1.657  45.385  55.507  1.00  0.00    -0.193 NA
ATOM      5  C   UNL     1       0.829  44.542  54.879  1.00  0.00     0.167 A 
ATOM      6  C   UNL     1       1.139  43.669  53.856  1.00  0.00     0.150 A 
ATOM      7  N   UNL     1       0.019  42.969  53.448  1.00  0.00    -0.231 NA
ATOM      8  C   UNL     1      -0.951  43.408  54.225  1.00  0.00     0.201 A 
ATOM      9  N   UNL     1      -0.505  44.357  55.103  1.00  0.00    -0.318 N 
ATOM     10  C   UNL     1      -1.290  45.045  56.094  1.00  0.00     0.153 C 
ENDROOT
BRANCH   1  11
ATOM     11  N   UNL     1       2.854  42.805  52.369  1.00  0.00    -0.338 N 
ATOM     12  H   UNL     1       2.253  41.987  52.320  1.00  0.00     0.168 HD
BRANCH  11  13
ATOM     13  C   UNL     1       3.943  42.810  51.487  1.00  0.00     0.040 A 
ATOM     14  C   UNL     1       6.213  42.942  49.787  1.00  0.00    -0.048 A 
ATOM     15  C   UNL     1       5.721  44.093  50.406  1.00  0.00     0.006 A 
ATOM     16  C   UNL     1       5.562  41.727  50.021  1.00  0.00     0.006 A 
ATOM     17  C   UNL     1       4.606  44.024  51.248  1.00  0.00     0.026 A 
ATOM     18  C   UNL     1       4.447  41.665  50.866  1.00  0.00     0.026 A 
BRANCH  14  19
ATOM     19  C   UNL     1       7.400  43.011  48.864  1.00  0.00     0.032 C 
ATOM     20  C   UNL     1       8.370  44.111  49.271  1.00  0.00     0.009 C 
ENDBRANCH  14  19
ENDBRANCH  11  13
ENDBRANCH   1  11
BRANCH   3  21
ATOM     21  N   UNL     1       3.818  46.169  55.647  1.00  0.00    -0.352 N 
ATOM     22  H   UNL     1       3.292  46.685  56.348  1.00  0.00     0.163 HD
BRANCH  21  23
ATOM     23  C   UNL     1       4.571  47.042  54.751  1.00  0.00     0.144 C 
BRANCH  23  24
ATOM     24  C   UNL     1       6.062  46.685  54.724  1.00  0.00     0.177 C 
BRANCH  24  25
ATOM     25  O   UNL     1       6.240  45.374  54.181  1.00  0.00    -0.395 OA
ATOM     26  H   UNL     1       5.872  45.395  53.281  1.00  0.00     0.210 HD
ENDBRANCH  24  25
ENDBRANCH  23  24
ENDBRANCH  21  23
ENDBRANCH   3  21
TORSDOF 7
ENDMDL
MODEL 18
REMARK VINA RESULT:    -7.519      2.284      3.878
REMARK INTER + INTRA:         -10.838
REMARK INTER:                 -10.072
REMARK INTRA:                  -0.767
REMARK UNBOUND:                -0.462
REMARK SMILES CCc1ccc(Nc2nc(NCCO)nc3c2ncn3C)cc1
REMARK SMILES IDX 8 1 9 2 10 3 15 4 16 5 17 6 18 7 19 8 20 9 21 10 7 11 6 13
REMARK SMILES IDX 3 14 4 15 23 16 5 17 22 18 2 19 1 20 11 21 12 23 13 24 14 25
REMARK H PARENT 7 12 11 22 14 26
ROOT
ATOM      1  C   UNL     1       2.850  44.252  52.677  1.00  0.00     0.164 A 
ATOM      2  N   UNL     1       1.954  44.155  51.656  1.00  0.00    -0.193 NA
ATOM      3  C   UNL     1       0.649  44.443  51.855  1.00  0.00     0.226 A 
ATOM      4  N   UNL     1       0.097  44.827  53.018  1.00  0.00    -0.193 NA
ATOM      5  C   UNL     1       0.998  44.916  54.003  1.00  0.00     0.167 A 
ATOM      6  C   UNL     1       2.351  44.652  53.928  1.00  0.00     0.150 A 
ATOM      7  N   UNL     1       2.960  44.838  55.155  1.00  0.00    -0.231 NA
ATOM      8  C   UNL     1       1.986  45.220  55.956  1.00  0.00     0.201 A 
ATOM      9  N   UNL     1       0.786  45.281  55.301  1.00  0.00    -0.318 N 
ATOM     10  C   UNL     1      -0.481  45.663  55.867  1.00  0.00     0.153 C 
ENDROOT
BRANCH   1  11
ATOM     11  N   UNL     1       4.210  43.943  52.536  1.00  0.00    -0.338 N 
ATOM     12  H   UNL     1       4.377  42.949  52.666  1.00  0.00     0.168 HD
BRANCH  11  13
ATOM     13  C   UNL     1       5.357  44.734  52.385  1.00  0.00     0.040 A 
ATOM     14  C   UNL     1       7.622  46.387  51.938  1.00  0.00    -0.048 A 
ATOM     15  C   UNL     1       6.957  45.788  50.866  1.00  0.00     0.006 A 
ATOM     16  C   UNL     1       7.149  46.154  53.233  1.00  0.00     0.006 A 
ATOM     17  C   UNL     1       5.838  44.979  51.090  1.00  0.00     0.026 A 
ATOM     18  C   UNL     1       6.027  45.344  53.449  1.00  0.00     0.026 A 
BRANCH  14  19
ATOM     19  C   UNL     1       8.839  47.243  51.708  1.00  0.00     0.032 C 
ATOM     20  C   UNL     1      10.108  46.567  52.204  1.00  0.00     0.009 C 
ENDBRANCH  14  19
ENDBRANCH  11  13
ENDBRANCH   1  11
BRANCH   3  21
ATOM     21  N   UNL     1      -0.242  44.323  50.797  1.00  0.00    -0.352 N 
ATOM     22  H   UNL     1      -0.072  45.121  50.190  1.00  0.00     0.163 HD
BRANCH  21  23
ATOM     23  C   UNL     1      -1.649  44.179  51.158  1.00  0.00     0.144 C 
BRANCH  23  24
ATOM     24  C   UNL     1      -2.454  45.447  50.846  1.00  0.00     0.177 C 
BRANCH  24  25
ATOM     25  O   UNL     1      -2.155  46.462  51.807  1.00  0.00    -0.395 OA
ATOM     26  H   UNL     1      -2.529  47.290  51.460  1.00  0.00     0.210 HD
ENDBRANCH  24  25
ENDBRANCH  23  24
ENDBRANCH  21  23
ENDBRANCH   3  21
TORSDOF 7
ENDMDL
MODEL 19
REMARK VINA RESULT:    -7.482      3.746      8.123
REMARK INTER + INTRA:         -10.787
REMARK INTER:                 -10.191
REMARK INTRA:                  -0.596
REMARK UNBOUND:                -0.462
REMARK SMILES CCc1ccc(Nc2nc(NCCO)nc3c2ncn3C)cc1
REMARK SMILES IDX 8 1 9 2 10 3 15 4 16 5 17 6 18 7 19 8 20 9 21 10 7 11 6 13
REMARK SMILES IDX 3 14 4 15 23 16 5 17 22 18 2 19 1 20 11 21 12 23 13 24 14 25
REMARK H PARENT 7 12 11 22 14 26
ROOT
ATOM      1  C   UNL     1       5.464  46.292  52.152  1.00  0.00     0.164 A 
ATOM      2  N   UNL     1       5.341  45.285  51.244  1.00  0.00    -0.193 NA
ATOM      3  C   UNL     1       6.431  44.773  50.631  1.00  0.00     0.226 A 
ATOM      4  N   UNL     1       7.699  45.175  50.818  1.00  0.00    -0.193 NA
ATOM      5  C   UNL     1       7.792  46.164  51.714  1.00  0.00     0.167 A 
ATOM      6  C   UNL     1       6.761  46.768  52.406  1.00  0.00     0.150 A 
ATOM      7  N   UNL     1       7.240  47.765  53.236  1.00  0.00    -0.231 NA
ATOM      8  C   UNL     1       8.545  47.751  53.054  1.00  0.00     0.201 A 
ATOM      9  N   UNL     1       8.920  46.801  52.144  1.00  0.00    -0.318 N 
ATOM     10  C   UNL     1      10.261  46.510  51.711  1.00  0.00     0.153 C 
ENDROOT
BRANCH   1  11
ATOM     11  N   UNL     1       4.367  46.879  52.801  1.00  0.00    -0.338 N 
ATOM     12  H   UNL     1       4.476  47.887  52.869  1.00  0.00     0.168 HD
BRANCH  11  13
ATOM     13  C   UNL     1       3.255  46.344  53.465  1.00  0.00     0.040 A 
ATOM     14  C   UNL     1       0.957  45.191  54.671  1.00  0.00    -0.048 A 
ATOM     15  C   UNL     1       0.943  45.562  53.324  1.00  0.00     0.006 A 
ATOM     16  C   UNL     1       2.125  45.402  55.410  1.00  0.00     0.006 A 
ATOM     17  C   UNL     1       2.078  46.124  52.732  1.00  0.00     0.026 A 
ATOM     18  C   UNL     1       3.259  45.964  54.809  1.00  0.00     0.026 A 
BRANCH  14  19
ATOM     19  C   UNL     1      -0.267  44.603  55.321  1.00  0.00     0.032 C 
ATOM     20  C   UNL     1      -0.993  43.641  54.393  1.00  0.00     0.009 C 
ENDBRANCH  14  19
ENDBRANCH  11  13
ENDBRANCH   1  11
BRANCH   3  21
ATOM     21  N   UNL     1       6.271  43.755  49.701  1.00  0.00    -0.352 N 
ATOM     22  H   UNL     1       5.845  44.181  48.883  1.00  0.00     0.163 HD
BRANCH  21  23
ATOM     23  C   UNL     1       5.547  42.574  50.163  1.00  0.00     0.144 C 
BRANCH  23  24
ATOM     24  C   UNL     1       6.033  41.296  49.469  1.00  0.00     0.177 C 
BRANCH  24  25
ATOM     25  O   UNL     1       7.271  40.870  50.045  1.00  0.00    -0.395 OA
ATOM     26  H   UNL     1       7.048  40.214  50.728  1.00  0.00     0.210 HD
ENDBRANCH  24  25
ENDBRANCH  23  24
ENDBRANCH  21  23
ENDBRANCH   3  21
TORSDOF 7
ENDMDL
MODEL 20
REMARK VINA RESULT:    -7.432      3.756      8.191
REMARK INTER + INTRA:         -10.717
REMARK INTER:                 -10.121
REMARK INTRA:                  -0.596
REMARK UNBOUND:                -0.462
REMARK SMILES CCc1ccc(Nc2nc(NCCO)nc3c2ncn3C)cc1
REMARK SMILES IDX 8 1 9 2 10 3 15 4 16 5 17 6 18 7 19 8 20 9 21 10 7 11 6 13
REMARK SMILES IDX 3 14 4 15 23 16 5 17 22 18 2 19 1 20 11 21 12 23 13 24 14 25
REMARK H PARENT 7 12 11 22 14 26
ROOT
ATOM      1  C   UNL     1       5.497  46.256  52.020  1.00  0.00     0.164 A 
ATOM      2  N   UNL     1       5.391  45.243  51.117  1.00  0.00    -0.193 NA
ATOM      3  C   UNL     1       6.490  44.739  50.515  1.00  0.00     0.226 A 
ATOM      4  N   UNL     1       7.752  45.154  50.708  1.00  0.00    -0.193 NA
ATOM      5  C   UNL     1       7.830  46.148  51.601  1.00  0.00     0.167 A 
ATOM      6  C   UNL     1       6.788  46.746  52.281  1.00  0.00     0.150 A 
ATOM      7  N   UNL     1       7.251  47.751  53.110  1.00  0.00    -0.231 NA
ATOM      8  C   UNL     1       8.557  47.749  52.938  1.00  0.00     0.201 A 
ATOM      9  N   UNL     1       8.949  46.797  52.036  1.00  0.00    -0.318 N 
ATOM     10  C   UNL     1      10.296  46.517  51.615  1.00  0.00     0.153 C 
ENDROOT
BRANCH   1  11
ATOM     11  N   UNL     1       4.390  46.836  52.658  1.00  0.00    -0.338 N 
ATOM     12  H   UNL     1       4.495  47.844  52.733  1.00  0.00     0.168 HD
BRANCH  11  13
ATOM     13  C   UNL     1       3.271  46.294  53.304  1.00  0.00     0.040 A 
ATOM     14  C   UNL     1       1.058  45.259  54.751  1.00  0.00    -0.048 A 
ATOM     15  C   UNL     1       2.311  45.378  55.357  1.00  0.00     0.006 A 
ATOM     16  C   UNL     1       0.919  45.659  53.418  1.00  0.00     0.006 A 
ATOM     17  C   UNL     1       3.397  45.894  54.643  1.00  0.00     0.026 A 
ATOM     18  C   UNL     1       2.011  46.176  52.710  1.00  0.00     0.026 A 
BRANCH  14  19
ATOM     19  C   UNL     1      -0.112  44.687  55.506  1.00  0.00     0.032 C 
ATOM     20  C   UNL     1      -0.384  45.453  56.792  1.00  0.00     0.009 C 
ENDBRANCH  14  19
ENDBRANCH  11  13
ENDBRANCH   1  11
BRANCH   3  21
ATOM     21  N   UNL     1       6.347  43.714  49.589  1.00  0.00    -0.352 N 
ATOM     22  H   UNL     1       5.961  44.141  48.750  1.00  0.00     0.163 HD
BRANCH  21  23
ATOM     23  C   UNL     1       5.583  42.552  50.033  1.00  0.00     0.144 C 
BRANCH  23  24
ATOM     24  C   UNL     1       6.095  41.253  49.400  1.00  0.00     0.177 C 
BRANCH  24  25
ATOM     25  O   UNL     1       7.293  40.830  50.056  1.00  0.00    -0.395 OA
ATOM     26  H   UNL     1       7.302  41.269  50.925  1.00  0.00     0.210 HD
ENDBRANCH  24  25
ENDBRANCH  23  24
ENDBRANCH  21  23
ENDBRANCH   3  21
TORSDOF 7
ENDMDL
