MODEL 1
REMARK VINA RESULT:    -8.701      0.000      0.000
REMARK INTER + INTRA:         -13.579
REMARK INTER:                 -12.262
REMARK INTRA:                  -1.316
REMARK UNBOUND:                -1.316
REMARK SMILES COc1ccc(Nc2nc(NCC[NH+]3CCOCC3)nc3nccnc23)cc1
REMARK SMILES IDX 10 1 9 2 20 3 8 4 21 5 26 6 22 7 25 8 23 9 24 10 11 11 12 13
REMARK SMILES IDX 13 14 14 15 15 16 19 17 16 18 18 19 17 20 7 22 6 24 5 25
REMARK SMILES IDX 27 26 4 27 28 28 3 29 2 30 1 31
REMARK H PARENT 11 12 14 21 7 23
ROOT
ATOM      1  C   UNL     1       5.491  46.924  54.301  1.00  0.00     0.227 A 
ATOM      2  N   UNL     1       5.422  46.537  53.039  1.00  0.00    -0.193 NA
ATOM      3  N   UNL     1       6.617  47.179  54.950  1.00  0.00    -0.191 NA
ATOM      4  C   UNL     1       6.590  46.352  52.380  1.00  0.00     0.164 A 
ATOM      5  C   UNL     1       7.758  47.030  54.288  1.00  0.00     0.185 A 
ATOM      6  C   UNL     1       7.841  46.609  52.953  1.00  0.00     0.150 A 
ATOM      7  N   UNL     1       8.857  47.328  54.985  1.00  0.00    -0.233 NA
ATOM      8  N   UNL     1       9.054  46.507  52.325  1.00  0.00    -0.247 NA
ATOM      9  C   UNL     1      10.049  47.218  54.351  1.00  0.00     0.133 A 
ATOM     10  C   UNL     1      10.149  46.817  53.042  1.00  0.00     0.132 A 
ENDROOT
BRANCH   1  11
ATOM     11  N   UNL     1       4.286  47.164  54.960  1.00  0.00    -0.348 N 
ATOM     12  H   UNL     1       3.721  47.627  54.242  1.00  0.00     0.163 HD
BRANCH  11  13
ATOM     13  C   UNL     1       3.630  45.943  55.459  1.00  0.00     0.177 C 
BRANCH  13  14
ATOM     14  C   UNL     1       2.270  45.656  54.772  1.00  0.00     0.283 C 
BRANCH  14  15
ATOM     15  N   UNL     1       2.485  45.136  53.364  1.00  0.00    -0.330 N 
ATOM     16  C   UNL     1       2.410  43.634  53.201  1.00  0.00     0.291 C 
ATOM     17  C   UNL     1       1.655  45.839  52.306  1.00  0.00     0.291 C 
ATOM     18  C   UNL     1       0.948  43.176  53.135  1.00  0.00     0.221 C 
ATOM     19  C   UNL     1       0.228  45.283  52.307  1.00  0.00     0.221 C 
ATOM     20  O   UNL     1       0.229  43.864  52.103  1.00  0.00    -0.370 OA
ATOM     21  H   UNL     1       3.466  45.408  53.173  1.00  0.00     0.348 HD
ENDBRANCH  14  15
ENDBRANCH  13  14
ENDBRANCH  11  13
ENDBRANCH   1  11
BRANCH   4  22
ATOM     22  N   UNL     1       6.423  45.943  51.044  1.00  0.00    -0.338 N 
ATOM     23  H   UNL     1       5.789  46.591  50.583  1.00  0.00     0.168 HD
BRANCH  22  24
ATOM     24  C   UNL     1       6.303  44.657  50.478  1.00  0.00     0.040 A 
ATOM     25  C   UNL     1       7.212  44.113  49.566  1.00  0.00     0.030 A 
ATOM     26  C   UNL     1       5.204  43.873  50.856  1.00  0.00     0.030 A 
ATOM     27  C   UNL     1       7.033  42.824  49.044  1.00  0.00     0.048 A 
ATOM     28  C   UNL     1       5.024  42.587  50.337  1.00  0.00     0.048 A 
ATOM     29  C   UNL     1       5.937  42.054  49.428  1.00  0.00     0.119 A 
BRANCH  29  30
ATOM     30  O   UNL     1       5.647  40.791  48.998  1.00  0.00    -0.497 OA
ATOM     31  C   UNL     1       4.326  40.555  48.530  1.00  0.00     0.278 C 
ENDBRANCH  29  30
ENDBRANCH  22  24
ENDBRANCH   4  22
TORSDOF 7
ENDMDL
MODEL 2
REMARK VINA RESULT:    -8.592      1.052      1.389
REMARK INTER + INTRA:         -13.424
REMARK INTER:                 -12.611
REMARK INTRA:                  -0.813
REMARK UNBOUND:                -1.316
REMARK SMILES COc1ccc(Nc2nc(NCC[NH+]3CCOCC3)nc3nccnc23)cc1
REMARK SMILES IDX 10 1 9 2 20 3 8 4 21 5 26 6 22 7 25 8 23 9 24 10 11 11 12 13
REMARK SMILES IDX 13 14 14 15 15 16 19 17 16 18 18 19 17 20 7 22 6 24 5 25
REMARK SMILES IDX 27 26 4 27 28 28 3 29 2 30 1 31
REMARK H PARENT 11 12 14 21 7 23
ROOT
ATOM      1  C   UNL     1       5.416  47.172  53.353  1.00  0.00     0.227 A 
ATOM      2  N   UNL     1       5.717  46.549  52.227  1.00  0.00    -0.193 NA
ATOM      3  N   UNL     1       6.300  47.553  54.263  1.00  0.00    -0.191 NA
ATOM      4  C   UNL     1       7.019  46.244  52.013  1.00  0.00     0.164 A 
ATOM      5  C   UNL     1       7.579  47.283  54.030  1.00  0.00     0.185 A 
ATOM      6  C   UNL     1       8.045  46.613  52.891  1.00  0.00     0.150 A 
ATOM      7  N   UNL     1       8.425  47.715  54.968  1.00  0.00    -0.233 NA
ATOM      8  N   UNL     1       9.385  46.397  52.703  1.00  0.00    -0.247 NA
ATOM      9  C   UNL     1       9.747  47.490  54.771  1.00  0.00     0.133 A 
ATOM     10  C   UNL     1      10.222  46.844  53.657  1.00  0.00     0.132 A 
ENDROOT
BRANCH   1  11
ATOM     11  N   UNL     1       4.082  47.530  53.546  1.00  0.00    -0.348 N 
ATOM     12  H   UNL     1       4.138  48.539  53.715  1.00  0.00     0.163 HD
BRANCH  11  13
ATOM     13  C   UNL     1       3.214  47.223  52.396  1.00  0.00     0.177 C 
BRANCH  13  14
ATOM     14  C   UNL     1       1.981  46.362  52.773  1.00  0.00     0.283 C 
BRANCH  14  15
ATOM     15  N   UNL     1       2.331  45.392  53.885  1.00  0.00    -0.330 N 
ATOM     16  C   UNL     1       1.206  45.054  54.838  1.00  0.00     0.291 C 
ATOM     17  C   UNL     1       3.041  44.135  53.416  1.00  0.00     0.291 C 
ATOM     18  C   UNL     1       0.282  43.997  54.220  1.00  0.00     0.221 C 
ATOM     19  C   UNL     1       2.023  43.140  52.850  1.00  0.00     0.221 C 
ATOM     20  O   UNL     1       1.013  42.832  53.819  1.00  0.00    -0.370 OA
ATOM     21  H   UNL     1       3.034  45.921  54.430  1.00  0.00     0.348 HD
ENDBRANCH  14  15
ENDBRANCH  13  14
ENDBRANCH  11  13
ENDBRANCH   1  11
BRANCH   4  22
ATOM     22  N   UNL     1       7.247  45.584  50.791  1.00  0.00    -0.338 N 
ATOM     23  H   UNL     1       7.318  46.280  50.054  1.00  0.00     0.168 HD
BRANCH  22  24
ATOM     24  C   UNL     1       6.723  44.380  50.277  1.00  0.00     0.040 A 
ATOM     25  C   UNL     1       7.246  43.707  49.170  1.00  0.00     0.030 A 
ATOM     26  C   UNL     1       5.609  43.823  50.919  1.00  0.00     0.030 A 
ATOM     27  C   UNL     1       6.676  42.509  48.713  1.00  0.00     0.048 A 
ATOM     28  C   UNL     1       5.039  42.629  50.466  1.00  0.00     0.048 A 
ATOM     29  C   UNL     1       5.569  41.965  49.360  1.00  0.00     0.119 A 
BRANCH  29  30
ATOM     30  O   UNL     1       4.921  40.811  49.021  1.00  0.00    -0.497 OA
ATOM     31  C   UNL     1       3.598  40.644  49.514  1.00  0.00     0.278 C 
ENDBRANCH  29  30
ENDBRANCH  22  24
ENDBRANCH   4  22
TORSDOF 7
ENDMDL
MODEL 3
REMARK VINA RESULT:    -8.343      1.008      1.462
REMARK INTER + INTRA:         -13.074
REMARK INTER:                 -12.448
REMARK INTRA:                  -0.626
REMARK UNBOUND:                -1.316
REMARK SMILES COc1ccc(Nc2nc(NCC[NH+]3CCOCC3)nc3nccnc23)cc1
REMARK SMILES IDX 10 1 9 2 20 3 8 4 21 5 26 6 22 7 25 8 23 9 24 10 11 11 12 13
REMARK SMILES IDX 13 14 14 15 15 16 19 17 16 18 18 19 17 20 7 22 6 24 5 25
REMARK SMILES IDX 27 26 4 27 28 28 3 29 2 30 1 31
REMARK H PARENT 11 12 14 21 7 23
ROOT
ATOM      1  C   UNL     1       5.199  47.164  53.278  1.00  0.00     0.227 A 
ATOM      2  N   UNL     1       5.382  46.394  52.219  1.00  0.00    -0.193 NA
ATOM      3  N   UNL     1       6.166  47.583  54.080  1.00  0.00    -0.191 NA
ATOM      4  C   UNL     1       6.644  45.975  51.964  1.00  0.00     0.164 A 
ATOM      5  C   UNL     1       7.406  47.199  53.804  1.00  0.00     0.185 A 
ATOM      6  C   UNL     1       7.750  46.369  52.727  1.00  0.00     0.150 A 
ATOM      7  N   UNL     1       8.340  47.676  54.630  1.00  0.00    -0.233 NA
ATOM      8  N   UNL     1       9.057  46.039  52.486  1.00  0.00    -0.247 NA
ATOM      9  C   UNL     1       9.628  47.336  54.382  1.00  0.00     0.133 A 
ATOM     10  C   UNL     1       9.984  46.533  53.326  1.00  0.00     0.132 A 
ENDROOT
BRANCH   1  11
ATOM     11  N   UNL     1       3.907  47.634  53.507  1.00  0.00    -0.348 N 
ATOM     12  H   UNL     1       3.911  48.548  53.043  1.00  0.00     0.163 HD
BRANCH  11  13
ATOM     13  C   UNL     1       2.852  46.760  52.966  1.00  0.00     0.177 C 
BRANCH  13  14
ATOM     14  C   UNL     1       2.400  45.660  53.960  1.00  0.00     0.283 C 
BRANCH  14  15
ATOM     15  N   UNL     1       0.977  45.227  53.662  1.00  0.00    -0.330 N 
ATOM     16  C   UNL     1       0.542  45.350  52.219  1.00  0.00     0.291 C 
ATOM     17  C   UNL     1       0.609  43.867  54.226  1.00  0.00     0.291 C 
ATOM     18  C   UNL     1       1.064  44.163  51.400  1.00  0.00     0.221 C 
ATOM     19  C   UNL     1       1.150  42.760  53.315  1.00  0.00     0.221 C 
ATOM     20  O   UNL     1       0.663  42.913  51.976  1.00  0.00    -0.370 OA
ATOM     21  H   UNL     1       0.417  45.912  54.202  1.00  0.00     0.348 HD
ENDBRANCH  14  15
ENDBRANCH  13  14
ENDBRANCH  11  13
ENDBRANCH   1  11
BRANCH   4  22
ATOM     22  N   UNL     1       6.746  45.163  50.820  1.00  0.00    -0.338 N 
ATOM     23  H   UNL     1       6.806  45.763  50.001  1.00  0.00     0.168 HD
BRANCH  22  24
ATOM     24  C   UNL     1       6.116  43.946  50.489  1.00  0.00     0.040 A 
ATOM     25  C   UNL     1       6.590  43.055  49.522  1.00  0.00     0.030 A 
ATOM     26  C   UNL     1       4.942  43.607  51.175  1.00  0.00     0.030 A 
ATOM     27  C   UNL     1       5.913  41.858  49.245  1.00  0.00     0.048 A 
ATOM     28  C   UNL     1       4.266  42.414  50.901  1.00  0.00     0.048 A 
ATOM     29  C   UNL     1       4.748  41.532  49.935  1.00  0.00     0.119 A 
BRANCH  29  30
ATOM     30  O   UNL     1       3.997  40.404  49.764  1.00  0.00    -0.497 OA
ATOM     31  C   UNL     1       3.538  40.125  48.448  1.00  0.00     0.278 C 
ENDBRANCH  29  30
ENDBRANCH  22  24
ENDBRANCH   4  22
TORSDOF 7
ENDMDL
MODEL 4
REMARK VINA RESULT:    -8.138      2.936      5.733
REMARK INTER + INTRA:         -12.785
REMARK INTER:                 -11.867
REMARK INTRA:                  -0.917
REMARK UNBOUND:                -1.316
REMARK SMILES COc1ccc(Nc2nc(NCC[NH+]3CCOCC3)nc3nccnc23)cc1
REMARK SMILES IDX 10 1 9 2 20 3 8 4 21 5 26 6 22 7 25 8 23 9 24 10 11 11 12 13
REMARK SMILES IDX 13 14 14 15 15 16 19 17 16 18 18 19 17 20 7 22 6 24 5 25
REMARK SMILES IDX 27 26 4 27 28 28 3 29 2 30 1 31
REMARK H PARENT 11 12 14 21 7 23
ROOT
ATOM      1  C   UNL     1       3.051  42.727  52.279  1.00  0.00     0.227 A 
ATOM      2  N   UNL     1       3.447  43.983  52.401  1.00  0.00    -0.193 NA
ATOM      3  N   UNL     1       3.628  41.830  51.493  1.00  0.00    -0.191 NA
ATOM      4  C   UNL     1       4.491  44.384  51.639  1.00  0.00     0.164 A 
ATOM      5  C   UNL     1       4.674  42.220  50.775  1.00  0.00     0.185 A 
ATOM      6  C   UNL     1       5.193  43.522  50.788  1.00  0.00     0.150 A 
ATOM      7  N   UNL     1       5.230  41.265  50.025  1.00  0.00    -0.233 NA
ATOM      8  N   UNL     1       6.296  43.845  50.042  1.00  0.00    -0.247 NA
ATOM      9  C   UNL     1       6.317  41.601  49.289  1.00  0.00     0.133 A 
ATOM     10  C   UNL     1       6.845  42.868  49.297  1.00  0.00     0.132 A 
ENDROOT
BRANCH   1  11
ATOM     11  N   UNL     1       2.010  42.304  53.103  1.00  0.00    -0.348 N 
ATOM     12  H   UNL     1       2.329  42.583  54.036  1.00  0.00     0.163 HD
BRANCH  11  13
ATOM     13  C   UNL     1       0.709  42.912  52.775  1.00  0.00     0.177 C 
BRANCH  13  14
ATOM     14  C   UNL     1      -0.175  43.175  54.021  1.00  0.00     0.283 C 
BRANCH  14  15
ATOM     15  N   UNL     1      -0.274  44.663  54.297  1.00  0.00    -0.330 N 
ATOM     16  C   UNL     1      -1.151  45.055  55.466  1.00  0.00     0.291 C 
ATOM     17  C   UNL     1       1.064  45.377  54.358  1.00  0.00     0.291 C 
ATOM     18  C   UNL     1      -0.393  44.871  56.787  1.00  0.00     0.221 C 
ATOM     19  C   UNL     1       1.714  45.153  55.727  1.00  0.00     0.221 C 
ATOM     20  O   UNL     1       0.849  45.587  56.783  1.00  0.00    -0.370 OA
ATOM     21  H   UNL     1      -0.741  45.019  53.443  1.00  0.00     0.348 HD
ENDBRANCH  14  15
ENDBRANCH  13  14
ENDBRANCH  11  13
ENDBRANCH   1  11
BRANCH   4  22
ATOM     22  N   UNL     1       4.844  45.732  51.835  1.00  0.00    -0.338 N 
ATOM     23  H   UNL     1       4.672  46.242  50.972  1.00  0.00     0.168 HD
BRANCH  22  24
ATOM     24  C   UNL     1       5.917  46.314  52.540  1.00  0.00     0.040 A 
ATOM     25  C   UNL     1       7.022  46.916  51.930  1.00  0.00     0.030 A 
ATOM     26  C   UNL     1       5.873  46.291  53.940  1.00  0.00     0.030 A 
ATOM     27  C   UNL     1       8.055  47.480  52.693  1.00  0.00     0.048 A 
ATOM     28  C   UNL     1       6.901  46.853  54.703  1.00  0.00     0.048 A 
ATOM     29  C   UNL     1       7.998  47.451  54.085  1.00  0.00     0.119 A 
BRANCH  29  30
ATOM     30  O   UNL     1       8.930  47.962  54.942  1.00  0.00    -0.497 OA
ATOM     31  C   UNL     1      10.205  47.332  54.962  1.00  0.00     0.278 C 
ENDBRANCH  29  30
ENDBRANCH  22  24
ENDBRANCH   4  22
TORSDOF 7
ENDMDL
MODEL 5
REMARK VINA RESULT:    -8.084      2.836      5.516
REMARK INTER + INTRA:         -12.708
REMARK INTER:                 -11.888
REMARK INTRA:                  -0.820
REMARK UNBOUND:                -1.316
REMARK SMILES COc1ccc(Nc2nc(NCC[NH+]3CCOCC3)nc3nccnc23)cc1
REMARK SMILES IDX 10 1 9 2 20 3 8 4 21 5 26 6 22 7 25 8 23 9 24 10 11 11 12 13
REMARK SMILES IDX 13 14 14 15 15 16 19 17 16 18 18 19 17 20 7 22 6 24 5 25
REMARK SMILES IDX 27 26 4 27 28 28 3 29 2 30 1 31
REMARK H PARENT 11 12 14 21 7 23
ROOT
ATOM      1  C   UNL     1       3.396  43.815  52.792  1.00  0.00     0.227 A 
ATOM      2  N   UNL     1       4.151  44.895  52.680  1.00  0.00    -0.193 NA
ATOM      3  N   UNL     1       3.548  42.713  52.073  1.00  0.00    -0.191 NA
ATOM      4  C   UNL     1       5.120  44.882  51.735  1.00  0.00     0.164 A 
ATOM      5  C   UNL     1       4.523  42.693  51.173  1.00  0.00     0.185 A 
ATOM      6  C   UNL     1       5.389  43.768  50.930  1.00  0.00     0.150 A 
ATOM      7  N   UNL     1       4.644  41.547  50.499  1.00  0.00    -0.233 NA
ATOM      8  N   UNL     1       6.394  43.665  50.005  1.00  0.00    -0.247 NA
ATOM      9  C   UNL     1       5.640  41.461  49.584  1.00  0.00     0.133 A 
ATOM     10  C   UNL     1       6.503  42.500  49.340  1.00  0.00     0.132 A 
ENDROOT
BRANCH   1  11
ATOM     11  N   UNL     1       2.434  43.812  53.801  1.00  0.00    -0.348 N 
ATOM     12  H   UNL     1       2.927  43.378  54.587  1.00  0.00     0.163 HD
BRANCH  11  13
ATOM     13  C   UNL     1       1.938  45.155  54.152  1.00  0.00     0.177 C 
BRANCH  13  14
ATOM     14  C   UNL     1       0.983  45.154  55.372  1.00  0.00     0.283 C 
BRANCH  14  15
ATOM     15  N   UNL     1      -0.424  45.528  54.947  1.00  0.00    -0.330 N 
ATOM     16  C   UNL     1      -0.908  44.901  53.658  1.00  0.00     0.291 C 
ATOM     17  C   UNL     1      -1.465  45.390  56.042  1.00  0.00     0.291 C 
ATOM     18  C   UNL     1      -1.378  43.463  53.908  1.00  0.00     0.221 C 
ATOM     19  C   UNL     1      -1.884  43.923  56.182  1.00  0.00     0.221 C 
ATOM     20  O   UNL     1      -2.373  43.408  54.937  1.00  0.00    -0.370 OA
ATOM     21  H   UNL     1      -0.340  46.546  54.770  1.00  0.00     0.348 HD
ENDBRANCH  14  15
ENDBRANCH  13  14
ENDBRANCH  11  13
ENDBRANCH   1  11
BRANCH   4  22
ATOM     22  N   UNL     1       5.874  46.069  51.688  1.00  0.00    -0.338 N 
ATOM     23  H   UNL     1       5.799  46.464  50.754  1.00  0.00     0.168 HD
BRANCH  22  24
ATOM     24  C   UNL     1       7.121  46.397  52.258  1.00  0.00     0.040 A 
ATOM     25  C   UNL     1       8.327  46.411  51.552  1.00  0.00     0.030 A 
ATOM     26  C   UNL     1       7.153  46.733  53.618  1.00  0.00     0.030 A 
ATOM     27  C   UNL     1       9.533  46.751  52.182  1.00  0.00     0.048 A 
ATOM     28  C   UNL     1       8.354  47.072  54.249  1.00  0.00     0.048 A 
ATOM     29  C   UNL     1       9.551  47.084  53.535  1.00  0.00     0.119 A 
BRANCH  29  30
ATOM     30  O   UNL     1      10.651  47.433  54.267  1.00  0.00    -0.497 OA
ATOM     31  C   UNL     1      10.499  47.479  55.679  1.00  0.00     0.278 C 
ENDBRANCH  29  30
ENDBRANCH  22  24
ENDBRANCH   4  22
TORSDOF 7
ENDMDL
MODEL 6
REMARK VINA RESULT:    -8.007      2.628      5.436
REMARK INTER + INTRA:         -12.601
REMARK INTER:                 -11.638
REMARK INTRA:                  -0.963
REMARK UNBOUND:                -1.316
REMARK SMILES COc1ccc(Nc2nc(NCC[NH+]3CCOCC3)nc3nccnc23)cc1
REMARK SMILES IDX 10 1 9 2 20 3 8 4 21 5 26 6 22 7 25 8 23 9 24 10 11 11 12 13
REMARK SMILES IDX 13 14 14 15 15 16 19 17 16 18 18 19 17 20 7 22 6 24 5 25
REMARK SMILES IDX 27 26 4 27 28 28 3 29 2 30 1 31
REMARK H PARENT 11 12 14 21 7 23
ROOT
ATOM      1  C   UNL     1       3.391  43.740  52.825  1.00  0.00     0.227 A 
ATOM      2  N   UNL     1       4.166  44.795  52.641  1.00  0.00    -0.193 NA
ATOM      3  N   UNL     1       3.455  42.626  52.112  1.00  0.00    -0.191 NA
ATOM      4  C   UNL     1       5.058  44.743  51.624  1.00  0.00     0.164 A 
ATOM      5  C   UNL     1       4.356  42.567  51.139  1.00  0.00     0.185 A 
ATOM      6  C   UNL     1       5.232  43.613  50.816  1.00  0.00     0.150 A 
ATOM      7  N   UNL     1       4.392  41.409  50.474  1.00  0.00    -0.233 NA
ATOM      8  N   UNL     1       6.158  43.468  49.818  1.00  0.00    -0.247 NA
ATOM      9  C   UNL     1       5.311  41.283  49.487  1.00  0.00     0.133 A 
ATOM     10  C   UNL     1       6.183  42.294  49.163  1.00  0.00     0.132 A 
ENDROOT
BRANCH   1  11
ATOM     11  N   UNL     1       2.510  43.778  53.905  1.00  0.00    -0.348 N 
ATOM     12  H   UNL     1       3.129  43.643  54.710  1.00  0.00     0.163 HD
BRANCH  11  13
ATOM     13  C   UNL     1       1.756  45.039  54.011  1.00  0.00     0.177 C 
BRANCH  13  14
ATOM     14  C   UNL     1       0.236  44.826  54.234  1.00  0.00     0.283 C 
BRANCH  14  15
ATOM     15  N   UNL     1      -0.549  45.291  53.023  1.00  0.00    -0.330 N 
ATOM     16  C   UNL     1       0.057  44.951  51.679  1.00  0.00     0.291 C 
ATOM     17  C   UNL     1      -2.023  44.933  53.060  1.00  0.00     0.291 C 
ATOM     18  C   UNL     1      -0.252  43.496  51.306  1.00  0.00     0.221 C 
ATOM     19  C   UNL     1      -2.217  43.472  52.641  1.00  0.00     0.221 C 
ATOM     20  O   UNL     1      -1.660  43.233  51.342  1.00  0.00    -0.370 OA
ATOM     21  H   UNL     1      -0.511  46.322  53.114  1.00  0.00     0.348 HD
ENDBRANCH  14  15
ENDBRANCH  13  14
ENDBRANCH  11  13
ENDBRANCH   1  11
BRANCH   4  22
ATOM     22  N   UNL     1       5.840  45.906  51.502  1.00  0.00    -0.338 N 
ATOM     23  H   UNL     1       5.816  46.214  50.534  1.00  0.00     0.168 HD
BRANCH  22  24
ATOM     24  C   UNL     1       7.068  46.263  52.097  1.00  0.00     0.040 A 
ATOM     25  C   UNL     1       8.269  46.399  51.396  1.00  0.00     0.030 A 
ATOM     26  C   UNL     1       7.084  46.498  53.478  1.00  0.00     0.030 A 
ATOM     27  C   UNL     1       9.455  46.761  52.051  1.00  0.00     0.048 A 
ATOM     28  C   UNL     1       8.265  46.859  54.134  1.00  0.00     0.048 A 
ATOM     29  C   UNL     1       9.458  46.993  53.425  1.00  0.00     0.119 A 
BRANCH  29  30
ATOM     30  O   UNL     1      10.537  47.350  54.181  1.00  0.00    -0.497 OA
ATOM     31  C   UNL     1      10.310  47.571  55.567  1.00  0.00     0.278 C 
ENDBRANCH  29  30
ENDBRANCH  22  24
ENDBRANCH   4  22
TORSDOF 7
ENDMDL
MODEL 7
REMARK VINA RESULT:    -7.990      3.118      5.745
REMARK INTER + INTRA:         -12.576
REMARK INTER:                 -11.760
REMARK INTRA:                  -0.816
REMARK UNBOUND:                -1.316
REMARK SMILES COc1ccc(Nc2nc(NCC[NH+]3CCOCC3)nc3nccnc23)cc1
REMARK SMILES IDX 10 1 9 2 20 3 8 4 21 5 26 6 22 7 25 8 23 9 24 10 11 11 12 13
REMARK SMILES IDX 13 14 14 15 15 16 19 17 16 18 18 19 17 20 7 22 6 24 5 25
REMARK SMILES IDX 27 26 4 27 28 28 3 29 2 30 1 31
REMARK H PARENT 11 12 14 21 7 23
ROOT
ATOM      1  C   UNL     1       3.007  43.472  52.722  1.00  0.00     0.227 A 
ATOM      2  N   UNL     1       3.703  44.588  52.587  1.00  0.00    -0.193 NA
ATOM      3  N   UNL     1       3.240  42.354  52.051  1.00  0.00    -0.191 NA
ATOM      4  C   UNL     1       4.698  44.594  51.669  1.00  0.00     0.164 A 
ATOM      5  C   UNL     1       4.240  42.356  51.177  1.00  0.00     0.185 A 
ATOM      6  C   UNL     1       5.051  43.468  50.915  1.00  0.00     0.150 A 
ATOM      7  N   UNL     1       4.444  41.193  50.553  1.00  0.00    -0.233 NA
ATOM      8  N   UNL     1       6.085  43.387  50.021  1.00  0.00    -0.247 NA
ATOM      9  C   UNL     1       5.468  41.130  49.667  1.00  0.00     0.133 A 
ATOM     10  C   UNL     1       6.278  42.207  49.405  1.00  0.00     0.132 A 
ENDROOT
BRANCH   1  11
ATOM     11  N   UNL     1       2.019  43.453  53.705  1.00  0.00    -0.348 N 
ATOM     12  H   UNL     1       2.366  42.750  54.365  1.00  0.00     0.163 HD
BRANCH  11  13
ATOM     13  C   UNL     1       1.812  44.754  54.363  1.00  0.00     0.177 C 
BRANCH  13  14
ATOM     14  C   UNL     1       0.319  45.070  54.638  1.00  0.00     0.283 C 
BRANCH  14  15
ATOM     15  N   UNL     1      -0.086  44.570  56.011  1.00  0.00    -0.330 N 
ATOM     16  C   UNL     1       0.838  44.951  57.146  1.00  0.00     0.291 C 
ATOM     17  C   UNL     1      -1.534  44.846  56.373  1.00  0.00     0.291 C 
ATOM     18  C   UNL     1       0.561  46.390  57.600  1.00  0.00     0.221 C 
ATOM     19  C   UNL     1      -1.688  46.296  56.842  1.00  0.00     0.221 C 
ATOM     20  O   UNL     1      -0.817  46.574  57.946  1.00  0.00    -0.370 OA
ATOM     21  H   UNL     1      -0.018  43.542  55.904  1.00  0.00     0.348 HD
ENDBRANCH  14  15
ENDBRANCH  13  14
ENDBRANCH  11  13
ENDBRANCH   1  11
BRANCH   4  22
ATOM     22  N   UNL     1       5.386  45.820  51.594  1.00  0.00    -0.338 N 
ATOM     23  H   UNL     1       5.209  46.236  50.684  1.00  0.00     0.168 HD
BRANCH  22  24
ATOM     24  C   UNL     1       6.661  46.195  52.063  1.00  0.00     0.040 A 
ATOM     25  C   UNL     1       7.779  46.370  51.243  1.00  0.00     0.030 A 
ATOM     26  C   UNL     1       6.817  46.410  53.439  1.00  0.00     0.030 A 
ATOM     27  C   UNL     1       9.019  46.749  51.776  1.00  0.00     0.048 A 
ATOM     28  C   UNL     1       8.053  46.789  53.974  1.00  0.00     0.048 A 
ATOM     29  C   UNL     1       9.161  46.960  53.146  1.00  0.00     0.119 A 
BRANCH  29  30
ATOM     30  O   UNL     1      10.306  47.331  53.792  1.00  0.00    -0.497 OA
ATOM     31  C   UNL     1      10.234  47.474  55.204  1.00  0.00     0.278 C 
ENDBRANCH  29  30
ENDBRANCH  22  24
ENDBRANCH   4  22
TORSDOF 7
ENDMDL
MODEL 8
REMARK VINA RESULT:    -7.879      2.394      6.111
REMARK INTER + INTRA:         -12.420
REMARK INTER:                 -11.361
REMARK INTRA:                  -1.059
REMARK UNBOUND:                -1.316
REMARK SMILES COc1ccc(Nc2nc(NCC[NH+]3CCOCC3)nc3nccnc23)cc1
REMARK SMILES IDX 10 1 9 2 20 3 8 4 21 5 26 6 22 7 25 8 23 9 24 10 11 11 12 13
REMARK SMILES IDX 13 14 14 15 15 16 19 17 16 18 18 19 17 20 7 22 6 24 5 25
REMARK SMILES IDX 27 26 4 27 28 28 3 29 2 30 1 31
REMARK H PARENT 11 12 14 21 7 23
ROOT
ATOM      1  C   UNL     1       1.728  44.251  54.288  1.00  0.00     0.227 A 
ATOM      2  N   UNL     1       2.421  43.385  53.569  1.00  0.00    -0.193 NA
ATOM      3  N   UNL     1       0.546  44.739  53.944  1.00  0.00    -0.191 NA
ATOM      4  C   UNL     1       1.900  43.004  52.379  1.00  0.00     0.164 A 
ATOM      5  C   UNL     1       0.023  44.335  52.793  1.00  0.00     0.185 A 
ATOM      6  C   UNL     1       0.650  43.436  51.919  1.00  0.00     0.150 A 
ATOM      7  N   UNL     1      -1.182  44.839  52.514  1.00  0.00    -0.233 NA
ATOM      8  N   UNL     1       0.035  43.040  50.761  1.00  0.00    -0.247 NA
ATOM      9  C   UNL     1      -1.775  44.441  51.363  1.00  0.00     0.133 A 
ATOM     10  C   UNL     1      -1.180  43.554  50.499  1.00  0.00     0.132 A 
ENDROOT
BRANCH   1  11
ATOM     11  N   UNL     1       2.244  44.600  55.535  1.00  0.00    -0.348 N 
ATOM     12  H   UNL     1       2.829  43.793  55.775  1.00  0.00     0.163 HD
BRANCH  11  13
ATOM     13  C   UNL     1       3.026  45.848  55.525  1.00  0.00     0.177 C 
BRANCH  13  14
ATOM     14  C   UNL     1       4.544  45.617  55.309  1.00  0.00     0.283 C 
BRANCH  14  15
ATOM     15  N   UNL     1       5.205  46.880  54.792  1.00  0.00    -0.330 N 
ATOM     16  C   UNL     1       6.682  46.767  54.484  1.00  0.00     0.291 C 
ATOM     17  C   UNL     1       4.462  47.551  53.652  1.00  0.00     0.291 C 
ATOM     18  C   UNL     1       6.893  46.109  53.114  1.00  0.00     0.221 C 
ATOM     19  C   UNL     1       4.771  46.835  52.333  1.00  0.00     0.221 C 
ATOM     20  O   UNL     1       6.181  46.804  52.083  1.00  0.00    -0.370 OA
ATOM     21  H   UNL     1       5.118  47.524  55.598  1.00  0.00     0.348 HD
ENDBRANCH  14  15
ENDBRANCH  13  14
ENDBRANCH  11  13
ENDBRANCH   1  11
BRANCH   4  22
ATOM     22  N   UNL     1       2.702  42.081  51.683  1.00  0.00    -0.338 N 
ATOM     23  H   UNL     1       2.694  41.199  52.188  1.00  0.00     0.168 HD
BRANCH  22  24
ATOM     24  C   UNL     1       3.928  42.246  51.007  1.00  0.00     0.040 A 
ATOM     25  C   UNL     1       4.553  41.243  50.261  1.00  0.00     0.030 A 
ATOM     26  C   UNL     1       4.559  43.495  51.086  1.00  0.00     0.030 A 
ATOM     27  C   UNL     1       5.774  41.476  49.610  1.00  0.00     0.048 A 
ATOM     28  C   UNL     1       5.775  43.730  50.437  1.00  0.00     0.048 A 
ATOM     29  C   UNL     1       6.390  42.723  49.695  1.00  0.00     0.119 A 
BRANCH  29  30
ATOM     30  O   UNL     1       7.572  43.081  49.112  1.00  0.00    -0.497 OA
ATOM     31  C   UNL     1       8.162  44.301  49.543  1.00  0.00     0.278 C 
ENDBRANCH  29  30
ENDBRANCH  22  24
ENDBRANCH   4  22
TORSDOF 7
ENDMDL
MODEL 9
REMARK VINA RESULT:    -7.844      2.250      6.290
REMARK INTER + INTRA:         -12.370
REMARK INTER:                 -11.757
REMARK INTRA:                  -0.614
REMARK UNBOUND:                -1.316
REMARK SMILES COc1ccc(Nc2nc(NCC[NH+]3CCOCC3)nc3nccnc23)cc1
REMARK SMILES IDX 10 1 9 2 20 3 8 4 21 5 26 6 22 7 25 8 23 9 24 10 11 11 12 13
REMARK SMILES IDX 13 14 14 15 15 16 19 17 16 18 18 19 17 20 7 22 6 24 5 25
REMARK SMILES IDX 27 26 4 27 28 28 3 29 2 30 1 31
REMARK H PARENT 11 12 14 21 7 23
ROOT
ATOM      1  C   UNL     1       3.412  45.464  55.037  1.00  0.00     0.227 A 
ATOM      2  N   UNL     1       3.506  44.781  53.909  1.00  0.00    -0.193 NA
ATOM      3  N   UNL     1       2.301  45.597  55.746  1.00  0.00    -0.191 NA
ATOM      4  C   UNL     1       2.376  44.212  53.429  1.00  0.00     0.164 A 
ATOM      5  C   UNL     1       1.203  45.007  55.289  1.00  0.00     0.185 A 
ATOM      6  C   UNL     1       1.148  44.266  54.100  1.00  0.00     0.150 A 
ATOM      7  N   UNL     1       0.123  45.153  56.060  1.00  0.00    -0.233 NA
ATOM      8  N   UNL     1      -0.015  43.659  53.706  1.00  0.00    -0.247 NA
ATOM      9  C   UNL     1      -1.021  44.550  55.654  1.00  0.00     0.133 A 
ATOM     10  C   UNL     1      -1.091  43.813  54.498  1.00  0.00     0.132 A 
ENDROOT
BRANCH   1  11
ATOM     11  N   UNL     1       4.589  46.004  55.555  1.00  0.00    -0.348 N 
ATOM     12  H   UNL     1       5.114  45.173  55.842  1.00  0.00     0.163 HD
BRANCH  11  13
ATOM     13  C   UNL     1       5.347  46.813  54.585  1.00  0.00     0.177 C 
BRANCH  13  14
ATOM     14  C   UNL     1       6.833  46.389  54.465  1.00  0.00     0.283 C 
BRANCH  14  15
ATOM     15  N   UNL     1       7.654  47.499  53.838  1.00  0.00    -0.330 N 
ATOM     16  C   UNL     1       9.121  47.519  54.208  1.00  0.00     0.291 C 
ATOM     17  C   UNL     1       7.470  47.641  52.339  1.00  0.00     0.291 C 
ATOM     18  C   UNL     1       9.895  46.490  53.374  1.00  0.00     0.221 C 
ATOM     19  C   UNL     1       8.310  46.589  51.608  1.00  0.00     0.221 C 
ATOM     20  O   UNL     1       9.693  46.694  51.970  1.00  0.00    -0.370 OA
ATOM     21  H   UNL     1       7.232  48.350  54.252  1.00  0.00     0.348 HD
ENDBRANCH  14  15
ENDBRANCH  13  14
ENDBRANCH  11  13
ENDBRANCH   1  11
BRANCH   4  22
ATOM     22  N   UNL     1       2.569  43.505  52.228  1.00  0.00    -0.338 N 
ATOM     23  H   UNL     1       1.921  42.722  52.205  1.00  0.00     0.168 HD
BRANCH  22  24
ATOM     24  C   UNL     1       3.746  43.186  51.521  1.00  0.00     0.040 A 
ATOM     25  C   UNL     1       4.116  41.888  51.159  1.00  0.00     0.030 A 
ATOM     26  C   UNL     1       4.597  44.237  51.155  1.00  0.00     0.030 A 
ATOM     27  C   UNL     1       5.302  41.641  50.451  1.00  0.00     0.048 A 
ATOM     28  C   UNL     1       5.780  43.994  50.449  1.00  0.00     0.048 A 
ATOM     29  C   UNL     1       6.140  42.695  50.093  1.00  0.00     0.119 A 
BRANCH  29  30
ATOM     30  O   UNL     1       7.316  42.595  49.406  1.00  0.00    -0.497 OA
ATOM     31  C   UNL     1       8.049  43.795  49.201  1.00  0.00     0.278 C 
ENDBRANCH  29  30
ENDBRANCH  22  24
ENDBRANCH   4  22
TORSDOF 7
ENDMDL
MODEL 10
REMARK VINA RESULT:    -7.779      1.799      5.068
REMARK INTER + INTRA:         -12.278
REMARK INTER:                 -10.932
REMARK INTRA:                  -1.346
REMARK UNBOUND:                -1.316
REMARK SMILES COc1ccc(Nc2nc(NCC[NH+]3CCOCC3)nc3nccnc23)cc1
REMARK SMILES IDX 10 1 9 2 20 3 8 4 21 5 26 6 22 7 25 8 23 9 24 10 11 11 12 13
REMARK SMILES IDX 13 14 14 15 15 16 19 17 16 18 18 19 17 20 7 22 6 24 5 25
REMARK SMILES IDX 27 26 4 27 28 28 3 29 2 30 1 31
REMARK H PARENT 11 12 14 21 7 23
ROOT
ATOM      1  C   UNL     1       7.716  45.742  50.782  1.00  0.00     0.227 A 
ATOM      2  N   UNL     1       6.580  46.216  51.265  1.00  0.00    -0.193 NA
ATOM      3  N   UNL     1       8.893  45.859  51.378  1.00  0.00    -0.191 NA
ATOM      4  C   UNL     1       6.636  46.902  52.431  1.00  0.00     0.164 A 
ATOM      5  C   UNL     1       8.937  46.502  52.538  1.00  0.00     0.185 A 
ATOM      6  C   UNL     1       7.818  47.072  53.162  1.00  0.00     0.150 A 
ATOM      7  N   UNL     1      10.145  46.563  53.104  1.00  0.00    -0.233 NA
ATOM      8  N   UNL     1       7.934  47.695  54.376  1.00  0.00    -0.247 NA
ATOM      9  C   UNL     1      10.244  47.187  54.302  1.00  0.00     0.133 A 
ATOM     10  C   UNL     1       9.158  47.743  54.932  1.00  0.00     0.132 A 
ENDROOT
BRANCH   1  11
ATOM     11  N   UNL     1       7.646  44.992  49.610  1.00  0.00    -0.348 N 
ATOM     12  H   UNL     1       8.545  45.187  49.159  1.00  0.00     0.163 HD
BRANCH  11  13
ATOM     13  C   UNL     1       7.460  43.548  49.839  1.00  0.00     0.177 C 
BRANCH  13  14
ATOM     14  C   UNL     1       6.008  43.071  49.586  1.00  0.00     0.283 C 
BRANCH  14  15
ATOM     15  N   UNL     1       5.420  42.466  50.846  1.00  0.00    -0.330 N 
ATOM     16  C   UNL     1       4.622  43.412  51.717  1.00  0.00     0.291 C 
ATOM     17  C   UNL     1       4.666  41.168  50.622  1.00  0.00     0.291 C 
ATOM     18  C   UNL     1       3.206  43.590  51.154  1.00  0.00     0.221 C 
ATOM     19  C   UNL     1       3.259  41.466  50.093  1.00  0.00     0.221 C 
ATOM     20  O   UNL     1       2.546  42.329  50.987  1.00  0.00    -0.370 OA
ATOM     21  H   UNL     1       6.265  42.206  51.385  1.00  0.00     0.348 HD
ENDBRANCH  14  15
ENDBRANCH  13  14
ENDBRANCH  11  13
ENDBRANCH   1  11
BRANCH   4  22
ATOM     22  N   UNL     1       5.383  47.367  52.870  1.00  0.00    -0.338 N 
ATOM     23  H   UNL     1       5.506  48.285  53.289  1.00  0.00     0.168 HD
BRANCH  22  24
ATOM     24  C   UNL     1       4.307  46.691  53.481  1.00  0.00     0.040 A 
ATOM     25  C   UNL     1       2.995  46.707  52.999  1.00  0.00     0.030 A 
ATOM     26  C   UNL     1       4.570  45.956  54.644  1.00  0.00     0.030 A 
ATOM     27  C   UNL     1       1.972  46.008  53.656  1.00  0.00     0.048 A 
ATOM     28  C   UNL     1       3.552  45.258  55.301  1.00  0.00     0.048 A 
ATOM     29  C   UNL     1       2.247  45.279  54.811  1.00  0.00     0.119 A 
BRANCH  29  30
ATOM     30  O   UNL     1       1.348  44.557  55.544  1.00  0.00    -0.497 OA
ATOM     31  C   UNL     1       0.753  45.207  56.659  1.00  0.00     0.278 C 
ENDBRANCH  29  30
ENDBRANCH  22  24
ENDBRANCH   4  22
TORSDOF 7
ENDMDL
MODEL 11
REMARK VINA RESULT:    -7.763      3.074      7.073
REMARK INTER + INTRA:         -12.257
REMARK INTER:                 -10.861
REMARK INTRA:                  -1.395
REMARK UNBOUND:                -1.316
REMARK SMILES COc1ccc(Nc2nc(NCC[NH+]3CCOCC3)nc3nccnc23)cc1
REMARK SMILES IDX 10 1 9 2 20 3 8 4 21 5 26 6 22 7 25 8 23 9 24 10 11 11 12 13
REMARK SMILES IDX 13 14 14 15 15 16 19 17 16 18 18 19 17 20 7 22 6 24 5 25
REMARK SMILES IDX 27 26 4 27 28 28 3 29 2 30 1 31
REMARK H PARENT 11 12 14 21 7 23
ROOT
ATOM      1  C   UNL     1       0.628  43.309  53.672  1.00  0.00     0.227 A 
ATOM      2  N   UNL     1       1.778  43.728  54.172  1.00  0.00    -0.193 NA
ATOM      3  N   UNL     1      -0.564  43.674  54.119  1.00  0.00    -0.191 NA
ATOM      4  C   UNL     1       1.728  44.557  55.241  1.00  0.00     0.164 A 
ATOM      5  C   UNL     1      -0.608  44.516  55.145  1.00  0.00     0.185 A 
ATOM      6  C   UNL     1       0.528  45.028  55.788  1.00  0.00     0.150 A 
ATOM      7  N   UNL     1      -1.836  44.869  55.533  1.00  0.00    -0.233 NA
ATOM      8  N   UNL     1       0.406  45.918  56.822  1.00  0.00    -0.247 NA
ATOM      9  C   UNL     1      -1.939  45.746  56.560  1.00  0.00     0.133 A 
ATOM     10  C   UNL     1      -0.838  46.266  57.195  1.00  0.00     0.132 A 
ENDROOT
BRANCH   1  11
ATOM     11  N   UNL     1       0.683  42.497  52.540  1.00  0.00    -0.348 N 
ATOM     12  H   UNL     1      -0.266  42.116  52.486  1.00  0.00     0.163 HD
BRANCH  11  13
ATOM     13  C   UNL     1       1.044  43.221  51.309  1.00  0.00     0.177 C 
BRANCH  13  14
ATOM     14  C   UNL     1       2.265  42.608  50.576  1.00  0.00     0.283 C 
BRANCH  14  15
ATOM     15  N   UNL     1       3.437  42.460  51.526  1.00  0.00    -0.330 N 
ATOM     16  C   UNL     1       4.426  41.369  51.182  1.00  0.00     0.291 C 
ATOM     17  C   UNL     1       4.151  43.762  51.842  1.00  0.00     0.291 C 
ATOM     18  C   UNL     1       5.389  41.846  50.087  1.00  0.00     0.221 C 
ATOM     19  C   UNL     1       5.107  44.123  50.700  1.00  0.00     0.221 C 
ATOM     20  O   UNL     1       6.043  43.065  50.459  1.00  0.00    -0.370 OA
ATOM     21  H   UNL     1       2.975  42.176  52.409  1.00  0.00     0.348 HD
ENDBRANCH  14  15
ENDBRANCH  13  14
ENDBRANCH  11  13
ENDBRANCH   1  11
BRANCH   4  22
ATOM     22  N   UNL     1       2.996  44.953  55.705  1.00  0.00    -0.338 N 
ATOM     23  H   UNL     1       2.898  45.309  56.652  1.00  0.00     0.168 HD
BRANCH  22  24
ATOM     24  C   UNL     1       4.061  45.601  55.047  1.00  0.00     0.040 A 
ATOM     25  C   UNL     1       5.394  45.189  55.119  1.00  0.00     0.030 A 
ATOM     26  C   UNL     1       3.764  46.728  54.269  1.00  0.00     0.030 A 
ATOM     27  C   UNL     1       6.406  45.880  54.435  1.00  0.00     0.048 A 
ATOM     28  C   UNL     1       4.770  47.419  53.586  1.00  0.00     0.048 A 
ATOM     29  C   UNL     1       6.097  46.999  53.664  1.00  0.00     0.119 A 
BRANCH  29  30
ATOM     30  O   UNL     1       6.981  47.757  52.951  1.00  0.00    -0.497 OA
ATOM     31  C   UNL     1       7.713  47.102  51.923  1.00  0.00     0.278 C 
ENDBRANCH  29  30
ENDBRANCH  22  24
ENDBRANCH   4  22
TORSDOF 7
ENDMDL
MODEL 12
REMARK VINA RESULT:    -7.488      2.546      6.929
REMARK INTER + INTRA:         -11.869
REMARK INTER:                 -11.013
REMARK INTRA:                  -0.856
REMARK UNBOUND:                -1.316
REMARK SMILES COc1ccc(Nc2nc(NCC[NH+]3CCOCC3)nc3nccnc23)cc1
REMARK SMILES IDX 10 1 9 2 20 3 8 4 21 5 26 6 22 7 25 8 23 9 24 10 11 11 12 13
REMARK SMILES IDX 13 14 14 15 15 16 19 17 16 18 18 19 17 20 7 22 6 24 5 25
REMARK SMILES IDX 27 26 4 27 28 28 3 29 2 30 1 31
REMARK H PARENT 11 12 14 21 7 23
ROOT
ATOM      1  C   UNL     1       4.603  45.441  51.989  1.00  0.00     0.227 A 
ATOM      2  N   UNL     1       3.708  44.686  52.601  1.00  0.00    -0.193 NA
ATOM      3  N   UNL     1       5.420  45.017  51.036  1.00  0.00    -0.191 NA
ATOM      4  C   UNL     1       3.653  43.378  52.254  1.00  0.00     0.164 A 
ATOM      5  C   UNL     1       5.337  43.742  50.674  1.00  0.00     0.185 A 
ATOM      6  C   UNL     1       4.449  42.820  51.247  1.00  0.00     0.150 A 
ATOM      7  N   UNL     1       6.164  43.381  49.691  1.00  0.00    -0.233 NA
ATOM      8  N   UNL     1       4.398  41.526  50.801  1.00  0.00    -0.247 NA
ATOM      9  C   UNL     1       6.105  42.096  49.263  1.00  0.00     0.133 A 
ATOM     10  C   UNL     1       5.236  41.182  49.806  1.00  0.00     0.132 A 
ENDROOT
BRANCH   1  11
ATOM     11  N   UNL     1       4.621  46.797  52.312  1.00  0.00    -0.348 N 
ATOM     12  H   UNL     1       3.627  47.042  52.324  1.00  0.00     0.163 HD
BRANCH  11  13
ATOM     13  C   UNL     1       5.265  47.090  53.604  1.00  0.00     0.177 C 
BRANCH  13  14
ATOM     14  C   UNL     1       6.714  46.547  53.703  1.00  0.00     0.283 C 
BRANCH  14  15
ATOM     15  N   UNL     1       7.700  47.564  53.163  1.00  0.00    -0.330 N 
ATOM     16  C   UNL     1       8.919  47.816  54.023  1.00  0.00     0.291 C 
ATOM     17  C   UNL     1       8.093  47.344  51.714  1.00  0.00     0.291 C 
ATOM     18  C   UNL     1       9.960  46.710  53.809  1.00  0.00     0.221 C 
ATOM     19  C   UNL     1       9.157  46.245  51.623  1.00  0.00     0.221 C 
ATOM     20  O   UNL     1      10.300  46.569  52.424  1.00  0.00    -0.370 OA
ATOM     21  H   UNL     1       7.145  48.440  53.170  1.00  0.00     0.348 HD
ENDBRANCH  14  15
ENDBRANCH  13  14
ENDBRANCH  11  13
ENDBRANCH   1  11
BRANCH   4  22
ATOM     22  N   UNL     1       2.672  42.652  52.954  1.00  0.00    -0.338 N 
ATOM     23  H   UNL     1       2.807  41.661  52.768  1.00  0.00     0.168 HD
BRANCH  22  24
ATOM     24  C   UNL     1       1.307  42.923  53.183  1.00  0.00     0.040 A 
ATOM     25  C   UNL     1       0.822  43.620  54.293  1.00  0.00     0.030 A 
ATOM     26  C   UNL     1       0.379  42.467  52.238  1.00  0.00     0.030 A 
ATOM     27  C   UNL     1      -0.550  43.858  54.458  1.00  0.00     0.048 A 
ATOM     28  C   UNL     1      -0.990  42.703  52.399  1.00  0.00     0.048 A 
ATOM     29  C   UNL     1      -1.463  43.400  53.510  1.00  0.00     0.119 A 
BRANCH  29  30
ATOM     30  O   UNL     1      -2.818  43.564  53.548  1.00  0.00    -0.497 OA
ATOM     31  C   UNL     1      -3.542  43.245  52.367  1.00  0.00     0.278 C 
ENDBRANCH  29  30
ENDBRANCH  22  24
ENDBRANCH   4  22
TORSDOF 7
ENDMDL
MODEL 13
REMARK VINA RESULT:    -7.484      2.306      6.266
REMARK INTER + INTRA:         -11.862
REMARK INTER:                 -11.204
REMARK INTRA:                  -0.658
REMARK UNBOUND:                -1.316
REMARK SMILES COc1ccc(Nc2nc(NCC[NH+]3CCOCC3)nc3nccnc23)cc1
REMARK SMILES IDX 10 1 9 2 20 3 8 4 21 5 26 6 22 7 25 8 23 9 24 10 11 11 12 13
REMARK SMILES IDX 13 14 14 15 15 16 19 17 16 18 18 19 17 20 7 22 6 24 5 25
REMARK SMILES IDX 27 26 4 27 28 28 3 29 2 30 1 31
REMARK H PARENT 11 12 14 21 7 23
ROOT
ATOM      1  C   UNL     1       3.391  45.221  54.772  1.00  0.00     0.227 A 
ATOM      2  N   UNL     1       3.600  44.489  53.691  1.00  0.00    -0.193 NA
ATOM      3  N   UNL     1       2.214  45.375  55.360  1.00  0.00    -0.191 NA
ATOM      4  C   UNL     1       2.526  43.890  53.127  1.00  0.00     0.164 A 
ATOM      5  C   UNL     1       1.170  44.756  54.823  1.00  0.00     0.185 A 
ATOM      6  C   UNL     1       1.237  43.962  53.669  1.00  0.00     0.150 A 
ATOM      7  N   UNL     1       0.018  44.925  55.475  1.00  0.00    -0.233 NA
ATOM      8  N   UNL     1       0.122  43.327  53.189  1.00  0.00    -0.247 NA
ATOM      9  C   UNL     1      -1.077  44.295  54.985  1.00  0.00     0.133 A 
ATOM     10  C   UNL     1      -1.029  43.506  53.862  1.00  0.00     0.132 A 
ENDROOT
BRANCH   1  11
ATOM     11  N   UNL     1       4.507  45.794  55.379  1.00  0.00    -0.348 N 
ATOM     12  H   UNL     1       5.114  44.987  55.550  1.00  0.00     0.163 HD
BRANCH  11  13
ATOM     13  C   UNL     1       5.180  46.807  54.548  1.00  0.00     0.177 C 
BRANCH  13  14
ATOM     14  C   UNL     1       6.726  46.699  54.583  1.00  0.00     0.283 C 
BRANCH  14  15
ATOM     15  N   UNL     1       7.254  46.187  53.257  1.00  0.00    -0.330 N 
ATOM     16  C   UNL     1       6.985  47.070  52.059  1.00  0.00     0.291 C 
ATOM     17  C   UNL     1       8.706  45.746  53.292  1.00  0.00     0.291 C 
ATOM     18  C   UNL     1       7.998  48.221  52.005  1.00  0.00     0.221 C 
ATOM     19  C   UNL     1       9.624  46.969  53.200  1.00  0.00     0.221 C 
ATOM     20  O   UNL     1       9.345  47.734  52.021  1.00  0.00    -0.370 OA
ATOM     21  H   UNL     1       6.704  45.320  53.117  1.00  0.00     0.348 HD
ENDBRANCH  14  15
ENDBRANCH  13  14
ENDBRANCH  11  13
ENDBRANCH   1  11
BRANCH   4  22
ATOM     22  N   UNL     1       2.841  43.131  51.984  1.00  0.00    -0.338 N 
ATOM     23  H   UNL     1       2.358  42.239  52.043  1.00  0.00     0.168 HD
BRANCH  22  24
ATOM     24  C   UNL     1       4.051  42.985  51.275  1.00  0.00     0.040 A 
ATOM     25  C   UNL     1       4.567  41.758  50.849  1.00  0.00     0.030 A 
ATOM     26  C   UNL     1       4.781  44.143  50.976  1.00  0.00     0.030 A 
ATOM     27  C   UNL     1       5.777  41.685  50.143  1.00  0.00     0.048 A 
ATOM     28  C   UNL     1       5.987  44.073  50.272  1.00  0.00     0.048 A 
ATOM     29  C   UNL     1       6.493  42.844  49.852  1.00  0.00     0.119 A 
BRANCH  29  30
ATOM     30  O   UNL     1       7.677  42.914  49.175  1.00  0.00    -0.497 OA
ATOM     31  C   UNL     1       8.432  44.110  49.314  1.00  0.00     0.278 C 
ENDBRANCH  29  30
ENDBRANCH  22  24
ENDBRANCH   4  22
TORSDOF 7
ENDMDL
MODEL 14
REMARK VINA RESULT:    -7.482      2.734      4.491
REMARK INTER + INTRA:         -11.860
REMARK INTER:                 -10.955
REMARK INTRA:                  -0.905
REMARK UNBOUND:                -1.316
REMARK SMILES COc1ccc(Nc2nc(NCC[NH+]3CCOCC3)nc3nccnc23)cc1
REMARK SMILES IDX 10 1 9 2 20 3 8 4 21 5 26 6 22 7 25 8 23 9 24 10 11 11 12 13
REMARK SMILES IDX 13 14 14 15 15 16 19 17 16 18 18 19 17 20 7 22 6 24 5 25
REMARK SMILES IDX 27 26 4 27 28 28 3 29 2 30 1 31
REMARK H PARENT 11 12 14 21 7 23
ROOT
ATOM      1  C   UNL     1       3.581  42.680  52.319  1.00  0.00     0.227 A 
ATOM      2  N   UNL     1       4.003  41.879  51.356  1.00  0.00    -0.193 NA
ATOM      3  N   UNL     1       4.109  43.862  52.599  1.00  0.00    -0.191 NA
ATOM      4  C   UNL     1       5.076  42.282  50.635  1.00  0.00     0.164 A 
ATOM      5  C   UNL     1       5.138  44.269  51.866  1.00  0.00     0.185 A 
ATOM      6  C   UNL     1       5.704  43.519  50.825  1.00  0.00     0.150 A 
ATOM      7  N   UNL     1       5.608  45.479  52.177  1.00  0.00    -0.233 NA
ATOM      8  N   UNL     1       6.747  44.017  50.090  1.00  0.00    -0.247 NA
ATOM      9  C   UNL     1       6.643  45.955  51.443  1.00  0.00     0.133 A 
ATOM     10  C   UNL     1       7.204  45.239  50.414  1.00  0.00     0.132 A 
ENDROOT
BRANCH   1  11
ATOM     11  N   UNL     1       2.445  42.285  53.024  1.00  0.00    -0.348 N 
ATOM     12  H   UNL     1       2.682  42.525  53.992  1.00  0.00     0.163 HD
BRANCH  11  13
ATOM     13  C   UNL     1       1.211  42.961  52.588  1.00  0.00     0.177 C 
BRANCH  13  14
ATOM     14  C   UNL     1       0.183  43.154  53.732  1.00  0.00     0.283 C 
BRANCH  14  15
ATOM     15  N   UNL     1       0.004  44.627  54.044  1.00  0.00    -0.330 N 
ATOM     16  C   UNL     1      -1.003  44.951  55.125  1.00  0.00     0.291 C 
ATOM     17  C   UNL     1       1.303  45.379  54.269  1.00  0.00     0.291 C 
ATOM     18  C   UNL     1      -0.383  44.744  56.512  1.00  0.00     0.221 C 
ATOM     19  C   UNL     1       1.813  45.127  55.692  1.00  0.00     0.221 C 
ATOM     20  O   UNL     1       0.826  45.497  56.664  1.00  0.00    -0.370 OA
ATOM     21  H   UNL     1      -0.381  44.998  53.157  1.00  0.00     0.348 HD
ENDBRANCH  14  15
ENDBRANCH  13  14
ENDBRANCH  11  13
ENDBRANCH   1  11
BRANCH   4  22
ATOM     22  N   UNL     1       5.454  41.370  49.633  1.00  0.00    -0.338 N 
ATOM     23  H   UNL     1       6.468  41.293  49.630  1.00  0.00     0.168 HD
BRANCH  22  24
ATOM     24  C   UNL     1       4.945  41.156  48.336  1.00  0.00     0.040 A 
ATOM     25  C   UNL     1       3.806  40.397  48.056  1.00  0.00     0.030 A 
ATOM     26  C   UNL     1       5.622  41.745  47.259  1.00  0.00     0.030 A 
ATOM     27  C   UNL     1       3.351  40.228  46.739  1.00  0.00     0.048 A 
ATOM     28  C   UNL     1       5.171  41.579  45.946  1.00  0.00     0.048 A 
ATOM     29  C   UNL     1       4.033  40.819  45.678  1.00  0.00     0.119 A 
BRANCH  29  30
ATOM     30  O   UNL     1       3.699  40.735  44.356  1.00  0.00    -0.497 OA
ATOM     31  C   UNL     1       4.353  39.735  43.586  1.00  0.00     0.278 C 
ENDBRANCH  29  30
ENDBRANCH  22  24
ENDBRANCH   4  22
TORSDOF 7
ENDMDL
MODEL 15
REMARK VINA RESULT:    -7.480      3.450      7.536
REMARK INTER + INTRA:         -11.858
REMARK INTER:                 -11.033
REMARK INTRA:                  -0.825
REMARK UNBOUND:                -1.316
REMARK SMILES COc1ccc(Nc2nc(NCC[NH+]3CCOCC3)nc3nccnc23)cc1
REMARK SMILES IDX 10 1 9 2 20 3 8 4 21 5 26 6 22 7 25 8 23 9 24 10 11 11 12 13
REMARK SMILES IDX 13 14 14 15 15 16 19 17 16 18 18 19 17 20 7 22 6 24 5 25
REMARK SMILES IDX 27 26 4 27 28 28 3 29 2 30 1 31
REMARK H PARENT 11 12 14 21 7 23
ROOT
ATOM      1  C   UNL     1       5.506  42.209  50.046  1.00  0.00     0.227 A 
ATOM      2  N   UNL     1       6.073  43.401  50.115  1.00  0.00    -0.193 NA
ATOM      3  N   UNL     1       4.429  41.847  50.726  1.00  0.00    -0.191 NA
ATOM      4  C   UNL     1       5.533  44.299  50.973  1.00  0.00     0.164 A 
ATOM      5  C   UNL     1       3.882  42.743  51.538  1.00  0.00     0.185 A 
ATOM      6  C   UNL     1       4.383  44.039  51.728  1.00  0.00     0.150 A 
ATOM      7  N   UNL     1       2.783  42.331  52.175  1.00  0.00    -0.233 NA
ATOM      8  N   UNL     1       3.748  44.921  52.561  1.00  0.00    -0.247 NA
ATOM      9  C   UNL     1       2.169  43.213  52.999  1.00  0.00     0.133 A 
ATOM     10  C   UNL     1       2.639  44.489  53.189  1.00  0.00     0.132 A 
ENDROOT
BRANCH   1  11
ATOM     11  N   UNL     1       6.034  41.306  49.124  1.00  0.00    -0.348 N 
ATOM     12  H   UNL     1       5.617  40.415  49.412  1.00  0.00     0.163 HD
BRANCH  11  13
ATOM     13  C   UNL     1       5.705  41.627  47.724  1.00  0.00     0.177 C 
BRANCH  13  14
ATOM     14  C   UNL     1       4.501  40.817  47.178  1.00  0.00     0.283 C 
BRANCH  14  15
ATOM     15  N   UNL     1       4.012  41.408  45.870  1.00  0.00    -0.330 N 
ATOM     16  C   UNL     1       5.083  41.702  44.842  1.00  0.00     0.291 C 
ATOM     17  C   UNL     1       2.849  40.660  45.244  1.00  0.00     0.291 C 
ATOM     18  C   UNL     1       5.479  40.418  44.101  1.00  0.00     0.221 C 
ATOM     19  C   UNL     1       3.362  39.420  44.506  1.00  0.00     0.221 C 
ATOM     20  O   UNL     1       4.338  39.776  43.519  1.00  0.00    -0.370 OA
ATOM     21  H   UNL     1       3.627  42.322  46.168  1.00  0.00     0.348 HD
ENDBRANCH  14  15
ENDBRANCH  13  14
ENDBRANCH  11  13
ENDBRANCH   1  11
BRANCH   4  22
ATOM     22  N   UNL     1       6.198  45.539  50.980  1.00  0.00    -0.338 N 
ATOM     23  H   UNL     1       6.262  45.878  50.024  1.00  0.00     0.168 HD
BRANCH  22  24
ATOM     24  C   UNL     1       7.297  45.995  51.735  1.00  0.00     0.040 A 
ATOM     25  C   UNL     1       8.578  46.196  51.213  1.00  0.00     0.030 A 
ATOM     26  C   UNL     1       7.093  46.268  53.094  1.00  0.00     0.030 A 
ATOM     27  C   UNL     1       9.628  46.656  52.022  1.00  0.00     0.048 A 
ATOM     28  C   UNL     1       8.138  46.727  53.903  1.00  0.00     0.048 A 
ATOM     29  C   UNL     1       9.412  46.924  53.372  1.00  0.00     0.119 A 
BRANCH  29  30
ATOM     30  O   UNL     1      10.341  47.375  54.265  1.00  0.00    -0.497 OA
ATOM     31  C   UNL     1       9.853  47.980  55.456  1.00  0.00     0.278 C 
ENDBRANCH  29  30
ENDBRANCH  22  24
ENDBRANCH   4  22
TORSDOF 7
ENDMDL
MODEL 16
REMARK VINA RESULT:    -7.449      3.379      7.191
REMARK INTER + INTRA:         -11.813
REMARK INTER:                 -11.020
REMARK INTRA:                  -0.793
REMARK UNBOUND:                -1.316
REMARK SMILES COc1ccc(Nc2nc(NCC[NH+]3CCOCC3)nc3nccnc23)cc1
REMARK SMILES IDX 10 1 9 2 20 3 8 4 21 5 26 6 22 7 25 8 23 9 24 10 11 11 12 13
REMARK SMILES IDX 13 14 14 15 15 16 19 17 16 18 18 19 17 20 7 22 6 24 5 25
REMARK SMILES IDX 27 26 4 27 28 28 3 29 2 30 1 31
REMARK H PARENT 11 12 14 21 7 23
ROOT
ATOM      1  C   UNL     1       5.037  42.185  50.455  1.00  0.00     0.227 A 
ATOM      2  N   UNL     1       5.689  43.335  50.433  1.00  0.00    -0.193 NA
ATOM      3  N   UNL     1       3.921  41.965  51.133  1.00  0.00    -0.191 NA
ATOM      4  C   UNL     1       5.197  44.344  51.191  1.00  0.00     0.164 A 
ATOM      5  C   UNL     1       3.424  42.969  51.846  1.00  0.00     0.185 A 
ATOM      6  C   UNL     1       4.015  44.237  51.933  1.00  0.00     0.150 A 
ATOM      7  N   UNL     1       2.284  42.696  52.485  1.00  0.00    -0.233 NA
ATOM      8  N   UNL     1       3.428  45.235  52.665  1.00  0.00    -0.247 NA
ATOM      9  C   UNL     1       1.718  43.692  53.208  1.00  0.00     0.133 A 
ATOM     10  C   UNL     1       2.277  44.943  53.297  1.00  0.00     0.132 A 
ENDROOT
BRANCH   1  11
ATOM     11  N   UNL     1       5.517  41.166  49.633  1.00  0.00    -0.348 N 
ATOM     12  H   UNL     1       5.128  40.322  50.065  1.00  0.00     0.163 HD
BRANCH  11  13
ATOM     13  C   UNL     1       5.099  41.292  48.226  1.00  0.00     0.177 C 
BRANCH  13  14
ATOM     14  C   UNL     1       3.853  40.437  47.879  1.00  0.00     0.283 C 
BRANCH  14  15
ATOM     15  N   UNL     1       3.956  39.897  46.466  1.00  0.00    -0.330 N 
ATOM     16  C   UNL     1       3.140  38.657  46.177  1.00  0.00     0.291 C 
ATOM     17  C   UNL     1       3.759  40.942  45.383  1.00  0.00     0.291 C 
ATOM     18  C   UNL     1       1.675  39.031  45.915  1.00  0.00     0.221 C 
ATOM     19  C   UNL     1       2.264  41.212  45.184  1.00  0.00     0.221 C 
ATOM     20  O   UNL     1       1.561  40.004  44.870  1.00  0.00    -0.370 OA
ATOM     21  H   UNL     1       4.952  39.619  46.405  1.00  0.00     0.348 HD
ENDBRANCH  14  15
ENDBRANCH  13  14
ENDBRANCH  11  13
ENDBRANCH   1  11
BRANCH   4  22
ATOM     22  N   UNL     1       5.951  45.529  51.106  1.00  0.00    -0.338 N 
ATOM     23  H   UNL     1       6.017  45.802  50.129  1.00  0.00     0.168 HD
BRANCH  22  24
ATOM     24  C   UNL     1       7.100  45.947  51.808  1.00  0.00     0.040 A 
ATOM     25  C   UNL     1       8.306  46.302  51.198  1.00  0.00     0.030 A 
ATOM     26  C   UNL     1       7.027  46.015  53.206  1.00  0.00     0.030 A 
ATOM     27  C   UNL     1       9.411  46.714  51.959  1.00  0.00     0.048 A 
ATOM     28  C   UNL     1       8.126  46.425  53.966  1.00  0.00     0.048 A 
ATOM     29  C   UNL     1       9.325  46.777  53.348  1.00  0.00     0.119 A 
BRANCH  29  30
ATOM     30  O   UNL     1      10.320  47.160  54.202  1.00  0.00    -0.497 OA
ATOM     31  C   UNL     1       9.929  47.859  55.376  1.00  0.00     0.278 C 
ENDBRANCH  29  30
ENDBRANCH  22  24
ENDBRANCH   4  22
TORSDOF 7
ENDMDL
MODEL 17
REMARK VINA RESULT:    -7.335      3.413      6.064
REMARK INTER + INTRA:         -11.653
REMARK INTER:                 -10.671
REMARK INTRA:                  -0.982
REMARK UNBOUND:                -1.316
REMARK SMILES COc1ccc(Nc2nc(NCC[NH+]3CCOCC3)nc3nccnc23)cc1
REMARK SMILES IDX 10 1 9 2 20 3 8 4 21 5 26 6 22 7 25 8 23 9 24 10 11 11 12 13
REMARK SMILES IDX 13 14 14 15 15 16 19 17 16 18 18 19 17 20 7 22 6 24 5 25
REMARK SMILES IDX 27 26 4 27 28 28 3 29 2 30 1 31
REMARK H PARENT 11 12 14 21 7 23
ROOT
ATOM      1  C   UNL     1       2.040  45.394  55.107  1.00  0.00     0.227 A 
ATOM      2  N   UNL     1       2.848  46.081  54.317  1.00  0.00    -0.193 NA
ATOM      3  N   UNL     1       1.254  44.407  54.704  1.00  0.00    -0.191 NA
ATOM      4  C   UNL     1       2.837  45.776  52.998  1.00  0.00     0.164 A 
ATOM      5  C   UNL     1       1.274  44.089  53.416  1.00  0.00     0.185 A 
ATOM      6  C   UNL     1       2.065  44.740  52.459  1.00  0.00     0.150 A 
ATOM      7  N   UNL     1       0.483  43.069  53.075  1.00  0.00    -0.233 NA
ATOM      8  N   UNL     1       2.057  44.335  51.150  1.00  0.00    -0.247 NA
ATOM      9  C   UNL     1       0.482  42.683  51.776  1.00  0.00     0.133 A 
ATOM     10  C   UNL     1       1.257  43.303  50.827  1.00  0.00     0.132 A 
ENDROOT
BRANCH   1  11
ATOM     11  N   UNL     1       2.092  45.676  56.471  1.00  0.00    -0.348 N 
ATOM     12  H   UNL     1       2.259  46.687  56.489  1.00  0.00     0.163 HD
BRANCH  11  13
ATOM     13  C   UNL     1       0.861  45.320  57.198  1.00  0.00     0.177 C 
BRANCH  13  14
ATOM     14  C   UNL     1       0.059  46.555  57.683  1.00  0.00     0.283 C 
BRANCH  14  15
ATOM     15  N   UNL     1      -1.112  46.825  56.759  1.00  0.00    -0.330 N 
ATOM     16  C   UNL     1      -1.870  45.604  56.286  1.00  0.00     0.291 C 
ATOM     17  C   UNL     1      -2.065  47.896  57.257  1.00  0.00     0.291 C 
ATOM     18  C   UNL     1      -2.847  45.130  57.369  1.00  0.00     0.221 C 
ATOM     19  C   UNL     1      -3.012  47.306  58.306  1.00  0.00     0.221 C 
ATOM     20  O   UNL     1      -3.729  46.183  57.777  1.00  0.00    -0.370 OA
ATOM     21  H   UNL     1      -0.650  47.230  55.925  1.00  0.00     0.348 HD
ENDBRANCH  14  15
ENDBRANCH  13  14
ENDBRANCH  11  13
ENDBRANCH   1  11
BRANCH   4  22
ATOM     22  N   UNL     1       3.727  46.554  52.234  1.00  0.00    -0.338 N 
ATOM     23  H   UNL     1       3.264  46.821  51.369  1.00  0.00     0.168 HD
BRANCH  22  24
ATOM     24  C   UNL     1       5.116  46.436  52.028  1.00  0.00     0.040 A 
ATOM     25  C   UNL     1       6.079  47.161  52.736  1.00  0.00     0.030 A 
ATOM     26  C   UNL     1       5.561  45.533  51.054  1.00  0.00     0.030 A 
ATOM     27  C   UNL     1       7.448  46.992  52.482  1.00  0.00     0.048 A 
ATOM     28  C   UNL     1       6.926  45.362  50.798  1.00  0.00     0.048 A 
ATOM     29  C   UNL     1       7.877  46.090  51.511  1.00  0.00     0.119 A 
BRANCH  29  30
ATOM     30  O   UNL     1       9.173  45.830  51.167  1.00  0.00    -0.497 OA
ATOM     31  C   UNL     1      10.186  46.460  51.940  1.00  0.00     0.278 C 
ENDBRANCH  29  30
ENDBRANCH  22  24
ENDBRANCH   4  22
TORSDOF 7
ENDMDL
MODEL 18
REMARK VINA RESULT:    -7.328      2.296      6.346
REMARK INTER + INTRA:         -11.643
REMARK INTER:                 -11.007
REMARK INTRA:                  -0.636
REMARK UNBOUND:                -1.316
REMARK SMILES COc1ccc(Nc2nc(NCC[NH+]3CCOCC3)nc3nccnc23)cc1
REMARK SMILES IDX 10 1 9 2 20 3 8 4 21 5 26 6 22 7 25 8 23 9 24 10 11 11 12 13
REMARK SMILES IDX 13 14 14 15 15 16 19 17 16 18 18 19 17 20 7 22 6 24 5 25
REMARK SMILES IDX 27 26 4 27 28 28 3 29 2 30 1 31
REMARK H PARENT 11 12 14 21 7 23
ROOT
ATOM      1  C   UNL     1       3.308  45.632  53.569  1.00  0.00     0.227 A 
ATOM      2  N   UNL     1       3.826  44.519  53.080  1.00  0.00    -0.193 NA
ATOM      3  N   UNL     1       2.045  45.775  53.942  1.00  0.00    -0.191 NA
ATOM      4  C   UNL     1       2.993  43.465  52.913  1.00  0.00     0.164 A 
ATOM      5  C   UNL     1       1.241  44.727  53.809  1.00  0.00     0.185 A 
ATOM      6  C   UNL     1       1.644  43.489  53.290  1.00  0.00     0.150 A 
ATOM      7  N   UNL     1      -0.012  44.922  54.228  1.00  0.00    -0.233 NA
ATOM      8  N   UNL     1       0.765  42.441  53.212  1.00  0.00    -0.247 NA
ATOM      9  C   UNL     1      -0.871  43.878  54.139  1.00  0.00     0.133 A 
ATOM     10  C   UNL     1      -0.491  42.655  53.642  1.00  0.00     0.132 A 
ENDROOT
BRANCH   1  11
ATOM     11  N   UNL     1       4.180  46.698  53.787  1.00  0.00    -0.348 N 
ATOM     12  H   UNL     1       4.501  46.538  54.747  1.00  0.00     0.163 HD
BRANCH  11  13
ATOM     13  C   UNL     1       5.309  46.744  52.842  1.00  0.00     0.177 C 
BRANCH  13  14
ATOM     14  C   UNL     1       6.685  46.524  53.522  1.00  0.00     0.283 C 
BRANCH  14  15
ATOM     15  N   UNL     1       7.681  47.569  53.057  1.00  0.00    -0.330 N 
ATOM     16  C   UNL     1       8.825  47.852  54.005  1.00  0.00     0.291 C 
ATOM     17  C   UNL     1       8.186  47.361  51.641  1.00  0.00     0.291 C 
ATOM     18  C   UNL     1       9.909  46.775  53.870  1.00  0.00     0.221 C 
ATOM     19  C   UNL     1       9.283  46.292  51.630  1.00  0.00     0.221 C 
ATOM     20  O   UNL     1      10.354  46.646  52.514  1.00  0.00    -0.370 OA
ATOM     21  H   UNL     1       7.103  48.428  53.022  1.00  0.00     0.348 HD
ENDBRANCH  14  15
ENDBRANCH  13  14
ENDBRANCH  11  13
ENDBRANCH   1  11
BRANCH   4  22
ATOM     22  N   UNL     1       3.628  42.324  52.390  1.00  0.00    -0.338 N 
ATOM     23  H   UNL     1       4.190  41.900  53.124  1.00  0.00     0.168 HD
BRANCH  22  24
ATOM     24  C   UNL     1       4.212  42.086  51.129  1.00  0.00     0.040 A 
ATOM     25  C   UNL     1       3.699  41.194  50.183  1.00  0.00     0.030 A 
ATOM     26  C   UNL     1       5.379  42.789  50.803  1.00  0.00     0.030 A 
ATOM     27  C   UNL     1       4.330  41.008  48.944  1.00  0.00     0.048 A 
ATOM     28  C   UNL     1       6.010  42.606  49.568  1.00  0.00     0.048 A 
ATOM     29  C   UNL     1       5.490  41.714  48.631  1.00  0.00     0.119 A 
BRANCH  29  30
ATOM     30  O   UNL     1       6.199  41.628  47.467  1.00  0.00    -0.497 OA
ATOM     31  C   UNL     1       5.455  41.623  46.256  1.00  0.00     0.278 C 
ENDBRANCH  29  30
ENDBRANCH  22  24
ENDBRANCH   4  22
TORSDOF 7
ENDMDL
MODEL 19
REMARK VINA RESULT:    -7.288      2.594      7.280
REMARK INTER + INTRA:         -11.587
REMARK INTER:                 -11.297
REMARK INTRA:                  -0.291
REMARK UNBOUND:                -1.316
REMARK SMILES COc1ccc(Nc2nc(NCC[NH+]3CCOCC3)nc3nccnc23)cc1
REMARK SMILES IDX 10 1 9 2 20 3 8 4 21 5 26 6 22 7 25 8 23 9 24 10 11 11 12 13
REMARK SMILES IDX 13 14 14 15 15 16 19 17 16 18 18 19 17 20 7 22 6 24 5 25
REMARK SMILES IDX 27 26 4 27 28 28 3 29 2 30 1 31
REMARK H PARENT 11 12 14 21 7 23
ROOT
ATOM      1  C   UNL     1       4.680  45.682  52.516  1.00  0.00     0.227 A 
ATOM      2  N   UNL     1       3.636  45.093  53.073  1.00  0.00    -0.193 NA
ATOM      3  N   UNL     1       5.467  45.120  51.610  1.00  0.00    -0.191 NA
ATOM      4  C   UNL     1       3.382  43.811  52.720  1.00  0.00     0.164 A 
ATOM      5  C   UNL     1       5.191  43.876  51.241  1.00  0.00     0.185 A 
ATOM      6  C   UNL     1       4.130  43.120  51.759  1.00  0.00     0.150 A 
ATOM      7  N   UNL     1       6.001  43.373  50.306  1.00  0.00    -0.233 NA
ATOM      8  N   UNL     1       3.887  41.850  51.306  1.00  0.00    -0.247 NA
ATOM      9  C   UNL     1       5.751  42.114  49.872  1.00  0.00     0.133 A 
ATOM     10  C   UNL     1       4.711  41.363  50.361  1.00  0.00     0.132 A 
ENDROOT
BRANCH   1  11
ATOM     11  N   UNL     1       4.908  47.018  52.844  1.00  0.00    -0.348 N 
ATOM     12  H   UNL     1       3.964  47.416  52.851  1.00  0.00     0.163 HD
BRANCH  11  13
ATOM     13  C   UNL     1       5.581  47.204  54.141  1.00  0.00     0.177 C 
BRANCH  13  14
ATOM     14  C   UNL     1       6.993  46.567  54.193  1.00  0.00     0.283 C 
BRANCH  14  15
ATOM     15  N   UNL     1       8.052  47.590  53.829  1.00  0.00    -0.330 N 
ATOM     16  C   UNL     1       9.478  47.202  54.154  1.00  0.00     0.291 C 
ATOM     17  C   UNL     1       7.943  48.123  52.413  1.00  0.00     0.291 C 
ATOM     18  C   UNL     1      10.033  46.260  53.078  1.00  0.00     0.221 C 
ATOM     19  C   UNL     1       8.555  47.121  51.429  1.00  0.00     0.221 C 
ATOM     20  O   UNL     1       9.917  46.834  51.770  1.00  0.00    -0.370 OA
ATOM     21  H   UNL     1       7.813  48.388  54.445  1.00  0.00     0.348 HD
ENDBRANCH  14  15
ENDBRANCH  13  14
ENDBRANCH  11  13
ENDBRANCH   1  11
BRANCH   4  22
ATOM     22  N   UNL     1       2.254  43.265  53.359  1.00  0.00    -0.338 N 
ATOM     23  H   UNL     1       1.801  42.616  52.721  1.00  0.00     0.168 HD
BRANCH  22  24
ATOM     24  C   UNL     1       1.300  43.853  54.214  1.00  0.00     0.040 A 
ATOM     25  C   UNL     1      -0.083  43.739  54.044  1.00  0.00     0.030 A 
ATOM     26  C   UNL     1       1.767  44.597  55.306  1.00  0.00     0.030 A 
ATOM     27  C   UNL     1      -0.977  44.348  54.936  1.00  0.00     0.048 A 
ATOM     28  C   UNL     1       0.877  45.205  56.198  1.00  0.00     0.048 A 
ATOM     29  C   UNL     1      -0.500  45.084  56.019  1.00  0.00     0.119 A 
BRANCH  29  30
ATOM     30  O   UNL     1      -1.258  45.723  56.958  1.00  0.00    -0.497 OA
ATOM     31  C   UNL     1      -0.717  46.908  57.528  1.00  0.00     0.278 C 
ENDBRANCH  29  30
ENDBRANCH  22  24
ENDBRANCH   4  22
TORSDOF 7
ENDMDL
