MODEL 1
REMARK VINA RESULT:    -9.576      0.000      0.000
REMARK INTER + INTRA:         -14.202
REMARK INTER:                 -13.215
REMARK INTRA:                  -0.986
REMARK UNBOUND:                -0.986
REMARK SMILES Cc1ccc(Nc2nc(NCc3ccccc3)nc(N3CC(O)C3)n2)cc1F
REMARK SMILES IDX 7 1 8 2 9 3 18 4 19 5 25 6 6 7 5 9 2 10 3 11 27 12 4 13
REMARK SMILES IDX 26 14 1 15 28 16 10 17 11 19 12 20 13 21 17 22 14 23 16 24
REMARK SMILES IDX 15 25 20 26 21 27 24 28 22 29 23 30
REMARK H PARENT 6 8 10 18 23 31
ROOT
ATOM      1  C   UNL     1       3.894  45.935  54.339  1.00  0.00     0.233 A 
ATOM      2  N   UNL     1       4.087  44.843  53.610  1.00  0.00    -0.177 NA
ATOM      3  C   UNL     1       3.094  43.966  53.601  1.00  0.00     0.229 A 
ATOM      4  N   UNL     1       1.952  44.128  54.245  1.00  0.00    -0.177 NA
ATOM      5  C   UNL     1       1.833  45.251  54.945  1.00  0.00     0.232 A 
ATOM      6  N   UNL     1       2.781  46.177  55.013  1.00  0.00    -0.176 NA
ENDROOT
BRANCH   1   7
ATOM      7  N   UNL     1       4.959  46.836  54.337  1.00  0.00    -0.324 N 
ATOM      8  H   UNL     1       4.658  47.703  54.759  1.00  0.00     0.170 HD
BRANCH   7   9
ATOM      9  C   UNL     1       6.251  46.812  53.798  1.00  0.00     0.044 A 
ATOM     10  C   UNL     1       8.810  46.794  52.565  1.00  0.00    -0.015 A 
ATOM     11  C   UNL     1       7.652  46.805  51.787  1.00  0.00     0.008 A 
ATOM     12  C   UNL     1       8.672  46.814  53.953  1.00  0.00     0.128 A 
ATOM     13  C   UNL     1       6.392  46.812  52.399  1.00  0.00     0.026 A 
ATOM     14  C   UNL     1       7.417  46.822  54.564  1.00  0.00     0.065 A 
ATOM     15  C   UNL     1      10.168  46.816  51.937  1.00  0.00     0.047 C 
ATOM     16  F   UNL     1       9.767  46.829  54.728  1.00  0.00    -0.207 F 
ENDBRANCH   7   9
ENDBRANCH   1   7
BRANCH   3  17
ATOM     17  N   UNL     1       3.214  42.785  52.882  1.00  0.00    -0.350 N 
ATOM     18  H   UNL     1       2.566  42.120  53.292  1.00  0.00     0.164 HD
BRANCH  17  19
ATOM     19  C   UNL     1       3.094  42.940  51.448  1.00  0.00     0.152 C 
BRANCH  19  20
ATOM     20  C   UNL     1       4.462  42.799  50.818  1.00  0.00    -0.029 A 
ATOM     21  C   UNL     1       5.258  43.926  50.569  1.00  0.00     0.005 A 
ATOM     22  C   UNL     1       4.945  41.533  50.452  1.00  0.00     0.005 A 
ATOM     23  C   UNL     1       6.515  43.788  49.980  1.00  0.00     0.000 A 
ATOM     24  C   UNL     1       6.203  41.398  49.862  1.00  0.00     0.000 A 
ATOM     25  C   UNL     1       6.987  42.525  49.628  1.00  0.00     0.000 A 
ENDBRANCH  19  20
ENDBRANCH  17  19
ENDBRANCH   3  17
BRANCH   5  26
ATOM     26  N   UNL     1       0.650  45.464  55.661  1.00  0.00    -0.335 N 
ATOM     27  C   UNL     1      -0.603  44.823  55.389  1.00  0.00     0.153 C 
ATOM     28  C   UNL     1       0.506  45.313  57.077  1.00  0.00     0.153 C 
ATOM     29  C   UNL     1      -1.012  45.189  56.829  1.00  0.00     0.153 C 
BRANCH  29  30
ATOM     30  O   UNL     1      -1.721  44.182  57.583  1.00  0.00    -0.389 OA
ATOM     31  H   UNL     1      -1.063  43.486  57.749  1.00  0.00     0.211 HD
ENDBRANCH  29  30
ENDBRANCH   5  26
TORSDOF 7
ENDMDL
MODEL 2
REMARK VINA RESULT:    -9.573      0.866      1.251
REMARK INTER + INTRA:         -14.198
REMARK INTER:                 -13.125
REMARK INTRA:                  -1.072
REMARK UNBOUND:                -0.986
REMARK SMILES Cc1ccc(Nc2nc(NCc3ccccc3)nc(N3CC(O)C3)n2)cc1F
REMARK SMILES IDX 7 1 8 2 9 3 18 4 19 5 25 6 6 7 5 9 2 10 3 11 27 12 4 13
REMARK SMILES IDX 26 14 1 15 28 16 10 17 11 19 12 20 13 21 17 22 14 23 16 24
REMARK SMILES IDX 15 25 20 26 21 27 24 28 22 29 23 30
REMARK H PARENT 6 8 10 18 23 31
ROOT
ATOM      1  C   UNL     1       3.829  45.928  54.224  1.00  0.00     0.233 A 
ATOM      2  N   UNL     1       4.043  44.830  53.509  1.00  0.00    -0.177 NA
ATOM      3  C   UNL     1       3.067  43.934  53.512  1.00  0.00     0.229 A 
ATOM      4  N   UNL     1       1.922  44.083  54.154  1.00  0.00    -0.177 NA
ATOM      5  C   UNL     1       1.782  45.212  54.839  1.00  0.00     0.232 A 
ATOM      6  N   UNL     1       2.712  46.157  54.894  1.00  0.00    -0.176 NA
ENDROOT
BRANCH   1   7
ATOM      7  N   UNL     1       4.877  46.849  54.210  1.00  0.00    -0.324 N 
ATOM      8  H   UNL     1       4.554  47.720  54.606  1.00  0.00     0.170 HD
BRANCH   7   9
ATOM      9  C   UNL     1       6.175  46.836  53.686  1.00  0.00     0.044 A 
ATOM     10  C   UNL     1       8.862  46.780  52.765  1.00  0.00    -0.015 A 
ATOM     11  C   UNL     1       8.585  46.811  54.133  1.00  0.00     0.008 A 
ATOM     12  C   UNL     1       7.788  46.756  51.876  1.00  0.00     0.128 A 
ATOM     13  C   UNL     1       7.258  46.840  54.582  1.00  0.00     0.026 A 
ATOM     14  C   UNL     1       6.466  46.785  52.322  1.00  0.00     0.065 A 
ATOM     15  C   UNL     1      10.269  46.720  52.259  1.00  0.00     0.047 C 
ATOM     16  F   UNL     1       8.022  46.702  50.556  1.00  0.00    -0.207 F 
ENDBRANCH   7   9
ENDBRANCH   1   7
BRANCH   3  17
ATOM     17  N   UNL     1       3.210  42.746  52.809  1.00  0.00    -0.350 N 
ATOM     18  H   UNL     1       2.556  42.082  53.210  1.00  0.00     0.164 HD
BRANCH  17  19
ATOM     19  C   UNL     1       3.124  42.885  51.371  1.00  0.00     0.152 C 
BRANCH  19  20
ATOM     20  C   UNL     1       4.510  42.767  50.777  1.00  0.00    -0.029 A 
ATOM     21  C   UNL     1       5.274  43.910  50.503  1.00  0.00     0.005 A 
ATOM     22  C   UNL     1       5.043  41.505  50.473  1.00  0.00     0.005 A 
ATOM     23  C   UNL     1       6.548  43.792  49.947  1.00  0.00     0.000 A 
ATOM     24  C   UNL     1       6.318  41.390  49.916  1.00  0.00     0.000 A 
ATOM     25  C   UNL     1       7.070  42.534  49.656  1.00  0.00     0.000 A 
ENDBRANCH  19  20
ENDBRANCH  17  19
ENDBRANCH   3  17
BRANCH   5  26
ATOM     26  N   UNL     1       0.595  45.413  55.553  1.00  0.00    -0.335 N 
ATOM     27  C   UNL     1      -0.627  44.698  55.331  1.00  0.00     0.153 C 
ATOM     28  C   UNL     1       0.468  45.341  56.976  1.00  0.00     0.153 C 
ATOM     29  C   UNL     1      -1.044  45.131  56.751  1.00  0.00     0.153 C 
BRANCH  29  30
ATOM     30  O   UNL     1      -1.699  44.139  57.571  1.00  0.00    -0.389 OA
ATOM     31  H   UNL     1      -2.493  44.583  57.912  1.00  0.00     0.211 HD
ENDBRANCH  29  30
ENDBRANCH   5  26
TORSDOF 7
ENDMDL
MODEL 3
REMARK VINA RESULT:    -9.515      2.631      3.618
REMARK INTER + INTRA:         -14.117
REMARK INTER:                 -13.178
REMARK INTRA:                  -0.939
REMARK UNBOUND:                -0.986
REMARK SMILES Cc1ccc(Nc2nc(NCc3ccccc3)nc(N3CC(O)C3)n2)cc1F
REMARK SMILES IDX 7 1 8 2 9 3 18 4 19 5 25 6 6 7 5 9 2 10 3 11 27 12 4 13
REMARK SMILES IDX 26 14 1 15 28 16 10 17 11 19 12 20 13 21 17 22 14 23 16 24
REMARK SMILES IDX 15 25 20 26 21 27 24 28 22 29 23 30
REMARK H PARENT 6 8 10 18 23 31
ROOT
ATOM      1  C   UNL     1       4.967  44.827  51.243  1.00  0.00     0.233 A 
ATOM      2  N   UNL     1       5.379  43.645  50.800  1.00  0.00    -0.177 NA
ATOM      3  C   UNL     1       4.494  42.660  50.860  1.00  0.00     0.229 A 
ATOM      4  N   UNL     1       3.258  42.796  51.308  1.00  0.00    -0.177 NA
ATOM      5  C   UNL     1       2.921  44.010  51.725  1.00  0.00     0.232 A 
ATOM      6  N   UNL     1       3.747  45.049  51.705  1.00  0.00    -0.176 NA
ENDROOT
BRANCH   1   7
ATOM      7  N   UNL     1       5.921  45.842  51.176  1.00  0.00    -0.324 N 
ATOM      8  H   UNL     1       5.819  46.331  50.298  1.00  0.00     0.170 HD
BRANCH   7   9
ATOM      9  C   UNL     1       6.995  46.222  51.990  1.00  0.00     0.044 A 
ATOM     10  C   UNL     1       9.080  46.979  53.764  1.00  0.00    -0.015 A 
ATOM     11  C   UNL     1       7.759  46.918  54.212  1.00  0.00     0.008 A 
ATOM     12  C   UNL     1       9.342  46.639  52.438  1.00  0.00     0.128 A 
ATOM     13  C   UNL     1       6.734  46.545  53.332  1.00  0.00     0.026 A 
ATOM     14  C   UNL     1       8.322  46.267  51.561  1.00  0.00     0.065 A 
ATOM     15  C   UNL     1      10.198  47.346  54.689  1.00  0.00     0.047 C 
ATOM     16  F   UNL     1      10.604  46.664  51.984  1.00  0.00    -0.207 F 
ENDBRANCH   7   9
ENDBRANCH   1   7
BRANCH   3  17
ATOM     17  N   UNL     1       4.842  41.385  50.438  1.00  0.00    -0.350 N 
ATOM     18  H   UNL     1       3.984  40.914  50.173  1.00  0.00     0.164 HD
BRANCH  17  19
ATOM     19  C   UNL     1       5.885  41.349  49.433  1.00  0.00     0.152 C 
BRANCH  19  20
ATOM     20  C   UNL     1       5.250  41.251  48.064  1.00  0.00    -0.029 A 
ATOM     21  C   UNL     1       5.818  41.901  46.960  1.00  0.00     0.005 A 
ATOM     22  C   UNL     1       4.065  40.521  47.885  1.00  0.00     0.005 A 
ATOM     23  C   UNL     1       5.221  41.812  45.702  1.00  0.00     0.000 A 
ATOM     24  C   UNL     1       3.469  40.434  46.626  1.00  0.00     0.000 A 
ATOM     25  C   UNL     1       4.048  41.078  45.535  1.00  0.00     0.000 A 
ENDBRANCH  19  20
ENDBRANCH  17  19
ENDBRANCH   3  17
BRANCH   5  26
ATOM     26  N   UNL     1       1.629  44.205  52.226  1.00  0.00    -0.335 N 
ATOM     27  C   UNL     1       1.187  45.374  52.927  1.00  0.00     0.153 C 
ATOM     28  C   UNL     1       0.426  44.119  51.456  1.00  0.00     0.153 C 
ATOM     29  C   UNL     1      -0.250  44.948  52.568  1.00  0.00     0.153 C 
BRANCH  29  30
ATOM     30  O   UNL     1      -1.156  45.993  52.150  1.00  0.00    -0.389 OA
ATOM     31  H   UNL     1      -1.268  46.554  52.936  1.00  0.00     0.211 HD
ENDBRANCH  29  30
ENDBRANCH   5  26
TORSDOF 7
ENDMDL
MODEL 4
REMARK VINA RESULT:    -9.420      3.194      7.344
REMARK INTER + INTRA:         -13.985
REMARK INTER:                 -13.207
REMARK INTRA:                  -0.779
REMARK UNBOUND:                -0.986
REMARK SMILES Cc1ccc(Nc2nc(NCc3ccccc3)nc(N3CC(O)C3)n2)cc1F
REMARK SMILES IDX 7 1 8 2 9 3 18 4 19 5 25 6 6 7 5 9 2 10 3 11 27 12 4 13
REMARK SMILES IDX 26 14 1 15 28 16 10 17 11 19 12 20 13 21 17 22 14 23 16 24
REMARK SMILES IDX 15 25 20 26 21 27 24 28 22 29 23 30
REMARK H PARENT 6 8 10 18 23 31
ROOT
ATOM      1  C   UNL     1       3.108  43.879  53.012  1.00  0.00     0.233 A 
ATOM      2  N   UNL     1       3.478  45.153  53.086  1.00  0.00    -0.177 NA
ATOM      3  C   UNL     1       4.516  45.502  52.340  1.00  0.00     0.229 A 
ATOM      4  N   UNL     1       5.168  44.678  51.540  1.00  0.00    -0.177 NA
ATOM      5  C   UNL     1       4.732  43.424  51.516  1.00  0.00     0.232 A 
ATOM      6  N   UNL     1       3.705  42.989  52.236  1.00  0.00    -0.176 NA
ENDROOT
BRANCH   1   7
ATOM      7  N   UNL     1       2.019  43.538  53.814  1.00  0.00    -0.324 N 
ATOM      8  H   UNL     1       1.760  42.580  53.626  1.00  0.00     0.170 HD
BRANCH   7   9
ATOM      9  C   UNL     1       1.197  44.254  54.692  1.00  0.00     0.044 A 
ATOM     10  C   UNL     1      -0.593  45.643  56.405  1.00  0.00    -0.015 A 
ATOM     11  C   UNL     1      -1.072  44.971  55.279  1.00  0.00     0.008 A 
ATOM     12  C   UNL     1       0.774  45.592  56.671  1.00  0.00     0.128 A 
ATOM     13  C   UNL     1      -0.185  44.289  54.436  1.00  0.00     0.026 A 
ATOM     14  C   UNL     1       1.659  44.913  55.832  1.00  0.00     0.065 A 
ATOM     15  C   UNL     1      -1.522  46.355  57.338  1.00  0.00     0.047 C 
ATOM     16  F   UNL     1       1.261  46.207  57.759  1.00  0.00    -0.207 F 
ENDBRANCH   7   9
ENDBRANCH   1   7
BRANCH   3  17
ATOM     17  N   UNL     1       4.985  46.807  52.368  1.00  0.00    -0.350 N 
ATOM     18  H   UNL     1       4.192  47.413  52.186  1.00  0.00     0.164 HD
BRANCH  17  19
ATOM     19  C   UNL     1       5.743  47.147  53.555  1.00  0.00     0.152 C 
BRANCH  19  20
ATOM     20  C   UNL     1       7.219  47.106  53.228  1.00  0.00    -0.029 A 
ATOM     21  C   UNL     1       7.671  47.308  51.916  1.00  0.00     0.005 A 
ATOM     22  C   UNL     1       8.159  46.842  54.236  1.00  0.00     0.005 A 
ATOM     23  C   UNL     1       9.034  47.259  51.623  1.00  0.00     0.000 A 
ATOM     24  C   UNL     1       9.522  46.793  53.940  1.00  0.00     0.000 A 
ATOM     25  C   UNL     1       9.958  47.003  52.634  1.00  0.00     0.000 A 
ENDBRANCH  19  20
ENDBRANCH  17  19
ENDBRANCH   3  17
BRANCH   5  26
ATOM     26  N   UNL     1       5.400  42.504  50.698  1.00  0.00    -0.335 N 
ATOM     27  C   UNL     1       4.771  41.435  49.981  1.00  0.00     0.153 C 
ATOM     28  C   UNL     1       6.247  42.846  49.597  1.00  0.00     0.153 C 
ATOM     29  C   UNL     1       6.022  41.410  49.081  1.00  0.00     0.153 C 
BRANCH  29  30
ATOM     30  O   UNL     1       5.805  41.247  47.663  1.00  0.00    -0.389 OA
ATOM     31  H   UNL     1       6.690  41.090  47.292  1.00  0.00     0.211 HD
ENDBRANCH  29  30
ENDBRANCH   5  26
TORSDOF 7
ENDMDL
MODEL 5
REMARK VINA RESULT:    -9.291      3.570      7.548
REMARK INTER + INTRA:         -13.807
REMARK INTER:                 -13.093
REMARK INTRA:                  -0.715
REMARK UNBOUND:                -0.986
REMARK SMILES Cc1ccc(Nc2nc(NCc3ccccc3)nc(N3CC(O)C3)n2)cc1F
REMARK SMILES IDX 7 1 8 2 9 3 18 4 19 5 25 6 6 7 5 9 2 10 3 11 27 12 4 13
REMARK SMILES IDX 26 14 1 15 28 16 10 17 11 19 12 20 13 21 17 22 14 23 16 24
REMARK SMILES IDX 15 25 20 26 21 27 24 28 22 29 23 30
REMARK H PARENT 6 8 10 18 23 31
ROOT
ATOM      1  C   UNL     1       3.121  43.805  52.946  1.00  0.00     0.233 A 
ATOM      2  N   UNL     1       3.473  45.083  53.017  1.00  0.00    -0.177 NA
ATOM      3  C   UNL     1       4.499  45.447  52.262  1.00  0.00     0.229 A 
ATOM      4  N   UNL     1       5.155  44.633  51.455  1.00  0.00    -0.177 NA
ATOM      5  C   UNL     1       4.737  43.373  51.434  1.00  0.00     0.232 A 
ATOM      6  N   UNL     1       3.723  42.924  52.163  1.00  0.00    -0.176 NA
ENDROOT
BRANCH   1   7
ATOM      7  N   UNL     1       2.044  43.448  53.758  1.00  0.00    -0.324 N 
ATOM      8  H   UNL     1       1.822  42.475  53.601  1.00  0.00     0.170 HD
BRANCH   7   9
ATOM      9  C   UNL     1       1.194  44.160  54.612  1.00  0.00     0.044 A 
ATOM     10  C   UNL     1      -0.405  45.663  56.416  1.00  0.00    -0.015 A 
ATOM     11  C   UNL     1       0.969  45.536  56.628  1.00  0.00     0.008 A 
ATOM     12  C   UNL     1      -0.957  45.053  55.290  1.00  0.00     0.128 A 
ATOM     13  C   UNL     1       1.753  44.791  55.737  1.00  0.00     0.026 A 
ATOM     14  C   UNL     1      -0.177  44.312  54.401  1.00  0.00     0.065 A 
ATOM     15  C   UNL     1      -1.261  46.475  57.337  1.00  0.00     0.047 C 
ATOM     16  F   UNL     1      -2.270  45.178  55.046  1.00  0.00    -0.207 F 
ENDBRANCH   7   9
ENDBRANCH   1   7
BRANCH   3  17
ATOM     17  N   UNL     1       4.950  46.759  52.287  1.00  0.00    -0.350 N 
ATOM     18  H   UNL     1       4.159  47.351  52.054  1.00  0.00     0.164 HD
BRANCH  17  19
ATOM     19  C   UNL     1       5.645  47.132  53.501  1.00  0.00     0.152 C 
BRANCH  19  20
ATOM     20  C   UNL     1       7.136  47.107  53.247  1.00  0.00    -0.029 A 
ATOM     21  C   UNL     1       8.043  46.965  54.306  1.00  0.00     0.005 A 
ATOM     22  C   UNL     1       7.633  47.249  51.942  1.00  0.00     0.005 A 
ATOM     23  C   UNL     1       9.417  46.951  54.063  1.00  0.00     0.000 A 
ATOM     24  C   UNL     1       9.007  47.235  51.702  1.00  0.00     0.000 A 
ATOM     25  C   UNL     1       9.898  47.085  52.762  1.00  0.00     0.000 A 
ENDBRANCH  19  20
ENDBRANCH  17  19
ENDBRANCH   3  17
BRANCH   5  26
ATOM     26  N   UNL     1       5.409  42.464  50.609  1.00  0.00    -0.335 N 
ATOM     27  C   UNL     1       4.781  41.425  49.849  1.00  0.00     0.153 C 
ATOM     28  C   UNL     1       6.290  42.819  49.539  1.00  0.00     0.153 C 
ATOM     29  C   UNL     1       6.054  41.401  48.980  1.00  0.00     0.153 C 
BRANCH  29  30
ATOM     30  O   UNL     1       5.870  41.278  47.553  1.00  0.00    -0.389 OA
ATOM     31  H   UNL     1       6.755  41.416  47.175  1.00  0.00     0.211 HD
ENDBRANCH  29  30
ENDBRANCH   5  26
TORSDOF 7
ENDMDL
MODEL 6
REMARK VINA RESULT:    -9.199      3.106      7.346
REMARK INTER + INTRA:         -13.681
REMARK INTER:                 -13.126
REMARK INTRA:                  -0.555
REMARK UNBOUND:                -0.986
REMARK SMILES Cc1ccc(Nc2nc(NCc3ccccc3)nc(N3CC(O)C3)n2)cc1F
REMARK SMILES IDX 7 1 8 2 9 3 18 4 19 5 25 6 6 7 5 9 2 10 3 11 27 12 4 13
REMARK SMILES IDX 26 14 1 15 28 16 10 17 11 19 12 20 13 21 17 22 14 23 16 24
REMARK SMILES IDX 15 25 20 26 21 27 24 28 22 29 23 30
REMARK H PARENT 6 8 10 18 23 31
ROOT
ATOM      1  C   UNL     1       2.785  44.110  53.500  1.00  0.00     0.233 A 
ATOM      2  N   UNL     1       3.454  45.161  53.959  1.00  0.00    -0.177 NA
ATOM      3  C   UNL     1       4.589  45.445  53.338  1.00  0.00     0.229 A 
ATOM      4  N   UNL     1       5.063  44.768  52.307  1.00  0.00    -0.177 NA
ATOM      5  C   UNL     1       4.331  43.737  51.902  1.00  0.00     0.232 A 
ATOM      6  N   UNL     1       3.187  43.380  52.472  1.00  0.00    -0.176 NA
ENDROOT
BRANCH   1   7
ATOM      7  N   UNL     1       1.598  43.830  54.178  1.00  0.00    -0.324 N 
ATOM      8  H   UNL     1       1.244  42.937  53.864  1.00  0.00     0.170 HD
BRANCH   7   9
ATOM      9  C   UNL     1       0.796  44.550  55.071  1.00  0.00     0.044 A 
ATOM     10  C   UNL     1      -0.955  45.945  56.819  1.00  0.00    -0.015 A 
ATOM     11  C   UNL     1      -1.460  45.262  55.711  1.00  0.00     0.008 A 
ATOM     12  C   UNL     1       0.419  45.902  57.049  1.00  0.00     0.128 A 
ATOM     13  C   UNL     1      -0.592  44.577  54.851  1.00  0.00     0.026 A 
ATOM     14  C   UNL     1       1.285  45.219  56.194  1.00  0.00     0.065 A 
ATOM     15  C   UNL     1      -1.863  46.661  57.769  1.00  0.00     0.047 C 
ATOM     16  F   UNL     1       0.932  46.528  58.120  1.00  0.00    -0.207 F 
ENDBRANCH   7   9
ENDBRANCH   1   7
BRANCH   3  17
ATOM     17  N   UNL     1       5.367  46.513  53.762  1.00  0.00    -0.350 N 
ATOM     18  H   UNL     1       6.003  46.157  54.467  1.00  0.00     0.164 HD
BRANCH  17  19
ATOM     19  C   UNL     1       6.004  47.254  52.694  1.00  0.00     0.152 C 
BRANCH  19  20
ATOM     20  C   UNL     1       7.504  47.099  52.810  1.00  0.00    -0.029 A 
ATOM     21  C   UNL     1       8.285  46.801  51.684  1.00  0.00     0.005 A 
ATOM     22  C   UNL     1       8.134  47.231  54.057  1.00  0.00     0.005 A 
ATOM     23  C   UNL     1       9.667  46.652  51.802  1.00  0.00     0.000 A 
ATOM     24  C   UNL     1       9.517  47.081  54.172  1.00  0.00     0.000 A 
ATOM     25  C   UNL     1      10.282  46.793  53.045  1.00  0.00     0.000 A 
ENDBRANCH  19  20
ENDBRANCH  17  19
ENDBRANCH   3  17
BRANCH   5  26
ATOM     26  N   UNL     1       4.796  42.975  50.824  1.00  0.00    -0.335 N 
ATOM     27  C   UNL     1       6.088  43.111  50.219  1.00  0.00     0.153 C 
ATOM     28  C   UNL     1       4.846  41.545  50.787  1.00  0.00     0.153 C 
ATOM     29  C   UNL     1       5.886  41.690  49.657  1.00  0.00     0.153 C 
BRANCH  29  30
ATOM     30  O   UNL     1       7.026  40.804  49.696  1.00  0.00    -0.389 OA
ATOM     31  H   UNL     1       6.816  40.101  49.057  1.00  0.00     0.211 HD
ENDBRANCH  29  30
ENDBRANCH   5  26
TORSDOF 7
ENDMDL
MODEL 7
REMARK VINA RESULT:    -9.176      2.979      7.045
REMARK INTER + INTRA:         -13.650
REMARK INTER:                 -12.791
REMARK INTRA:                  -0.859
REMARK UNBOUND:                -0.986
REMARK SMILES Cc1ccc(Nc2nc(NCc3ccccc3)nc(N3CC(O)C3)n2)cc1F
REMARK SMILES IDX 7 1 8 2 9 3 18 4 19 5 25 6 6 7 5 9 2 10 3 11 27 12 4 13
REMARK SMILES IDX 26 14 1 15 28 16 10 17 11 19 12 20 13 21 17 22 14 23 16 24
REMARK SMILES IDX 15 25 20 26 21 27 24 28 22 29 23 30
REMARK H PARENT 6 8 10 18 23 31
ROOT
ATOM      1  C   UNL     1       2.647  45.001  55.193  1.00  0.00     0.233 A 
ATOM      2  N   UNL     1       3.609  45.905  55.339  1.00  0.00    -0.177 NA
ATOM      3  C   UNL     1       4.440  46.041  54.316  1.00  0.00     0.229 A 
ATOM      4  N   UNL     1       4.351  45.358  53.188  1.00  0.00    -0.177 NA
ATOM      5  C   UNL     1       3.357  44.480  53.117  1.00  0.00     0.232 A 
ATOM      6  N   UNL     1       2.486  44.276  54.098  1.00  0.00    -0.176 NA
ENDROOT
BRANCH   1   7
ATOM      7  N   UNL     1       1.793  44.873  56.288  1.00  0.00    -0.324 N 
ATOM      8  H   UNL     1       1.823  43.918  56.618  1.00  0.00     0.170 HD
BRANCH   7   9
ATOM      9  C   UNL     1       0.877  45.729  56.911  1.00  0.00     0.044 A 
ATOM     10  C   UNL     1      -1.094  47.394  58.098  1.00  0.00    -0.015 A 
ATOM     11  C   UNL     1      -1.421  46.573  57.017  1.00  0.00     0.008 A 
ATOM     12  C   UNL     1       0.212  47.354  58.584  1.00  0.00     0.128 A 
ATOM     13  C   UNL     1      -0.445  45.755  56.434  1.00  0.00     0.026 A 
ATOM     14  C   UNL     1       1.185  46.539  58.005  1.00  0.00     0.065 A 
ATOM     15  C   UNL     1      -2.125  48.256  58.757  1.00  0.00     0.047 C 
ATOM     16  F   UNL     1       0.550  48.113  59.637  1.00  0.00    -0.207 F 
ENDBRANCH   7   9
ENDBRANCH   1   7
BRANCH   3  17
ATOM     17  N   UNL     1       5.488  46.948  54.386  1.00  0.00    -0.350 N 
ATOM     18  H   UNL     1       6.188  46.546  55.001  1.00  0.00     0.164 HD
BRANCH  17  19
ATOM     19  C   UNL     1       5.992  47.385  53.101  1.00  0.00     0.152 C 
BRANCH  19  20
ATOM     20  C   UNL     1       7.485  47.149  53.048  1.00  0.00    -0.029 A 
ATOM     21  C   UNL     1       8.266  47.228  54.209  1.00  0.00     0.005 A 
ATOM     22  C   UNL     1       8.113  46.867  51.825  1.00  0.00     0.005 A 
ATOM     23  C   UNL     1       9.644  47.018  54.150  1.00  0.00     0.000 A 
ATOM     24  C   UNL     1       9.491  46.657  51.768  1.00  0.00     0.000 A 
ATOM     25  C   UNL     1      10.256  46.731  52.931  1.00  0.00     0.000 A 
ENDBRANCH  19  20
ENDBRANCH  17  19
ENDBRANCH   3  17
BRANCH   5  26
ATOM     26  N   UNL     1       3.229  43.717  51.951  1.00  0.00    -0.335 N 
ATOM     27  C   UNL     1       4.299  43.017  51.305  1.00  0.00     0.153 C 
ATOM     28  C   UNL     1       2.312  42.632  51.774  1.00  0.00     0.153 C 
ATOM     29  C   UNL     1       3.218  42.160  50.618  1.00  0.00     0.153 C 
BRANCH  29  30
ATOM     30  O   UNL     1       3.473  40.742  50.520  1.00  0.00    -0.389 OA
ATOM     31  H   UNL     1       2.868  40.335  51.164  1.00  0.00     0.211 HD
ENDBRANCH  29  30
ENDBRANCH   5  26
TORSDOF 7
ENDMDL
MODEL 8
REMARK VINA RESULT:    -9.159      1.525      4.741
REMARK INTER + INTRA:         -13.626
REMARK INTER:                 -12.806
REMARK INTRA:                  -0.820
REMARK UNBOUND:                -0.986
REMARK SMILES Cc1ccc(Nc2nc(NCc3ccccc3)nc(N3CC(O)C3)n2)cc1F
REMARK SMILES IDX 7 1 8 2 9 3 18 4 19 5 25 6 6 7 5 9 2 10 3 11 27 12 4 13
REMARK SMILES IDX 26 14 1 15 28 16 10 17 11 19 12 20 13 21 17 22 14 23 16 24
REMARK SMILES IDX 15 25 20 26 21 27 24 28 22 29 23 30
REMARK H PARENT 6 8 10 18 23 31
ROOT
ATOM      1  C   UNL     1       3.533  43.910  53.514  1.00  0.00     0.233 A 
ATOM      2  N   UNL     1       4.610  44.673  53.661  1.00  0.00    -0.177 NA
ATOM      3  C   UNL     1       4.468  45.736  54.438  1.00  0.00     0.229 A 
ATOM      4  N   UNL     1       3.351  46.055  55.068  1.00  0.00    -0.177 NA
ATOM      5  C   UNL     1       2.323  45.237  54.876  1.00  0.00     0.232 A 
ATOM      6  N   UNL     1       2.377  44.155  54.109  1.00  0.00    -0.176 NA
ENDROOT
BRANCH   1   7
ATOM      7  N   UNL     1       3.708  42.802  52.684  1.00  0.00    -0.324 N 
ATOM      8  H   UNL     1       3.324  41.986  53.139  1.00  0.00     0.170 HD
BRANCH   7   9
ATOM      9  C   UNL     1       4.370  42.595  51.468  1.00  0.00     0.044 A 
ATOM     10  C   UNL     1       5.600  42.075  48.961  1.00  0.00    -0.015 A 
ATOM     11  C   UNL     1       4.550  41.273  49.412  1.00  0.00     0.008 A 
ATOM     12  C   UNL     1       6.006  43.141  49.762  1.00  0.00     0.128 A 
ATOM     13  C   UNL     1       3.948  41.532  50.650  1.00  0.00     0.026 A 
ATOM     14  C   UNL     1       5.407  43.401  50.996  1.00  0.00     0.065 A 
ATOM     15  C   UNL     1       6.242  41.837  47.630  1.00  0.00     0.047 C 
ATOM     16  F   UNL     1       6.996  43.944  49.345  1.00  0.00    -0.207 F 
ENDBRANCH   7   9
ENDBRANCH   1   7
BRANCH   3  17
ATOM     17  N   UNL     1       5.534  46.603  54.633  1.00  0.00    -0.350 N 
ATOM     18  H   UNL     1       6.285  46.062  55.050  1.00  0.00     0.164 HD
BRANCH  17  19
ATOM     19  C   UNL     1       5.916  47.359  53.459  1.00  0.00     0.152 C 
BRANCH  19  20
ATOM     20  C   UNL     1       7.368  47.080  53.140  1.00  0.00    -0.029 A 
ATOM     21  C   UNL     1       8.384  47.460  54.027  1.00  0.00     0.005 A 
ATOM     22  C   UNL     1       7.719  46.453  51.935  1.00  0.00     0.005 A 
ATOM     23  C   UNL     1       9.722  47.207  53.721  1.00  0.00     0.000 A 
ATOM     24  C   UNL     1       9.057  46.201  51.630  1.00  0.00     0.000 A 
ATOM     25  C   UNL     1      10.058  46.577  52.524  1.00  0.00     0.000 A 
ENDBRANCH  19  20
ENDBRANCH  17  19
ENDBRANCH   3  17
BRANCH   5  26
ATOM     26  N   UNL     1       1.109  45.539  55.506  1.00  0.00    -0.335 N 
ATOM     27  C   UNL     1      -0.130  44.858  55.271  1.00  0.00     0.153 C 
ATOM     28  C   UNL     1       0.905  45.582  56.922  1.00  0.00     0.153 C 
ATOM     29  C   UNL     1      -0.600  45.415  56.629  1.00  0.00     0.153 C 
BRANCH  29  30
ATOM     30  O   UNL     1      -1.340  44.515  57.483  1.00  0.00    -0.389 OA
ATOM     31  H   UNL     1      -1.042  43.626  57.226  1.00  0.00     0.211 HD
ENDBRANCH  29  30
ENDBRANCH   5  26
TORSDOF 7
ENDMDL
MODEL 9
REMARK VINA RESULT:    -9.070      2.978      4.248
REMARK INTER + INTRA:         -13.503
REMARK INTER:                 -12.631
REMARK INTRA:                  -0.872
REMARK UNBOUND:                -0.986
REMARK SMILES Cc1ccc(Nc2nc(NCc3ccccc3)nc(N3CC(O)C3)n2)cc1F
REMARK SMILES IDX 7 1 8 2 9 3 18 4 19 5 25 6 6 7 5 9 2 10 3 11 27 12 4 13
REMARK SMILES IDX 26 14 1 15 28 16 10 17 11 19 12 20 13 21 17 22 14 23 16 24
REMARK SMILES IDX 15 25 20 26 21 27 24 28 22 29 23 30
REMARK H PARENT 6 8 10 18 23 31
ROOT
ATOM      1  C   UNL     1       6.464  45.242  51.000  1.00  0.00     0.233 A 
ATOM      2  N   UNL     1       6.950  44.358  50.137  1.00  0.00    -0.177 NA
ATOM      3  C   UNL     1       6.168  43.326  49.859  1.00  0.00     0.229 A 
ATOM      4  N   UNL     1       4.961  43.147  50.367  1.00  0.00    -0.177 NA
ATOM      5  C   UNL     1       4.544  44.079  51.215  1.00  0.00     0.232 A 
ATOM      6  N   UNL     1       5.266  45.140  51.554  1.00  0.00    -0.176 NA
ENDROOT
BRANCH   1   7
ATOM      7  N   UNL     1       7.311  46.314  51.281  1.00  0.00    -0.324 N 
ATOM      8  H   UNL     1       7.368  46.910  50.468  1.00  0.00     0.170 HD
BRANCH   7   9
ATOM      9  C   UNL     1       8.133  46.644  52.366  1.00  0.00     0.044 A 
ATOM     10  C   UNL     1       9.922  47.271  54.481  1.00  0.00    -0.015 A 
ATOM     11  C   UNL     1      10.367  46.553  53.369  1.00  0.00     0.008 A 
ATOM     12  C   UNL     1       8.591  47.684  54.509  1.00  0.00     0.128 A 
ATOM     13  C   UNL     1       9.480  46.245  52.329  1.00  0.00     0.026 A 
ATOM     14  C   UNL     1       7.707  47.378  53.474  1.00  0.00     0.065 A 
ATOM     15  C   UNL     1      10.855  47.638  55.592  1.00  0.00     0.047 C 
ATOM     16  F   UNL     1       8.140  48.396  55.553  1.00  0.00    -0.207 F 
ENDBRANCH   7   9
ENDBRANCH   1   7
BRANCH   3  17
ATOM     17  N   UNL     1       6.601  42.341  48.982  1.00  0.00    -0.350 N 
ATOM     18  H   UNL     1       7.551  42.103  49.248  1.00  0.00     0.164 HD
BRANCH  17  19
ATOM     19  C   UNL     1       5.708  41.208  48.862  1.00  0.00     0.152 C 
BRANCH  19  20
ATOM     20  C   UNL     1       5.080  41.216  47.486  1.00  0.00    -0.029 A 
ATOM     21  C   UNL     1       5.673  41.923  46.430  1.00  0.00     0.005 A 
ATOM     22  C   UNL     1       3.878  40.530  47.253  1.00  0.00     0.005 A 
ATOM     23  C   UNL     1       5.082  41.933  45.166  1.00  0.00     0.000 A 
ATOM     24  C   UNL     1       3.289  40.541  45.988  1.00  0.00     0.000 A 
ATOM     25  C   UNL     1       3.892  41.241  44.945  1.00  0.00     0.000 A 
ENDBRANCH  19  20
ENDBRANCH  17  19
ENDBRANCH   3  17
BRANCH   5  26
ATOM     26  N   UNL     1       3.280  43.929  51.797  1.00  0.00    -0.335 N 
ATOM     27  C   UNL     1       2.387  42.836  51.550  1.00  0.00     0.153 C 
ATOM     28  C   UNL     1       3.016  43.927  53.203  1.00  0.00     0.153 C 
ATOM     29  C   UNL     1       1.689  43.213  52.872  1.00  0.00     0.153 C 
BRANCH  29  30
ATOM     30  O   UNL     1       1.294  42.125  53.736  1.00  0.00    -0.389 OA
ATOM     31  H   UNL     1       1.941  42.136  54.461  1.00  0.00     0.211 HD
ENDBRANCH  29  30
ENDBRANCH   5  26
TORSDOF 7
ENDMDL
MODEL 10
REMARK VINA RESULT:    -9.036      3.801      7.848
REMARK INTER + INTRA:         -13.456
REMARK INTER:                 -12.608
REMARK INTRA:                  -0.848
REMARK UNBOUND:                -0.986
REMARK SMILES Cc1ccc(Nc2nc(NCc3ccccc3)nc(N3CC(O)C3)n2)cc1F
REMARK SMILES IDX 7 1 8 2 9 3 18 4 19 5 25 6 6 7 5 9 2 10 3 11 27 12 4 13
REMARK SMILES IDX 26 14 1 15 28 16 10 17 11 19 12 20 13 21 17 22 14 23 16 24
REMARK SMILES IDX 15 25 20 26 21 27 24 28 22 29 23 30
REMARK H PARENT 6 8 10 18 23 31
ROOT
ATOM      1  C   UNL     1       3.328  44.022  53.077  1.00  0.00     0.233 A 
ATOM      2  N   UNL     1       3.764  45.276  53.053  1.00  0.00    -0.177 NA
ATOM      3  C   UNL     1       4.758  45.531  52.215  1.00  0.00     0.229 A 
ATOM      4  N   UNL     1       5.307  44.633  51.415  1.00  0.00    -0.177 NA
ATOM      5  C   UNL     1       4.809  43.404  51.493  1.00  0.00     0.232 A 
ATOM      6  N   UNL     1       3.820  43.063  52.310  1.00  0.00    -0.176 NA
ENDROOT
BRANCH   1   7
ATOM      7  N   UNL     1       2.288  43.781  53.974  1.00  0.00    -0.324 N 
ATOM      8  H   UNL     1       2.678  43.490  54.860  1.00  0.00     0.170 HD
BRANCH   7   9
ATOM      9  C   UNL     1       0.893  43.758  53.861  1.00  0.00     0.044 A 
ATOM     10  C   UNL     1      -1.944  43.831  53.729  1.00  0.00    -0.015 A 
ATOM     11  C   UNL     1      -1.263  44.567  54.700  1.00  0.00     0.008 A 
ATOM     12  C   UNL     1      -1.193  43.085  52.821  1.00  0.00     0.128 A 
ATOM     13  C   UNL     1       0.136  44.526  54.762  1.00  0.00     0.026 A 
ATOM     14  C   UNL     1       0.201  43.044  52.882  1.00  0.00     0.065 A 
ATOM     15  C   UNL     1      -3.436  43.880  53.622  1.00  0.00     0.047 C 
ATOM     16  F   UNL     1      -1.818  42.387  51.861  1.00  0.00    -0.207 F 
ENDBRANCH   7   9
ENDBRANCH   1   7
BRANCH   3  17
ATOM     17  N   UNL     1       5.291  46.809  52.136  1.00  0.00    -0.350 N 
ATOM     18  H   UNL     1       4.547  47.424  51.824  1.00  0.00     0.164 HD
BRANCH  17  19
ATOM     19  C   UNL     1       5.974  47.250  53.335  1.00  0.00     0.152 C 
BRANCH  19  20
ATOM     20  C   UNL     1       7.467  47.110  53.134  1.00  0.00    -0.029 A 
ATOM     21  C   UNL     1       8.347  47.176  54.223  1.00  0.00     0.005 A 
ATOM     22  C   UNL     1       7.994  46.932  51.846  1.00  0.00     0.005 A 
ATOM     23  C   UNL     1       9.724  47.055  54.028  1.00  0.00     0.000 A 
ATOM     24  C   UNL     1       9.371  46.811  51.654  1.00  0.00     0.000 A 
ATOM     25  C   UNL     1      10.234  46.871  52.745  1.00  0.00     0.000 A 
ENDBRANCH  19  20
ENDBRANCH  17  19
ENDBRANCH   3  17
BRANCH   5  26
ATOM     26  N   UNL     1       5.367  42.410  50.681  1.00  0.00    -0.335 N 
ATOM     27  C   UNL     1       4.617  41.475  49.895  1.00  0.00     0.153 C 
ATOM     28  C   UNL     1       6.320  42.638  49.638  1.00  0.00     0.153 C 
ATOM     29  C   UNL     1       5.898  41.270  49.063  1.00  0.00     0.153 C 
BRANCH  29  30
ATOM     30  O   UNL     1       5.740  41.181  47.630  1.00  0.00    -0.389 OA
ATOM     31  H   UNL     1       6.630  41.337  47.271  1.00  0.00     0.211 HD
ENDBRANCH  29  30
ENDBRANCH   5  26
TORSDOF 7
ENDMDL
MODEL 11
REMARK VINA RESULT:    -8.988      3.530      7.001
REMARK INTER + INTRA:         -13.390
REMARK INTER:                 -12.557
REMARK INTRA:                  -0.833
REMARK UNBOUND:                -0.986
REMARK SMILES Cc1ccc(Nc2nc(NCc3ccccc3)nc(N3CC(O)C3)n2)cc1F
REMARK SMILES IDX 7 1 8 2 9 3 18 4 19 5 25 6 6 7 5 9 2 10 3 11 27 12 4 13
REMARK SMILES IDX 26 14 1 15 28 16 10 17 11 19 12 20 13 21 17 22 14 23 16 24
REMARK SMILES IDX 15 25 20 26 21 27 24 28 22 29 23 30
REMARK H PARENT 6 8 10 18 23 31
ROOT
ATOM      1  C   UNL     1       4.876  42.344  50.440  1.00  0.00     0.233 A 
ATOM      2  N   UNL     1       5.824  43.256  50.261  1.00  0.00    -0.177 NA
ATOM      3  C   UNL     1       5.750  44.332  51.031  1.00  0.00     0.229 A 
ATOM      4  N   UNL     1       4.820  44.528  51.949  1.00  0.00    -0.177 NA
ATOM      5  C   UNL     1       3.913  43.566  52.072  1.00  0.00     0.232 A 
ATOM      6  N   UNL     1       3.911  42.460  51.338  1.00  0.00    -0.176 NA
ENDROOT
BRANCH   1   7
ATOM      7  N   UNL     1       4.974  41.227  49.611  1.00  0.00    -0.324 N 
ATOM      8  H   UNL     1       5.435  40.483  50.115  1.00  0.00     0.170 HD
BRANCH   7   9
ATOM      9  C   UNL     1       4.675  40.988  48.264  1.00  0.00     0.044 A 
ATOM     10  C   UNL     1       3.938  40.434  45.577  1.00  0.00    -0.015 A 
ATOM     11  C   UNL     1       3.241  39.848  46.636  1.00  0.00     0.008 A 
ATOM     12  C   UNL     1       4.982  41.307  45.879  1.00  0.00     0.128 A 
ATOM     13  C   UNL     1       3.610  40.123  47.959  1.00  0.00     0.026 A 
ATOM     14  C   UNL     1       5.350  41.582  47.197  1.00  0.00     0.065 A 
ATOM     15  C   UNL     1       3.547  40.180  44.155  1.00  0.00     0.047 C 
ATOM     16  F   UNL     1       5.655  41.904  44.884  1.00  0.00    -0.207 F 
ENDBRANCH   7   9
ENDBRANCH   1   7
BRANCH   3  17
ATOM     17  N   UNL     1       6.686  45.347  50.900  1.00  0.00    -0.350 N 
ATOM     18  H   UNL     1       6.720  45.597  49.917  1.00  0.00     0.164 HD
BRANCH  17  19
ATOM     19  C   UNL     1       6.490  46.465  51.799  1.00  0.00     0.152 C 
BRANCH  19  20
ATOM     20  C   UNL     1       7.771  46.718  52.563  1.00  0.00    -0.029 A 
ATOM     21  C   UNL     1       7.739  47.205  53.877  1.00  0.00     0.005 A 
ATOM     22  C   UNL     1       9.014  46.487  51.954  1.00  0.00     0.005 A 
ATOM     23  C   UNL     1       8.926  47.443  54.571  1.00  0.00     0.000 A 
ATOM     24  C   UNL     1      10.200  46.727  52.650  1.00  0.00     0.000 A 
ATOM     25  C   UNL     1      10.155  47.203  53.959  1.00  0.00     0.000 A 
ENDBRANCH  19  20
ENDBRANCH  17  19
ENDBRANCH   3  17
BRANCH   5  26
ATOM     26  N   UNL     1       2.895  43.731  53.019  1.00  0.00    -0.335 N 
ATOM     27  C   UNL     1       2.832  44.791  53.981  1.00  0.00     0.153 C 
ATOM     28  C   UNL     1       1.498  43.817  52.719  1.00  0.00     0.153 C 
ATOM     29  C   UNL     1       1.326  44.487  54.098  1.00  0.00     0.153 C 
BRANCH  29  30
ATOM     30  O   UNL     1       0.433  45.620  54.171  1.00  0.00    -0.389 OA
ATOM     31  H   UNL     1       0.816  46.193  54.857  1.00  0.00     0.211 HD
ENDBRANCH  29  30
ENDBRANCH   5  26
TORSDOF 7
ENDMDL
MODEL 12
REMARK VINA RESULT:    -8.898      3.563      6.880
REMARK INTER + INTRA:         -13.266
REMARK INTER:                 -12.526
REMARK INTRA:                  -0.740
REMARK UNBOUND:                -0.986
REMARK SMILES Cc1ccc(Nc2nc(NCc3ccccc3)nc(N3CC(O)C3)n2)cc1F
REMARK SMILES IDX 7 1 8 2 9 3 18 4 19 5 25 6 6 7 5 9 2 10 3 11 27 12 4 13
REMARK SMILES IDX 26 14 1 15 28 16 10 17 11 19 12 20 13 21 17 22 14 23 16 24
REMARK SMILES IDX 15 25 20 26 21 27 24 28 22 29 23 30
REMARK H PARENT 6 8 10 18 23 31
ROOT
ATOM      1  C   UNL     1       4.811  42.548  50.779  1.00  0.00     0.233 A 
ATOM      2  N   UNL     1       5.696  43.505  50.529  1.00  0.00    -0.177 NA
ATOM      3  C   UNL     1       5.605  44.593  51.280  1.00  0.00     0.229 A 
ATOM      4  N   UNL     1       4.718  44.760  52.245  1.00  0.00    -0.177 NA
ATOM      5  C   UNL     1       3.873  43.754  52.438  1.00  0.00     0.232 A 
ATOM      6  N   UNL     1       3.891  42.633  51.727  1.00  0.00    -0.176 NA
ENDROOT
BRANCH   1   7
ATOM      7  N   UNL     1       4.924  41.419  49.969  1.00  0.00    -0.324 N 
ATOM      8  H   UNL     1       5.315  40.662  50.512  1.00  0.00     0.170 HD
BRANCH   7   9
ATOM      9  C   UNL     1       4.717  41.177  48.606  1.00  0.00     0.044 A 
ATOM     10  C   UNL     1       4.436  40.748  45.812  1.00  0.00    -0.015 A 
ATOM     11  C   UNL     1       5.467  41.552  46.302  1.00  0.00     0.008 A 
ATOM     12  C   UNL     1       3.572  40.152  46.729  1.00  0.00     0.128 A 
ATOM     13  C   UNL     1       5.600  41.762  47.681  1.00  0.00     0.026 A 
ATOM     14  C   UNL     1       3.704  40.359  48.103  1.00  0.00     0.065 A 
ATOM     15  C   UNL     1       4.288  40.485  44.346  1.00  0.00     0.047 C 
ATOM     16  F   UNL     1       2.587  39.354  46.289  1.00  0.00    -0.207 F 
ENDBRANCH   7   9
ENDBRANCH   1   7
BRANCH   3  17
ATOM     17  N   UNL     1       6.476  45.654  51.076  1.00  0.00    -0.350 N 
ATOM     18  H   UNL     1       6.337  45.976  50.124  1.00  0.00     0.164 HD
BRANCH  17  19
ATOM     19  C   UNL     1       6.402  46.694  52.081  1.00  0.00     0.152 C 
BRANCH  19  20
ATOM     20  C   UNL     1       7.754  46.843  52.741  1.00  0.00    -0.029 A 
ATOM     21  C   UNL     1       8.928  46.479  52.065  1.00  0.00     0.005 A 
ATOM     22  C   UNL     1       7.851  47.330  54.054  1.00  0.00     0.005 A 
ATOM     23  C   UNL     1      10.171  46.612  52.685  1.00  0.00     0.000 A 
ATOM     24  C   UNL     1       9.095  47.461  54.672  1.00  0.00     0.000 A 
ATOM     25  C   UNL     1      10.254  47.104  53.986  1.00  0.00     0.000 A 
ENDBRANCH  19  20
ENDBRANCH  17  19
ENDBRANCH   3  17
BRANCH   5  26
ATOM     26  N   UNL     1       2.901  43.887  53.436  1.00  0.00    -0.335 N 
ATOM     27  C   UNL     1       2.817  44.978  54.361  1.00  0.00     0.153 C 
ATOM     28  C   UNL     1       1.487  43.864  53.217  1.00  0.00     0.153 C 
ATOM     29  C   UNL     1       1.345  44.575  54.578  1.00  0.00     0.153 C 
BRANCH  29  30
ATOM     30  O   UNL     1       0.380  45.646  54.663  1.00  0.00    -0.389 OA
ATOM     31  H   UNL     1       0.010  45.719  53.767  1.00  0.00     0.211 HD
ENDBRANCH  29  30
ENDBRANCH   5  26
TORSDOF 7
ENDMDL
MODEL 13
REMARK VINA RESULT:    -8.833      1.865      4.416
REMARK INTER + INTRA:         -13.176
REMARK INTER:                 -12.167
REMARK INTRA:                  -1.009
REMARK UNBOUND:                -0.986
REMARK SMILES Cc1ccc(Nc2nc(NCc3ccccc3)nc(N3CC(O)C3)n2)cc1F
REMARK SMILES IDX 7 1 8 2 9 3 18 4 19 5 25 6 6 7 5 9 2 10 3 11 27 12 4 13
REMARK SMILES IDX 26 14 1 15 28 16 10 17 11 19 12 20 13 21 17 22 14 23 16 24
REMARK SMILES IDX 15 25 20 26 21 27 24 28 22 29 23 30
REMARK H PARENT 6 8 10 18 23 31
ROOT
ATOM      1  C   UNL     1       2.726  43.971  53.118  1.00  0.00     0.233 A 
ATOM      2  N   UNL     1       3.638  44.756  53.679  1.00  0.00    -0.177 NA
ATOM      3  C   UNL     1       3.216  45.510  54.684  1.00  0.00     0.229 A 
ATOM      4  N   UNL     1       1.980  45.506  55.152  1.00  0.00    -0.177 NA
ATOM      5  C   UNL     1       1.132  44.687  54.542  1.00  0.00     0.232 A 
ATOM      6  N   UNL     1       1.469  43.904  53.525  1.00  0.00    -0.176 NA
ENDROOT
BRANCH   1   7
ATOM      7  N   UNL     1       3.195  43.195  52.057  1.00  0.00    -0.324 N 
ATOM      8  H   UNL     1       2.555  42.430  51.902  1.00  0.00     0.170 HD
BRANCH   7   9
ATOM      9  C   UNL     1       4.364  43.208  51.287  1.00  0.00     0.044 A 
ATOM     10  C   UNL     1       6.754  43.383  49.762  1.00  0.00    -0.015 A 
ATOM     11  C   UNL     1       6.142  44.539  50.250  1.00  0.00     0.008 A 
ATOM     12  C   UNL     1       6.172  42.152  50.063  1.00  0.00     0.128 A 
ATOM     13  C   UNL     1       4.962  44.447  51.000  1.00  0.00     0.026 A 
ATOM     14  C   UNL     1       4.997  42.059  50.810  1.00  0.00     0.065 A 
ATOM     15  C   UNL     1       8.029  43.450  48.982  1.00  0.00     0.047 C 
ATOM     16  F   UNL     1       6.751  41.022  49.628  1.00  0.00    -0.207 F 
ENDBRANCH   7   9
ENDBRANCH   1   7
BRANCH   3  17
ATOM     17  N   UNL     1       4.094  46.378  55.319  1.00  0.00    -0.350 N 
ATOM     18  H   UNL     1       4.847  45.814  55.699  1.00  0.00     0.164 HD
BRANCH  17  19
ATOM     19  C   UNL     1       4.528  47.495  54.506  1.00  0.00     0.152 C 
BRANCH  19  20
ATOM     20  C   UNL     1       5.868  47.166  53.887  1.00  0.00    -0.029 A 
ATOM     21  C   UNL     1       6.846  46.475  54.616  1.00  0.00     0.005 A 
ATOM     22  C   UNL     1       6.159  47.571  52.575  1.00  0.00     0.005 A 
ATOM     23  C   UNL     1       8.083  46.184  54.040  1.00  0.00     0.000 A 
ATOM     24  C   UNL     1       7.398  47.279  52.002  1.00  0.00     0.000 A 
ATOM     25  C   UNL     1       8.358  46.585  52.734  1.00  0.00     0.000 A 
ENDBRANCH  19  20
ENDBRANCH  17  19
ENDBRANCH   3  17
BRANCH   5  26
ATOM     26  N   UNL     1      -0.196  44.657  54.986  1.00  0.00    -0.335 N 
ATOM     27  C   UNL     1      -1.182  43.707  54.562  1.00  0.00     0.153 C 
ATOM     28  C   UNL     1      -0.604  44.585  56.355  1.00  0.00     0.153 C 
ATOM     29  C   UNL     1      -1.964  44.071  55.839  1.00  0.00     0.153 C 
BRANCH  29  30
ATOM     30  O   UNL     1      -2.574  42.981  56.565  1.00  0.00    -0.389 OA
ATOM     31  H   UNL     1      -2.437  43.200  57.503  1.00  0.00     0.211 HD
ENDBRANCH  29  30
ENDBRANCH   5  26
TORSDOF 7
ENDMDL
MODEL 14
REMARK VINA RESULT:    -8.828      2.550      3.571
REMARK INTER + INTRA:         -13.168
REMARK INTER:                 -12.251
REMARK INTRA:                  -0.918
REMARK UNBOUND:                -0.986
REMARK SMILES Cc1ccc(Nc2nc(NCc3ccccc3)nc(N3CC(O)C3)n2)cc1F
REMARK SMILES IDX 7 1 8 2 9 3 18 4 19 5 25 6 6 7 5 9 2 10 3 11 27 12 4 13
REMARK SMILES IDX 26 14 1 15 28 16 10 17 11 19 12 20 13 21 17 22 14 23 16 24
REMARK SMILES IDX 15 25 20 26 21 27 24 28 22 29 23 30
REMARK H PARENT 6 8 10 18 23 31
ROOT
ATOM      1  C   UNL     1       5.165  44.631  51.149  1.00  0.00     0.233 A 
ATOM      2  N   UNL     1       5.422  43.450  50.601  1.00  0.00    -0.177 NA
ATOM      3  C   UNL     1       4.451  42.551  50.676  1.00  0.00     0.229 A 
ATOM      4  N   UNL     1       3.274  42.771  51.233  1.00  0.00    -0.177 NA
ATOM      5  C   UNL     1       3.092  43.980  51.751  1.00  0.00     0.232 A 
ATOM      6  N   UNL     1       4.014  44.935  51.725  1.00  0.00    -0.176 NA
ENDROOT
BRANCH   1   7
ATOM      7  N   UNL     1       6.207  45.555  51.064  1.00  0.00    -0.324 N 
ATOM      8  H   UNL     1       6.293  45.866  50.107  1.00  0.00     0.170 HD
BRANCH   7   9
ATOM      9  C   UNL     1       7.168  46.022  51.969  1.00  0.00     0.044 A 
ATOM     10  C   UNL     1       9.219  46.970  53.690  1.00  0.00    -0.015 A 
ATOM     11  C   UNL     1       9.530  46.499  52.414  1.00  0.00     0.008 A 
ATOM     12  C   UNL     1       7.881  46.981  54.080  1.00  0.00     0.128 A 
ATOM     13  C   UNL     1       8.515  46.030  51.569  1.00  0.00     0.026 A 
ATOM     14  C   UNL     1       6.868  46.516  53.240  1.00  0.00     0.065 A 
ATOM     15  C   UNL     1      10.280  47.503  54.601  1.00  0.00     0.047 C 
ATOM     16  F   UNL     1       7.547  47.452  55.291  1.00  0.00    -0.207 F 
ENDBRANCH   7   9
ENDBRANCH   1   7
BRANCH   3  17
ATOM     17  N   UNL     1       4.637  41.281  50.148  1.00  0.00    -0.350 N 
ATOM     18  H   UNL     1       3.729  40.951  49.838  1.00  0.00     0.164 HD
BRANCH  17  19
ATOM     19  C   UNL     1       5.684  41.192  49.151  1.00  0.00     0.152 C 
BRANCH  19  20
ATOM     20  C   UNL     1       5.057  41.181  47.775  1.00  0.00    -0.029 A 
ATOM     21  C   UNL     1       3.896  40.438  47.519  1.00  0.00     0.005 A 
ATOM     22  C   UNL     1       5.645  41.903  46.725  1.00  0.00     0.005 A 
ATOM     23  C   UNL     1       3.330  40.427  46.244  1.00  0.00     0.000 A 
ATOM     24  C   UNL     1       5.077  41.890  45.450  1.00  0.00     0.000 A 
ATOM     25  C   UNL     1       3.919  41.153  45.211  1.00  0.00     0.000 A 
ENDBRANCH  19  20
ENDBRANCH  17  19
ENDBRANCH   3  17
BRANCH   5  26
ATOM     26  N   UNL     1       1.869  44.260  52.370  1.00  0.00    -0.335 N 
ATOM     27  C   UNL     1       1.478  43.792  53.667  1.00  0.00     0.153 C 
ATOM     28  C   UNL     1       1.344  45.571  52.601  1.00  0.00     0.153 C 
ATOM     29  C   UNL     1       0.442  44.933  53.678  1.00  0.00     0.153 C 
BRANCH  29  30
ATOM     30  O   UNL     1       0.283  45.660  54.916  1.00  0.00    -0.389 OA
ATOM     31  H   UNL     1       1.165  45.650  55.325  1.00  0.00     0.211 HD
ENDBRANCH  29  30
ENDBRANCH   5  26
TORSDOF 7
ENDMDL
MODEL 15
REMARK VINA RESULT:    -8.813      2.421      6.223
REMARK INTER + INTRA:         -13.148
REMARK INTER:                 -12.397
REMARK INTRA:                  -0.751
REMARK UNBOUND:                -0.986
REMARK SMILES Cc1ccc(Nc2nc(NCc3ccccc3)nc(N3CC(O)C3)n2)cc1F
REMARK SMILES IDX 7 1 8 2 9 3 18 4 19 5 25 6 6 7 5 9 2 10 3 11 27 12 4 13
REMARK SMILES IDX 26 14 1 15 28 16 10 17 11 19 12 20 13 21 17 22 14 23 16 24
REMARK SMILES IDX 15 25 20 26 21 27 24 28 22 29 23 30
REMARK H PARENT 6 8 10 18 23 31
ROOT
ATOM      1  C   UNL     1       4.354  46.401  53.873  1.00  0.00     0.233 A 
ATOM      2  N   UNL     1       3.919  46.613  55.110  1.00  0.00    -0.177 NA
ATOM      3  C   UNL     1       2.893  45.871  55.500  1.00  0.00     0.229 A 
ATOM      4  N   UNL     1       2.312  44.950  54.752  1.00  0.00    -0.177 NA
ATOM      5  C   UNL     1       2.811  44.793  53.531  1.00  0.00     0.232 A 
ATOM      6  N   UNL     1       3.831  45.499  53.059  1.00  0.00    -0.176 NA
ENDROOT
BRANCH   1   7
ATOM      7  N   UNL     1       5.429  47.202  53.486  1.00  0.00    -0.324 N 
ATOM      8  H   UNL     1       5.118  48.161  53.422  1.00  0.00     0.170 HD
BRANCH   7   9
ATOM      9  C   UNL     1       6.744  46.935  53.086  1.00  0.00     0.044 A 
ATOM     10  C   UNL     1       9.359  46.370  52.133  1.00  0.00    -0.015 A 
ATOM     11  C   UNL     1       8.244  46.102  51.336  1.00  0.00     0.008 A 
ATOM     12  C   UNL     1       9.151  46.938  53.388  1.00  0.00     0.128 A 
ATOM     13  C   UNL     1       6.956  46.381  51.812  1.00  0.00     0.026 A 
ATOM     14  C   UNL     1       7.868  47.217  53.863  1.00  0.00     0.065 A 
ATOM     15  C   UNL     1      10.747  46.109  51.638  1.00  0.00     0.047 C 
ATOM     16  F   UNL     1      10.204  47.230  54.167  1.00  0.00    -0.207 F 
ENDBRANCH   7   9
ENDBRANCH   1   7
BRANCH   3  17
ATOM     17  N   UNL     1       2.358  46.037  56.770  1.00  0.00    -0.350 N 
ATOM     18  H   UNL     1       2.513  47.004  57.035  1.00  0.00     0.164 HD
BRANCH  17  19
ATOM     19  C   UNL     1       0.988  45.586  56.908  1.00  0.00     0.152 C 
BRANCH  19  20
ATOM     20  C   UNL     1       0.207  46.612  57.699  1.00  0.00    -0.029 A 
ATOM     21  C   UNL     1       0.727  47.153  58.883  1.00  0.00     0.005 A 
ATOM     22  C   UNL     1      -1.064  47.020  57.267  1.00  0.00     0.005 A 
ATOM     23  C   UNL     1      -0.005  48.092  59.612  1.00  0.00     0.000 A 
ATOM     24  C   UNL     1      -1.794  47.959  57.997  1.00  0.00     0.000 A 
ATOM     25  C   UNL     1      -1.263  48.495  59.168  1.00  0.00     0.000 A 
ENDBRANCH  19  20
ENDBRANCH  17  19
ENDBRANCH   3  17
BRANCH   5  26
ATOM     26  N   UNL     1       2.221  43.843  52.690  1.00  0.00    -0.335 N 
ATOM     27  C   UNL     1       0.816  43.736  52.430  1.00  0.00     0.153 C 
ATOM     28  C   UNL     1       2.569  43.628  51.319  1.00  0.00     0.153 C 
ATOM     29  C   UNL     1       1.193  42.949  51.159  1.00  0.00     0.153 C 
BRANCH  29  30
ATOM     30  O   UNL     1       0.447  43.248  49.959  1.00  0.00    -0.389 OA
ATOM     31  H   UNL     1      -0.448  42.909  50.131  1.00  0.00     0.211 HD
ENDBRANCH  29  30
ENDBRANCH   5  26
TORSDOF 7
ENDMDL
MODEL 16
REMARK VINA RESULT:    -8.745      2.077      5.287
REMARK INTER + INTRA:         -13.055
REMARK INTER:                 -12.162
REMARK INTRA:                  -0.893
REMARK UNBOUND:                -0.986
REMARK SMILES Cc1ccc(Nc2nc(NCc3ccccc3)nc(N3CC(O)C3)n2)cc1F
REMARK SMILES IDX 7 1 8 2 9 3 18 4 19 5 25 6 6 7 5 9 2 10 3 11 27 12 4 13
REMARK SMILES IDX 26 14 1 15 28 16 10 17 11 19 12 20 13 21 17 22 14 23 16 24
REMARK SMILES IDX 15 25 20 26 21 27 24 28 22 29 23 30
REMARK H PARENT 6 8 10 18 23 31
ROOT
ATOM      1  C   UNL     1       3.757  43.340  52.666  1.00  0.00     0.233 A 
ATOM      2  N   UNL     1       4.706  44.215  52.975  1.00  0.00    -0.177 NA
ATOM      3  C   UNL     1       4.313  45.288  53.647  1.00  0.00     0.229 A 
ATOM      4  N   UNL     1       3.068  45.512  54.028  1.00  0.00    -0.177 NA
ATOM      5  C   UNL     1       2.180  44.585  53.688  1.00  0.00     0.232 A 
ATOM      6  N   UNL     1       2.488  43.487  53.010  1.00  0.00    -0.176 NA
ENDROOT
BRANCH   1   7
ATOM      7  N   UNL     1       4.198  42.226  51.952  1.00  0.00    -0.324 N 
ATOM      8  H   UNL     1       4.304  41.448  52.588  1.00  0.00     0.170 HD
BRANCH   7   9
ATOM      9  C   UNL     1       4.602  42.018  50.628  1.00  0.00     0.044 A 
ATOM     10  C   UNL     1       5.287  41.524  47.916  1.00  0.00    -0.015 A 
ATOM     11  C   UNL     1       4.189  40.885  48.494  1.00  0.00     0.008 A 
ATOM     12  C   UNL     1       6.015  42.420  48.698  1.00  0.00     0.128 A 
ATOM     13  C   UNL     1       3.857  41.130  49.833  1.00  0.00     0.026 A 
ATOM     14  C   UNL     1       5.684  42.666  50.031  1.00  0.00     0.065 A 
ATOM     15  C   UNL     1       5.648  41.302  46.480  1.00  0.00     0.047 C 
ATOM     16  F   UNL     1       7.061  43.069  48.163  1.00  0.00    -0.207 F 
ENDBRANCH   7   9
ENDBRANCH   1   7
BRANCH   3  17
ATOM     17  N   UNL     1       5.232  46.267  53.995  1.00  0.00    -0.350 N 
ATOM     18  H   UNL     1       5.949  45.817  54.555  1.00  0.00     0.164 HD
BRANCH  17  19
ATOM     19  C   UNL     1       5.736  47.041  52.880  1.00  0.00     0.152 C 
BRANCH  19  20
ATOM     20  C   UNL     1       7.247  46.981  52.878  1.00  0.00    -0.029 A 
ATOM     21  C   UNL     1       7.953  46.691  51.701  1.00  0.00     0.005 A 
ATOM     22  C   UNL     1       7.965  47.196  54.064  1.00  0.00     0.005 A 
ATOM     23  C   UNL     1       9.347  46.629  51.710  1.00  0.00     0.000 A 
ATOM     24  C   UNL     1       9.359  47.134  54.070  1.00  0.00     0.000 A 
ATOM     25  C   UNL     1      10.049  46.851  52.893  1.00  0.00     0.000 A 
ENDBRANCH  19  20
ENDBRANCH  17  19
ENDBRANCH   3  17
BRANCH   5  26
ATOM     26  N   UNL     1       0.842  44.783  54.051  1.00  0.00    -0.335 N 
ATOM     27  C   UNL     1      -0.281  44.153  53.423  1.00  0.00     0.153 C 
ATOM     28  C   UNL     1       0.310  44.594  55.366  1.00  0.00     0.153 C 
ATOM     29  C   UNL     1      -1.078  44.481  54.701  1.00  0.00     0.153 C 
BRANCH  29  30
ATOM     30  O   UNL     1      -1.964  43.456  55.201  1.00  0.00    -0.389 OA
ATOM     31  H   UNL     1      -1.707  43.337  56.131  1.00  0.00     0.211 HD
ENDBRANCH  29  30
ENDBRANCH   5  26
TORSDOF 7
ENDMDL
MODEL 17
REMARK VINA RESULT:    -8.683      2.646      4.904
REMARK INTER + INTRA:         -12.969
REMARK INTER:                 -11.631
REMARK INTRA:                  -1.338
REMARK UNBOUND:                -0.986
REMARK SMILES Cc1ccc(Nc2nc(NCc3ccccc3)nc(N3CC(O)C3)n2)cc1F
REMARK SMILES IDX 7 1 8 2 9 3 18 4 19 5 25 6 6 7 5 9 2 10 3 11 27 12 4 13
REMARK SMILES IDX 26 14 1 15 28 16 10 17 11 19 12 20 13 21 17 22 14 23 16 24
REMARK SMILES IDX 15 25 20 26 21 27 24 28 22 29 23 30
REMARK H PARENT 6 8 10 18 23 31
ROOT
ATOM      1  C   UNL     1       1.969  43.124  52.585  1.00  0.00     0.233 A 
ATOM      2  N   UNL     1       2.580  43.500  53.702  1.00  0.00    -0.177 NA
ATOM      3  C   UNL     1       1.860  44.229  54.542  1.00  0.00     0.229 A 
ATOM      4  N   UNL     1       0.601  44.574  54.338  1.00  0.00    -0.177 NA
ATOM      5  C   UNL     1       0.060  44.153  53.201  1.00  0.00     0.232 A 
ATOM      6  N   UNL     1       0.712  43.425  52.303  1.00  0.00    -0.176 NA
ENDROOT
BRANCH   1   7
ATOM      7  N   UNL     1       2.753  42.365  51.716  1.00  0.00    -0.324 N 
ATOM      8  H   UNL     1       2.326  41.458  51.594  1.00  0.00     0.170 HD
BRANCH   7   9
ATOM      9  C   UNL     1       3.996  42.565  51.104  1.00  0.00     0.044 A 
ATOM     10  C   UNL     1       6.516  43.116  49.914  1.00  0.00    -0.015 A 
ATOM     11  C   UNL     1       5.731  44.154  50.417  1.00  0.00     0.008 A 
ATOM     12  C   UNL     1       6.039  41.811  50.034  1.00  0.00     0.128 A 
ATOM     13  C   UNL     1       4.488  43.878  51.000  1.00  0.00     0.026 A 
ATOM     14  C   UNL     1       4.801  41.534  50.617  1.00  0.00     0.065 A 
ATOM     15  C   UNL     1       7.861  43.380  49.312  1.00  0.00     0.047 C 
ATOM     16  F   UNL     1       6.783  40.789  49.584  1.00  0.00    -0.207 F 
ENDBRANCH   7   9
ENDBRANCH   1   7
BRANCH   3  17
ATOM     17  N   UNL     1       2.422  44.684  55.726  1.00  0.00    -0.350 N 
ATOM     18  H   UNL     1       3.138  44.016  55.992  1.00  0.00     0.164 HD
BRANCH  17  19
ATOM     19  C   UNL     1       2.867  46.062  55.690  1.00  0.00     0.152 C 
BRANCH  19  20
ATOM     20  C   UNL     1       4.138  46.151  54.876  1.00  0.00    -0.029 A 
ATOM     21  C   UNL     1       4.241  47.041  53.798  1.00  0.00     0.005 A 
ATOM     22  C   UNL     1       5.231  45.323  55.179  1.00  0.00     0.005 A 
ATOM     23  C   UNL     1       5.415  47.110  53.047  1.00  0.00     0.000 A 
ATOM     24  C   UNL     1       6.404  45.394  54.426  1.00  0.00     0.000 A 
ATOM     25  C   UNL     1       6.495  46.288  53.362  1.00  0.00     0.000 A 
ENDBRANCH  19  20
ENDBRANCH  17  19
ENDBRANCH   3  17
BRANCH   5  26
ATOM     26  N   UNL     1      -1.267  44.506  52.927  1.00  0.00    -0.335 N 
ATOM     27  C   UNL     1      -2.200  45.005  53.892  1.00  0.00     0.153 C 
ATOM     28  C   UNL     1      -1.679  45.445  51.929  1.00  0.00     0.153 C 
ATOM     29  C   UNL     1      -3.008  45.563  52.704  1.00  0.00     0.153 C 
BRANCH  29  30
ATOM     30  O   UNL     1      -3.565  46.887  52.856  1.00  0.00    -0.389 OA
ATOM     31  H   UNL     1      -3.583  47.254  51.956  1.00  0.00     0.211 HD
ENDBRANCH  29  30
ENDBRANCH   5  26
TORSDOF 7
ENDMDL
MODEL 18
REMARK VINA RESULT:    -8.645      2.927      5.248
REMARK INTER + INTRA:         -12.916
REMARK INTER:                 -11.545
REMARK INTRA:                  -1.371
REMARK UNBOUND:                -0.986
REMARK SMILES Cc1ccc(Nc2nc(NCc3ccccc3)nc(N3CC(O)C3)n2)cc1F
REMARK SMILES IDX 7 1 8 2 9 3 18 4 19 5 25 6 6 7 5 9 2 10 3 11 27 12 4 13
REMARK SMILES IDX 26 14 1 15 28 16 10 17 11 19 12 20 13 21 17 22 14 23 16 24
REMARK SMILES IDX 15 25 20 26 21 27 24 28 22 29 23 30
REMARK H PARENT 6 8 10 18 23 31
ROOT
ATOM      1  C   UNL     1       2.199  42.772  51.925  1.00  0.00     0.233 A 
ATOM      2  N   UNL     1       2.490  43.174  53.157  1.00  0.00    -0.177 NA
ATOM      3  C   UNL     1       1.516  43.786  53.814  1.00  0.00     0.229 A 
ATOM      4  N   UNL     1       0.305  43.994  53.328  1.00  0.00    -0.177 NA
ATOM      5  C   UNL     1       0.091  43.555  52.093  1.00  0.00     0.232 A 
ATOM      6  N   UNL     1       1.012  42.938  51.363  1.00  0.00    -0.176 NA
ENDROOT
BRANCH   1   7
ATOM      7  N   UNL     1       3.244  42.138  51.253  1.00  0.00    -0.324 N 
ATOM      8  H   UNL     1       3.053  41.148  51.208  1.00  0.00     0.170 HD
BRANCH   7   9
ATOM      9  C   UNL     1       4.482  42.566  50.759  1.00  0.00     0.044 A 
ATOM     10  C   UNL     1       7.003  43.302  49.676  1.00  0.00    -0.015 A 
ATOM     11  C   UNL     1       6.533  41.995  49.544  1.00  0.00     0.008 A 
ATOM     12  C   UNL     1       6.194  44.231  50.330  1.00  0.00     0.128 A 
ATOM     13  C   UNL     1       5.289  41.636  50.082  1.00  0.00     0.026 A 
ATOM     14  C   UNL     1       4.955  43.875  50.865  1.00  0.00     0.065 A 
ATOM     15  C   UNL     1       8.314  43.719  49.087  1.00  0.00     0.047 C 
ATOM     16  F   UNL     1       6.608  45.501  50.451  1.00  0.00    -0.207 F 
ENDBRANCH   7   9
ENDBRANCH   1   7
BRANCH   3  17
ATOM     17  N   UNL     1       1.735  44.259  55.100  1.00  0.00    -0.350 N 
ATOM     18  H   UNL     1       2.426  43.651  55.527  1.00  0.00     0.164 HD
BRANCH  17  19
ATOM     19  C   UNL     1       2.045  45.671  55.177  1.00  0.00     0.152 C 
BRANCH  19  20
ATOM     20  C   UNL     1       3.453  45.897  54.672  1.00  0.00    -0.029 A 
ATOM     21  C   UNL     1       4.547  45.282  55.295  1.00  0.00     0.005 A 
ATOM     22  C   UNL     1       3.684  46.748  53.580  1.00  0.00     0.005 A 
ATOM     23  C   UNL     1       5.843  45.503  54.828  1.00  0.00     0.000 A 
ATOM     24  C   UNL     1       4.982  46.968  53.115  1.00  0.00     0.000 A 
ATOM     25  C   UNL     1       6.060  46.344  53.738  1.00  0.00     0.000 A 
ENDBRANCH  19  20
ENDBRANCH  17  19
ENDBRANCH   3  17
BRANCH   5  26
ATOM     26  N   UNL     1      -1.170  43.766  51.523  1.00  0.00    -0.335 N 
ATOM     27  C   UNL     1      -1.733  45.050  51.226  1.00  0.00     0.153 C 
ATOM     28  C   UNL     1      -1.621  43.198  50.290  1.00  0.00     0.153 C 
ATOM     29  C   UNL     1      -2.679  44.320  50.253  1.00  0.00     0.153 C 
BRANCH  29  30
ATOM     30  O   UNL     1      -2.920  44.954  48.977  1.00  0.00    -0.389 OA
ATOM     31  H   UNL     1      -2.036  45.172  48.637  1.00  0.00     0.211 HD
ENDBRANCH  29  30
ENDBRANCH   5  26
TORSDOF 7
ENDMDL
MODEL 19
REMARK VINA RESULT:    -8.642      2.899      6.334
REMARK INTER + INTRA:         -12.912
REMARK INTER:                 -12.181
REMARK INTRA:                  -0.731
REMARK UNBOUND:                -0.986
REMARK SMILES Cc1ccc(Nc2nc(NCc3ccccc3)nc(N3CC(O)C3)n2)cc1F
REMARK SMILES IDX 7 1 8 2 9 3 18 4 19 5 25 6 6 7 5 9 2 10 3 11 27 12 4 13
REMARK SMILES IDX 26 14 1 15 28 16 10 17 11 19 12 20 13 21 17 22 14 23 16 24
REMARK SMILES IDX 15 25 20 26 21 27 24 28 22 29 23 30
REMARK H PARENT 6 8 10 18 23 31
ROOT
ATOM      1  C   UNL     1       5.170  44.631  51.655  1.00  0.00     0.233 A 
ATOM      2  N   UNL     1       4.250  44.603  52.612  1.00  0.00    -0.177 NA
ATOM      3  C   UNL     1       3.481  43.524  52.648  1.00  0.00     0.229 A 
ATOM      4  N   UNL     1       3.592  42.502  51.818  1.00  0.00    -0.177 NA
ATOM      5  C   UNL     1       4.541  42.603  50.895  1.00  0.00     0.232 A 
ATOM      6  N   UNL     1       5.349  43.650  50.785  1.00  0.00    -0.176 NA
ENDROOT
BRANCH   1   7
ATOM      7  N   UNL     1       5.959  45.781  51.635  1.00  0.00    -0.324 N 
ATOM      8  H   UNL     1       5.702  46.342  50.835  1.00  0.00     0.170 HD
BRANCH   7   9
ATOM      9  C   UNL     1       7.045  46.227  52.397  1.00  0.00     0.044 A 
ATOM     10  C   UNL     1       9.157  47.127  54.070  1.00  0.00    -0.015 A 
ATOM     11  C   UNL     1       7.848  47.072  54.553  1.00  0.00     0.008 A 
ATOM     12  C   UNL     1       9.394  46.709  52.762  1.00  0.00     0.128 A 
ATOM     13  C   UNL     1       6.809  46.630  53.723  1.00  0.00     0.026 A 
ATOM     14  C   UNL     1       8.361  46.268  51.934  1.00  0.00     0.065 A 
ATOM     15  C   UNL     1      10.289  47.568  54.944  1.00  0.00     0.047 C 
ATOM     16  F   UNL     1      10.645  46.727  52.277  1.00  0.00    -0.207 F 
ENDBRANCH   7   9
ENDBRANCH   1   7
BRANCH   3  17
ATOM     17  N   UNL     1       2.479  43.416  53.602  1.00  0.00    -0.350 N 
ATOM     18  H   UNL     1       2.895  43.645  54.498  1.00  0.00     0.164 HD
BRANCH  17  19
ATOM     19  C   UNL     1       1.272  44.154  53.291  1.00  0.00     0.152 C 
BRANCH  19  20
ATOM     20  C   UNL     1       0.553  44.492  54.578  1.00  0.00    -0.029 A 
ATOM     21  C   UNL     1       1.256  44.989  55.685  1.00  0.00     0.005 A 
ATOM     22  C   UNL     1      -0.831  44.292  54.688  1.00  0.00     0.005 A 
ATOM     23  C   UNL     1       0.586  45.291  56.871  1.00  0.00     0.000 A 
ATOM     24  C   UNL     1      -1.499  44.594  55.876  1.00  0.00     0.000 A 
ATOM     25  C   UNL     1      -0.790  45.095  56.966  1.00  0.00     0.000 A 
ENDBRANCH  19  20
ENDBRANCH  17  19
ENDBRANCH   3  17
BRANCH   5  26
ATOM     26  N   UNL     1       4.690  41.556  49.979  1.00  0.00    -0.335 N 
ATOM     27  C   UNL     1       3.610  40.844  49.363  1.00  0.00     0.153 C 
ATOM     28  C   UNL     1       5.438  41.627  48.762  1.00  0.00     0.153 C 
ATOM     29  C   UNL     1       4.618  40.412  48.280  1.00  0.00     0.153 C 
BRANCH  29  30
ATOM     30  O   UNL     1       4.156  40.432  46.912  1.00  0.00    -0.389 OA
ATOM     31  H   UNL     1       4.921  40.139  46.387  1.00  0.00     0.211 HD
ENDBRANCH  29  30
ENDBRANCH   5  26
TORSDOF 7
ENDMDL
