MODEL 1
REMARK VINA RESULT:    -9.097      0.000      0.000
REMARK INTER + INTRA:         -12.958
REMARK INTER:                 -12.287
REMARK INTRA:                  -0.671
REMARK UNBOUND:                -0.671
REMARK SMILES CC(C)CCNc1nc(Nc2ccc3c(c2)OCO3)c2cnn(C)c2n1
REMARK SMILES IDX 5 1 4 2 2 3 1 4 3 5 6 6 7 8 8 9 26 10 9 11 25 12 20 13 23 14
REMARK SMILES IDX 21 15 22 16 24 17 10 18 11 20 12 21 16 22 13 23 15 24 14 25
REMARK SMILES IDX 17 26 19 27 18 28
REMARK H PARENT 6 7 10 19
ROOT
ATOM      1  C   UNL     1       7.260  47.126  51.714  1.00  0.00     0.116 C 
ENDROOT
BRANCH   1   2
ATOM      2  C   UNL     1       8.600  47.667  52.227  1.00  0.00     0.024 C 
BRANCH   2   3
ATOM      3  C   UNL     1       9.492  46.633  52.942  1.00  0.00    -0.016 C 
ATOM      4  C   UNL     1      10.057  47.160  54.262  1.00  0.00     0.007 C 
ATOM      5  C   UNL     1      10.641  46.218  52.018  1.00  0.00     0.007 C 
ENDBRANCH   2   3
ENDBRANCH   1   2
BRANCH   1   6
ATOM      6  N   UNL     1       7.483  46.002  50.823  1.00  0.00    -0.354 N 
ATOM      7  H   UNL     1       7.547  46.234  49.837  1.00  0.00     0.163 HD
BRANCH   6   8
ATOM      8  C   UNL     1       6.537  44.987  50.912  1.00  0.00     0.226 A 
ATOM      9  N   UNL     1       6.726  43.972  50.048  1.00  0.00    -0.195 NA
ATOM     10  N   UNL     1       5.546  45.078  51.809  1.00  0.00    -0.193 NA
ATOM     11  C   UNL     1       5.867  42.922  50.031  1.00  0.00     0.147 A 
ATOM     12  C   UNL     1       4.735  44.010  51.799  1.00  0.00     0.165 A 
ATOM     13  C   UNL     1       4.829  42.915  50.964  1.00  0.00     0.082 A 
ATOM     14  N   UNL     1       3.660  43.774  52.612  1.00  0.00    -0.250 N 
ATOM     15  C   UNL     1       3.777  42.070  51.376  1.00  0.00     0.149 A 
ATOM     16  N   UNL     1       3.046  42.593  52.368  1.00  0.00    -0.179 NA
ATOM     17  C   UNL     1       3.163  44.629  53.661  1.00  0.00     0.176 C 
BRANCH  11  18
ATOM     18  N   UNL     1       6.139  41.897  49.115  1.00  0.00    -0.339 N 
ATOM     19  H   UNL     1       7.144  41.880  48.956  1.00  0.00     0.168 HD
BRANCH  18  20
ATOM     20  C   UNL     1       5.427  41.518  47.959  1.00  0.00     0.044 A 
ATOM     21  C   UNL     1       5.784  41.943  46.660  1.00  0.00     0.030 A 
ATOM     22  C   UNL     1       4.317  40.671  48.115  1.00  0.00     0.076 A 
ATOM     23  C   UNL     1       5.049  41.548  45.536  1.00  0.00     0.053 A 
ATOM     24  C   UNL     1       3.609  40.296  46.992  1.00  0.00     0.167 A 
ATOM     25  C   UNL     1       3.965  40.725  45.736  1.00  0.00     0.165 A 
ATOM     26  O   UNL     1       2.514  39.491  46.974  1.00  0.00    -0.454 OA
ATOM     27  O   UNL     1       3.140  40.243  44.769  1.00  0.00    -0.454 OA
ATOM     28  C   UNL     1       2.218  39.465  45.562  1.00  0.00     0.468 C 
ENDBRANCH  18  20
ENDBRANCH  11  18
ENDBRANCH   6   8
ENDBRANCH   1   6
TORSDOF 6
ENDMDL
MODEL 2
REMARK VINA RESULT:    -9.090      3.847      8.038
REMARK INTER + INTRA:         -12.949
REMARK INTER:                 -12.193
REMARK INTRA:                  -0.756
REMARK UNBOUND:                -0.671
REMARK SMILES CC(C)CCNc1nc(Nc2ccc3c(c2)OCO3)c2cnn(C)c2n1
REMARK SMILES IDX 5 1 4 2 2 3 1 4 3 5 6 6 7 8 8 9 26 10 9 11 25 12 20 13 23 14
REMARK SMILES IDX 21 15 22 16 24 17 10 18 11 20 12 21 16 22 13 23 15 24 14 25
REMARK SMILES IDX 17 26 19 27 18 28
REMARK H PARENT 6 7 10 19
ROOT
ATOM      1  C   UNL     1       5.226  41.174  48.163  1.00  0.00     0.116 C 
ENDROOT
BRANCH   1   2
ATOM      2  C   UNL     1       5.768  41.936  46.948  1.00  0.00     0.024 C 
BRANCH   2   3
ATOM      3  C   UNL     1       5.190  41.494  45.589  1.00  0.00    -0.016 C 
ATOM      4  C   UNL     1       5.133  42.640  44.577  1.00  0.00     0.007 C 
ATOM      5  C   UNL     1       3.789  40.911  45.789  1.00  0.00     0.007 C 
ENDBRANCH   2   3
ENDBRANCH   1   2
BRANCH   1   6
ATOM      6  N   UNL     1       6.048  41.443  49.329  1.00  0.00    -0.354 N 
ATOM      7  H   UNL     1       6.199  40.652  49.948  1.00  0.00     0.163 HD
BRANCH   6   8
ATOM      8  C   UNL     1       5.593  42.476  50.141  1.00  0.00     0.226 A 
ATOM      9  N   UNL     1       6.374  43.572  50.138  1.00  0.00    -0.195 NA
ATOM     10  N   UNL     1       4.460  42.324  50.841  1.00  0.00    -0.193 NA
ATOM     11  C   UNL     1       6.043  44.649  50.894  1.00  0.00     0.147 A 
ATOM     12  C   UNL     1       4.134  43.415  51.547  1.00  0.00     0.165 A 
ATOM     13  C   UNL     1       4.853  44.591  51.622  1.00  0.00     0.082 A 
ATOM     14  N   UNL     1       3.027  43.599  52.329  1.00  0.00    -0.250 N 
ATOM     15  C   UNL     1       4.077  45.424  52.454  1.00  0.00     0.149 A 
ATOM     16  N   UNL     1       2.970  44.822  52.907  1.00  0.00    -0.179 NA
ATOM     17  C   UNL     1       1.965  42.654  52.565  1.00  0.00     0.176 C 
BRANCH  11  18
ATOM     18  N   UNL     1       6.897  45.758  50.825  1.00  0.00    -0.339 N 
ATOM     19  H   UNL     1       7.209  45.851  49.861  1.00  0.00     0.168 HD
BRANCH  18  20
ATOM     20  C   UNL     1       7.891  46.178  51.732  1.00  0.00     0.044 A 
ATOM     21  C   UNL     1       9.271  45.971  51.514  1.00  0.00     0.030 A 
ATOM     22  C   UNL     1       7.480  46.843  52.900  1.00  0.00     0.076 A 
ATOM     23  C   UNL     1      10.228  46.401  52.441  1.00  0.00     0.053 A 
ATOM     24  C   UNL     1       8.443  47.256  53.798  1.00  0.00     0.167 A 
ATOM     25  C   UNL     1       9.780  47.040  53.575  1.00  0.00     0.165 A 
ATOM     26  O   UNL     1       8.210  47.904  54.970  1.00  0.00    -0.454 OA
ATOM     27  O   UNL     1      10.560  47.524  54.578  1.00  0.00    -0.454 OA
ATOM     28  C   UNL     1       9.557  48.065  55.463  1.00  0.00     0.468 C 
ENDBRANCH  18  20
ENDBRANCH  11  18
ENDBRANCH   6   8
ENDBRANCH   1   6
TORSDOF 6
ENDMDL
MODEL 3
REMARK VINA RESULT:    -8.979      4.349      7.418
REMARK INTER + INTRA:         -12.799
REMARK INTER:                 -11.530
REMARK INTRA:                  -1.270
REMARK UNBOUND:                -0.671
REMARK SMILES CC(C)CCNc1nc(Nc2ccc3c(c2)OCO3)c2cnn(C)c2n1
REMARK SMILES IDX 5 1 4 2 2 3 1 4 3 5 6 6 7 8 8 9 26 10 9 11 25 12 20 13 23 14
REMARK SMILES IDX 21 15 22 16 24 17 10 18 11 20 12 21 16 22 13 23 15 24 14 25
REMARK SMILES IDX 17 26 19 27 18 28
REMARK H PARENT 6 7 10 19
ROOT
ATOM      1  C   UNL     1       2.623  46.243  53.403  1.00  0.00     0.116 C 
ENDROOT
BRANCH   1   2
ATOM      2  C   UNL     1       3.051  45.245  54.484  1.00  0.00     0.024 C 
BRANCH   2   3
ATOM      3  C   UNL     1       4.387  45.569  55.183  1.00  0.00    -0.016 C 
ATOM      4  C   UNL     1       4.849  47.004  54.924  1.00  0.00     0.007 C 
ATOM      5  C   UNL     1       5.465  44.587  54.715  1.00  0.00     0.007 C 
ENDBRANCH   2   3
ENDBRANCH   1   2
BRANCH   1   6
ATOM      6  N   UNL     1       2.348  45.547  52.160  1.00  0.00    -0.354 N 
ATOM      7  H   UNL     1       1.639  44.823  52.213  1.00  0.00     0.163 HD
BRANCH   6   8
ATOM      8  C   UNL     1       3.454  44.950  51.566  1.00  0.00     0.226 A 
ATOM      9  N   UNL     1       4.518  45.763  51.427  1.00  0.00    -0.195 NA
ATOM     10  N   UNL     1       3.395  43.666  51.187  1.00  0.00    -0.193 NA
ATOM     11  C   UNL     1       5.660  45.302  50.856  1.00  0.00     0.147 A 
ATOM     12  C   UNL     1       4.547  43.224  50.663  1.00  0.00     0.165 A 
ATOM     13  C   UNL     1       5.699  43.961  50.471  1.00  0.00     0.082 A 
ATOM     14  N   UNL     1       4.828  41.961  50.220  1.00  0.00    -0.250 N 
ATOM     15  C   UNL     1       6.619  43.038  49.931  1.00  0.00     0.149 A 
ATOM     16  N   UNL     1       6.092  41.820  49.755  1.00  0.00    -0.179 NA
ATOM     17  C   UNL     1       3.942  40.825  50.219  1.00  0.00     0.176 C 
BRANCH  11  18
ATOM     18  N   UNL     1       6.729  46.203  50.762  1.00  0.00    -0.339 N 
ATOM     19  H   UNL     1       7.069  46.183  49.803  1.00  0.00     0.168 HD
BRANCH  18  20
ATOM     20  C   UNL     1       7.774  46.448  51.676  1.00  0.00     0.044 A 
ATOM     21  C   UNL     1       9.109  46.051  51.445  1.00  0.00     0.030 A 
ATOM     22  C   UNL     1       7.464  47.130  52.865  1.00  0.00     0.076 A 
ATOM     23  C   UNL     1      10.119  46.310  52.379  1.00  0.00     0.053 A 
ATOM     24  C   UNL     1       8.477  47.373  53.770  1.00  0.00     0.167 A 
ATOM     25  C   UNL     1       9.769  46.972  53.534  1.00  0.00     0.165 A 
ATOM     26  O   UNL     1       8.342  48.011  54.962  1.00  0.00    -0.454 OA
ATOM     27  O   UNL     1      10.612  47.308  54.547  1.00  0.00    -0.454 OA
ATOM     28  C   UNL     1       9.698  47.962  55.452  1.00  0.00     0.468 C 
ENDBRANCH  18  20
ENDBRANCH  11  18
ENDBRANCH   6   8
ENDBRANCH   1   6
TORSDOF 6
ENDMDL
MODEL 4
REMARK VINA RESULT:    -8.912      4.069      7.360
REMARK INTER + INTRA:         -12.708
REMARK INTER:                 -11.923
REMARK INTRA:                  -0.785
REMARK UNBOUND:                -0.671
REMARK SMILES CC(C)CCNc1nc(Nc2ccc3c(c2)OCO3)c2cnn(C)c2n1
REMARK SMILES IDX 5 1 4 2 2 3 1 4 3 5 6 6 7 8 8 9 26 10 9 11 25 12 20 13 23 14
REMARK SMILES IDX 21 15 22 16 24 17 10 18 11 20 12 21 16 22 13 23 15 24 14 25
REMARK SMILES IDX 17 26 19 27 18 28
REMARK H PARENT 6 7 10 19
ROOT
ATOM      1  C   UNL     1       4.505  41.327  50.134  1.00  0.00     0.116 C 
ENDROOT
BRANCH   1   2
ATOM      2  C   UNL     1       5.996  41.541  49.848  1.00  0.00     0.024 C 
BRANCH   2   3
ATOM      3  C   UNL     1       6.314  42.667  48.844  1.00  0.00    -0.016 C 
ATOM      4  C   UNL     1       6.167  42.214  47.390  1.00  0.00     0.007 C 
ATOM      5  C   UNL     1       7.736  43.183  49.082  1.00  0.00     0.007 C 
ENDBRANCH   2   3
ENDBRANCH   1   2
BRANCH   1   6
ATOM      6  N   UNL     1       4.248  41.439  51.558  1.00  0.00    -0.354 N 
ATOM      7  H   UNL     1       3.639  40.727  51.948  1.00  0.00     0.163 HD
BRANCH   6   8
ATOM      8  C   UNL     1       3.713  42.656  51.963  1.00  0.00     0.226 A 
ATOM      9  N   UNL     1       4.467  43.727  51.651  1.00  0.00    -0.195 NA
ATOM     10  N   UNL     1       2.537  42.687  52.606  1.00  0.00    -0.193 NA
ATOM     11  C   UNL     1       4.058  44.974  51.997  1.00  0.00     0.147 A 
ATOM     12  C   UNL     1       2.137  43.932  52.900  1.00  0.00     0.165 A 
ATOM     13  C   UNL     1       2.822  45.101  52.632  1.00  0.00     0.082 A 
ATOM     14  N   UNL     1       0.973  44.308  53.513  1.00  0.00    -0.250 N 
ATOM     15  C   UNL     1       1.969  46.121  53.102  1.00  0.00     0.149 A 
ATOM     16  N   UNL     1       0.847  45.648  53.659  1.00  0.00    -0.179 NA
ATOM     17  C   UNL     1      -0.080  43.442  53.978  1.00  0.00     0.176 C 
BRANCH  11  18
ATOM     18  N   UNL     1       4.889  46.039  51.623  1.00  0.00    -0.339 N 
ATOM     19  H   UNL     1       4.739  46.218  50.632  1.00  0.00     0.168 HD
BRANCH  18  20
ATOM     20  C   UNL     1       6.220  46.310  52.001  1.00  0.00     0.044 A 
ATOM     21  C   UNL     1       7.323  46.097  51.145  1.00  0.00     0.030 A 
ATOM     22  C   UNL     1       6.448  46.825  53.288  1.00  0.00     0.076 A 
ATOM     23  C   UNL     1       8.631  46.375  51.559  1.00  0.00     0.053 A 
ATOM     24  C   UNL     1       7.747  47.091  53.672  1.00  0.00     0.167 A 
ATOM     25  C   UNL     1       8.809  46.871  52.831  1.00  0.00     0.165 A 
ATOM     26  O   UNL     1       8.134  47.584  54.879  1.00  0.00    -0.454 OA
ATOM     27  O   UNL     1      10.000  47.197  53.400  1.00  0.00    -0.454 OA
ATOM     28  C   UNL     1       9.564  47.644  54.701  1.00  0.00     0.468 C 
ENDBRANCH  18  20
ENDBRANCH  11  18
ENDBRANCH   6   8
ENDBRANCH   1   6
TORSDOF 6
ENDMDL
MODEL 5
REMARK VINA RESULT:    -8.866      3.524      5.634
REMARK INTER + INTRA:         -12.646
REMARK INTER:                 -11.826
REMARK INTRA:                  -0.820
REMARK UNBOUND:                -0.671
REMARK SMILES CC(C)CCNc1nc(Nc2ccc3c(c2)OCO3)c2cnn(C)c2n1
REMARK SMILES IDX 5 1 4 2 2 3 1 4 3 5 6 6 7 8 8 9 26 10 9 11 25 12 20 13 23 14
REMARK SMILES IDX 21 15 22 16 24 17 10 18 11 20 12 21 16 22 13 23 15 24 14 25
REMARK SMILES IDX 17 26 19 27 18 28
REMARK H PARENT 6 7 10 19
ROOT
ATOM      1  C   UNL     1       7.316  47.167  53.138  1.00  0.00     0.116 C 
ENDROOT
BRANCH   1   2
ATOM      2  C   UNL     1       8.476  47.706  52.292  1.00  0.00     0.024 C 
BRANCH   2   3
ATOM      3  C   UNL     1       9.870  47.171  52.677  1.00  0.00    -0.016 C 
ATOM      4  C   UNL     1      10.269  45.938  51.864  1.00  0.00     0.007 C 
ATOM      5  C   UNL     1       9.899  46.835  54.171  1.00  0.00     0.007 C 
ENDBRANCH   2   3
ENDBRANCH   1   2
BRANCH   1   6
ATOM      6  N   UNL     1       6.107  47.094  52.340  1.00  0.00    -0.354 N 
ATOM      7  H   UNL     1       5.308  47.599  52.711  1.00  0.00     0.163 HD
BRANCH   6   8
ATOM      8  C   UNL     1       5.652  45.806  52.081  1.00  0.00     0.226 A 
ATOM      9  N   UNL     1       4.652  45.396  52.884  1.00  0.00    -0.195 NA
ATOM     10  N   UNL     1       6.211  45.088  51.097  1.00  0.00    -0.193 NA
ATOM     11  C   UNL     1       4.124  44.155  52.737  1.00  0.00     0.147 A 
ATOM     12  C   UNL     1       5.645  43.882  50.947  1.00  0.00     0.165 A 
ATOM     13  C   UNL     1       4.618  43.355  51.706  1.00  0.00     0.082 A 
ATOM     14  N   UNL     1       5.952  42.929  50.014  1.00  0.00    -0.250 N 
ATOM     15  C   UNL     1       4.369  42.092  51.129  1.00  0.00     0.149 A 
ATOM     16  N   UNL     1       5.190  41.814  50.109  1.00  0.00    -0.179 NA
ATOM     17  C   UNL     1       6.958  43.016  48.986  1.00  0.00     0.176 C 
BRANCH  11  18
ATOM     18  N   UNL     1       3.074  43.808  53.599  1.00  0.00    -0.339 N 
ATOM     19  H   UNL     1       3.403  43.057  54.202  1.00  0.00     0.168 HD
BRANCH  18  20
ATOM     20  C   UNL     1       1.696  43.688  53.326  1.00  0.00     0.044 A 
ATOM     21  C   UNL     1       0.967  42.501  53.556  1.00  0.00     0.030 A 
ATOM     22  C   UNL     1       1.026  44.810  52.813  1.00  0.00     0.076 A 
ATOM     23  C   UNL     1      -0.402  42.420  53.269  1.00  0.00     0.053 A 
ATOM     24  C   UNL     1      -0.323  44.705  52.538  1.00  0.00     0.167 A 
ATOM     25  C   UNL     1      -1.017  43.540  52.759  1.00  0.00     0.165 A 
ATOM     26  O   UNL     1      -1.111  45.691  52.035  1.00  0.00    -0.454 OA
ATOM     27  O   UNL     1      -2.330  43.646  52.424  1.00  0.00    -0.454 OA
ATOM     28  C   UNL     1      -2.382  45.011  51.960  1.00  0.00     0.468 C 
ENDBRANCH  18  20
ENDBRANCH  11  18
ENDBRANCH   6   8
ENDBRANCH   1   6
TORSDOF 6
ENDMDL
MODEL 6
REMARK VINA RESULT:    -8.849      3.364      4.749
REMARK INTER + INTRA:         -12.623
REMARK INTER:                 -12.203
REMARK INTRA:                  -0.420
REMARK UNBOUND:                -0.671
REMARK SMILES CC(C)CCNc1nc(Nc2ccc3c(c2)OCO3)c2cnn(C)c2n1
REMARK SMILES IDX 5 1 4 2 2 3 1 4 3 5 6 6 7 8 8 9 26 10 9 11 25 12 20 13 23 14
REMARK SMILES IDX 21 15 22 16 24 17 10 18 11 20 12 21 16 22 13 23 15 24 14 25
REMARK SMILES IDX 17 26 19 27 18 28
REMARK H PARENT 6 7 10 19
ROOT
ATOM      1  C   UNL     1       6.379  47.027  53.854  1.00  0.00     0.116 C 
ENDROOT
BRANCH   1   2
ATOM      2  C   UNL     1       7.868  46.749  54.096  1.00  0.00     0.024 C 
BRANCH   2   3
ATOM      3  C   UNL     1       8.837  47.576  53.228  1.00  0.00    -0.016 C 
ATOM      4  C   UNL     1       8.126  48.297  52.081  1.00  0.00     0.007 C 
ATOM      5  C   UNL     1       9.931  46.665  52.666  1.00  0.00     0.007 C 
ENDBRANCH   2   3
ENDBRANCH   1   2
BRANCH   1   6
ATOM      6  N   UNL     1       5.593  46.554  54.979  1.00  0.00    -0.354 N 
ATOM      7  H   UNL     1       6.086  45.958  55.635  1.00  0.00     0.163 HD
BRANCH   6   8
ATOM      8  C   UNL     1       4.437  45.864  54.635  1.00  0.00     0.226 A 
ATOM      9  N   UNL     1       4.527  45.159  53.492  1.00  0.00    -0.195 NA
ATOM     10  N   UNL     1       3.356  45.938  55.425  1.00  0.00    -0.193 NA
ATOM     11  C   UNL     1       3.464  44.445  53.043  1.00  0.00     0.147 A 
ATOM     12  C   UNL     1       2.334  45.194  54.981  1.00  0.00     0.165 A 
ATOM     13  C   UNL     1       2.310  44.433  53.829  1.00  0.00     0.082 A 
ATOM     14  N   UNL     1       1.113  45.021  55.573  1.00  0.00    -0.250 N 
ATOM     15  C   UNL     1       1.038  43.825  53.837  1.00  0.00     0.149 A 
ATOM     16  N   UNL     1       0.292  44.192  54.887  1.00  0.00    -0.179 NA
ATOM     17  C   UNL     1       0.658  45.607  56.808  1.00  0.00     0.176 C 
BRANCH  11  18
ATOM     18  N   UNL     1       3.641  43.725  51.854  1.00  0.00    -0.339 N 
ATOM     19  H   UNL     1       3.095  42.869  51.925  1.00  0.00     0.168 HD
BRANCH  18  20
ATOM     20  C   UNL     1       4.812  43.529  51.094  1.00  0.00     0.044 A 
ATOM     21  C   UNL     1       5.115  42.313  50.444  1.00  0.00     0.030 A 
ATOM     22  C   UNL     1       5.708  44.605  50.973  1.00  0.00     0.076 A 
ATOM     23  C   UNL     1       6.291  42.157  49.699  1.00  0.00     0.053 A 
ATOM     24  C   UNL     1       6.859  44.426  50.234  1.00  0.00     0.167 A 
ATOM     25  C   UNL     1       7.143  43.234  49.616  1.00  0.00     0.165 A 
ATOM     26  O   UNL     1       7.825  45.361  50.028  1.00  0.00    -0.454 OA
ATOM     27  O   UNL     1       8.323  43.266  48.940  1.00  0.00    -0.454 OA
ATOM     28  C   UNL     1       8.752  44.617  49.210  1.00  0.00     0.468 C 
ENDBRANCH  18  20
ENDBRANCH  11  18
ENDBRANCH   6   8
ENDBRANCH   1   6
TORSDOF 6
ENDMDL
MODEL 7
REMARK VINA RESULT:    -8.821      3.967      6.646
REMARK INTER + INTRA:         -12.585
REMARK INTER:                 -11.843
REMARK INTRA:                  -0.742
REMARK UNBOUND:                -0.671
REMARK SMILES CC(C)CCNc1nc(Nc2ccc3c(c2)OCO3)c2cnn(C)c2n1
REMARK SMILES IDX 5 1 4 2 2 3 1 4 3 5 6 6 7 8 8 9 26 10 9 11 25 12 20 13 23 14
REMARK SMILES IDX 21 15 22 16 24 17 10 18 11 20 12 21 16 22 13 23 15 24 14 25
REMARK SMILES IDX 17 26 19 27 18 28
REMARK H PARENT 6 7 10 19
ROOT
ATOM      1  C   UNL     1       6.836  47.218  52.430  1.00  0.00     0.116 C 
ENDROOT
BRANCH   1   2
ATOM      2  C   UNL     1       8.239  47.789  52.669  1.00  0.00     0.024 C 
BRANCH   2   3
ATOM      3  C   UNL     1       9.271  46.782  53.213  1.00  0.00    -0.016 C 
ATOM      4  C   UNL     1      10.010  47.308  54.444  1.00  0.00     0.007 C 
ATOM      5  C   UNL     1      10.280  46.435  52.115  1.00  0.00     0.007 C 
ENDBRANCH   2   3
ENDBRANCH   1   2
BRANCH   1   6
ATOM      6  N   UNL     1       6.818  46.428  51.212  1.00  0.00    -0.354 N 
ATOM      7  H   UNL     1       6.611  46.942  50.362  1.00  0.00     0.163 HD
BRANCH   6   8
ATOM      8  C   UNL     1       5.940  45.351  51.226  1.00  0.00     0.226 A 
ATOM      9  N   UNL     1       4.710  45.640  51.691  1.00  0.00    -0.195 NA
ATOM     10  N   UNL     1       6.352  44.150  50.797  1.00  0.00    -0.193 NA
ATOM     11  C   UNL     1       3.762  44.673  51.761  1.00  0.00     0.147 A 
ATOM     12  C   UNL     1       5.386  43.222  50.839  1.00  0.00     0.165 A 
ATOM     13  C   UNL     1       4.094  43.400  51.292  1.00  0.00     0.082 A 
ATOM     14  N   UNL     1       5.468  41.917  50.436  1.00  0.00    -0.250 N 
ATOM     15  C   UNL     1       3.478  42.147  51.094  1.00  0.00     0.149 A 
ATOM     16  N   UNL     1       4.312  41.230  50.590  1.00  0.00    -0.179 NA
ATOM     17  C   UNL     1       6.619  41.254  49.877  1.00  0.00     0.176 C 
BRANCH  11  18
ATOM     18  N   UNL     1       2.501  45.055  52.239  1.00  0.00    -0.339 N 
ATOM     19  H   UNL     1       2.210  45.882  51.722  1.00  0.00     0.168 HD
BRANCH  18  20
ATOM     20  C   UNL     1       2.016  45.076  53.563  1.00  0.00     0.044 A 
ATOM     21  C   UNL     1       2.825  45.401  54.674  1.00  0.00     0.030 A 
ATOM     22  C   UNL     1       0.662  44.768  53.774  1.00  0.00     0.076 A 
ATOM     23  C   UNL     1       2.307  45.408  55.975  1.00  0.00     0.053 A 
ATOM     24  C   UNL     1       0.176  44.781  55.066  1.00  0.00     0.167 A 
ATOM     25  C   UNL     1       0.977  45.091  56.137  1.00  0.00     0.165 A 
ATOM     26  O   UNL     1      -1.102  44.502  55.437  1.00  0.00    -0.454 OA
ATOM     27  O   UNL     1       0.306  45.047  57.319  1.00  0.00    -0.454 OA
ATOM     28  C   UNL     1      -1.011  44.668  56.868  1.00  0.00     0.468 C 
ENDBRANCH  18  20
ENDBRANCH  11  18
ENDBRANCH   6   8
ENDBRANCH   1   6
TORSDOF 6
ENDMDL
MODEL 8
REMARK VINA RESULT:    -8.820      3.515      6.037
REMARK INTER + INTRA:         -12.584
REMARK INTER:                 -11.789
REMARK INTRA:                  -0.795
REMARK UNBOUND:                -0.671
REMARK SMILES CC(C)CCNc1nc(Nc2ccc3c(c2)OCO3)c2cnn(C)c2n1
REMARK SMILES IDX 5 1 4 2 2 3 1 4 3 5 6 6 7 8 8 9 26 10 9 11 25 12 20 13 23 14
REMARK SMILES IDX 21 15 22 16 24 17 10 18 11 20 12 21 16 22 13 23 15 24 14 25
REMARK SMILES IDX 17 26 19 27 18 28
REMARK H PARENT 6 7 10 19
ROOT
ATOM      1  C   UNL     1       6.881  47.214  52.372  1.00  0.00     0.116 C 
ENDROOT
BRANCH   1   2
ATOM      2  C   UNL     1       8.295  47.750  52.623  1.00  0.00     0.024 C 
BRANCH   2   3
ATOM      3  C   UNL     1       9.310  46.706  53.127  1.00  0.00    -0.016 C 
ATOM      4  C   UNL     1      10.062  47.175  54.374  1.00  0.00     0.007 C 
ATOM      5  C   UNL     1      10.310  46.380  52.014  1.00  0.00     0.007 C 
ENDBRANCH   2   3
ENDBRANCH   1   2
BRANCH   1   6
ATOM      6  N   UNL     1       6.881  46.316  51.232  1.00  0.00    -0.354 N 
ATOM      7  H   UNL     1       6.622  46.736  50.346  1.00  0.00     0.163 HD
BRANCH   6   8
ATOM      8  C   UNL     1       6.071  45.195  51.369  1.00  0.00     0.226 A 
ATOM      9  N   UNL     1       5.156  45.286  52.353  1.00  0.00    -0.195 NA
ATOM     10  N   UNL     1       6.242  44.145  50.554  1.00  0.00    -0.193 NA
ATOM     11  C   UNL     1       4.307  44.255  52.593  1.00  0.00     0.147 A 
ATOM     12  C   UNL     1       5.366  43.157  50.786  1.00  0.00     0.165 A 
ATOM     13  C   UNL     1       4.388  43.138  51.761  1.00  0.00     0.082 A 
ATOM     14  N   UNL     1       5.247  41.975  50.108  1.00  0.00    -0.250 N 
ATOM     15  C   UNL     1       3.723  41.909  51.564  1.00  0.00     0.149 A 
ATOM     16  N   UNL     1       4.251  41.184  50.571  1.00  0.00    -0.179 NA
ATOM     17  C   UNL     1       6.044  41.532  48.992  1.00  0.00     0.176 C 
BRANCH  11  18
ATOM     18  N   UNL     1       3.372  44.432  53.622  1.00  0.00    -0.339 N 
ATOM     19  H   UNL     1       3.633  43.816  54.389  1.00  0.00     0.168 HD
BRANCH  18  20
ATOM     20  C   UNL     1       1.973  44.591  53.541  1.00  0.00     0.044 A 
ATOM     21  C   UNL     1       1.317  45.060  52.382  1.00  0.00     0.030 A 
ATOM     22  C   UNL     1       1.205  44.256  54.668  1.00  0.00     0.076 A 
ATOM     23  C   UNL     1      -0.075  45.208  52.341  1.00  0.00     0.053 A 
ATOM     24  C   UNL     1      -0.165  44.411  54.603  1.00  0.00     0.167 A 
ATOM     25  C   UNL     1      -0.787  44.876  53.471  1.00  0.00     0.165 A 
ATOM     26  O   UNL     1      -1.044  44.138  55.604  1.00  0.00    -0.454 OA
ATOM     27  O   UNL     1      -2.137  44.954  53.614  1.00  0.00    -0.454 OA
ATOM     28  C   UNL     1      -2.293  44.490  54.971  1.00  0.00     0.468 C 
ENDBRANCH  18  20
ENDBRANCH  11  18
ENDBRANCH   6   8
ENDBRANCH   1   6
TORSDOF 6
ENDMDL
MODEL 9
REMARK VINA RESULT:    -8.787      3.936      7.310
REMARK INTER + INTRA:         -12.540
REMARK INTER:                 -11.624
REMARK INTRA:                  -0.916
REMARK UNBOUND:                -0.671
REMARK SMILES CC(C)CCNc1nc(Nc2ccc3c(c2)OCO3)c2cnn(C)c2n1
REMARK SMILES IDX 5 1 4 2 2 3 1 4 3 5 6 6 7 8 8 9 26 10 9 11 25 12 20 13 23 14
REMARK SMILES IDX 21 15 22 16 24 17 10 18 11 20 12 21 16 22 13 23 15 24 14 25
REMARK SMILES IDX 17 26 19 27 18 28
REMARK H PARENT 6 7 10 19
ROOT
ATOM      1  C   UNL     1       4.318  41.268  49.931  1.00  0.00     0.116 C 
ENDROOT
BRANCH   1   2
ATOM      2  C   UNL     1       5.813  41.604  49.960  1.00  0.00     0.024 C 
BRANCH   2   3
ATOM      3  C   UNL     1       6.254  42.709  48.979  1.00  0.00    -0.016 C 
ATOM      4  C   UNL     1       6.136  42.275  47.517  1.00  0.00     0.007 C 
ATOM      5  C   UNL     1       7.699  43.119  49.280  1.00  0.00     0.007 C 
ENDBRANCH   2   3
ENDBRANCH   1   2
BRANCH   1   6
ATOM      6  N   UNL     1       3.783  41.251  51.280  1.00  0.00    -0.354 N 
ATOM      7  H   UNL     1       3.109  40.517  51.473  1.00  0.00     0.163 HD
BRANCH   6   8
ATOM      8  C   UNL     1       3.178  42.435  51.686  1.00  0.00     0.226 A 
ATOM      9  N   UNL     1       3.987  43.268  52.369  1.00  0.00    -0.195 NA
ATOM     10  N   UNL     1       1.892  42.664  51.387  1.00  0.00    -0.193 NA
ATOM     11  C   UNL     1       3.515  44.455  52.826  1.00  0.00     0.147 A 
ATOM     12  C   UNL     1       1.462  43.859  51.814  1.00  0.00     0.165 A 
ATOM     13  C   UNL     1       2.195  44.792  52.520  1.00  0.00     0.082 A 
ATOM     14  N   UNL     1       0.222  44.409  51.636  1.00  0.00    -0.250 N 
ATOM     15  C   UNL     1       1.309  45.876  52.693  1.00  0.00     0.149 A 
ATOM     16  N   UNL     1       0.097  45.645  52.174  1.00  0.00    -0.179 NA
ATOM     17  C   UNL     1      -0.897  43.819  50.946  1.00  0.00     0.176 C 
BRANCH  11  18
ATOM     18  N   UNL     1       4.421  45.274  53.514  1.00  0.00    -0.339 N 
ATOM     19  H   UNL     1       3.892  46.027  53.948  1.00  0.00     0.168 HD
BRANCH  18  20
ATOM     20  C   UNL     1       5.708  45.701  53.129  1.00  0.00     0.044 A 
ATOM     21  C   UNL     1       6.142  45.730  51.786  1.00  0.00     0.030 A 
ATOM     22  C   UNL     1       6.590  46.127  54.137  1.00  0.00     0.076 A 
ATOM     23  C   UNL     1       7.430  46.159  51.444  1.00  0.00     0.053 A 
ATOM     24  C   UNL     1       7.855  46.544  53.775  1.00  0.00     0.167 A 
ATOM     25  C   UNL     1       8.264  46.558  52.464  1.00  0.00     0.165 A 
ATOM     26  O   UNL     1       8.823  46.978  54.624  1.00  0.00    -0.454 OA
ATOM     27  O   UNL     1       9.541  47.003  52.322  1.00  0.00    -0.454 OA
ATOM     28  C   UNL     1       9.891  47.262  53.697  1.00  0.00     0.468 C 
ENDBRANCH  18  20
ENDBRANCH  11  18
ENDBRANCH   6   8
ENDBRANCH   1   6
TORSDOF 6
ENDMDL
MODEL 10
REMARK VINA RESULT:    -8.784      3.446      5.502
REMARK INTER + INTRA:         -12.536
REMARK INTER:                 -11.825
REMARK INTRA:                  -0.711
REMARK UNBOUND:                -0.671
REMARK SMILES CC(C)CCNc1nc(Nc2ccc3c(c2)OCO3)c2cnn(C)c2n1
REMARK SMILES IDX 5 1 4 2 2 3 1 4 3 5 6 6 7 8 8 9 26 10 9 11 25 12 20 13 23 14
REMARK SMILES IDX 21 15 22 16 24 17 10 18 11 20 12 21 16 22 13 23 15 24 14 25
REMARK SMILES IDX 17 26 19 27 18 28
REMARK H PARENT 6 7 10 19
ROOT
ATOM      1  C   UNL     1       6.827  47.162  52.468  1.00  0.00     0.116 C 
ENDROOT
BRANCH   1   2
ATOM      2  C   UNL     1       7.797  46.928  53.631  1.00  0.00     0.024 C 
BRANCH   2   3
ATOM      3  C   UNL     1       9.244  47.398  53.381  1.00  0.00    -0.016 C 
ATOM      4  C   UNL     1       9.950  46.572  52.305  1.00  0.00     0.007 C 
ATOM      5  C   UNL     1      10.040  47.333  54.688  1.00  0.00     0.007 C 
ENDBRANCH   2   3
ENDBRANCH   1   2
BRANCH   1   6
ATOM      6  N   UNL     1       5.567  46.488  52.723  1.00  0.00    -0.354 N 
ATOM      7  H   UNL     1       5.340  46.343  53.702  1.00  0.00     0.163 HD
BRANCH   6   8
ATOM      8  C   UNL     1       5.436  45.244  52.118  1.00  0.00     0.226 A 
ATOM      9  N   UNL     1       4.398  44.512  52.565  1.00  0.00    -0.195 NA
ATOM     10  N   UNL     1       6.308  44.868  51.172  1.00  0.00    -0.193 NA
ATOM     11  C   UNL     1       4.165  43.276  52.058  1.00  0.00     0.147 A 
ATOM     12  C   UNL     1       6.032  43.661  50.659  1.00  0.00     0.165 A 
ATOM     13  C   UNL     1       5.001  42.823  51.036  1.00  0.00     0.082 A 
ATOM     14  N   UNL     1       6.699  43.011  49.656  1.00  0.00    -0.250 N 
ATOM     15  C   UNL     1       5.124  41.709  50.180  1.00  0.00     0.149 A 
ATOM     16  N   UNL     1       6.169  41.804  49.348  1.00  0.00    -0.179 NA
ATOM     17  C   UNL     1       7.850  43.486  48.932  1.00  0.00     0.176 C 
BRANCH  11  18
ATOM     18  N   UNL     1       3.056  42.583  52.563  1.00  0.00    -0.339 N 
ATOM     19  H   UNL     1       3.235  41.588  52.454  1.00  0.00     0.168 HD
BRANCH  18  20
ATOM     20  C   UNL     1       1.683  42.879  52.434  1.00  0.00     0.044 A 
ATOM     21  C   UNL     1       1.060  43.121  51.190  1.00  0.00     0.030 A 
ATOM     22  C   UNL     1       0.906  42.923  53.604  1.00  0.00     0.076 A 
ATOM     23  C   UNL     1      -0.306  43.415  51.104  1.00  0.00     0.053 A 
ATOM     24  C   UNL     1      -0.439  43.214  53.492  1.00  0.00     0.167 A 
ATOM     25  C   UNL     1      -1.028  43.455  52.275  1.00  0.00     0.165 A 
ATOM     26  O   UNL     1      -1.322  43.300  54.522  1.00  0.00    -0.454 OA
ATOM     27  O   UNL     1      -2.356  43.723  52.384  1.00  0.00    -0.454 OA
ATOM     28  C   UNL     1      -2.535  43.628  53.813  1.00  0.00     0.468 C 
ENDBRANCH  18  20
ENDBRANCH  11  18
ENDBRANCH   6   8
ENDBRANCH   1   6
TORSDOF 6
ENDMDL
MODEL 11
REMARK VINA RESULT:    -8.687      2.780      5.814
REMARK INTER + INTRA:         -12.404
REMARK INTER:                 -11.463
REMARK INTRA:                  -0.941
REMARK UNBOUND:                -0.671
REMARK SMILES CC(C)CCNc1nc(Nc2ccc3c(c2)OCO3)c2cnn(C)c2n1
REMARK SMILES IDX 5 1 4 2 2 3 1 4 3 5 6 6 7 8 8 9 26 10 9 11 25 12 20 13 23 14
REMARK SMILES IDX 21 15 22 16 24 17 10 18 11 20 12 21 16 22 13 23 15 24 14 25
REMARK SMILES IDX 17 26 19 27 18 28
REMARK H PARENT 6 7 10 19
ROOT
ATOM      1  C   UNL     1       3.798  46.792  54.245  1.00  0.00     0.116 C 
ENDROOT
BRANCH   1   2
ATOM      2  C   UNL     1       3.186  45.550  54.902  1.00  0.00     0.024 C 
BRANCH   2   3
ATOM      3  C   UNL     1       2.450  44.596  53.940  1.00  0.00    -0.016 C 
ATOM      4  C   UNL     1       2.231  45.213  52.558  1.00  0.00     0.007 C 
ATOM      5  C   UNL     1       1.102  44.194  54.545  1.00  0.00     0.007 C 
ENDBRANCH   2   3
ENDBRANCH   1   2
BRANCH   1   6
ATOM      6  N   UNL     1       4.996  47.197  54.956  1.00  0.00    -0.354 N 
ATOM      7  H   UNL     1       5.019  48.166  55.257  1.00  0.00     0.163 HD
BRANCH   6   8
ATOM      8  C   UNL     1       6.185  46.987  54.268  1.00  0.00     0.226 A 
ATOM      9  N   UNL     1       6.027  46.564  52.999  1.00  0.00    -0.195 NA
ATOM     10  N   UNL     1       7.357  47.207  54.879  1.00  0.00    -0.193 NA
ATOM     11  C   UNL     1       7.112  46.317  52.222  1.00  0.00     0.147 A 
ATOM     12  C   UNL     1       8.410  46.994  54.079  1.00  0.00     0.165 A 
ATOM     13  C   UNL     1       8.373  46.563  52.768  1.00  0.00     0.082 A 
ATOM     14  N   UNL     1       9.734  47.167  54.381  1.00  0.00    -0.250 N 
ATOM     15  C   UNL     1       9.726  46.534  52.369  1.00  0.00     0.149 A 
ATOM     16  N   UNL     1      10.566  46.882  53.352  1.00  0.00    -0.179 NA
ATOM     17  C   UNL     1      10.284  47.616  55.635  1.00  0.00     0.176 C 
BRANCH  11  18
ATOM     18  N   UNL     1       6.866  45.896  50.908  1.00  0.00    -0.339 N 
ATOM     19  H   UNL     1       6.354  46.638  50.435  1.00  0.00     0.168 HD
BRANCH  18  20
ATOM     20  C   UNL     1       6.490  44.624  50.432  1.00  0.00     0.044 A 
ATOM     21  C   UNL     1       7.264  43.886  49.510  1.00  0.00     0.030 A 
ATOM     22  C   UNL     1       5.293  44.067  50.913  1.00  0.00     0.076 A 
ATOM     23  C   UNL     1       6.855  42.625  49.059  1.00  0.00     0.053 A 
ATOM     24  C   UNL     1       4.911  42.823  50.453  1.00  0.00     0.167 A 
ATOM     25  C   UNL     1       5.671  42.122  49.549  1.00  0.00     0.165 A 
ATOM     26  O   UNL     1       3.784  42.154  50.813  1.00  0.00    -0.454 OA
ATOM     27  O   UNL     1       5.120  40.922  49.226  1.00  0.00    -0.454 OA
ATOM     28  C   UNL     1       3.921  40.951  50.027  1.00  0.00     0.468 C 
ENDBRANCH  18  20
ENDBRANCH  11  18
ENDBRANCH   6   8
ENDBRANCH   1   6
TORSDOF 6
ENDMDL
MODEL 12
REMARK VINA RESULT:    -8.579      3.842      7.996
REMARK INTER + INTRA:         -12.259
REMARK INTER:                 -11.546
REMARK INTRA:                  -0.713
REMARK UNBOUND:                -0.671
REMARK SMILES CC(C)CCNc1nc(Nc2ccc3c(c2)OCO3)c2cnn(C)c2n1
REMARK SMILES IDX 5 1 4 2 2 3 1 4 3 5 6 6 7 8 8 9 26 10 9 11 25 12 20 13 23 14
REMARK SMILES IDX 21 15 22 16 24 17 10 18 11 20 12 21 16 22 13 23 15 24 14 25
REMARK SMILES IDX 17 26 19 27 18 28
REMARK H PARENT 6 7 10 19
ROOT
ATOM      1  C   UNL     1       3.619  40.862  49.713  1.00  0.00     0.116 C 
ENDROOT
BRANCH   1   2
ATOM      2  C   UNL     1       4.346  40.803  48.365  1.00  0.00     0.024 C 
BRANCH   2   3
ATOM      3  C   UNL     1       3.453  40.462  47.155  1.00  0.00    -0.016 C 
ATOM      4  C   UNL     1       3.083  38.979  47.100  1.00  0.00     0.007 C 
ATOM      5  C   UNL     1       4.164  40.865  45.860  1.00  0.00     0.007 C 
ENDBRANCH   2   3
ENDBRANCH   1   2
BRANCH   1   6
ATOM      6  N   UNL     1       4.508  41.379  50.738  1.00  0.00    -0.354 N 
ATOM      7  H   UNL     1       4.730  40.734  51.489  1.00  0.00     0.163 HD
BRANCH   6   8
ATOM      8  C   UNL     1       4.072  42.544  51.358  1.00  0.00     0.226 A 
ATOM      9  N   UNL     1       4.837  43.625  51.116  1.00  0.00    -0.195 NA
ATOM     10  N   UNL     1       2.970  42.520  52.121  1.00  0.00    -0.193 NA
ATOM     11  C   UNL     1       4.521  44.823  51.669  1.00  0.00     0.147 A 
ATOM     12  C   UNL     1       2.657  43.723  52.622  1.00  0.00     0.165 A 
ATOM     13  C   UNL     1       3.362  44.897  52.444  1.00  0.00     0.082 A 
ATOM     14  N   UNL     1       1.579  44.046  53.401  1.00  0.00    -0.250 N 
ATOM     15  C   UNL     1       2.608  45.868  53.135  1.00  0.00     0.149 A 
ATOM     16  N   UNL     1       1.529  45.356  53.740  1.00  0.00    -0.179 NA
ATOM     17  C   UNL     1       0.541  43.155  53.855  1.00  0.00     0.176 C 
BRANCH  11  18
ATOM     18  N   UNL     1       5.356  45.904  51.356  1.00  0.00    -0.339 N 
ATOM     19  H   UNL     1       5.293  46.066  50.353  1.00  0.00     0.168 HD
BRANCH  18  20
ATOM     20  C   UNL     1       6.640  46.214  51.850  1.00  0.00     0.044 A 
ATOM     21  C   UNL     1       7.819  46.039  51.093  1.00  0.00     0.030 A 
ATOM     22  C   UNL     1       6.738  46.730  53.153  1.00  0.00     0.076 A 
ATOM     23  C   UNL     1       9.077  46.357  51.621  1.00  0.00     0.053 A 
ATOM     24  C   UNL     1       7.989  47.035  53.650  1.00  0.00     0.167 A 
ATOM     25  C   UNL     1       9.128  46.851  52.904  1.00  0.00     0.165 A 
ATOM     26  O   UNL     1       8.254  47.534  54.886  1.00  0.00    -0.454 OA
ATOM     27  O   UNL     1      10.254  47.212  53.576  1.00  0.00    -0.454 OA
ATOM     28  C   UNL     1       9.692  47.639  54.834  1.00  0.00     0.468 C 
ENDBRANCH  18  20
ENDBRANCH  11  18
ENDBRANCH   6   8
ENDBRANCH   1   6
TORSDOF 6
ENDMDL
MODEL 13
REMARK VINA RESULT:    -8.577      4.344      7.793
REMARK INTER + INTRA:         -12.256
REMARK INTER:                 -11.368
REMARK INTRA:                  -0.888
REMARK UNBOUND:                -0.671
REMARK SMILES CC(C)CCNc1nc(Nc2ccc3c(c2)OCO3)c2cnn(C)c2n1
REMARK SMILES IDX 5 1 4 2 2 3 1 4 3 5 6 6 7 8 8 9 26 10 9 11 25 12 20 13 23 14
REMARK SMILES IDX 21 15 22 16 24 17 10 18 11 20 12 21 16 22 13 23 15 24 14 25
REMARK SMILES IDX 17 26 19 27 18 28
REMARK H PARENT 6 7 10 19
ROOT
ATOM      1  C   UNL     1       2.802  46.612  52.986  1.00  0.00     0.116 C 
ENDROOT
BRANCH   1   2
ATOM      2  C   UNL     1       2.743  45.535  54.076  1.00  0.00     0.024 C 
BRANCH   2   3
ATOM      3  C   UNL     1       1.335  44.983  54.375  1.00  0.00    -0.016 C 
ATOM      4  C   UNL     1       0.996  45.022  55.866  1.00  0.00     0.007 C 
ATOM      5  C   UNL     1       1.225  43.545  53.858  1.00  0.00     0.007 C 
ENDBRANCH   2   3
ENDBRANCH   1   2
BRANCH   1   6
ATOM      6  N   UNL     1       2.615  46.012  51.678  1.00  0.00    -0.354 N 
ATOM      7  H   UNL     1       1.789  45.430  51.579  1.00  0.00     0.163 HD
BRANCH   6   8
ATOM      8  C   UNL     1       3.679  45.236  51.232  1.00  0.00     0.226 A 
ATOM      9  N   UNL     1       4.838  45.907  51.094  1.00  0.00    -0.195 NA
ATOM     10  N   UNL     1       3.494  43.933  50.981  1.00  0.00    -0.193 NA
ATOM     11  C   UNL     1       5.951  45.264  50.660  1.00  0.00     0.147 A 
ATOM     12  C   UNL     1       4.617  43.313  50.592  1.00  0.00     0.165 A 
ATOM     13  C   UNL     1       5.857  43.893  50.416  1.00  0.00     0.082 A 
ATOM     14  N   UNL     1       4.776  41.986  50.301  1.00  0.00    -0.250 N 
ATOM     15  C   UNL     1       6.695  42.822  50.042  1.00  0.00     0.149 A 
ATOM     16  N   UNL     1       6.042  41.657  49.950  1.00  0.00    -0.179 NA
ATOM     17  C   UNL     1       3.764  40.961  50.347  1.00  0.00     0.176 C 
BRANCH  11  18
ATOM     18  N   UNL     1       7.123  46.027  50.557  1.00  0.00    -0.339 N 
ATOM     19  H   UNL     1       7.568  45.795  49.672  1.00  0.00     0.168 HD
BRANCH  18  20
ATOM     20  C   UNL     1       8.075  46.339  51.549  1.00  0.00     0.044 A 
ATOM     21  C   UNL     1       9.447  46.031  51.423  1.00  0.00     0.030 A 
ATOM     22  C   UNL     1       7.630  46.998  52.707  1.00  0.00     0.076 A 
ATOM     23  C   UNL     1      10.363  46.355  52.432  1.00  0.00     0.053 A 
ATOM     24  C   UNL     1       8.551  47.307  53.687  1.00  0.00     0.167 A 
ATOM     25  C   UNL     1       9.882  46.992  53.553  1.00  0.00     0.165 A 
ATOM     26  O   UNL     1       8.282  47.933  54.862  1.00  0.00    -0.454 OA
ATOM     27  O   UNL     1      10.619  47.382  54.627  1.00  0.00    -0.454 OA
ATOM     28  C   UNL     1       9.597  47.973  55.456  1.00  0.00     0.468 C 
ENDBRANCH  18  20
ENDBRANCH  11  18
ENDBRANCH   6   8
ENDBRANCH   1   6
TORSDOF 6
ENDMDL
MODEL 14
REMARK VINA RESULT:    -8.538      4.354      7.052
REMARK INTER + INTRA:         -12.204
REMARK INTER:                 -11.757
REMARK INTRA:                  -0.447
REMARK UNBOUND:                -0.671
REMARK SMILES CC(C)CCNc1nc(Nc2ccc3c(c2)OCO3)c2cnn(C)c2n1
REMARK SMILES IDX 5 1 4 2 2 3 1 4 3 5 6 6 7 8 8 9 26 10 9 11 25 12 20 13 23 14
REMARK SMILES IDX 21 15 22 16 24 17 10 18 11 20 12 21 16 22 13 23 15 24 14 25
REMARK SMILES IDX 17 26 19 27 18 28
REMARK H PARENT 6 7 10 19
ROOT
ATOM      1  C   UNL     1       6.786  47.154  52.408  1.00  0.00     0.116 C 
ENDROOT
BRANCH   1   2
ATOM      2  C   UNL     1       7.703  47.186  53.636  1.00  0.00     0.024 C 
BRANCH   2   3
ATOM      3  C   UNL     1       9.182  47.502  53.340  1.00  0.00    -0.016 C 
ATOM      4  C   UNL     1       9.702  46.766  52.103  1.00  0.00     0.007 C 
ATOM      5  C   UNL     1      10.040  47.140  54.555  1.00  0.00     0.007 C 
ENDBRANCH   2   3
ENDBRANCH   1   2
BRANCH   1   6
ATOM      6  N   UNL     1       5.448  46.744  52.793  1.00  0.00    -0.354 N 
ATOM      7  H   UNL     1       5.246  46.791  53.786  1.00  0.00     0.163 HD
BRANCH   6   8
ATOM      8  C   UNL     1       5.091  45.461  52.395  1.00  0.00     0.226 A 
ATOM      9  N   UNL     1       4.038  44.945  53.056  1.00  0.00    -0.195 NA
ATOM     10  N   UNL     1       5.784  44.848  51.425  1.00  0.00    -0.193 NA
ATOM     11  C   UNL     1       3.595  43.696  52.765  1.00  0.00     0.147 A 
ATOM     12  C   UNL     1       5.301  43.633  51.129  1.00  0.00     0.165 A 
ATOM     13  C   UNL     1       4.233  43.002  51.736  1.00  0.00     0.082 A 
ATOM     14  N   UNL     1       5.752  42.771  50.167  1.00  0.00    -0.250 N 
ATOM     15  C   UNL     1       4.111  41.778  51.045  1.00  0.00     0.149 A 
ATOM     16  N   UNL     1       5.045  41.618  50.099  1.00  0.00    -0.179 NA
ATOM     17  C   UNL     1       6.850  42.983  49.259  1.00  0.00     0.176 C 
BRANCH  11  18
ATOM     18  N   UNL     1       2.484  43.235  53.484  1.00  0.00    -0.339 N 
ATOM     19  H   UNL     1       2.064  42.474  52.955  1.00  0.00     0.168 HD
BRANCH  18  20
ATOM     20  C   UNL     1       1.511  43.969  54.193  1.00  0.00     0.044 A 
ATOM     21  C   UNL     1       0.165  44.068  53.776  1.00  0.00     0.030 A 
ATOM     22  C   UNL     1       1.906  44.620  55.374  1.00  0.00     0.076 A 
ATOM     23  C   UNL     1      -0.772  44.810  54.507  1.00  0.00     0.053 A 
ATOM     24  C   UNL     1       0.964  45.345  56.075  1.00  0.00     0.167 A 
ATOM     25  C   UNL     1      -0.339  45.438  55.652  1.00  0.00     0.165 A 
ATOM     26  O   UNL     1       1.187  46.034  57.226  1.00  0.00    -0.454 OA
ATOM     27  O   UNL     1      -1.103  46.196  56.483  1.00  0.00    -0.454 OA
ATOM     28  C   UNL     1      -0.127  46.575  57.476  1.00  0.00     0.468 C 
ENDBRANCH  18  20
ENDBRANCH  11  18
ENDBRANCH   6   8
ENDBRANCH   1   6
TORSDOF 6
ENDMDL
MODEL 15
REMARK VINA RESULT:    -8.449      3.559      6.087
REMARK INTER + INTRA:         -12.084
REMARK INTER:                 -11.873
REMARK INTRA:                  -0.211
REMARK UNBOUND:                -0.671
REMARK SMILES CC(C)CCNc1nc(Nc2ccc3c(c2)OCO3)c2cnn(C)c2n1
REMARK SMILES IDX 5 1 4 2 2 3 1 4 3 5 6 6 7 8 8 9 26 10 9 11 25 12 20 13 23 14
REMARK SMILES IDX 21 15 22 16 24 17 10 18 11 20 12 21 16 22 13 23 15 24 14 25
REMARK SMILES IDX 17 26 19 27 18 28
REMARK H PARENT 6 7 10 19
ROOT
ATOM      1  C   UNL     1       6.526  47.056  53.421  1.00  0.00     0.116 C 
ENDROOT
BRANCH   1   2
ATOM      2  C   UNL     1       7.875  47.564  52.899  1.00  0.00     0.024 C 
BRANCH   2   3
ATOM      3  C   UNL     1       9.082  46.660  53.217  1.00  0.00    -0.016 C 
ATOM      4  C   UNL     1       9.901  47.173  54.402  1.00  0.00     0.007 C 
ATOM      5  C   UNL     1       9.979  46.544  51.981  1.00  0.00     0.007 C 
ENDBRANCH   2   3
ENDBRANCH   1   2
BRANCH   1   6
ATOM      6  N   UNL     1       5.599  46.873  52.318  1.00  0.00    -0.354 N 
ATOM      7  H   UNL     1       4.654  47.203  52.484  1.00  0.00     0.163 HD
BRANCH   6   8
ATOM      8  C   UNL     1       5.470  45.563  51.873  1.00  0.00     0.226 A 
ATOM      9  N   UNL     1       4.436  44.891  52.413  1.00  0.00    -0.195 NA
ATOM     10  N   UNL     1       6.339  45.075  50.977  1.00  0.00    -0.193 NA
ATOM     11  C   UNL     1       4.205  43.600  52.065  1.00  0.00     0.147 A 
ATOM     12  C   UNL     1       6.065  43.812  50.620  1.00  0.00     0.165 A 
ATOM     13  C   UNL     1       5.038  43.026  51.103  1.00  0.00     0.082 A 
ATOM     14  N   UNL     1       6.729  43.044  49.704  1.00  0.00    -0.250 N 
ATOM     15  C   UNL     1       5.161  41.814  50.393  1.00  0.00     0.149 A 
ATOM     16  N   UNL     1       6.202  41.807  49.550  1.00  0.00    -0.179 NA
ATOM     17  C   UNL     1       7.876  43.428  48.920  1.00  0.00     0.176 C 
BRANCH  11  18
ATOM     18  N   UNL     1       3.100  42.973  52.658  1.00  0.00    -0.339 N 
ATOM     19  H   UNL     1       2.803  42.219  52.042  1.00  0.00     0.168 HD
BRANCH  18  20
ATOM     20  C   UNL     1       2.007  43.545  53.339  1.00  0.00     0.044 A 
ATOM     21  C   UNL     1       2.135  44.644  54.216  1.00  0.00     0.030 A 
ATOM     22  C   UNL     1       0.733  42.995  53.121  1.00  0.00     0.076 A 
ATOM     23  C   UNL     1       1.025  45.183  54.877  1.00  0.00     0.053 A 
ATOM     24  C   UNL     1      -0.346  43.544  53.784  1.00  0.00     0.167 A 
ATOM     25  C   UNL     1      -0.203  44.608  54.641  1.00  0.00     0.165 A 
ATOM     26  O   UNL     1      -1.636  43.127  53.687  1.00  0.00    -0.454 OA
ATOM     27  O   UNL     1      -1.384  44.996  55.190  1.00  0.00    -0.454 OA
ATOM     28  C   UNL     1      -2.288  44.049  54.585  1.00  0.00     0.468 C 
ENDBRANCH  18  20
ENDBRANCH  11  18
ENDBRANCH   6   8
ENDBRANCH   1   6
TORSDOF 6
ENDMDL
MODEL 16
REMARK VINA RESULT:    -8.383      3.387      4.731
REMARK INTER + INTRA:         -11.994
REMARK INTER:                 -11.633
REMARK INTRA:                  -0.361
REMARK UNBOUND:                -0.671
REMARK SMILES CC(C)CCNc1nc(Nc2ccc3c(c2)OCO3)c2cnn(C)c2n1
REMARK SMILES IDX 5 1 4 2 2 3 1 4 3 5 6 6 7 8 8 9 26 10 9 11 25 12 20 13 23 14
REMARK SMILES IDX 21 15 22 16 24 17 10 18 11 20 12 21 16 22 13 23 15 24 14 25
REMARK SMILES IDX 17 26 19 27 18 28
REMARK H PARENT 6 7 10 19
ROOT
ATOM      1  C   UNL     1       5.667  45.358  54.446  1.00  0.00     0.116 C 
ENDROOT
BRANCH   1   2
ATOM      2  C   UNL     1       6.611  46.561  54.559  1.00  0.00     0.024 C 
BRANCH   2   3
ATOM      3  C   UNL     1       7.720  46.625  53.491  1.00  0.00    -0.016 C 
ATOM      4  C   UNL     1       9.057  47.100  54.064  1.00  0.00     0.007 C 
ATOM      5  C   UNL     1       7.287  47.553  52.353  1.00  0.00     0.007 C 
ENDBRANCH   2   3
ENDBRANCH   1   2
BRANCH   1   6
ATOM      6  N   UNL     1       4.325  45.736  54.849  1.00  0.00    -0.354 N 
ATOM      7  H   UNL     1       4.160  45.758  55.850  1.00  0.00     0.163 HD
BRANCH   6   8
ATOM      8  C   UNL     1       3.310  44.948  54.318  1.00  0.00     0.226 A 
ATOM      9  N   UNL     1       3.687  44.182  53.277  1.00  0.00    -0.195 NA
ATOM     10  N   UNL     1       2.080  44.998  54.848  1.00  0.00    -0.193 NA
ATOM     11  C   UNL     1       2.787  43.371  52.664  1.00  0.00     0.147 A 
ATOM     12  C   UNL     1       1.222  44.160  54.252  1.00  0.00     0.165 A 
ATOM     13  C   UNL     1       1.491  43.329  53.182  1.00  0.00     0.082 A 
ATOM     14  N   UNL     1      -0.089  43.941  54.578  1.00  0.00    -0.250 N 
ATOM     15  C   UNL     1       0.282  42.638  52.961  1.00  0.00     0.149 A 
ATOM     16  N   UNL     1      -0.695  43.017  53.795  1.00  0.00    -0.179 NA
ATOM     17  C   UNL     1      -0.835  44.570  55.638  1.00  0.00     0.176 C 
BRANCH  11  18
ATOM     18  N   UNL     1       3.259  42.592  51.599  1.00  0.00    -0.339 N 
ATOM     19  H   UNL     1       2.931  41.640  51.742  1.00  0.00     0.168 HD
BRANCH  18  20
ATOM     20  C   UNL     1       4.517  42.616  50.963  1.00  0.00     0.044 A 
ATOM     21  C   UNL     1       5.122  41.467  50.409  1.00  0.00     0.030 A 
ATOM     22  C   UNL     1       5.186  43.848  50.872  1.00  0.00     0.076 A 
ATOM     23  C   UNL     1       6.375  41.531  49.787  1.00  0.00     0.053 A 
ATOM     24  C   UNL     1       6.420  43.885  50.254  1.00  0.00     0.167 A 
ATOM     25  C   UNL     1       6.999  42.756  49.727  1.00  0.00     0.165 A 
ATOM     26  O   UNL     1       7.195  44.990  50.091  1.00  0.00    -0.454 OA
ATOM     27  O   UNL     1       8.211  43.008  49.165  1.00  0.00    -0.454 OA
ATOM     28  C   UNL     1       8.331  44.425  49.404  1.00  0.00     0.468 C 
ENDBRANCH  18  20
ENDBRANCH  11  18
ENDBRANCH   6   8
ENDBRANCH   1   6
TORSDOF 6
ENDMDL
MODEL 17
REMARK VINA RESULT:    -8.353      5.114      8.279
REMARK INTER + INTRA:         -11.953
REMARK INTER:                 -10.597
REMARK INTRA:                  -1.356
REMARK UNBOUND:                -0.671
REMARK SMILES CC(C)CCNc1nc(Nc2ccc3c(c2)OCO3)c2cnn(C)c2n1
REMARK SMILES IDX 5 1 4 2 2 3 1 4 3 5 6 6 7 8 8 9 26 10 9 11 25 12 20 13 23 14
REMARK SMILES IDX 21 15 22 16 24 17 10 18 11 20 12 21 16 22 13 23 15 24 14 25
REMARK SMILES IDX 17 26 19 27 18 28
REMARK H PARENT 6 7 10 19
ROOT
ATOM      1  C   UNL     1       2.138  42.997  52.654  1.00  0.00     0.116 C 
ENDROOT
BRANCH   1   2
ATOM      2  C   UNL     1       2.470  43.892  51.454  1.00  0.00     0.024 C 
BRANCH   2   3
ATOM      3  C   UNL     1       3.730  44.765  51.617  1.00  0.00    -0.016 C 
ATOM      4  C   UNL     1       3.626  46.090  50.860  1.00  0.00     0.007 C 
ATOM      5  C   UNL     1       4.959  43.990  51.136  1.00  0.00     0.007 C 
ENDBRANCH   2   3
ENDBRANCH   1   2
BRANCH   1   6
ATOM      6  N   UNL     1       0.799  43.282  53.136  1.00  0.00    -0.354 N 
ATOM      7  H   UNL     1       0.187  43.746  52.474  1.00  0.00     0.163 HD
BRANCH   6   8
ATOM      8  C   UNL     1       0.745  44.042  54.298  1.00  0.00     0.226 A 
ATOM      9  N   UNL     1       1.914  44.612  54.647  1.00  0.00    -0.195 NA
ATOM     10  N   UNL     1      -0.412  44.156  54.966  1.00  0.00    -0.193 NA
ATOM     11  C   UNL     1       1.995  45.375  55.766  1.00  0.00     0.147 A 
ATOM     12  C   UNL     1      -0.315  44.946  56.044  1.00  0.00     0.165 A 
ATOM     13  C   UNL     1       0.824  45.581  56.499  1.00  0.00     0.082 A 
ATOM     14  N   UNL     1      -1.314  45.299  56.910  1.00  0.00    -0.250 N 
ATOM     15  C   UNL     1       0.393  46.308  57.628  1.00  0.00     0.149 A 
ATOM     16  N   UNL     1      -0.905  46.128  57.900  1.00  0.00    -0.179 NA
ATOM     17  C   UNL     1      -2.695  44.892  56.851  1.00  0.00     0.176 C 
BRANCH  11  18
ATOM     18  N   UNL     1       3.241  45.947  56.054  1.00  0.00    -0.339 N 
ATOM     19  H   UNL     1       3.075  46.853  56.485  1.00  0.00     0.168 HD
BRANCH  18  20
ATOM     20  C   UNL     1       4.422  45.949  55.284  1.00  0.00     0.044 A 
ATOM     21  C   UNL     1       5.332  44.869  55.265  1.00  0.00     0.030 A 
ATOM     22  C   UNL     1       4.693  47.079  54.494  1.00  0.00     0.076 A 
ATOM     23  C   UNL     1       6.497  44.910  54.489  1.00  0.00     0.053 A 
ATOM     24  C   UNL     1       5.848  47.095  53.738  1.00  0.00     0.167 A 
ATOM     25  C   UNL     1       6.726  46.040  53.737  1.00  0.00     0.165 A 
ATOM     26  O   UNL     1       6.255  48.110  52.931  1.00  0.00    -0.454 OA
ATOM     27  O   UNL     1       7.797  46.255  52.928  1.00  0.00    -0.454 OA
ATOM     28  C   UNL     1       7.494  47.573  52.424  1.00  0.00     0.468 C 
ENDBRANCH  18  20
ENDBRANCH  11  18
ENDBRANCH   6   8
ENDBRANCH   1   6
TORSDOF 6
ENDMDL
MODEL 18
REMARK VINA RESULT:    -8.292      3.417      7.185
REMARK INTER + INTRA:         -11.871
REMARK INTER:                 -10.696
REMARK INTRA:                  -1.175
REMARK UNBOUND:                -0.671
REMARK SMILES CC(C)CCNc1nc(Nc2ccc3c(c2)OCO3)c2cnn(C)c2n1
REMARK SMILES IDX 5 1 4 2 2 3 1 4 3 5 6 6 7 8 8 9 26 10 9 11 25 12 20 13 23 14
REMARK SMILES IDX 21 15 22 16 24 17 10 18 11 20 12 21 16 22 13 23 15 24 14 25
REMARK SMILES IDX 17 26 19 27 18 28
REMARK H PARENT 6 7 10 19
ROOT
ATOM      1  C   UNL     1       6.738  42.512  49.714  1.00  0.00     0.116 C 
ENDROOT
BRANCH   1   2
ATOM      2  C   UNL     1       5.800  41.663  50.580  1.00  0.00     0.024 C 
BRANCH   2   3
ATOM      3  C   UNL     1       4.300  41.981  50.427  1.00  0.00    -0.016 C 
ATOM      4  C   UNL     1       3.633  42.314  51.763  1.00  0.00     0.007 C 
ATOM      5  C   UNL     1       3.585  40.795  49.774  1.00  0.00     0.007 C 
ENDBRANCH   2   3
ENDBRANCH   1   2
BRANCH   1   6
ATOM      6  N   UNL     1       6.158  43.823  49.487  1.00  0.00    -0.354 N 
ATOM      7  H   UNL     1       6.339  44.228  48.574  1.00  0.00     0.163 HD
BRANCH   6   8
ATOM      8  C   UNL     1       6.528  44.794  50.411  1.00  0.00     0.226 A 
ATOM      9  N   UNL     1       5.496  45.378  51.048  1.00  0.00    -0.195 NA
ATOM     10  N   UNL     1       7.824  45.075  50.600  1.00  0.00    -0.193 NA
ATOM     11  C   UNL     1       5.723  46.348  51.970  1.00  0.00     0.147 A 
ATOM     12  C   UNL     1       8.024  46.006  51.543  1.00  0.00     0.165 A 
ATOM     13  C   UNL     1       7.050  46.671  52.260  1.00  0.00     0.082 A 
ATOM     14  N   UNL     1       9.222  46.484  52.000  1.00  0.00    -0.250 N 
ATOM     15  C   UNL     1       7.771  47.507  53.138  1.00  0.00     0.149 A 
ATOM     16  N   UNL     1       9.096  47.415  52.974  1.00  0.00    -0.179 NA
ATOM     17  C   UNL     1      10.536  46.088  51.562  1.00  0.00     0.176 C 
BRANCH  11  18
ATOM     18  N   UNL     1       4.599  46.895  52.603  1.00  0.00    -0.339 N 
ATOM     19  H   UNL     1       4.921  47.632  53.227  1.00  0.00     0.168 HD
BRANCH  18  20
ATOM     20  C   UNL     1       3.457  46.247  53.115  1.00  0.00     0.044 A 
ATOM     21  C   UNL     1       3.447  45.565  54.352  1.00  0.00     0.030 A 
ATOM     22  C   UNL     1       2.275  46.296  52.357  1.00  0.00     0.076 A 
ATOM     23  C   UNL     1       2.293  44.930  54.825  1.00  0.00     0.053 A 
ATOM     24  C   UNL     1       1.150  45.662  52.845  1.00  0.00     0.167 A 
ATOM     25  C   UNL     1       1.160  44.996  54.046  1.00  0.00     0.165 A 
ATOM     26  O   UNL     1      -0.063  45.612  52.234  1.00  0.00    -0.454 OA
ATOM     27  O   UNL     1      -0.046  44.442  54.344  1.00  0.00    -0.454 OA
ATOM     28  C   UNL     1      -0.815  44.833  53.187  1.00  0.00     0.468 C 
ENDBRANCH  18  20
ENDBRANCH  11  18
ENDBRANCH   6   8
ENDBRANCH   1   6
TORSDOF 6
ENDMDL
MODEL 19
REMARK VINA RESULT:    -8.137      2.883      6.031
REMARK INTER + INTRA:         -11.662
REMARK INTER:                 -10.725
REMARK INTRA:                  -0.936
REMARK UNBOUND:                -0.671
REMARK SMILES CC(C)CCNc1nc(Nc2ccc3c(c2)OCO3)c2cnn(C)c2n1
REMARK SMILES IDX 5 1 4 2 2 3 1 4 3 5 6 6 7 8 8 9 26 10 9 11 25 12 20 13 23 14
REMARK SMILES IDX 21 15 22 16 24 17 10 18 11 20 12 21 16 22 13 23 15 24 14 25
REMARK SMILES IDX 17 26 19 27 18 28
REMARK H PARENT 6 7 10 19
ROOT
ATOM      1  C   UNL     1       8.233  43.645  49.557  1.00  0.00     0.116 C 
ENDROOT
BRANCH   1   2
ATOM      2  C   UNL     1       7.188  43.272  48.499  1.00  0.00     0.024 C 
BRANCH   2   3
ATOM      3  C   UNL     1       6.070  42.329  48.986  1.00  0.00    -0.016 C 
ATOM      4  C   UNL     1       6.548  41.371  50.078  1.00  0.00     0.007 C 
ATOM      5  C   UNL     1       5.519  41.529  47.803  1.00  0.00     0.007 C 
ENDBRANCH   2   3
ENDBRANCH   1   2
BRANCH   1   6
ATOM      6  N   UNL     1       8.363  45.087  49.646  1.00  0.00    -0.354 N 
ATOM      7  H   UNL     1       9.310  45.445  49.573  1.00  0.00     0.163 HD
BRANCH   6   8
ATOM      8  C   UNL     1       7.833  45.653  50.800  1.00  0.00     0.226 A 
ATOM      9  N   UNL     1       6.489  45.726  50.818  1.00  0.00    -0.195 NA
ATOM     10  N   UNL     1       8.653  46.070  51.775  1.00  0.00    -0.193 NA
ATOM     11  C   UNL     1       5.849  46.264  51.887  1.00  0.00     0.147 A 
ATOM     12  C   UNL     1       7.995  46.560  52.834  1.00  0.00     0.165 A 
ATOM     13  C   UNL     1       6.627  46.685  52.967  1.00  0.00     0.082 A 
ATOM     14  N   UNL     1       8.532  47.027  54.004  1.00  0.00    -0.250 N 
ATOM     15  C   UNL     1       6.447  47.213  54.262  1.00  0.00     0.149 A 
ATOM     16  N   UNL     1       7.603  47.444  54.896  1.00  0.00    -0.179 NA
ATOM     17  C   UNL     1       9.929  47.094  54.349  1.00  0.00     0.176 C 
BRANCH  11  18
ATOM     18  N   UNL     1       4.448  46.290  51.838  1.00  0.00    -0.339 N 
ATOM     19  H   UNL     1       4.134  47.094  52.377  1.00  0.00     0.168 HD
BRANCH  18  20
ATOM     20  C   UNL     1       3.532  45.222  51.919  1.00  0.00     0.044 A 
ATOM     21  C   UNL     1       3.899  43.920  52.325  1.00  0.00     0.030 A 
ATOM     22  C   UNL     1       2.191  45.478  51.589  1.00  0.00     0.076 A 
ATOM     23  C   UNL     1       2.959  42.884  52.390  1.00  0.00     0.053 A 
ATOM     24  C   UNL     1       1.283  44.440  51.660  1.00  0.00     0.167 A 
ATOM     25  C   UNL     1       1.659  43.177  52.049  1.00  0.00     0.165 A 
ATOM     26  O   UNL     1      -0.042  44.521  51.369  1.00  0.00    -0.454 OA
ATOM     27  O   UNL     1       0.617  42.303  52.053  1.00  0.00    -0.454 OA
ATOM     28  C   UNL     1      -0.457  43.161  51.616  1.00  0.00     0.468 C 
ENDBRANCH  18  20
ENDBRANCH  11  18
ENDBRANCH   6   8
ENDBRANCH   1   6
TORSDOF 6
ENDMDL
MODEL 20
REMARK VINA RESULT:    -8.065      1.645      4.480
REMARK INTER + INTRA:         -11.565
REMARK INTER:                 -10.752
REMARK INTRA:                  -0.813
REMARK UNBOUND:                -0.671
REMARK SMILES CC(C)CCNc1nc(Nc2ccc3c(c2)OCO3)c2cnn(C)c2n1
REMARK SMILES IDX 5 1 4 2 2 3 1 4 3 5 6 6 7 8 8 9 26 10 9 11 25 12 20 13 23 14
REMARK SMILES IDX 21 15 22 16 24 17 10 18 11 20 12 21 16 22 13 23 15 24 14 25
REMARK SMILES IDX 17 26 19 27 18 28
REMARK H PARENT 6 7 10 19
ROOT
ATOM      1  C   UNL     1       1.811  43.144  52.545  1.00  0.00     0.116 C 
ENDROOT
BRANCH   1   2
ATOM      2  C   UNL     1       1.151  43.286  53.922  1.00  0.00     0.024 C 
BRANCH   2   3
ATOM      3  C   UNL     1       1.450  44.608  54.657  1.00  0.00    -0.016 C 
ATOM      4  C   UNL     1       0.247  45.122  55.450  1.00  0.00     0.007 C 
ATOM      5  C   UNL     1       1.895  45.670  53.648  1.00  0.00     0.007 C 
ENDBRANCH   2   3
ENDBRANCH   1   2
BRANCH   1   6
ATOM      6  N   UNL     1       2.991  42.304  52.640  1.00  0.00    -0.354 N 
ATOM      7  H   UNL     1       3.341  42.149  53.580  1.00  0.00     0.163 HD
BRANCH   6   8
ATOM      8  C   UNL     1       4.081  42.740  51.897  1.00  0.00     0.226 A 
ATOM      9  N   UNL     1       4.433  41.920  50.889  1.00  0.00    -0.195 NA
ATOM     10  N   UNL     1       4.685  43.894  52.214  1.00  0.00    -0.193 NA
ATOM     11  C   UNL     1       5.486  42.229  50.092  1.00  0.00     0.147 A 
ATOM     12  C   UNL     1       5.696  44.196  51.388  1.00  0.00     0.165 A 
ATOM     13  C   UNL     1       6.146  43.437  50.326  1.00  0.00     0.082 A 
ATOM     14  N   UNL     1       6.485  45.315  51.413  1.00  0.00    -0.250 N 
ATOM     15  C   UNL     1       7.190  44.202  49.766  1.00  0.00     0.149 A 
ATOM     16  N   UNL     1       7.418  45.340  50.433  1.00  0.00    -0.179 NA
ATOM     17  C   UNL     1       6.398  46.415  52.339  1.00  0.00     0.176 C 
BRANCH  11  18
ATOM     18  N   UNL     1       5.779  41.334  49.054  1.00  0.00    -0.339 N 
ATOM     19  H   UNL     1       6.792  41.281  48.966  1.00  0.00     0.168 HD
BRANCH  18  20
ATOM     20  C   UNL     1       5.142  41.172  47.807  1.00  0.00     0.044 A 
ATOM     21  C   UNL     1       5.641  41.731  46.610  1.00  0.00     0.030 A 
ATOM     22  C   UNL     1       3.964  40.409  47.762  1.00  0.00     0.076 A 
ATOM     23  C   UNL     1       4.977  41.550  45.390  1.00  0.00     0.053 A 
ATOM     24  C   UNL     1       3.329  40.246  46.548  1.00  0.00     0.167 A 
ATOM     25  C   UNL     1       3.822  40.802  45.394  1.00  0.00     0.165 A 
ATOM     26  O   UNL     1       2.183  39.545  46.338  1.00  0.00    -0.454 OA
ATOM     27  O   UNL     1       3.049  40.523  44.310  1.00  0.00    -0.454 OA
ATOM     28  C   UNL     1       2.008  39.730  44.918  1.00  0.00     0.468 C 
ENDBRANCH  18  20
ENDBRANCH  11  18
ENDBRANCH   6   8
ENDBRANCH   1   6
TORSDOF 6
ENDMDL
