MODEL 1
REMARK VINA RESULT:    -8.654      0.000      0.000
REMARK INTER + INTRA:         -12.425
REMARK INTER:                 -11.689
REMARK INTRA:                  -0.736
REMARK UNBOUND:                -0.736
REMARK SMILES CCCCNc1nc(Nc2ccccc2F)c2cnn(C)c2n1
REMARK SMILES IDX 5 1 4 3 3 4 2 5 1 6 6 7 7 8 23 9 8 10 22 11 17 12 20 13
REMARK SMILES IDX 18 14 19 15 21 16 9 17 10 19 11 20 15 21 12 22 14 23 13 24
REMARK SMILES IDX 16 25
REMARK H PARENT 5 2 9 18
ROOT
ATOM      1  N   UNL     1       6.307  41.587  49.369  1.00  0.00    -0.354 N 
ATOM      2  H   UNL     1       6.486  40.856  50.050  1.00  0.00     0.163 HD
ENDROOT
BRANCH   1   3
ATOM      3  C   UNL     1       5.416  41.218  48.282  1.00  0.00     0.116 C 
BRANCH   3   4
ATOM      4  C   UNL     1       5.845  41.960  47.012  1.00  0.00     0.021 C 
BRANCH   4   5
ATOM      5  C   UNL     1       5.055  41.542  45.770  1.00  0.00    -0.002 C 
ATOM      6  C   UNL     1       5.192  42.515  44.609  1.00  0.00     0.004 C 
ENDBRANCH   4   5
ENDBRANCH   3   4
ENDBRANCH   1   3
BRANCH   1   7
ATOM      7  C   UNL     1       5.887  42.688  50.109  1.00  0.00     0.226 A 
ATOM      8  N   UNL     1       6.625  43.816  50.099  1.00  0.00    -0.195 NA
ATOM      9  N   UNL     1       4.743  42.505  50.783  1.00  0.00    -0.193 NA
ATOM     10  C   UNL     1       6.219  44.899  50.807  1.00  0.00     0.147 A 
ATOM     11  C   UNL     1       4.381  43.582  51.495  1.00  0.00     0.165 A 
ATOM     12  C   UNL     1       5.051  44.787  51.561  1.00  0.00     0.082 A 
ATOM     13  N   UNL     1       3.288  43.715  52.307  1.00  0.00    -0.250 N 
ATOM     14  C   UNL     1       4.284  45.568  52.450  1.00  0.00     0.149 A 
ATOM     15  N   UNL     1       3.203  44.925  52.910  1.00  0.00    -0.179 NA
ATOM     16  C   UNL     1       2.277  42.722  52.570  1.00  0.00     0.176 C 
BRANCH  10  17
ATOM     17  N   UNL     1       7.052  46.032  50.767  1.00  0.00    -0.337 N 
ATOM     18  H   UNL     1       6.436  46.809  50.535  1.00  0.00     0.168 HD
BRANCH  17  19
ATOM     19  C   UNL     1       7.987  46.425  51.754  1.00  0.00     0.076 A 
ATOM     20  C   UNL     1       9.323  46.040  51.583  1.00  0.00     0.029 A 
ATOM     21  C   UNL     1       7.682  47.275  52.827  1.00  0.00     0.146 A 
ATOM     22  C   UNL     1      10.310  46.442  52.490  1.00  0.00     0.002 A 
ATOM     23  C   UNL     1       8.659  47.680  53.736  1.00  0.00     0.041 A 
ATOM     24  C   UNL     1       9.976  47.257  53.570  1.00  0.00     0.003 A 
ATOM     25  F   UNL     1       6.435  47.742  52.997  1.00  0.00    -0.205 F 
ENDBRANCH  17  19
ENDBRANCH  10  17
ENDBRANCH   1   7
TORSDOF 6
ENDMDL
MODEL 2
REMARK VINA RESULT:    -8.616      1.026      1.433
REMARK INTER + INTRA:         -12.373
REMARK INTER:                 -11.595
REMARK INTRA:                  -0.778
REMARK UNBOUND:                -0.736
REMARK SMILES CCCCNc1nc(Nc2ccccc2F)c2cnn(C)c2n1
REMARK SMILES IDX 5 1 4 3 3 4 2 5 1 6 6 7 7 8 23 9 8 10 22 11 17 12 20 13
REMARK SMILES IDX 18 14 19 15 21 16 9 17 10 19 11 20 15 21 12 22 14 23 13 24
REMARK SMILES IDX 16 25
REMARK H PARENT 5 2 9 18
ROOT
ATOM      1  N   UNL     1       6.325  41.580  49.419  1.00  0.00    -0.354 N 
ATOM      2  H   UNL     1       6.498  40.859  50.111  1.00  0.00     0.163 HD
ENDROOT
BRANCH   1   3
ATOM      3  C   UNL     1       5.421  41.204  48.345  1.00  0.00     0.116 C 
BRANCH   3   4
ATOM      4  C   UNL     1       5.838  41.933  47.064  1.00  0.00     0.021 C 
BRANCH   4   5
ATOM      5  C   UNL     1       5.088  41.451  45.820  1.00  0.00    -0.002 C 
ATOM      6  C   UNL     1       5.163  42.423  44.653  1.00  0.00     0.004 C 
ENDBRANCH   4   5
ENDBRANCH   3   4
ENDBRANCH   1   3
BRANCH   1   7
ATOM      7  C   UNL     1       5.926  42.700  50.142  1.00  0.00     0.226 A 
ATOM      8  N   UNL     1       6.662  43.827  50.081  1.00  0.00    -0.195 NA
ATOM      9  N   UNL     1       4.802  42.534  50.853  1.00  0.00    -0.193 NA
ATOM     10  C   UNL     1       6.277  44.928  50.772  1.00  0.00     0.147 A 
ATOM     11  C   UNL     1       4.460  43.630  51.547  1.00  0.00     0.165 A 
ATOM     12  C   UNL     1       5.131  44.836  51.563  1.00  0.00     0.082 A 
ATOM     13  N   UNL     1       3.391  43.785  52.387  1.00  0.00    -0.250 N 
ATOM     14  C   UNL     1       4.390  45.640  52.452  1.00  0.00     0.149 A 
ATOM     15  N   UNL     1       3.323  45.010  52.960  1.00  0.00    -0.179 NA
ATOM     16  C   UNL     1       2.389  42.799  52.705  1.00  0.00     0.176 C 
BRANCH  10  17
ATOM     17  N   UNL     1       7.108  46.059  50.679  1.00  0.00    -0.337 N 
ATOM     18  H   UNL     1       6.480  46.837  50.484  1.00  0.00     0.168 HD
BRANCH  17  19
ATOM     19  C   UNL     1       8.102  46.452  51.605  1.00  0.00     0.076 A 
ATOM     20  C   UNL     1       7.724  47.300  52.655  1.00  0.00     0.029 A 
ATOM     21  C   UNL     1       9.413  45.952  51.607  1.00  0.00     0.146 A 
ATOM     22  C   UNL     1       8.642  47.683  53.638  1.00  0.00     0.002 A 
ATOM     23  C   UNL     1      10.334  46.328  52.584  1.00  0.00     0.041 A 
ATOM     24  C   UNL     1       9.949  47.201  53.599  1.00  0.00     0.003 A 
ATOM     25  F   UNL     1       9.811  45.074  50.674  1.00  0.00    -0.205 F 
ENDBRANCH  17  19
ENDBRANCH  10  17
ENDBRANCH   1   7
TORSDOF 6
ENDMDL
MODEL 3
REMARK VINA RESULT:    -8.587      1.896      4.647
REMARK INTER + INTRA:         -12.335
REMARK INTER:                 -11.184
REMARK INTRA:                  -1.151
REMARK UNBOUND:                -0.736
REMARK SMILES CCCCNc1nc(Nc2ccccc2F)c2cnn(C)c2n1
REMARK SMILES IDX 5 1 4 3 3 4 2 5 1 6 6 7 7 8 23 9 8 10 22 11 17 12 20 13
REMARK SMILES IDX 18 14 19 15 21 16 9 17 10 19 11 20 15 21 12 22 14 23 13 24
REMARK SMILES IDX 16 25
REMARK H PARENT 5 2 9 18
ROOT
ATOM      1  N   UNL     1       2.570  45.354  52.414  1.00  0.00    -0.354 N 
ATOM      2  H   UNL     1       2.015  44.538  52.651  1.00  0.00     0.163 HD
ENDROOT
BRANCH   1   3
ATOM      3  C   UNL     1       2.871  46.244  53.522  1.00  0.00     0.116 C 
BRANCH   3   4
ATOM      4  C   UNL     1       3.190  45.405  54.763  1.00  0.00     0.021 C 
BRANCH   4   5
ATOM      5  C   UNL     1       4.572  45.694  55.353  1.00  0.00    -0.002 C 
ATOM      6  C   UNL     1       5.634  44.694  54.928  1.00  0.00     0.004 C 
ENDBRANCH   4   5
ENDBRANCH   3   4
ENDBRANCH   1   3
BRANCH   1   7
ATOM      7  C   UNL     1       3.690  44.859  51.752  1.00  0.00     0.226 A 
ATOM      8  N   UNL     1       4.771  45.649  51.595  1.00  0.00    -0.195 NA
ATOM      9  N   UNL     1       3.573  43.595  51.323  1.00  0.00    -0.193 NA
ATOM     10  C   UNL     1       5.873  45.174  50.963  1.00  0.00     0.147 A 
ATOM     11  C   UNL     1       4.667  43.161  50.678  1.00  0.00     0.165 A 
ATOM     12  C   UNL     1       5.827  43.874  50.458  1.00  0.00     0.082 A 
ATOM     13  N   UNL     1       4.861  41.938  50.098  1.00  0.00    -0.250 N 
ATOM     14  C   UNL     1       6.649  42.992  49.726  1.00  0.00     0.149 A 
ATOM     15  N   UNL     1       6.070  41.806  49.502  1.00  0.00    -0.179 NA
ATOM     16  C   UNL     1       3.930  40.839  50.059  1.00  0.00     0.176 C 
BRANCH  10  17
ATOM     17  N   UNL     1       6.953  46.063  50.815  1.00  0.00    -0.337 N 
ATOM     18  H   UNL     1       6.555  46.900  50.392  1.00  0.00     0.168 HD
BRANCH  17  19
ATOM     19  C   UNL     1       7.894  46.417  51.810  1.00  0.00     0.076 A 
ATOM     20  C   UNL     1       9.235  46.069  51.600  1.00  0.00     0.029 A 
ATOM     21  C   UNL     1       7.589  47.198  52.935  1.00  0.00     0.146 A 
ATOM     22  C   UNL     1      10.227  46.438  52.515  1.00  0.00     0.002 A 
ATOM     23  C   UNL     1       8.572  47.570  53.852  1.00  0.00     0.041 A 
ATOM     24  C   UNL     1       9.893  47.183  53.644  1.00  0.00     0.003 A 
ATOM     25  F   UNL     1       6.336  47.630  53.148  1.00  0.00    -0.205 F 
ENDBRANCH  17  19
ENDBRANCH  10  17
ENDBRANCH   1   7
TORSDOF 6
ENDMDL
MODEL 4
REMARK VINA RESULT:    -8.477      2.150      4.871
REMARK INTER + INTRA:         -12.186
REMARK INTER:                 -11.036
REMARK INTRA:                  -1.150
REMARK UNBOUND:                -0.736
REMARK SMILES CCCCNc1nc(Nc2ccccc2F)c2cnn(C)c2n1
REMARK SMILES IDX 5 1 4 3 3 4 2 5 1 6 6 7 7 8 23 9 8 10 22 11 17 12 20 13
REMARK SMILES IDX 18 14 19 15 21 16 9 17 10 19 11 20 15 21 12 22 14 23 13 24
REMARK SMILES IDX 16 25
REMARK H PARENT 5 2 9 18
ROOT
ATOM      1  N   UNL     1       2.710  45.486  52.560  1.00  0.00    -0.354 N 
ATOM      2  H   UNL     1       2.187  44.661  52.834  1.00  0.00     0.163 HD
ENDROOT
BRANCH   1   3
ATOM      3  C   UNL     1       3.036  46.402  53.641  1.00  0.00     0.116 C 
BRANCH   3   4
ATOM      4  C   UNL     1       3.404  45.591  54.887  1.00  0.00     0.021 C 
BRANCH   4   5
ATOM      5  C   UNL     1       4.861  45.771  55.319  1.00  0.00    -0.002 C 
ATOM      6  C   UNL     1       5.747  44.586  54.970  1.00  0.00     0.004 C 
ENDBRANCH   4   5
ENDBRANCH   3   4
ENDBRANCH   1   3
BRANCH   1   7
ATOM      7  C   UNL     1       3.812  45.009  51.858  1.00  0.00     0.226 A 
ATOM      8  N   UNL     1       4.869  45.819  51.650  1.00  0.00    -0.195 NA
ATOM      9  N   UNL     1       3.705  43.739  51.445  1.00  0.00    -0.193 NA
ATOM     10  C   UNL     1       5.954  45.362  50.977  1.00  0.00     0.147 A 
ATOM     11  C   UNL     1       4.780  43.322  50.759  1.00  0.00     0.165 A 
ATOM     12  C   UNL     1       5.916  44.056  50.486  1.00  0.00     0.082 A 
ATOM     13  N   UNL     1       4.977  42.098  50.182  1.00  0.00    -0.250 N 
ATOM     14  C   UNL     1       6.725  43.186  49.729  1.00  0.00     0.149 A 
ATOM     15  N   UNL     1       6.163  41.985  49.538  1.00  0.00    -0.179 NA
ATOM     16  C   UNL     1       4.068  40.979  50.190  1.00  0.00     0.176 C 
BRANCH  10  17
ATOM     17  N   UNL     1       7.008  46.272  50.778  1.00  0.00    -0.337 N 
ATOM     18  H   UNL     1       6.567  47.121  50.430  1.00  0.00     0.168 HD
BRANCH  17  19
ATOM     19  C   UNL     1       8.028  46.595  51.704  1.00  0.00     0.076 A 
ATOM     20  C   UNL     1       7.697  47.428  52.782  1.00  0.00     0.029 A 
ATOM     21  C   UNL     1       9.315  46.038  51.678  1.00  0.00     0.146 A 
ATOM     22  C   UNL     1       8.641  47.742  53.765  1.00  0.00     0.002 A 
ATOM     23  C   UNL     1      10.261  46.346  52.655  1.00  0.00     0.041 A 
ATOM     24  C   UNL     1       9.925  47.205  53.698  1.00  0.00     0.003 A 
ATOM     25  F   UNL     1       9.665  45.171  50.717  1.00  0.00    -0.205 F 
ENDBRANCH  17  19
ENDBRANCH  10  17
ENDBRANCH   1   7
TORSDOF 6
ENDMDL
MODEL 5
REMARK VINA RESULT:    -8.464      2.198      6.887
REMARK INTER + INTRA:         -12.169
REMARK INTER:                 -11.396
REMARK INTRA:                  -0.773
REMARK UNBOUND:                -0.736
REMARK SMILES CCCCNc1nc(Nc2ccccc2F)c2cnn(C)c2n1
REMARK SMILES IDX 5 1 4 3 3 4 2 5 1 6 6 7 7 8 23 9 8 10 22 11 17 12 20 13
REMARK SMILES IDX 18 14 19 15 21 16 9 17 10 19 11 20 15 21 12 22 14 23 13 24
REMARK SMILES IDX 16 25
REMARK H PARENT 5 2 9 18
ROOT
ATOM      1  N   UNL     1       7.875  45.580  50.371  1.00  0.00    -0.354 N 
ATOM      2  H   UNL     1       7.623  46.087  49.530  1.00  0.00     0.163 HD
ENDROOT
BRANCH   1   3
ATOM      3  C   UNL     1       8.083  46.401  51.552  1.00  0.00     0.116 C 
BRANCH   3   4
ATOM      4  C   UNL     1       9.586  46.608  51.756  1.00  0.00     0.021 C 
BRANCH   4   5
ATOM      5  C   UNL     1       9.982  46.776  53.225  1.00  0.00    -0.002 C 
ATOM      6  C   UNL     1       9.088  47.741  53.987  1.00  0.00     0.004 C 
ENDBRANCH   4   5
ENDBRANCH   3   4
ENDBRANCH   1   3
BRANCH   1   7
ATOM      7  C   UNL     1       6.899  44.598  50.517  1.00  0.00     0.226 A 
ATOM      8  N   UNL     1       6.901  43.532  49.692  1.00  0.00    -0.195 NA
ATOM      9  N   UNL     1       6.023  44.823  51.506  1.00  0.00    -0.193 NA
ATOM     10  C   UNL     1       5.963  42.563  49.832  1.00  0.00     0.147 A 
ATOM     11  C   UNL     1       5.092  43.863  51.604  1.00  0.00     0.165 A 
ATOM     12  C   UNL     1       4.993  42.731  50.821  1.00  0.00     0.082 A 
ATOM     13  N   UNL     1       4.045  43.804  52.483  1.00  0.00    -0.250 N 
ATOM     14  C   UNL     1       3.846  42.067  51.304  1.00  0.00     0.149 A 
ATOM     15  N   UNL     1       3.261  42.712  52.321  1.00  0.00    -0.179 NA
ATOM     16  C   UNL     1       3.719  44.764  53.508  1.00  0.00     0.176 C 
BRANCH  10  17
ATOM     17  N   UNL     1       6.013  41.494  48.920  1.00  0.00    -0.337 N 
ATOM     18  H   UNL     1       5.956  40.652  49.491  1.00  0.00     0.168 HD
BRANCH  17  19
ATOM     19  C   UNL     1       5.232  41.347  47.750  1.00  0.00     0.076 A 
ATOM     20  C   UNL     1       5.723  41.896  46.558  1.00  0.00     0.029 A 
ATOM     21  C   UNL     1       4.056  40.585  47.684  1.00  0.00     0.146 A 
ATOM     22  C   UNL     1       5.030  41.740  45.353  1.00  0.00     0.002 A 
ATOM     23  C   UNL     1       3.359  40.424  46.487  1.00  0.00     0.041 A 
ATOM     24  C   UNL     1       3.844  41.008  45.319  1.00  0.00     0.003 A 
ATOM     25  F   UNL     1       3.579  39.967  48.775  1.00  0.00    -0.205 F 
ENDBRANCH  17  19
ENDBRANCH  10  17
ENDBRANCH   1   7
TORSDOF 6
ENDMDL
MODEL 6
REMARK VINA RESULT:    -8.456      1.921      5.105
REMARK INTER + INTRA:         -12.158
REMARK INTER:                 -11.403
REMARK INTRA:                  -0.755
REMARK UNBOUND:                -0.736
REMARK SMILES CCCCNc1nc(Nc2ccccc2F)c2cnn(C)c2n1
REMARK SMILES IDX 5 1 4 3 3 4 2 5 1 6 6 7 7 8 23 9 8 10 22 11 17 12 20 13
REMARK SMILES IDX 18 14 19 15 21 16 9 17 10 19 11 20 15 21 12 22 14 23 13 24
REMARK SMILES IDX 16 25
REMARK H PARENT 5 2 9 18
ROOT
ATOM      1  N   UNL     1       2.625  43.795  53.636  1.00  0.00    -0.354 N 
ATOM      2  H   UNL     1       2.972  44.054  54.554  1.00  0.00     0.163 HD
ENDROOT
BRANCH   1   3
ATOM      3  C   UNL     1       1.393  44.451  53.231  1.00  0.00     0.116 C 
BRANCH   3   4
ATOM      4  C   UNL     1       0.607  44.852  54.483  1.00  0.00     0.021 C 
BRANCH   4   5
ATOM      5  C   UNL     1       1.472  44.933  55.742  1.00  0.00    -0.002 C 
ATOM      6  C   UNL     1       0.689  45.303  56.992  1.00  0.00     0.004 C 
ENDBRANCH   4   5
ENDBRANCH   3   4
ENDBRANCH   1   3
BRANCH   1   7
ATOM      7  C   UNL     1       3.694  43.992  52.768  1.00  0.00     0.226 A 
ATOM      8  N   UNL     1       4.424  45.122  52.858  1.00  0.00    -0.195 NA
ATOM      9  N   UNL     1       3.897  42.995  51.896  1.00  0.00    -0.193 NA
ATOM     10  C   UNL     1       5.475  45.320  52.026  1.00  0.00     0.147 A 
ATOM     11  C   UNL     1       4.926  43.230  51.068  1.00  0.00     0.165 A 
ATOM     12  C   UNL     1       5.742  44.342  51.065  1.00  0.00     0.082 A 
ATOM     13  N   UNL     1       5.377  42.432  50.053  1.00  0.00    -0.250 N 
ATOM     14  C   UNL     1       6.641  44.119  50.003  1.00  0.00     0.149 A 
ATOM     15  N   UNL     1       6.429  42.953  49.378  1.00  0.00    -0.179 NA
ATOM     16  C   UNL     1       4.846  41.152  49.654  1.00  0.00     0.176 C 
BRANCH  10  17
ATOM     17  N   UNL     1       6.175  46.532  52.163  1.00  0.00    -0.337 N 
ATOM     18  H   UNL     1       5.518  47.172  52.607  1.00  0.00     0.168 HD
BRANCH  17  19
ATOM     19  C   UNL     1       7.469  46.701  52.710  1.00  0.00     0.076 A 
ATOM     20  C   UNL     1       8.564  46.644  51.836  1.00  0.00     0.029 A 
ATOM     21  C   UNL     1       7.716  47.039  54.048  1.00  0.00     0.146 A 
ATOM     22  C   UNL     1       9.866  46.858  52.300  1.00  0.00     0.002 A 
ATOM     23  C   UNL     1       9.011  47.255  54.518  1.00  0.00     0.041 A 
ATOM     24  C   UNL     1      10.090  47.158  53.643  1.00  0.00     0.003 A 
ATOM     25  F   UNL     1       6.701  47.187  54.914  1.00  0.00    -0.205 F 
ENDBRANCH  17  19
ENDBRANCH  10  17
ENDBRANCH   1   7
TORSDOF 6
ENDMDL
MODEL 7
REMARK VINA RESULT:    -8.432      2.055      4.591
REMARK INTER + INTRA:         -12.125
REMARK INTER:                 -11.244
REMARK INTRA:                  -0.881
REMARK UNBOUND:                -0.736
REMARK SMILES CCCCNc1nc(Nc2ccccc2F)c2cnn(C)c2n1
REMARK SMILES IDX 5 1 4 3 3 4 2 5 1 6 6 7 7 8 23 9 8 10 22 11 17 12 20 13
REMARK SMILES IDX 18 14 19 15 21 16 9 17 10 19 11 20 15 21 12 22 14 23 13 24
REMARK SMILES IDX 16 25
REMARK H PARENT 5 2 9 18
ROOT
ATOM      1  N   UNL     1       2.607  44.218  54.116  1.00  0.00    -0.354 N 
ATOM      2  H   UNL     1       3.093  44.166  55.005  1.00  0.00     0.163 HD
ENDROOT
BRANCH   1   3
ATOM      3  C   UNL     1       1.616  45.276  54.011  1.00  0.00     0.116 C 
BRANCH   3   4
ATOM      4  C   UNL     1       0.355  44.715  53.349  1.00  0.00     0.021 C 
BRANCH   4   5
ATOM      5  C   UNL     1      -0.072  43.357  53.911  1.00  0.00    -0.002 C 
ATOM      6  C   UNL     1      -0.179  42.270  52.854  1.00  0.00     0.004 C 
ENDBRANCH   4   5
ENDBRANCH   3   4
ENDBRANCH   1   3
BRANCH   1   7
ATOM      7  C   UNL     1       3.608  44.269  53.150  1.00  0.00     0.226 A 
ATOM      8  N   UNL     1       4.421  45.343  53.093  1.00  0.00    -0.195 NA
ATOM      9  N   UNL     1       3.663  43.200  52.344  1.00  0.00    -0.193 NA
ATOM     10  C   UNL     1       5.408  45.399  52.164  1.00  0.00     0.147 A 
ATOM     11  C   UNL     1       4.629  43.295  51.419  1.00  0.00     0.165 A 
ATOM     12  C   UNL     1       5.519  44.338  51.264  1.00  0.00     0.082 A 
ATOM     13  N   UNL     1       4.932  42.394  50.435  1.00  0.00    -0.250 N 
ATOM     14  C   UNL     1       6.304  43.970  50.152  1.00  0.00     0.149 A 
ATOM     15  N   UNL     1       5.956  42.783  49.639  1.00  0.00    -0.179 NA
ATOM     16  C   UNL     1       4.278  41.135  50.182  1.00  0.00     0.176 C 
BRANCH  10  17
ATOM     17  N   UNL     1       6.201  46.560  52.150  1.00  0.00    -0.337 N 
ATOM     18  H   UNL     1       5.604  47.297  52.521  1.00  0.00     0.168 HD
BRANCH  17  19
ATOM     19  C   UNL     1       7.514  46.689  52.660  1.00  0.00     0.076 A 
ATOM     20  C   UNL     1       8.582  46.607  51.755  1.00  0.00     0.029 A 
ATOM     21  C   UNL     1       7.809  47.013  53.993  1.00  0.00     0.146 A 
ATOM     22  C   UNL     1       9.902  46.782  52.183  1.00  0.00     0.002 A 
ATOM     23  C   UNL     1       9.122  47.190  54.426  1.00  0.00     0.041 A 
ATOM     24  C   UNL     1      10.172  47.068  53.520  1.00  0.00     0.003 A 
ATOM     25  F   UNL     1       6.824  47.185  54.888  1.00  0.00    -0.205 F 
ENDBRANCH  17  19
ENDBRANCH  10  17
ENDBRANCH   1   7
TORSDOF 6
ENDMDL
MODEL 8
REMARK VINA RESULT:    -8.422      2.646      6.662
REMARK INTER + INTRA:         -12.111
REMARK INTER:                 -11.310
REMARK INTRA:                  -0.802
REMARK UNBOUND:                -0.736
REMARK SMILES CCCCNc1nc(Nc2ccccc2F)c2cnn(C)c2n1
REMARK SMILES IDX 5 1 4 3 3 4 2 5 1 6 6 7 7 8 23 9 8 10 22 11 17 12 20 13
REMARK SMILES IDX 18 14 19 15 21 16 9 17 10 19 11 20 15 21 12 22 14 23 13 24
REMARK SMILES IDX 16 25
REMARK H PARENT 5 2 9 18
ROOT
ATOM      1  N   UNL     1       4.717  46.959  54.964  1.00  0.00    -0.354 N 
ATOM      2  H   UNL     1       4.102  47.598  54.471  1.00  0.00     0.163 HD
ENDROOT
BRANCH   1   3
ATOM      3  C   UNL     1       4.104  45.710  55.386  1.00  0.00     0.116 C 
BRANCH   3   4
ATOM      4  C   UNL     1       2.611  45.747  55.046  1.00  0.00     0.021 C 
BRANCH   4   5
ATOM      5  C   UNL     1       2.288  45.164  53.669  1.00  0.00    -0.002 C 
ATOM      6  C   UNL     1       1.983  46.221  52.619  1.00  0.00     0.004 C 
ENDBRANCH   4   5
ENDBRANCH   3   4
ENDBRANCH   1   3
BRANCH   1   7
ATOM      7  C   UNL     1       5.827  46.805  54.139  1.00  0.00     0.226 A 
ATOM      8  N   UNL     1       5.670  46.298  52.900  1.00  0.00    -0.195 NA
ATOM      9  N   UNL     1       6.987  47.195  54.686  1.00  0.00    -0.193 NA
ATOM     10  C   UNL     1       6.742  46.154  52.084  1.00  0.00     0.147 A 
ATOM     11  C   UNL     1       8.034  47.016  53.866  1.00  0.00     0.165 A 
ATOM     12  C   UNL     1       7.996  46.510  52.583  1.00  0.00     0.082 A 
ATOM     13  N   UNL     1       9.350  47.284  54.125  1.00  0.00    -0.250 N 
ATOM     14  C   UNL     1       9.343  46.504  52.166  1.00  0.00     0.149 A 
ATOM     15  N   UNL     1      10.179  46.977  53.099  1.00  0.00    -0.179 NA
ATOM     16  C   UNL     1       9.901  47.827  55.341  1.00  0.00     0.176 C 
BRANCH  10  17
ATOM     17  N   UNL     1       6.504  45.597  50.814  1.00  0.00    -0.337 N 
ATOM     18  H   UNL     1       7.274  45.921  50.232  1.00  0.00     0.168 HD
BRANCH  17  19
ATOM     19  C   UNL     1       6.211  44.242  50.531  1.00  0.00     0.076 A 
ATOM     20  C   UNL     1       5.044  43.694  51.082  1.00  0.00     0.029 A 
ATOM     21  C   UNL     1       6.949  43.451  49.639  1.00  0.00     0.146 A 
ATOM     22  C   UNL     1       4.664  42.378  50.797  1.00  0.00     0.002 A 
ATOM     23  C   UNL     1       6.576  42.138  49.350  1.00  0.00     0.041 A 
ATOM     24  C   UNL     1       5.433  41.599  49.936  1.00  0.00     0.003 A 
ATOM     25  F   UNL     1       8.030  43.947  49.019  1.00  0.00    -0.205 F 
ENDBRANCH  17  19
ENDBRANCH  10  17
ENDBRANCH   1   7
TORSDOF 6
ENDMDL
MODEL 9
REMARK VINA RESULT:    -8.378      1.706      2.187
REMARK INTER + INTRA:         -12.052
REMARK INTER:                 -11.313
REMARK INTRA:                  -0.738
REMARK UNBOUND:                -0.736
REMARK SMILES CCCCNc1nc(Nc2ccccc2F)c2cnn(C)c2n1
REMARK SMILES IDX 5 1 4 3 3 4 2 5 1 6 6 7 7 8 23 9 8 10 22 11 17 12 20 13
REMARK SMILES IDX 18 14 19 15 21 16 9 17 10 19 11 20 15 21 12 22 14 23 13 24
REMARK SMILES IDX 16 25
REMARK H PARENT 5 2 9 18
ROOT
ATOM      1  N   UNL     1       4.620  41.970  51.472  1.00  0.00    -0.354 N 
ATOM      2  H   UNL     1       3.875  41.515  51.988  1.00  0.00     0.163 HD
ENDROOT
BRANCH   1   3
ATOM      3  C   UNL     1       4.764  41.549  50.088  1.00  0.00     0.116 C 
BRANCH   3   4
ATOM      4  C   UNL     1       6.252  41.527  49.726  1.00  0.00     0.021 C 
BRANCH   4   5
ATOM      5  C   UNL     1       6.641  42.583  48.691  1.00  0.00    -0.002 C 
ATOM      6  C   UNL     1       7.830  43.433  49.108  1.00  0.00     0.004 C 
ENDBRANCH   4   5
ENDBRANCH   3   4
ENDBRANCH   1   3
BRANCH   1   7
ATOM      7  C   UNL     1       4.405  43.335  51.639  1.00  0.00     0.226 A 
ATOM      8  N   UNL     1       5.413  44.200  51.406  1.00  0.00    -0.195 NA
ATOM      9  N   UNL     1       3.165  43.662  52.028  1.00  0.00    -0.193 NA
ATOM     10  C   UNL     1       5.212  45.532  51.553  1.00  0.00     0.147 A 
ATOM     11  C   UNL     1       3.003  44.984  52.192  1.00  0.00     0.165 A 
ATOM     12  C   UNL     1       3.955  45.960  51.984  1.00  0.00     0.082 A 
ATOM     13  N   UNL     1       1.877  45.640  52.605  1.00  0.00    -0.250 N 
ATOM     14  C   UNL     1       3.302  47.165  52.314  1.00  0.00     0.149 A 
ATOM     15  N   UNL     1       2.031  46.982  52.692  1.00  0.00    -0.179 NA
ATOM     16  C   UNL     1       0.607  45.050  52.950  1.00  0.00     0.176 C 
BRANCH  10  17
ATOM     17  N   UNL     1       6.316  46.371  51.316  1.00  0.00    -0.337 N 
ATOM     18  H   UNL     1       5.919  47.290  51.128  1.00  0.00     0.168 HD
BRANCH  17  19
ATOM     19  C   UNL     1       7.470  46.493  52.126  1.00  0.00     0.076 A 
ATOM     20  C   UNL     1       8.719  46.293  51.523  1.00  0.00     0.029 A 
ATOM     21  C   UNL     1       7.448  46.920  53.462  1.00  0.00     0.146 A 
ATOM     22  C   UNL     1       9.903  46.453  52.250  1.00  0.00     0.002 A 
ATOM     23  C   UNL     1       8.625  47.082  54.193  1.00  0.00     0.041 A 
ATOM     24  C   UNL     1       9.855  46.843  53.587  1.00  0.00     0.003 A 
ATOM     25  F   UNL     1       6.287  47.205  54.070  1.00  0.00    -0.205 F 
ENDBRANCH  17  19
ENDBRANCH  10  17
ENDBRANCH   1   7
TORSDOF 6
ENDMDL
MODEL 10
REMARK VINA RESULT:    -8.143      2.281      6.634
REMARK INTER + INTRA:         -11.735
REMARK INTER:                 -11.226
REMARK INTRA:                  -0.508
REMARK UNBOUND:                -0.736
REMARK SMILES CCCCNc1nc(Nc2ccccc2F)c2cnn(C)c2n1
REMARK SMILES IDX 5 1 4 3 3 4 2 5 1 6 6 7 7 8 23 9 8 10 22 11 17 12 20 13
REMARK SMILES IDX 18 14 19 15 21 16 9 17 10 19 11 20 15 21 12 22 14 23 13 24
REMARK SMILES IDX 16 25
REMARK H PARENT 5 2 9 18
ROOT
ATOM      1  N   UNL     1       8.751  47.549  51.727  1.00  0.00    -0.354 N 
ATOM      2  H   UNL     1       8.547  48.333  52.338  1.00  0.00     0.163 HD
ENDROOT
BRANCH   1   3
ATOM      3  C   UNL     1       9.937  46.784  52.074  1.00  0.00     0.116 C 
BRANCH   3   4
ATOM      4  C   UNL     1       9.857  46.382  53.549  1.00  0.00     0.021 C 
BRANCH   4   5
ATOM      5  C   UNL     1       9.703  47.574  54.496  1.00  0.00    -0.002 C 
ATOM      6  C   UNL     1      10.616  47.506  55.710  1.00  0.00     0.004 C 
ENDBRANCH   4   5
ENDBRANCH   3   4
ENDBRANCH   1   3
BRANCH   1   7
ATOM      7  C   UNL     1       7.577  46.802  51.681  1.00  0.00     0.226 A 
ATOM      8  N   UNL     1       6.501  47.211  52.382  1.00  0.00    -0.195 NA
ATOM      9  N   UNL     1       7.642  45.707  50.911  1.00  0.00    -0.193 NA
ATOM     10  C   UNL     1       5.349  46.499  52.336  1.00  0.00     0.147 A 
ATOM     11  C   UNL     1       6.497  45.007  50.906  1.00  0.00     0.165 A 
ATOM     12  C   UNL     1       5.336  45.326  51.579  1.00  0.00     0.082 A 
ATOM     13  N   UNL     1       6.240  43.835  50.248  1.00  0.00    -0.250 N 
ATOM     14  C   UNL     1       4.449  44.275  51.269  1.00  0.00     0.149 A 
ATOM     15  N   UNL     1       4.989  43.360  50.455  1.00  0.00    -0.179 NA
ATOM     16  C   UNL     1       7.148  43.097  49.407  1.00  0.00     0.176 C 
BRANCH  10  17
ATOM     17  N   UNL     1       4.276  46.974  53.112  1.00  0.00    -0.337 N 
ATOM     18  H   UNL     1       4.004  47.855  52.680  1.00  0.00     0.168 HD
BRANCH  17  19
ATOM     19  C   UNL     1       3.129  46.243  53.501  1.00  0.00     0.076 A 
ATOM     20  C   UNL     1       2.002  46.299  52.670  1.00  0.00     0.029 A 
ATOM     21  C   UNL     1       3.090  45.372  54.599  1.00  0.00     0.146 A 
ATOM     22  C   UNL     1       0.853  45.557  52.964  1.00  0.00     0.002 A 
ATOM     23  C   UNL     1       1.949  44.628  54.899  1.00  0.00     0.041 A 
ATOM     24  C   UNL     1       0.826  44.725  54.082  1.00  0.00     0.003 A 
ATOM     25  F   UNL     1       4.166  45.214  55.385  1.00  0.00    -0.205 F 
ENDBRANCH  17  19
ENDBRANCH  10  17
ENDBRANCH   1   7
TORSDOF 6
ENDMDL
MODEL 11
REMARK VINA RESULT:    -8.095      2.156      6.929
REMARK INTER + INTRA:         -11.669
REMARK INTER:                 -10.877
REMARK INTRA:                  -0.792
REMARK UNBOUND:                -0.736
REMARK SMILES CCCCNc1nc(Nc2ccccc2F)c2cnn(C)c2n1
REMARK SMILES IDX 5 1 4 3 3 4 2 5 1 6 6 7 7 8 23 9 8 10 22 11 17 12 20 13
REMARK SMILES IDX 18 14 19 15 21 16 9 17 10 19 11 20 15 21 12 22 14 23 13 24
REMARK SMILES IDX 16 25
REMARK H PARENT 5 2 9 18
ROOT
ATOM      1  N   UNL     1       6.409  47.161  52.588  1.00  0.00    -0.354 N 
ATOM      2  H   UNL     1       6.382  47.271  53.596  1.00  0.00     0.163 HD
ENDROOT
BRANCH   1   3
ATOM      3  C   UNL     1       7.725  47.294  51.985  1.00  0.00     0.116 C 
BRANCH   3   4
ATOM      4  C   UNL     1       8.714  47.777  53.049  1.00  0.00     0.021 C 
BRANCH   4   5
ATOM      5  C   UNL     1       9.923  46.855  53.217  1.00  0.00    -0.002 C 
ATOM      6  C   UNL     1      10.310  46.123  51.942  1.00  0.00     0.004 C 
ENDBRANCH   4   5
ENDBRANCH   3   4
ENDBRANCH   1   3
BRANCH   1   7
ATOM      7  C   UNL     1       5.778  45.948  52.330  1.00  0.00     0.226 A 
ATOM      8  N   UNL     1       4.723  45.575  53.083  1.00  0.00    -0.195 NA
ATOM      9  N   UNL     1       6.305  45.248  51.316  1.00  0.00    -0.193 NA
ATOM     10  C   UNL     1       4.092  44.401  52.834  1.00  0.00     0.147 A 
ATOM     11  C   UNL     1       5.678  44.079  51.111  1.00  0.00     0.165 A 
ATOM     12  C   UNL     1       4.593  43.594  51.812  1.00  0.00     0.082 A 
ATOM     13  N   UNL     1       5.981  43.125  50.179  1.00  0.00    -0.250 N 
ATOM     14  C   UNL     1       4.333  42.336  51.231  1.00  0.00     0.149 A 
ATOM     15  N   UNL     1       5.172  42.039  50.231  1.00  0.00    -0.179 NA
ATOM     16  C   UNL     1       7.042  43.170  49.205  1.00  0.00     0.176 C 
BRANCH  10  17
ATOM     17  N   UNL     1       3.016  44.068  53.676  1.00  0.00    -0.337 N 
ATOM     18  H   UNL     1       3.119  44.668  54.492  1.00  0.00     0.168 HD
BRANCH  17  19
ATOM     19  C   UNL     1       1.654  43.975  53.304  1.00  0.00     0.076 A 
ATOM     20  C   UNL     1       1.012  42.739  53.464  1.00  0.00     0.029 A 
ATOM     21  C   UNL     1       0.876  45.069  52.899  1.00  0.00     0.146 A 
ATOM     22  C   UNL     1      -0.347  42.591  53.170  1.00  0.00     0.002 A 
ATOM     23  C   UNL     1      -0.480  44.930  52.604  1.00  0.00     0.041 A 
ATOM     24  C   UNL     1      -1.092  43.686  52.735  1.00  0.00     0.003 A 
ATOM     25  F   UNL     1       1.416  46.294  52.805  1.00  0.00    -0.205 F 
ENDBRANCH  17  19
ENDBRANCH  10  17
ENDBRANCH   1   7
TORSDOF 6
ENDMDL
MODEL 12
REMARK VINA RESULT:    -8.090      2.455      6.196
REMARK INTER + INTRA:         -11.663
REMARK INTER:                 -10.940
REMARK INTRA:                  -0.723
REMARK UNBOUND:                -0.736
REMARK SMILES CCCCNc1nc(Nc2ccccc2F)c2cnn(C)c2n1
REMARK SMILES IDX 5 1 4 3 3 4 2 5 1 6 6 7 7 8 23 9 8 10 22 11 17 12 20 13
REMARK SMILES IDX 18 14 19 15 21 16 9 17 10 19 11 20 15 21 12 22 14 23 13 24
REMARK SMILES IDX 16 25
REMARK H PARENT 5 2 9 18
ROOT
ATOM      1  N   UNL     1       6.249  46.938  54.777  1.00  0.00    -0.354 N 
ATOM      2  H   UNL     1       6.371  46.659  55.745  1.00  0.00     0.163 HD
ENDROOT
BRANCH   1   3
ATOM      3  C   UNL     1       7.414  46.755  53.928  1.00  0.00     0.116 C 
BRANCH   3   4
ATOM      4  C   UNL     1       8.590  47.539  54.519  1.00  0.00     0.021 C 
BRANCH   4   5
ATOM      5  C   UNL     1       9.944  47.136  53.933  1.00  0.00    -0.002 C 
ATOM      6  C   UNL     1       9.877  46.736  52.468  1.00  0.00     0.004 C 
ENDBRANCH   4   5
ENDBRANCH   3   4
ENDBRANCH   1   3
BRANCH   1   7
ATOM      7  C   UNL     1       5.109  46.271  54.340  1.00  0.00     0.226 A 
ATOM      8  N   UNL     1       5.077  45.754  53.096  1.00  0.00    -0.195 NA
ATOM      9  N   UNL     1       4.119  46.208  55.242  1.00  0.00    -0.193 NA
ATOM     10  C   UNL     1       3.976  45.092  52.663  1.00  0.00     0.147 A 
ATOM     11  C   UNL     1       3.033  45.572  54.777  1.00  0.00     0.165 A 
ATOM     12  C   UNL     1       2.884  45.003  53.529  1.00  0.00     0.082 A 
ATOM     13  N   UNL     1       1.849  45.360  55.429  1.00  0.00    -0.250 N 
ATOM     14  C   UNL     1       1.572  44.489  53.529  1.00  0.00     0.149 A 
ATOM     15  N   UNL     1       0.930  44.699  54.686  1.00  0.00    -0.179 NA
ATOM     16  C   UNL     1       1.511  45.772  56.769  1.00  0.00     0.176 C 
BRANCH  10  17
ATOM     17  N   UNL     1       4.006  44.601  51.346  1.00  0.00    -0.337 N 
ATOM     18  H   UNL     1       4.038  45.428  50.752  1.00  0.00     0.168 HD
BRANCH  17  19
ATOM     19  C   UNL     1       4.871  43.602  50.839  1.00  0.00     0.076 A 
ATOM     20  C   UNL     1       4.419  42.275  50.850  1.00  0.00     0.029 A 
ATOM     21  C   UNL     1       6.099  43.870  50.218  1.00  0.00     0.146 A 
ATOM     22  C   UNL     1       5.198  41.245  50.314  1.00  0.00     0.002 A 
ATOM     23  C   UNL     1       6.882  42.848  49.681  1.00  0.00     0.041 A 
ATOM     24  C   UNL     1       6.433  41.532  49.734  1.00  0.00     0.003 A 
ATOM     25  F   UNL     1       6.548  45.130  50.105  1.00  0.00    -0.205 F 
ENDBRANCH  17  19
ENDBRANCH  10  17
ENDBRANCH   1   7
TORSDOF 6
ENDMDL
MODEL 13
REMARK VINA RESULT:    -8.035      1.940      2.723
REMARK INTER + INTRA:         -11.589
REMARK INTER:                 -10.581
REMARK INTRA:                  -1.007
REMARK UNBOUND:                -0.736
REMARK SMILES CCCCNc1nc(Nc2ccccc2F)c2cnn(C)c2n1
REMARK SMILES IDX 5 1 4 3 3 4 2 5 1 6 6 7 7 8 23 9 8 10 22 11 17 12 20 13
REMARK SMILES IDX 18 14 19 15 21 16 9 17 10 19 11 20 15 21 12 22 14 23 13 24
REMARK SMILES IDX 16 25
REMARK H PARENT 5 2 9 18
ROOT
ATOM      1  N   UNL     1       3.861  42.895  50.728  1.00  0.00    -0.354 N 
ATOM      2  H   UNL     1       4.124  43.222  49.803  1.00  0.00     0.163 HD
ENDROOT
BRANCH   1   3
ATOM      3  C   UNL     1       4.476  41.645  51.142  1.00  0.00     0.116 C 
BRANCH   3   4
ATOM      4  C   UNL     1       5.834  41.504  50.450  1.00  0.00     0.021 C 
BRANCH   4   5
ATOM      5  C   UNL     1       5.819  41.951  48.987  1.00  0.00    -0.002 C 
ATOM      6  C   UNL     1       6.883  42.985  48.657  1.00  0.00     0.004 C 
ENDBRANCH   4   5
ENDBRANCH   3   4
ENDBRANCH   1   3
BRANCH   1   7
ATOM      7  C   UNL     1       4.105  43.967  51.581  1.00  0.00     0.226 A 
ATOM      8  N   UNL     1       5.047  44.875  51.256  1.00  0.00    -0.195 NA
ATOM      9  N   UNL     1       3.343  43.988  52.684  1.00  0.00    -0.193 NA
ATOM     10  C   UNL     1       5.285  45.930  52.073  1.00  0.00     0.147 A 
ATOM     11  C   UNL     1       3.619  45.027  53.487  1.00  0.00     0.165 A 
ATOM     12  C   UNL     1       4.555  46.015  53.260  1.00  0.00     0.082 A 
ATOM     13  N   UNL     1       3.046  45.322  54.693  1.00  0.00    -0.250 N 
ATOM     14  C   UNL     1       4.473  46.845  54.396  1.00  0.00     0.149 A 
ATOM     15  N   UNL     1       3.553  46.434  55.277  1.00  0.00    -0.179 NA
ATOM     16  C   UNL     1       2.009  44.580  55.365  1.00  0.00     0.176 C 
BRANCH  10  17
ATOM     17  N   UNL     1       6.299  46.822  51.681  1.00  0.00    -0.337 N 
ATOM     18  H   UNL     1       5.890  47.750  51.774  1.00  0.00     0.168 HD
BRANCH  17  19
ATOM     19  C   UNL     1       7.638  46.828  52.137  1.00  0.00     0.076 A 
ATOM     20  C   UNL     1       7.925  47.519  53.322  1.00  0.00     0.029 A 
ATOM     21  C   UNL     1       8.672  46.089  51.543  1.00  0.00     0.146 A 
ATOM     22  C   UNL     1       9.216  47.520  53.860  1.00  0.00     0.002 A 
ATOM     23  C   UNL     1       9.961  46.084  52.074  1.00  0.00     0.041 A 
ATOM     24  C   UNL     1      10.236  46.806  53.232  1.00  0.00     0.003 A 
ATOM     25  F   UNL     1       8.439  45.343  50.452  1.00  0.00    -0.205 F 
ENDBRANCH  17  19
ENDBRANCH  10  17
ENDBRANCH   1   7
TORSDOF 6
ENDMDL
MODEL 14
REMARK VINA RESULT:    -7.966      2.657      5.816
REMARK INTER + INTRA:         -11.496
REMARK INTER:                 -11.349
REMARK INTRA:                  -0.147
REMARK UNBOUND:                -0.736
REMARK SMILES CCCCNc1nc(Nc2ccccc2F)c2cnn(C)c2n1
REMARK SMILES IDX 5 1 4 3 3 4 2 5 1 6 6 7 7 8 23 9 8 10 22 11 17 12 20 13
REMARK SMILES IDX 18 14 19 15 21 16 9 17 10 19 11 20 15 21 12 22 14 23 13 24
REMARK SMILES IDX 16 25
REMARK H PARENT 5 2 9 18
ROOT
ATOM      1  N   UNL     1       6.000  46.993  54.720  1.00  0.00    -0.354 N 
ATOM      2  H   UNL     1       5.797  47.154  55.701  1.00  0.00     0.163 HD
ENDROOT
BRANCH   1   3
ATOM      3  C   UNL     1       7.355  46.553  54.430  1.00  0.00     0.116 C 
BRANCH   3   4
ATOM      4  C   UNL     1       8.010  47.554  53.475  1.00  0.00     0.021 C 
BRANCH   4   5
ATOM      5  C   UNL     1       9.539  47.489  53.484  1.00  0.00    -0.002 C 
ATOM      6  C   UNL     1      10.109  46.480  52.501  1.00  0.00     0.004 C 
ENDBRANCH   4   5
ENDBRANCH   3   4
ENDBRANCH   1   3
BRANCH   1   7
ATOM      7  C   UNL     1       5.006  46.128  54.273  1.00  0.00     0.226 A 
ATOM      8  N   UNL     1       5.175  45.465  53.112  1.00  0.00    -0.195 NA
ATOM      9  N   UNL     1       3.939  46.039  55.079  1.00  0.00    -0.193 NA
ATOM     10  C   UNL     1       4.219  44.610  52.672  1.00  0.00     0.147 A 
ATOM     11  C   UNL     1       2.998  45.208  54.605  1.00  0.00     0.165 A 
ATOM     12  C   UNL     1       3.059  44.477  53.436  1.00  0.00     0.082 A 
ATOM     13  N   UNL     1       1.785  44.916  55.167  1.00  0.00    -0.250 N 
ATOM     14  C   UNL     1       1.828  43.792  53.384  1.00  0.00     0.149 A 
ATOM     15  N   UNL     1       1.042  44.050  54.437  1.00  0.00    -0.179 NA
ATOM     16  C   UNL     1       1.254  45.437  56.402  1.00  0.00     0.176 C 
BRANCH  10  17
ATOM     17  N   UNL     1       4.455  43.972  51.441  1.00  0.00    -0.337 N 
ATOM     18  H   UNL     1       3.669  44.235  50.848  1.00  0.00     0.168 HD
BRANCH  17  19
ATOM     19  C   UNL     1       5.658  43.995  50.697  1.00  0.00     0.076 A 
ATOM     20  C   UNL     1       6.434  45.161  50.739  1.00  0.00     0.029 A 
ATOM     21  C   UNL     1       6.182  42.884  50.020  1.00  0.00     0.146 A 
ATOM     22  C   UNL     1       7.663  45.232  50.074  1.00  0.00     0.002 A 
ATOM     23  C   UNL     1       7.406  42.947  49.354  1.00  0.00     0.041 A 
ATOM     24  C   UNL     1       8.145  44.126  49.377  1.00  0.00     0.003 A 
ATOM     25  F   UNL     1       5.523  41.715  50.011  1.00  0.00    -0.205 F 
ENDBRANCH  17  19
ENDBRANCH  10  17
ENDBRANCH   1   7
TORSDOF 6
ENDMDL
MODEL 15
REMARK VINA RESULT:    -7.941      3.080      6.385
REMARK INTER + INTRA:         -11.462
REMARK INTER:                 -10.724
REMARK INTRA:                  -0.739
REMARK UNBOUND:                -0.736
REMARK SMILES CCCCNc1nc(Nc2ccccc2F)c2cnn(C)c2n1
REMARK SMILES IDX 5 1 4 3 3 4 2 5 1 6 6 7 7 8 23 9 8 10 22 11 17 12 20 13
REMARK SMILES IDX 18 14 19 15 21 16 9 17 10 19 11 20 15 21 12 22 14 23 13 24
REMARK SMILES IDX 16 25
REMARK H PARENT 5 2 9 18
ROOT
ATOM      1  N   UNL     1       2.772  46.056  56.116  1.00  0.00    -0.354 N 
ATOM      2  H   UNL     1       2.611  47.057  56.159  1.00  0.00     0.163 HD
ENDROOT
BRANCH   1   3
ATOM      3  C   UNL     1       1.586  45.229  56.266  1.00  0.00     0.116 C 
BRANCH   3   4
ATOM      4  C   UNL     1       0.618  45.917  57.232  1.00  0.00     0.021 C 
BRANCH   4   5
ATOM      5  C   UNL     1       1.322  46.723  58.326  1.00  0.00    -0.002 C 
ATOM      6  C   UNL     1       0.366  47.495  59.221  1.00  0.00     0.004 C 
ENDBRANCH   4   5
ENDBRANCH   3   4
ENDBRANCH   1   3
BRANCH   1   7
ATOM      7  C   UNL     1       3.475  45.845  54.934  1.00  0.00     0.226 A 
ATOM      8  N   UNL     1       4.429  46.722  54.563  1.00  0.00    -0.195 NA
ATOM      9  N   UNL     1       3.117  44.743  54.260  1.00  0.00    -0.193 NA
ATOM     10  C   UNL     1       5.129  46.520  53.420  1.00  0.00     0.147 A 
ATOM     11  C   UNL     1       3.807  44.584  53.120  1.00  0.00     0.165 A 
ATOM     12  C   UNL     1       4.802  45.410  52.639  1.00  0.00     0.082 A 
ATOM     13  N   UNL     1       3.668  43.586  52.195  1.00  0.00    -0.250 N 
ATOM     14  C   UNL     1       5.184  44.827  51.415  1.00  0.00     0.149 A 
ATOM     15  N   UNL     1       4.500  43.710  51.134  1.00  0.00    -0.179 NA
ATOM     16  C   UNL     1       2.749  42.477  52.248  1.00  0.00     0.176 C 
BRANCH  10  17
ATOM     17  N   UNL     1       6.092  47.490  53.085  1.00  0.00    -0.337 N 
ATOM     18  H   UNL     1       5.843  48.313  53.630  1.00  0.00     0.168 HD
BRANCH  17  19
ATOM     19  C   UNL     1       7.496  47.314  53.075  1.00  0.00     0.076 A 
ATOM     20  C   UNL     1       8.180  47.423  54.293  1.00  0.00     0.029 A 
ATOM     21  C   UNL     1       8.228  46.922  51.945  1.00  0.00     0.146 A 
ATOM     22  C   UNL     1       9.560  47.205  54.365  1.00  0.00     0.002 A 
ATOM     23  C   UNL     1       9.604  46.703  52.009  1.00  0.00     0.041 A 
ATOM     24  C   UNL     1      10.273  46.851  53.221  1.00  0.00     0.003 A 
ATOM     25  F   UNL     1       7.615  46.724  50.768  1.00  0.00    -0.205 F 
ENDBRANCH  17  19
ENDBRANCH  10  17
ENDBRANCH   1   7
TORSDOF 6
ENDMDL
MODEL 16
REMARK VINA RESULT:    -7.877      1.880      6.496
REMARK INTER + INTRA:         -11.375
REMARK INTER:                 -10.645
REMARK INTRA:                  -0.730
REMARK UNBOUND:                -0.736
REMARK SMILES CCCCNc1nc(Nc2ccccc2F)c2cnn(C)c2n1
REMARK SMILES IDX 5 1 4 3 3 4 2 5 1 6 6 7 7 8 23 9 8 10 22 11 17 12 20 13
REMARK SMILES IDX 18 14 19 15 21 16 9 17 10 19 11 20 15 21 12 22 14 23 13 24
REMARK SMILES IDX 16 25
REMARK H PARENT 5 2 9 18
ROOT
ATOM      1  N   UNL     1       6.974  46.056  51.155  1.00  0.00    -0.354 N 
ATOM      2  H   UNL     1       6.714  46.557  50.312  1.00  0.00     0.163 HD
ENDROOT
BRANCH   1   3
ATOM      3  C   UNL     1       7.134  46.880  52.342  1.00  0.00     0.116 C 
BRANCH   3   4
ATOM      4  C   UNL     1       8.401  47.728  52.192  1.00  0.00     0.021 C 
BRANCH   4   5
ATOM      5  C   UNL     1       9.643  47.076  52.803  1.00  0.00    -0.002 C 
ATOM      6  C   UNL     1      10.419  46.212  51.822  1.00  0.00     0.004 C 
ENDBRANCH   4   5
ENDBRANCH   3   4
ENDBRANCH   1   3
BRANCH   1   7
ATOM      7  C   UNL     1       6.035  45.038  51.284  1.00  0.00     0.226 A 
ATOM      8  N   UNL     1       6.232  43.867  50.646  1.00  0.00    -0.195 NA
ATOM      9  N   UNL     1       4.988  45.338  52.066  1.00  0.00    -0.193 NA
ATOM     10  C   UNL     1       5.330  42.863  50.773  1.00  0.00     0.147 A 
ATOM     11  C   UNL     1       4.099  44.337  52.152  1.00  0.00     0.165 A 
ATOM     12  C   UNL     1       4.193  43.100  51.548  1.00  0.00     0.082 A 
ATOM     13  N   UNL     1       2.918  44.329  52.841  1.00  0.00    -0.250 N 
ATOM     14  C   UNL     1       3.012  42.431  51.927  1.00  0.00     0.149 A 
ATOM     15  N   UNL     1       2.226  43.171  52.720  1.00  0.00    -0.179 NA
ATOM     16  C   UNL     1       2.371  45.400  53.636  1.00  0.00     0.176 C 
BRANCH  10  17
ATOM     17  N   UNL     1       5.591  41.680  50.059  1.00  0.00    -0.337 N 
ATOM     18  H   UNL     1       5.307  40.924  50.679  1.00  0.00     0.168 HD
BRANCH  17  19
ATOM     19  C   UNL     1       5.200  41.396  48.729  1.00  0.00     0.076 A 
ATOM     20  C   UNL     1       4.073  40.585  48.535  1.00  0.00     0.029 A 
ATOM     21  C   UNL     1       5.795  41.971  47.597  1.00  0.00     0.146 A 
ATOM     22  C   UNL     1       3.597  40.310  47.249  1.00  0.00     0.002 A 
ATOM     23  C   UNL     1       5.327  41.701  46.312  1.00  0.00     0.041 A 
ATOM     24  C   UNL     1       4.228  40.864  46.137  1.00  0.00     0.003 A 
ATOM     25  F   UNL     1       6.827  42.819  47.724  1.00  0.00    -0.205 F 
ENDBRANCH  17  19
ENDBRANCH  10  17
ENDBRANCH   1   7
TORSDOF 6
ENDMDL
MODEL 17
REMARK VINA RESULT:    -7.849      2.401      5.576
REMARK INTER + INTRA:         -11.337
REMARK INTER:                 -10.437
REMARK INTRA:                  -0.901
REMARK UNBOUND:                -0.736
REMARK SMILES CCCCNc1nc(Nc2ccccc2F)c2cnn(C)c2n1
REMARK SMILES IDX 5 1 4 3 3 4 2 5 1 6 6 7 7 8 23 9 8 10 22 11 17 12 20 13
REMARK SMILES IDX 18 14 19 15 21 16 9 17 10 19 11 20 15 21 12 22 14 23 13 24
REMARK SMILES IDX 16 25
REMARK H PARENT 5 2 9 18
ROOT
ATOM      1  N   UNL     1       7.689  45.199  49.542  1.00  0.00    -0.354 N 
ATOM      2  H   UNL     1       8.420  45.840  49.250  1.00  0.00     0.163 HD
ENDROOT
BRANCH   1   3
ATOM      3  C   UNL     1       8.052  43.792  49.520  1.00  0.00     0.116 C 
BRANCH   3   4
ATOM      4  C   UNL     1       6.846  42.973  49.053  1.00  0.00     0.021 C 
BRANCH   4   5
ATOM      5  C   UNL     1       6.600  41.720  49.895  1.00  0.00    -0.002 C 
ATOM      6  C   UNL     1       5.144  41.529  50.289  1.00  0.00     0.004 C 
ENDBRANCH   4   5
ENDBRANCH   3   4
ENDBRANCH   1   3
BRANCH   1   7
ATOM      7  C   UNL     1       7.263  45.664  50.782  1.00  0.00     0.226 A 
ATOM      8  N   UNL     1       5.944  45.727  51.051  1.00  0.00    -0.195 NA
ATOM      9  N   UNL     1       8.251  46.014  51.617  1.00  0.00    -0.193 NA
ATOM     10  C   UNL     1       5.517  46.166  52.260  1.00  0.00     0.147 A 
ATOM     11  C   UNL     1       7.799  46.471  52.795  1.00  0.00     0.165 A 
ATOM     12  C   UNL     1       6.479  46.579  53.183  1.00  0.00     0.082 A 
ATOM     13  N   UNL     1       8.539  46.931  53.850  1.00  0.00    -0.250 N 
ATOM     14  C   UNL     1       6.537  47.127  54.480  1.00  0.00     0.149 A 
ATOM     15  N   UNL     1       7.790  47.344  54.900  1.00  0.00    -0.179 NA
ATOM     16  C   UNL     1       9.976  47.019  53.928  1.00  0.00     0.176 C 
BRANCH  10  17
ATOM     17  N   UNL     1       4.126  46.227  52.459  1.00  0.00    -0.337 N 
ATOM     18  H   UNL     1       3.820  47.061  51.962  1.00  0.00     0.168 HD
BRANCH  17  19
ATOM     19  C   UNL     1       3.201  45.174  52.265  1.00  0.00     0.076 A 
ATOM     20  C   UNL     1       2.083  45.423  51.457  1.00  0.00     0.029 A 
ATOM     21  C   UNL     1       3.394  43.865  52.730  1.00  0.00     0.146 A 
ATOM     22  C   UNL     1       1.158  44.411  51.177  1.00  0.00     0.002 A 
ATOM     23  C   UNL     1       2.477  42.851  52.455  1.00  0.00     0.041 A 
ATOM     24  C   UNL     1       1.352  43.127  51.681  1.00  0.00     0.003 A 
ATOM     25  F   UNL     1       4.486  43.547  53.441  1.00  0.00    -0.205 F 
ENDBRANCH  17  19
ENDBRANCH  10  17
ENDBRANCH   1   7
TORSDOF 6
ENDMDL
MODEL 18
REMARK VINA RESULT:    -7.835      2.317      6.170
REMARK INTER + INTRA:         -11.319
REMARK INTER:                 -10.588
REMARK INTRA:                  -0.731
REMARK UNBOUND:                -0.736
REMARK SMILES CCCCNc1nc(Nc2ccccc2F)c2cnn(C)c2n1
REMARK SMILES IDX 5 1 4 3 3 4 2 5 1 6 6 7 7 8 23 9 8 10 22 11 17 12 20 13
REMARK SMILES IDX 18 14 19 15 21 16 9 17 10 19 11 20 15 21 12 22 14 23 13 24
REMARK SMILES IDX 16 25
REMARK H PARENT 5 2 9 18
ROOT
ATOM      1  N   UNL     1       7.938  46.249  50.687  1.00  0.00    -0.354 N 
ATOM      2  H   UNL     1       7.797  46.786  49.837  1.00  0.00     0.163 HD
ENDROOT
BRANCH   1   3
ATOM      3  C   UNL     1       8.325  47.024  51.854  1.00  0.00     0.116 C 
BRANCH   3   4
ATOM      4  C   UNL     1       9.726  46.594  52.296  1.00  0.00     0.021 C 
BRANCH   4   5
ATOM      5  C   UNL     1       9.965  46.753  53.799  1.00  0.00    -0.002 C 
ATOM      6  C   UNL     1       9.139  47.863  54.429  1.00  0.00     0.004 C 
ENDBRANCH   4   5
ENDBRANCH   3   4
ENDBRANCH   1   3
BRANCH   1   7
ATOM      7  C   UNL     1       6.774  45.504  50.850  1.00  0.00     0.226 A 
ATOM      8  N   UNL     1       5.676  46.091  51.364  1.00  0.00    -0.195 NA
ATOM      9  N   UNL     1       6.870  44.225  50.461  1.00  0.00    -0.193 NA
ATOM     10  C   UNL     1       4.532  45.379  51.518  1.00  0.00     0.147 A 
ATOM     11  C   UNL     1       5.734  43.537  50.649  1.00  0.00     0.165 A 
ATOM     12  C   UNL     1       4.551  44.029  51.163  1.00  0.00     0.082 A 
ATOM     13  N   UNL     1       5.506  42.215  50.384  1.00  0.00    -0.250 N 
ATOM     14  C   UNL     1       3.684  42.918  51.177  1.00  0.00     0.149 A 
ATOM     15  N   UNL     1       4.256  41.804  50.701  1.00  0.00    -0.179 NA
ATOM     16  C   UNL     1       6.444  41.267  49.835  1.00  0.00     0.176 C 
BRANCH  10  17
ATOM     17  N   UNL     1       3.435  46.053  52.082  1.00  0.00    -0.337 N 
ATOM     18  H   UNL     1       2.751  46.128  51.331  1.00  0.00     0.168 HD
BRANCH  17  19
ATOM     19  C   UNL     1       2.790  45.738  53.302  1.00  0.00     0.076 A 
ATOM     20  C   UNL     1       3.568  45.709  54.467  1.00  0.00     0.029 A 
ATOM     21  C   UNL     1       1.404  45.571  53.435  1.00  0.00     0.146 A 
ATOM     22  C   UNL     1       2.985  45.461  55.715  1.00  0.00     0.002 A 
ATOM     23  C   UNL     1       0.816  45.324  54.675  1.00  0.00     0.041 A 
ATOM     24  C   UNL     1       1.610  45.262  55.817  1.00  0.00     0.003 A 
ATOM     25  F   UNL     1       0.598  45.668  52.366  1.00  0.00    -0.205 F 
ENDBRANCH  17  19
ENDBRANCH  10  17
ENDBRANCH   1   7
TORSDOF 6
ENDMDL
MODEL 19
REMARK VINA RESULT:    -7.597      2.018      5.082
REMARK INTER + INTRA:         -10.997
REMARK INTER:                  -9.947
REMARK INTRA:                  -1.050
REMARK UNBOUND:                -0.736
REMARK SMILES CCCCNc1nc(Nc2ccccc2F)c2cnn(C)c2n1
REMARK SMILES IDX 5 1 4 3 3 4 2 5 1 6 6 7 7 8 23 9 8 10 22 11 17 12 20 13
REMARK SMILES IDX 18 14 19 15 21 16 9 17 10 19 11 20 15 21 12 22 14 23 13 24
REMARK SMILES IDX 16 25
REMARK H PARENT 5 2 9 18
ROOT
ATOM      1  N   UNL     1       6.591  43.423  49.267  1.00  0.00    -0.354 N 
ATOM      2  H   UNL     1       7.428  43.531  48.705  1.00  0.00     0.163 HD
ENDROOT
BRANCH   1   3
ATOM      3  C   UNL     1       6.419  42.116  49.880  1.00  0.00     0.116 C 
BRANCH   3   4
ATOM      4  C   UNL     1       5.377  41.325  49.085  1.00  0.00     0.021 C 
BRANCH   4   5
ATOM      5  C   UNL     1       4.081  41.079  49.860  1.00  0.00    -0.002 C 
ATOM      6  C   UNL     1       4.051  41.756  51.221  1.00  0.00     0.004 C 
ENDBRANCH   4   5
ENDBRANCH   3   4
ENDBRANCH   1   3
BRANCH   1   7
ATOM      7  C   UNL     1       6.609  44.483  50.168  1.00  0.00     0.226 A 
ATOM      8  N   UNL     1       5.446  44.986  50.627  1.00  0.00    -0.195 NA
ATOM      9  N   UNL     1       7.835  44.912  50.501  1.00  0.00    -0.193 NA
ATOM     10  C   UNL     1       5.451  46.011  51.514  1.00  0.00     0.147 A 
ATOM     11  C   UNL     1       7.809  45.944  51.358  1.00  0.00     0.165 A 
ATOM     12  C   UNL     1       6.686  46.539  51.895  1.00  0.00     0.082 A 
ATOM     13  N   UNL     1       8.877  46.627  51.872  1.00  0.00    -0.250 N 
ATOM     14  C   UNL     1       7.190  47.576  52.706  1.00  0.00     0.149 A 
ATOM     15  N   UNL     1       8.527  47.638  52.702  1.00  0.00    -0.179 NA
ATOM     16  C   UNL     1      10.272  46.380  51.607  1.00  0.00     0.176 C 
BRANCH  10  17
ATOM     17  N   UNL     1       4.199  46.498  51.930  1.00  0.00    -0.337 N 
ATOM     18  H   UNL     1       3.648  46.583  51.078  1.00  0.00     0.168 HD
BRANCH  17  19
ATOM     19  C   UNL     1       3.401  45.983  52.979  1.00  0.00     0.076 A 
ATOM     20  C   UNL     1       2.470  44.983  52.666  1.00  0.00     0.029 A 
ATOM     21  C   UNL     1       3.567  46.324  54.330  1.00  0.00     0.146 A 
ATOM     22  C   UNL     1       1.689  44.390  53.663  1.00  0.00     0.002 A 
ATOM     23  C   UNL     1       2.792  45.736  55.329  1.00  0.00     0.041 A 
ATOM     24  C   UNL     1       1.846  44.771  54.995  1.00  0.00     0.003 A 
ATOM     25  F   UNL     1       4.498  47.216  54.700  1.00  0.00    -0.205 F 
ENDBRANCH  17  19
ENDBRANCH  10  17
ENDBRANCH   1   7
TORSDOF 6
ENDMDL
MODEL 20
REMARK VINA RESULT:    -7.565      2.163      3.018
REMARK INTER + INTRA:         -10.955
REMARK INTER:                 -10.203
REMARK INTRA:                  -0.752
REMARK UNBOUND:                -0.736
REMARK SMILES CCCCNc1nc(Nc2ccccc2F)c2cnn(C)c2n1
REMARK SMILES IDX 5 1 4 3 3 4 2 5 1 6 6 7 7 8 23 9 8 10 22 11 17 12 20 13
REMARK SMILES IDX 18 14 19 15 21 16 9 17 10 19 11 20 15 21 12 22 14 23 13 24
REMARK SMILES IDX 16 25
REMARK H PARENT 5 2 9 18
ROOT
ATOM      1  N   UNL     1       4.629  43.065  51.113  1.00  0.00    -0.354 N 
ATOM      2  H   UNL     1       3.717  42.797  50.756  1.00  0.00     0.163 HD
ENDROOT
BRANCH   1   3
ATOM      3  C   UNL     1       5.506  43.713  50.152  1.00  0.00     0.116 C 
BRANCH   3   4
ATOM      4  C   UNL     1       6.628  42.745  49.770  1.00  0.00     0.021 C 
BRANCH   4   5
ATOM      5  C   UNL     1       7.671  43.363  48.836  1.00  0.00    -0.002 C 
ATOM      6  C   UNL     1       8.734  44.171  49.564  1.00  0.00     0.004 C 
ENDBRANCH   4   5
ENDBRANCH   3   4
ENDBRANCH   1   3
BRANCH   1   7
ATOM      7  C   UNL     1       4.372  43.815  52.257  1.00  0.00     0.226 A 
ATOM      8  N   UNL     1       5.366  44.535  52.815  1.00  0.00    -0.195 NA
ATOM      9  N   UNL     1       3.110  43.743  52.701  1.00  0.00    -0.193 NA
ATOM     10  C   UNL     1       5.125  45.279  53.922  1.00  0.00     0.147 A 
ATOM     11  C   UNL     1       2.908  44.467  53.813  1.00  0.00     0.165 A 
ATOM     12  C   UNL     1       3.842  45.240  54.471  1.00  0.00     0.082 A 
ATOM     13  N   UNL     1       1.750  44.586  54.530  1.00  0.00    -0.250 N 
ATOM     14  C   UNL     1       3.146  45.769  55.576  1.00  0.00     0.149 A 
ATOM     15  N   UNL     1       1.866  45.379  55.622  1.00  0.00    -0.179 NA
ATOM     16  C   UNL     1       0.483  43.960  54.242  1.00  0.00     0.176 C 
BRANCH  10  17
ATOM     17  N   UNL     1       6.216  45.985  54.463  1.00  0.00    -0.337 N 
ATOM     18  H   UNL     1       6.544  45.415  55.241  1.00  0.00     0.168 HD
BRANCH  17  19
ATOM     19  C   UNL     1       7.314  46.515  53.746  1.00  0.00     0.076 A 
ATOM     20  C   UNL     1       8.590  46.008  54.030  1.00  0.00     0.029 A 
ATOM     21  C   UNL     1       7.193  47.427  52.688  1.00  0.00     0.146 A 
ATOM     22  C   UNL     1       9.713  46.446  53.320  1.00  0.00     0.002 A 
ATOM     23  C   UNL     1       8.307  47.869  51.975  1.00  0.00     0.041 A 
ATOM     24  C   UNL     1       9.571  47.381  52.296  1.00  0.00     0.003 A 
ATOM     25  F   UNL     1       5.988  47.887  52.316  1.00  0.00    -0.205 F 
ENDBRANCH  17  19
ENDBRANCH  10  17
ENDBRANCH   1   7
TORSDOF 6
ENDMDL
