MODEL 1
REMARK VINA RESULT:    -7.478      0.000      0.000
REMARK INTER + INTRA:         -11.499
REMARK INTER:                 -10.538
REMARK INTRA:                  -0.961
REMARK UNBOUND:                -0.961
REMARK SMILES COCCCNc1nc(Nc2ccc(I)cc2)c2cnn(C)c2n1
REMARK SMILES IDX 5 1 4 2 3 3 2 4 1 5 6 6 7 8 8 9 24 10 9 11 23 12 18 13 21 14
REMARK SMILES IDX 19 15 20 16 22 17 10 18 11 20 12 21 17 22 13 23 16 24 14 25
REMARK SMILES IDX 15 26
REMARK H PARENT 6 7 10 19
ROOT
ATOM      1  C   UNL     1       8.917  45.981  51.401  1.00  0.00     0.118 C 
ENDROOT
BRANCH   1   2
ATOM      2  C   UNL     1       9.347  47.153  52.280  1.00  0.00     0.050 C 
BRANCH   2   3
ATOM      3  C   UNL     1       8.816  47.054  53.705  1.00  0.00     0.161 C 
BRANCH   3   4
ATOM      4  O   UNL     1       7.463  47.512  53.710  1.00  0.00    -0.385 OA
ATOM      5  C   UNL     1       6.669  46.794  54.646  1.00  0.00     0.194 C 
ENDBRANCH   3   4
ENDBRANCH   2   3
ENDBRANCH   1   2
BRANCH   1   6
ATOM      6  N   UNL     1       7.603  46.154  50.806  1.00  0.00    -0.354 N 
ATOM      7  H   UNL     1       7.084  46.986  51.062  1.00  0.00     0.163 HD
BRANCH   6   8
ATOM      8  C   UNL     1       6.726  45.083  50.856  1.00  0.00     0.226 A 
ATOM      9  N   UNL     1       6.887  44.051  50.005  1.00  0.00    -0.195 NA
ATOM     10  N   UNL     1       5.771  45.188  51.789  1.00  0.00    -0.193 NA
ATOM     11  C   UNL     1       6.026  43.005  50.031  1.00  0.00     0.147 A 
ATOM     12  C   UNL     1       4.950  44.126  51.814  1.00  0.00     0.165 A 
ATOM     13  C   UNL     1       5.013  43.019  50.991  1.00  0.00     0.082 A 
ATOM     14  N   UNL     1       3.891  43.913  52.653  1.00  0.00    -0.250 N 
ATOM     15  C   UNL     1       3.964  42.190  51.438  1.00  0.00     0.149 A 
ATOM     16  N   UNL     1       3.266  42.730  52.443  1.00  0.00    -0.179 NA
ATOM     17  C   UNL     1       3.415  44.791  53.690  1.00  0.00     0.176 C 
BRANCH  11  18
ATOM     18  N   UNL     1       6.263  41.963  49.120  1.00  0.00    -0.339 N 
ATOM     19  H   UNL     1       7.245  42.026  48.857  1.00  0.00     0.168 HD
BRANCH  18  20
ATOM     20  C   UNL     1       5.472  41.575  48.019  1.00  0.00     0.040 A 
ATOM     21  C   UNL     1       5.759  41.947  46.700  1.00  0.00     0.027 A 
ATOM     22  C   UNL     1       4.388  40.719  48.250  1.00  0.00     0.027 A 
ATOM     23  C   UNL     1       4.959  41.507  45.641  1.00  0.00     0.017 A 
ATOM     24  C   UNL     1       3.583  40.274  47.196  1.00  0.00     0.017 A 
ATOM     25  C   UNL     1       3.871  40.674  45.895  1.00  0.00     0.013 A 
ATOM     26  I   UNL     1       2.681  40.018  44.323  1.00  0.00    -0.044 I 
ENDBRANCH  18  20
ENDBRANCH  11  18
ENDBRANCH   6   8
ENDBRANCH   1   6
TORSDOF 7
ENDMDL
MODEL 2
REMARK VINA RESULT:    -7.308      3.886      6.999
REMARK INTER + INTRA:         -11.260
REMARK INTER:                 -10.345
REMARK INTRA:                  -0.915
REMARK UNBOUND:                -0.961
REMARK SMILES COCCCNc1nc(Nc2ccc(I)cc2)c2cnn(C)c2n1
REMARK SMILES IDX 5 1 4 2 3 3 2 4 1 5 6 6 7 8 8 9 24 10 9 11 23 12 18 13 21 14
REMARK SMILES IDX 19 15 20 16 22 17 10 18 11 20 12 21 17 22 13 23 16 24 14 25
REMARK SMILES IDX 15 26
REMARK H PARENT 6 7 10 19
ROOT
ATOM      1  C   UNL     1       1.894  44.432  53.109  1.00  0.00     0.118 C 
ENDROOT
BRANCH   1   2
ATOM      2  C   UNL     1       1.331  45.108  54.357  1.00  0.00     0.050 C 
BRANCH   2   3
ATOM      3  C   UNL     1       2.320  45.137  55.516  1.00  0.00     0.161 C 
BRANCH   3   4
ATOM      4  O   UNL     1       3.435  45.940  55.131  1.00  0.00    -0.385 OA
ATOM      5  C   UNL     1       4.669  45.274  55.368  1.00  0.00     0.194 C 
ENDBRANCH   3   4
ENDBRANCH   2   3
ENDBRANCH   1   2
BRANCH   1   6
ATOM      6  N   UNL     1       2.679  45.323  52.272  1.00  0.00    -0.354 N 
ATOM      7  H   UNL     1       2.178  45.876  51.587  1.00  0.00     0.163 HD
BRANCH   6   8
ATOM      8  C   UNL     1       3.800  44.800  51.648  1.00  0.00     0.226 A 
ATOM      9  N   UNL     1       4.934  45.526  51.599  1.00  0.00    -0.195 NA
ATOM     10  N   UNL     1       3.633  43.572  51.141  1.00  0.00    -0.193 NA
ATOM     11  C   UNL     1       6.032  45.034  50.976  1.00  0.00     0.147 A 
ATOM     12  C   UNL     1       4.743  43.096  50.556  1.00  0.00     0.165 A 
ATOM     13  C   UNL     1       5.954  43.748  50.440  1.00  0.00     0.082 A 
ATOM     14  N   UNL     1       4.913  41.876  49.961  1.00  0.00    -0.250 N 
ATOM     15  C   UNL     1       6.790  42.820  49.784  1.00  0.00     0.149 A 
ATOM     16  N   UNL     1       6.161  41.680  49.477  1.00  0.00    -0.179 NA
ATOM     17  C   UNL     1       3.927  40.834  49.821  1.00  0.00     0.176 C 
BRANCH  11  18
ATOM     18  N   UNL     1       7.178  45.844  50.973  1.00  0.00    -0.339 N 
ATOM     19  H   UNL     1       7.793  45.475  50.251  1.00  0.00     0.168 HD
BRANCH  18  20
ATOM     20  C   UNL     1       7.922  46.299  52.082  1.00  0.00     0.040 A 
ATOM     21  C   UNL     1       7.333  46.719  53.280  1.00  0.00     0.027 A 
ATOM     22  C   UNL     1       9.321  46.260  52.003  1.00  0.00     0.027 A 
ATOM     23  C   UNL     1       8.121  47.130  54.361  1.00  0.00     0.017 A 
ATOM     24  C   UNL     1      10.115  46.669  53.079  1.00  0.00     0.017 A 
ATOM     25  C   UNL     1       9.510  47.106  54.253  1.00  0.00     0.013 A 
ATOM     26  I   UNL     1      10.682  47.715  55.857  1.00  0.00    -0.044 I 
ENDBRANCH  18  20
ENDBRANCH  11  18
ENDBRANCH   6   8
ENDBRANCH   1   6
TORSDOF 7
ENDMDL
MODEL 3
REMARK VINA RESULT:    -7.275      4.596      7.639
REMARK INTER + INTRA:         -11.213
REMARK INTER:                 -10.077
REMARK INTRA:                  -1.136
REMARK UNBOUND:                -0.961
REMARK SMILES COCCCNc1nc(Nc2ccc(I)cc2)c2cnn(C)c2n1
REMARK SMILES IDX 5 1 4 2 3 3 2 4 1 5 6 6 7 8 8 9 24 10 9 11 23 12 18 13 21 14
REMARK SMILES IDX 19 15 20 16 22 17 10 18 11 20 12 21 17 22 13 23 16 24 14 25
REMARK SMILES IDX 15 26
REMARK H PARENT 6 7 10 19
ROOT
ATOM      1  C   UNL     1       2.742  42.591  52.319  1.00  0.00     0.118 C 
ENDROOT
BRANCH   1   2
ATOM      2  C   UNL     1       3.396  43.327  51.152  1.00  0.00     0.050 C 
BRANCH   2   3
ATOM      3  C   UNL     1       4.609  44.148  51.571  1.00  0.00     0.161 C 
BRANCH   3   4
ATOM      4  O   UNL     1       4.584  45.381  50.852  1.00  0.00    -0.385 OA
ATOM      5  C   UNL     1       3.301  45.992  50.901  1.00  0.00     0.194 C 
ENDBRANCH   3   4
ENDBRANCH   2   3
ENDBRANCH   1   2
BRANCH   1   6
ATOM      6  N   UNL     1       1.443  43.129  52.688  1.00  0.00    -0.354 N 
ATOM      7  H   UNL     1       0.925  43.622  51.972  1.00  0.00     0.163 HD
BRANCH   6   8
ATOM      8  C   UNL     1       1.364  43.877  53.852  1.00  0.00     0.226 A 
ATOM      9  N   UNL     1       2.427  44.599  54.253  1.00  0.00    -0.195 NA
ATOM     10  N   UNL     1       0.184  43.802  54.482  1.00  0.00    -0.193 NA
ATOM     11  C   UNL     1       2.369  45.320  55.399  1.00  0.00     0.147 A 
ATOM     12  C   UNL     1       0.142  44.548  55.597  1.00  0.00     0.165 A 
ATOM     13  C   UNL     1       1.166  45.321  56.107  1.00  0.00     0.082 A 
ATOM     14  N   UNL     1      -0.912  44.706  56.454  1.00  0.00    -0.250 N 
ATOM     15  C   UNL     1       0.613  45.922  57.257  1.00  0.00     0.149 A 
ATOM     16  N   UNL     1      -0.650  45.544  57.484  1.00  0.00    -0.179 NA
ATOM     17  C   UNL     1      -2.211  44.092  56.353  1.00  0.00     0.176 C 
BRANCH  11  18
ATOM     18  N   UNL     1       3.513  46.056  55.746  1.00  0.00    -0.339 N 
ATOM     19  H   UNL     1       3.185  46.914  56.185  1.00  0.00     0.168 HD
BRANCH  18  20
ATOM     20  C   UNL     1       4.659  46.300  54.962  1.00  0.00     0.040 A 
ATOM     21  C   UNL     1       5.789  45.473  54.977  1.00  0.00     0.027 A 
ATOM     22  C   UNL     1       4.637  47.384  54.074  1.00  0.00     0.027 A 
ATOM     23  C   UNL     1       6.887  45.744  54.154  1.00  0.00     0.017 A 
ATOM     24  C   UNL     1       5.731  47.661  53.248  1.00  0.00     0.017 A 
ATOM     25  C   UNL     1       6.854  46.840  53.295  1.00  0.00     0.013 A 
ATOM     26  I   UNL     1       8.483  47.245  52.070  1.00  0.00    -0.044 I 
ENDBRANCH  18  20
ENDBRANCH  11  18
ENDBRANCH   6   8
ENDBRANCH   1   6
TORSDOF 7
ENDMDL
MODEL 4
REMARK VINA RESULT:    -7.272      2.880      4.735
REMARK INTER + INTRA:         -11.209
REMARK INTER:                 -10.271
REMARK INTRA:                  -0.937
REMARK UNBOUND:                -0.961
REMARK SMILES COCCCNc1nc(Nc2ccc(I)cc2)c2cnn(C)c2n1
REMARK SMILES IDX 5 1 4 2 3 3 2 4 1 5 6 6 7 8 8 9 24 10 9 11 23 12 18 13 21 14
REMARK SMILES IDX 19 15 20 16 22 17 10 18 11 20 12 21 17 22 13 23 16 24 14 25
REMARK SMILES IDX 15 26
REMARK H PARENT 6 7 10 19
ROOT
ATOM      1  C   UNL     1       7.399  46.886  54.123  1.00  0.00     0.118 C 
ENDROOT
BRANCH   1   2
ATOM      2  C   UNL     1       8.599  47.828  54.166  1.00  0.00     0.050 C 
BRANCH   2   3
ATOM      3  C   UNL     1       9.933  47.097  54.074  1.00  0.00     0.161 C 
BRANCH   3   4
ATOM      4  O   UNL     1       9.782  46.004  53.167  1.00  0.00    -0.385 OA
ATOM      5  C   UNL     1      10.270  46.325  51.871  1.00  0.00     0.194 C 
ENDBRANCH   3   4
ENDBRANCH   2   3
ENDBRANCH   1   2
BRANCH   1   6
ATOM      6  N   UNL     1       6.656  46.949  52.876  1.00  0.00    -0.354 N 
ATOM      7  H   UNL     1       5.889  47.608  52.827  1.00  0.00     0.163 HD
BRANCH   6   8
ATOM      8  C   UNL     1       6.218  45.755  52.326  1.00  0.00     0.226 A 
ATOM      9  N   UNL     1       5.175  45.109  52.882  1.00  0.00    -0.195 NA
ATOM     10  N   UNL     1       6.906  45.353  51.250  1.00  0.00    -0.193 NA
ATOM     11  C   UNL     1       4.749  43.931  52.365  1.00  0.00     0.147 A 
ATOM     12  C   UNL     1       6.446  44.200  50.739  1.00  0.00     0.165 A 
ATOM     13  C   UNL     1       5.394  43.450  51.224  1.00  0.00     0.082 A 
ATOM     14  N   UNL     1       6.910  43.532  49.640  1.00  0.00    -0.250 N 
ATOM     15  C   UNL     1       5.292  42.366  50.327  1.00  0.00     0.149 A 
ATOM     16  N   UNL     1       6.220  42.401  49.364  1.00  0.00    -0.179 NA
ATOM     17  C   UNL     1       8.010  43.916  48.792  1.00  0.00     0.176 C 
BRANCH  11  18
ATOM     18  N   UNL     1       3.651  43.322  52.992  1.00  0.00    -0.339 N 
ATOM     19  H   UNL     1       3.968  42.409  53.313  1.00  0.00     0.168 HD
BRANCH  18  20
ATOM     20  C   UNL     1       2.317  43.258  52.537  1.00  0.00     0.040 A 
ATOM     21  C   UNL     1       1.926  43.648  51.250  1.00  0.00     0.027 A 
ATOM     22  C   UNL     1       1.351  42.711  53.392  1.00  0.00     0.027 A 
ATOM     23  C   UNL     1       0.594  43.532  50.840  1.00  0.00     0.017 A 
ATOM     24  C   UNL     1       0.017  42.592  52.988  1.00  0.00     0.017 A 
ATOM     25  C   UNL     1      -0.356  43.008  51.714  1.00  0.00     0.013 A 
ATOM     26  I   UNL     1      -2.336  42.834  51.106  1.00  0.00    -0.044 I 
ENDBRANCH  18  20
ENDBRANCH  11  18
ENDBRANCH   6   8
ENDBRANCH   1   6
TORSDOF 7
ENDMDL
MODEL 5
REMARK VINA RESULT:    -7.265      3.939      6.819
REMARK INTER + INTRA:         -11.200
REMARK INTER:                 -10.263
REMARK INTRA:                  -0.937
REMARK UNBOUND:                -0.961
REMARK SMILES COCCCNc1nc(Nc2ccc(I)cc2)c2cnn(C)c2n1
REMARK SMILES IDX 5 1 4 2 3 3 2 4 1 5 6 6 7 8 8 9 24 10 9 11 23 12 18 13 21 14
REMARK SMILES IDX 19 15 20 16 22 17 10 18 11 20 12 21 17 22 13 23 16 24 14 25
REMARK SMILES IDX 15 26
REMARK H PARENT 6 7 10 19
ROOT
ATOM      1  C   UNL     1       2.422  46.496  52.918  1.00  0.00     0.118 C 
ENDROOT
BRANCH   1   2
ATOM      2  C   UNL     1       1.869  45.718  54.109  1.00  0.00     0.050 C 
BRANCH   2   3
ATOM      3  C   UNL     1       2.909  45.475  55.196  1.00  0.00     0.161 C 
BRANCH   3   4
ATOM      4  O   UNL     1       4.200  45.466  54.584  1.00  0.00    -0.385 OA
ATOM      5  C   UNL     1       5.184  44.900  55.441  1.00  0.00     0.194 C 
ENDBRANCH   3   4
ENDBRANCH   2   3
ENDBRANCH   1   2
BRANCH   1   6
ATOM      6  N   UNL     1       2.426  45.734  51.680  1.00  0.00    -0.354 N 
ATOM      7  H   UNL     1       1.689  45.052  51.554  1.00  0.00     0.163 HD
BRANCH   6   8
ATOM      8  C   UNL     1       3.617  45.140  51.294  1.00  0.00     0.226 A 
ATOM      9  N   UNL     1       4.749  45.870  51.272  1.00  0.00    -0.195 NA
ATOM     10  N   UNL     1       3.514  43.844  50.973  1.00  0.00    -0.193 NA
ATOM     11  C   UNL     1       5.916  45.306  50.878  1.00  0.00     0.147 A 
ATOM     12  C   UNL     1       4.689  43.302  50.615  1.00  0.00     0.165 A 
ATOM     13  C   UNL     1       5.906  43.950  50.550  1.00  0.00     0.082 A 
ATOM     14  N   UNL     1       4.931  42.006  50.250  1.00  0.00    -0.250 N 
ATOM     15  C   UNL     1       6.817  42.946  50.161  1.00  0.00     0.149 A 
ATOM     16  N   UNL     1       6.231  41.760  49.964  1.00  0.00    -0.179 NA
ATOM     17  C   UNL     1       3.970  40.937  50.156  1.00  0.00     0.176 C 
BRANCH  11  18
ATOM     18  N   UNL     1       7.055  46.127  50.890  1.00  0.00    -0.339 N 
ATOM     19  H   UNL     1       7.605  45.874  50.071  1.00  0.00     0.168 HD
BRANCH  18  20
ATOM     20  C   UNL     1       7.893  46.433  51.982  1.00  0.00     0.040 A 
ATOM     21  C   UNL     1       9.290  46.352  51.922  1.00  0.00     0.027 A 
ATOM     22  C   UNL     1       7.302  46.907  53.161  1.00  0.00     0.027 A 
ATOM     23  C   UNL     1      10.076  46.698  53.026  1.00  0.00     0.017 A 
ATOM     24  C   UNL     1       8.081  47.255  54.268  1.00  0.00     0.017 A 
ATOM     25  C   UNL     1       9.467  47.145  54.197  1.00  0.00     0.013 A 
ATOM     26  I   UNL     1      10.632  47.661  55.838  1.00  0.00    -0.044 I 
ENDBRANCH  18  20
ENDBRANCH  11  18
ENDBRANCH   6   8
ENDBRANCH   1   6
TORSDOF 7
ENDMDL
MODEL 6
REMARK VINA RESULT:    -7.250      3.503      6.842
REMARK INTER + INTRA:         -11.178
REMARK INTER:                  -9.953
REMARK INTRA:                  -1.225
REMARK UNBOUND:                -0.961
REMARK SMILES COCCCNc1nc(Nc2ccc(I)cc2)c2cnn(C)c2n1
REMARK SMILES IDX 5 1 4 2 3 3 2 4 1 5 6 6 7 8 8 9 24 10 9 11 23 12 18 13 21 14
REMARK SMILES IDX 19 15 20 16 22 17 10 18 11 20 12 21 17 22 13 23 16 24 14 25
REMARK SMILES IDX 15 26
REMARK H PARENT 6 7 10 19
ROOT
ATOM      1  C   UNL     1       6.732  42.864  49.695  1.00  0.00     0.118 C 
ENDROOT
BRANCH   1   2
ATOM      2  C   UNL     1       5.758  41.694  49.576  1.00  0.00     0.050 C 
BRANCH   2   3
ATOM      3  C   UNL     1       4.902  41.502  50.822  1.00  0.00     0.161 C 
BRANCH   3   4
ATOM      4  O   UNL     1       3.899  42.518  50.835  1.00  0.00    -0.385 OA
ATOM      5  C   UNL     1       3.442  42.789  52.154  1.00  0.00     0.194 C 
ENDBRANCH   3   4
ENDBRANCH   2   3
ENDBRANCH   1   2
BRANCH   1   6
ATOM      6  N   UNL     1       6.081  44.162  49.687  1.00  0.00    -0.354 N 
ATOM      7  H   UNL     1       6.056  44.662  48.806  1.00  0.00     0.163 HD
BRANCH   6   8
ATOM      8  C   UNL     1       6.438  45.068  50.672  1.00  0.00     0.226 A 
ATOM      9  N   UNL     1       5.480  45.661  51.410  1.00  0.00    -0.195 NA
ATOM     10  N   UNL     1       7.757  45.266  50.795  1.00  0.00    -0.193 NA
ATOM     11  C   UNL     1       5.815  46.563  52.365  1.00  0.00     0.147 A 
ATOM     12  C   UNL     1       8.063  46.141  51.766  1.00  0.00     0.165 A 
ATOM     13  C   UNL     1       7.172  46.811  52.579  1.00  0.00     0.082 A 
ATOM     14  N   UNL     1       9.310  46.546  52.158  1.00  0.00    -0.250 N 
ATOM     15  C   UNL     1       7.987  47.572  53.441  1.00  0.00     0.149 A 
ATOM     16  N   UNL     1       9.293  47.427  53.185  1.00  0.00    -0.179 NA
ATOM     17  C   UNL     1      10.572  46.131  51.602  1.00  0.00     0.176 C 
BRANCH  11  18
ATOM     18  N   UNL     1       4.763  47.131  53.100  1.00  0.00    -0.339 N 
ATOM     19  H   UNL     1       5.183  47.576  53.913  1.00  0.00     0.168 HD
BRANCH  18  20
ATOM     20  C   UNL     1       3.522  46.549  53.432  1.00  0.00     0.040 A 
ATOM     21  C   UNL     1       2.431  46.515  52.555  1.00  0.00     0.027 A 
ATOM     22  C   UNL     1       3.400  45.911  54.674  1.00  0.00     0.027 A 
ATOM     23  C   UNL     1       1.233  45.895  52.925  1.00  0.00     0.017 A 
ATOM     24  C   UNL     1       2.205  45.289  55.050  1.00  0.00     0.017 A 
ATOM     25  C   UNL     1       1.124  45.288  54.173  1.00  0.00     0.013 A 
ATOM     26  I   UNL     1      -0.654  44.365  54.724  1.00  0.00    -0.044 I 
ENDBRANCH  18  20
ENDBRANCH  11  18
ENDBRANCH   6   8
ENDBRANCH   1   6
TORSDOF 7
ENDMDL
MODEL 7
REMARK VINA RESULT:    -7.248      4.918      7.488
REMARK INTER + INTRA:         -11.175
REMARK INTER:                 -10.337
REMARK INTRA:                  -0.839
REMARK UNBOUND:                -0.961
REMARK SMILES COCCCNc1nc(Nc2ccc(I)cc2)c2cnn(C)c2n1
REMARK SMILES IDX 5 1 4 2 3 3 2 4 1 5 6 6 7 8 8 9 24 10 9 11 23 12 18 13 21 14
REMARK SMILES IDX 19 15 20 16 22 17 10 18 11 20 12 21 17 22 13 23 16 24 14 25
REMARK SMILES IDX 15 26
REMARK H PARENT 6 7 10 19
ROOT
ATOM      1  C   UNL     1       0.429  45.091  57.086  1.00  0.00     0.118 C 
ENDROOT
BRANCH   1   2
ATOM      2  C   UNL     1      -0.670  46.115  56.815  1.00  0.00     0.050 C 
BRANCH   2   3
ATOM      3  C   UNL     1      -0.852  47.109  57.957  1.00  0.00     0.161 C 
BRANCH   3   4
ATOM      4  O   UNL     1       0.346  47.121  58.733  1.00  0.00    -0.385 OA
ATOM      5  C   UNL     1       0.210  47.927  59.897  1.00  0.00     0.194 C 
ENDBRANCH   3   4
ENDBRANCH   2   3
ENDBRANCH   1   2
BRANCH   1   6
ATOM      6  N   UNL     1       1.696  45.420  56.455  1.00  0.00    -0.354 N 
ATOM      7  H   UNL     1       2.087  46.334  56.649  1.00  0.00     0.163 HD
BRANCH   6   8
ATOM      8  C   UNL     1       1.814  45.196  55.093  1.00  0.00     0.226 A 
ATOM      9  N   UNL     1       2.637  45.969  54.360  1.00  0.00    -0.195 NA
ATOM     10  N   UNL     1       1.067  44.186  54.628  1.00  0.00    -0.193 NA
ATOM     11  C   UNL     1       2.747  45.773  53.023  1.00  0.00     0.147 A 
ATOM     12  C   UNL     1       1.217  43.992  53.309  1.00  0.00     0.165 A 
ATOM     13  C   UNL     1       2.023  44.722  52.458  1.00  0.00     0.082 A 
ATOM     14  N   UNL     1       0.616  43.039  52.533  1.00  0.00    -0.250 N 
ATOM     15  C   UNL     1       1.853  44.108  51.200  1.00  0.00     0.149 A 
ATOM     16  N   UNL     1       0.988  43.087  51.233  1.00  0.00    -0.179 NA
ATOM     17  C   UNL     1      -0.324  42.037  52.964  1.00  0.00     0.176 C 
BRANCH  11  18
ATOM     18  N   UNL     1       3.632  46.612  52.328  1.00  0.00    -0.339 N 
ATOM     19  H   UNL     1       3.219  46.774  51.411  1.00  0.00     0.168 HD
BRANCH  18  20
ATOM     20  C   UNL     1       5.035  46.508  52.235  1.00  0.00     0.040 A 
ATOM     21  C   UNL     1       5.685  45.783  51.229  1.00  0.00     0.027 A 
ATOM     22  C   UNL     1       5.816  47.223  53.153  1.00  0.00     0.027 A 
ATOM     23  C   UNL     1       7.082  45.740  51.165  1.00  0.00     0.017 A 
ATOM     24  C   UNL     1       7.212  47.185  53.095  1.00  0.00     0.017 A 
ATOM     25  C   UNL     1       7.840  46.439  52.102  1.00  0.00     0.013 A 
ATOM     26  I   UNL     1       9.915  46.377  52.008  1.00  0.00    -0.044 I 
ENDBRANCH  18  20
ENDBRANCH  11  18
ENDBRANCH   6   8
ENDBRANCH   1   6
TORSDOF 7
ENDMDL
MODEL 8
REMARK VINA RESULT:    -7.225      3.747      6.896
REMARK INTER + INTRA:         -11.142
REMARK INTER:                 -10.143
REMARK INTRA:                  -0.999
REMARK UNBOUND:                -0.961
REMARK SMILES COCCCNc1nc(Nc2ccc(I)cc2)c2cnn(C)c2n1
REMARK SMILES IDX 5 1 4 2 3 3 2 4 1 5 6 6 7 8 8 9 24 10 9 11 23 12 18 13 21 14
REMARK SMILES IDX 19 15 20 16 22 17 10 18 11 20 12 21 17 22 13 23 16 24 14 25
REMARK SMILES IDX 15 26
REMARK H PARENT 6 7 10 19
ROOT
ATOM      1  C   UNL     1       3.737  41.110  49.727  1.00  0.00     0.118 C 
ENDROOT
BRANCH   1   2
ATOM      2  C   UNL     1       5.092  41.141  49.025  1.00  0.00     0.050 C 
BRANCH   2   3
ATOM      3  C   UNL     1       6.234  41.538  49.953  1.00  0.00     0.161 C 
BRANCH   3   4
ATOM      4  O   UNL     1       6.288  42.963  50.009  1.00  0.00    -0.385 OA
ATOM      5  C   UNL     1       7.447  43.472  49.360  1.00  0.00     0.194 C 
ENDBRANCH   3   4
ENDBRANCH   2   3
ENDBRANCH   1   2
BRANCH   1   6
ATOM      6  N   UNL     1       3.801  41.496  51.127  1.00  0.00    -0.354 N 
ATOM      7  H   UNL     1       3.671  40.765  51.815  1.00  0.00     0.163 HD
BRANCH   6   8
ATOM      8  C   UNL     1       3.048  42.587  51.528  1.00  0.00     0.226 A 
ATOM      9  N   UNL     1       3.641  43.597  52.194  1.00  0.00    -0.195 NA
ATOM     10  N   UNL     1       1.752  42.522  51.195  1.00  0.00    -0.193 NA
ATOM     11  C   UNL     1       2.912  44.661  52.609  1.00  0.00     0.147 A 
ATOM     12  C   UNL     1       1.059  43.602  51.591  1.00  0.00     0.165 A 
ATOM     13  C   UNL     1       1.556  44.689  52.281  1.00  0.00     0.082 A 
ATOM     14  N   UNL     1      -0.271  43.855  51.394  1.00  0.00    -0.250 N 
ATOM     15  C   UNL     1       0.448  45.550  52.424  1.00  0.00     0.149 A 
ATOM     16  N   UNL     1      -0.673  45.046  51.896  1.00  0.00    -0.179 NA
ATOM     17  C   UNL     1      -1.226  43.010  50.725  1.00  0.00     0.176 C 
BRANCH  11  18
ATOM     18  N   UNL     1       3.602  45.678  53.287  1.00  0.00    -0.339 N 
ATOM     19  H   UNL     1       3.061  46.531  53.160  1.00  0.00     0.168 HD
BRANCH  18  20
ATOM     20  C   UNL     1       4.985  45.953  53.265  1.00  0.00     0.040 A 
ATOM     21  C   UNL     1       5.811  45.824  54.389  1.00  0.00     0.027 A 
ATOM     22  C   UNL     1       5.572  46.305  52.042  1.00  0.00     0.027 A 
ATOM     23  C   UNL     1       7.183  46.080  54.302  1.00  0.00     0.017 A 
ATOM     24  C   UNL     1       6.943  46.561  51.948  1.00  0.00     0.017 A 
ATOM     25  C   UNL     1       7.743  46.451  53.082  1.00  0.00     0.013 A 
ATOM     26  I   UNL     1       9.782  46.829  52.951  1.00  0.00    -0.044 I 
ENDBRANCH  18  20
ENDBRANCH  11  18
ENDBRANCH   6   8
ENDBRANCH   1   6
TORSDOF 7
ENDMDL
MODEL 9
REMARK VINA RESULT:    -7.221      3.482      5.153
REMARK INTER + INTRA:         -11.138
REMARK INTER:                 -10.790
REMARK INTRA:                  -0.348
REMARK UNBOUND:                -0.961
REMARK SMILES COCCCNc1nc(Nc2ccc(I)cc2)c2cnn(C)c2n1
REMARK SMILES IDX 5 1 4 2 3 3 2 4 1 5 6 6 7 8 8 9 24 10 9 11 23 12 18 13 21 14
REMARK SMILES IDX 19 15 20 16 22 17 10 18 11 20 12 21 17 22 13 23 16 24 14 25
REMARK SMILES IDX 15 26
REMARK H PARENT 6 7 10 19
ROOT
ATOM      1  C   UNL     1       4.569  46.760  54.948  1.00  0.00     0.118 C 
ENDROOT
BRANCH   1   2
ATOM      2  C   UNL     1       5.925  46.059  54.920  1.00  0.00     0.050 C 
BRANCH   2   3
ATOM      3  C   UNL     1       6.948  46.777  54.048  1.00  0.00     0.161 C 
BRANCH   3   4
ATOM      4  O   UNL     1       7.815  47.524  54.902  1.00  0.00    -0.385 OA
ATOM      5  C   UNL     1       9.120  47.645  54.350  1.00  0.00     0.194 C 
ENDBRANCH   3   4
ENDBRANCH   2   3
ENDBRANCH   1   2
BRANCH   1   6
ATOM      6  N   UNL     1       3.577  46.070  55.755  1.00  0.00    -0.354 N 
ATOM      7  H   UNL     1       3.913  45.536  56.547  1.00  0.00     0.163 HD
BRANCH   6   8
ATOM      8  C   UNL     1       2.639  45.293  55.095  1.00  0.00     0.226 A 
ATOM      9  N   UNL     1       2.967  44.696  53.933  1.00  0.00    -0.195 NA
ATOM     10  N   UNL     1       1.452  45.210  55.711  1.00  0.00    -0.193 NA
ATOM     11  C   UNL     1       2.052  43.949  53.267  1.00  0.00     0.147 A 
ATOM     12  C   UNL     1       0.575  44.441  55.048  1.00  0.00     0.165 A 
ATOM     13  C   UNL     1       0.795  43.787  53.852  1.00  0.00     0.082 A 
ATOM     14  N   UNL     1      -0.708  44.137  55.412  1.00  0.00    -0.250 N 
ATOM     15  C   UNL     1      -0.410  43.099  53.601  1.00  0.00     0.149 A 
ATOM     16  N   UNL     1      -1.338  43.315  54.540  1.00  0.00    -0.179 NA
ATOM     17  C   UNL     1      -1.406  44.590  56.588  1.00  0.00     0.176 C 
BRANCH  11  18
ATOM     18  N   UNL     1       2.471  43.351  52.069  1.00  0.00    -0.339 N 
ATOM     19  H   UNL     1       2.224  42.365  52.134  1.00  0.00     0.168 HD
BRANCH  18  20
ATOM     20  C   UNL     1       3.701  43.517  51.399  1.00  0.00     0.040 A 
ATOM     21  C   UNL     1       4.285  44.769  51.167  1.00  0.00     0.027 A 
ATOM     22  C   UNL     1       4.404  42.370  51.009  1.00  0.00     0.027 A 
ATOM     23  C   UNL     1       5.524  44.874  50.526  1.00  0.00     0.017 A 
ATOM     24  C   UNL     1       5.643  42.467  50.367  1.00  0.00     0.017 A 
ATOM     25  C   UNL     1       6.196  43.721  50.125  1.00  0.00     0.013 A 
ATOM     26  I   UNL     1       8.036  43.874  49.173  1.00  0.00    -0.044 I 
ENDBRANCH  18  20
ENDBRANCH  11  18
ENDBRANCH   6   8
ENDBRANCH   1   6
TORSDOF 7
ENDMDL
MODEL 10
REMARK VINA RESULT:    -7.204      3.095      5.134
REMARK INTER + INTRA:         -11.113
REMARK INTER:                 -10.071
REMARK INTRA:                  -1.042
REMARK UNBOUND:                -0.961
REMARK SMILES COCCCNc1nc(Nc2ccc(I)cc2)c2cnn(C)c2n1
REMARK SMILES IDX 5 1 4 2 3 3 2 4 1 5 6 6 7 8 8 9 24 10 9 11 23 12 18 13 21 14
REMARK SMILES IDX 19 15 20 16 22 17 10 18 11 20 12 21 17 22 13 23 16 24 14 25
REMARK SMILES IDX 15 26
REMARK H PARENT 6 7 10 19
ROOT
ATOM      1  C   UNL     1       5.234  46.901  53.754  1.00  0.00     0.118 C 
ENDROOT
BRANCH   1   2
ATOM      2  C   UNL     1       6.425  46.241  54.445  1.00  0.00     0.050 C 
BRANCH   2   3
ATOM      3  C   UNL     1       7.761  46.857  54.047  1.00  0.00     0.161 C 
BRANCH   3   4
ATOM      4  O   UNL     1       7.502  47.968  53.189  1.00  0.00    -0.385 OA
ATOM      5  C   UNL     1       8.400  48.002  52.087  1.00  0.00     0.194 C 
ENDBRANCH   3   4
ENDBRANCH   2   3
ENDBRANCH   1   2
BRANCH   1   6
ATOM      6  N   UNL     1       5.184  46.651  52.323  1.00  0.00    -0.354 N 
ATOM      7  H   UNL     1       4.520  47.192  51.782  1.00  0.00     0.163 HD
BRANCH   6   8
ATOM      8  C   UNL     1       5.092  45.335  51.902  1.00  0.00     0.226 A 
ATOM      9  N   UNL     1       4.094  44.557  52.361  1.00  0.00    -0.195 NA
ATOM     10  N   UNL     1       6.047  44.958  51.042  1.00  0.00    -0.193 NA
ATOM     11  C   UNL     1       4.004  43.262  51.972  1.00  0.00     0.147 A 
ATOM     12  C   UNL     1       5.918  43.681  50.649  1.00  0.00     0.165 A 
ATOM     13  C   UNL     1       4.944  42.791  51.054  1.00  0.00     0.082 A 
ATOM     14  N   UNL     1       6.711  42.997  49.769  1.00  0.00    -0.250 N 
ATOM     15  C   UNL     1       5.227  41.610  50.338  1.00  0.00     0.149 A 
ATOM     16  N   UNL     1       6.310  41.721  49.560  1.00  0.00    -0.179 NA
ATOM     17  C   UNL     1       7.872  43.496  49.077  1.00  0.00     0.176 C 
BRANCH  11  18
ATOM     18  N   UNL     1       2.930  42.517  52.485  1.00  0.00    -0.339 N 
ATOM     19  H   UNL     1       3.106  41.545  52.237  1.00  0.00     0.168 HD
BRANCH  18  20
ATOM     20  C   UNL     1       1.554  42.813  52.410  1.00  0.00     0.040 A 
ATOM     21  C   UNL     1       0.888  43.064  51.204  1.00  0.00     0.027 A 
ATOM     22  C   UNL     1       0.804  42.785  53.594  1.00  0.00     0.027 A 
ATOM     23  C   UNL     1      -0.487  43.320  51.184  1.00  0.00     0.017 A 
ATOM     24  C   UNL     1      -0.571  43.041  53.582  1.00  0.00     0.017 A 
ATOM     25  C   UNL     1      -1.210  43.311  52.375  1.00  0.00     0.013 A 
ATOM     26  I   UNL     1      -3.253  43.691  52.348  1.00  0.00    -0.044 I 
ENDBRANCH  18  20
ENDBRANCH  11  18
ENDBRANCH   6   8
ENDBRANCH   1   6
TORSDOF 7
ENDMDL
MODEL 11
REMARK VINA RESULT:    -7.204      3.071      5.546
REMARK INTER + INTRA:         -11.113
REMARK INTER:                 -10.259
REMARK INTRA:                  -0.853
REMARK UNBOUND:                -0.961
REMARK SMILES COCCCNc1nc(Nc2ccc(I)cc2)c2cnn(C)c2n1
REMARK SMILES IDX 5 1 4 2 3 3 2 4 1 5 6 6 7 8 8 9 24 10 9 11 23 12 18 13 21 14
REMARK SMILES IDX 19 15 20 16 22 17 10 18 11 20 12 21 17 22 13 23 16 24 14 25
REMARK SMILES IDX 15 26
REMARK H PARENT 6 7 10 19
ROOT
ATOM      1  C   UNL     1       6.971  47.238  52.297  1.00  0.00     0.118 C 
ENDROOT
BRANCH   1   2
ATOM      2  C   UNL     1       8.299  47.937  52.578  1.00  0.00     0.050 C 
BRANCH   2   3
ATOM      3  C   UNL     1       9.506  47.033  52.355  1.00  0.00     0.161 C 
BRANCH   3   4
ATOM      4  O   UNL     1       9.729  46.283  53.549  1.00  0.00    -0.385 OA
ATOM      5  C   UNL     1      10.149  47.116  54.622  1.00  0.00     0.194 C 
ENDBRANCH   3   4
ENDBRANCH   2   3
ENDBRANCH   1   2
BRANCH   1   6
ATOM      6  N   UNL     1       7.098  46.080  51.430  1.00  0.00    -0.354 N 
ATOM      7  H   UNL     1       7.215  46.253  50.439  1.00  0.00     0.163 HD
BRANCH   6   8
ATOM      8  C   UNL     1       6.164  45.066  51.569  1.00  0.00     0.226 A 
ATOM      9  N   UNL     1       5.234  45.146  52.540  1.00  0.00    -0.195 NA
ATOM     10  N   UNL     1       6.287  44.070  50.682  1.00  0.00    -0.193 NA
ATOM     11  C   UNL     1       4.326  44.152  52.699  1.00  0.00     0.147 A 
ATOM     12  C   UNL     1       5.359  43.113  50.842  1.00  0.00     0.165 A 
ATOM     13  C   UNL     1       4.365  43.085  51.800  1.00  0.00     0.082 A 
ATOM     14  N   UNL     1       5.196  41.978  50.096  1.00  0.00    -0.250 N 
ATOM     15  C   UNL     1       3.645  41.905  51.524  1.00  0.00     0.149 A 
ATOM     16  N   UNL     1       4.150  41.216  50.493  1.00  0.00    -0.179 NA
ATOM     17  C   UNL     1       5.997  41.553  48.977  1.00  0.00     0.176 C 
BRANCH  11  18
ATOM     18  N   UNL     1       3.383  44.311  53.726  1.00  0.00    -0.339 N 
ATOM     19  H   UNL     1       3.631  43.644  54.454  1.00  0.00     0.168 HD
BRANCH  18  20
ATOM     20  C   UNL     1       1.982  44.427  53.608  1.00  0.00     0.040 A 
ATOM     21  C   UNL     1       1.090  43.952  54.576  1.00  0.00     0.027 A 
ATOM     22  C   UNL     1       1.464  45.113  52.501  1.00  0.00     0.027 A 
ATOM     23  C   UNL     1      -0.290  44.123  54.424  1.00  0.00     0.017 A 
ATOM     24  C   UNL     1       0.086  45.287  52.342  1.00  0.00     0.017 A 
ATOM     25  C   UNL     1      -0.786  44.787  53.304  1.00  0.00     0.013 A 
ATOM     26  I   UNL     1      -2.836  45.043  53.076  1.00  0.00    -0.044 I 
ENDBRANCH  18  20
ENDBRANCH  11  18
ENDBRANCH   6   8
ENDBRANCH   1   6
TORSDOF 7
ENDMDL
MODEL 12
REMARK VINA RESULT:    -7.181      3.957      7.449
REMARK INTER + INTRA:         -11.081
REMARK INTER:                 -10.135
REMARK INTRA:                  -0.947
REMARK UNBOUND:                -0.961
REMARK SMILES COCCCNc1nc(Nc2ccc(I)cc2)c2cnn(C)c2n1
REMARK SMILES IDX 5 1 4 2 3 3 2 4 1 5 6 6 7 8 8 9 24 10 9 11 23 12 18 13 21 14
REMARK SMILES IDX 19 15 20 16 22 17 10 18 11 20 12 21 17 22 13 23 16 24 14 25
REMARK SMILES IDX 15 26
REMARK H PARENT 6 7 10 19
ROOT
ATOM      1  C   UNL     1       2.081  43.939  52.519  1.00  0.00     0.118 C 
ENDROOT
BRANCH   1   2
ATOM      2  C   UNL     1       1.426  45.202  53.072  1.00  0.00     0.050 C 
BRANCH   2   3
ATOM      3  C   UNL     1       2.030  45.656  54.395  1.00  0.00     0.161 C 
BRANCH   3   4
ATOM      4  O   UNL     1       1.746  44.662  55.380  1.00  0.00    -0.385 OA
ATOM      5  C   UNL     1       0.926  45.174  56.422  1.00  0.00     0.194 C 
ENDBRANCH   3   4
ENDBRANCH   2   3
ENDBRANCH   1   2
BRANCH   1   6
ATOM      6  N   UNL     1       3.429  43.721  53.016  1.00  0.00    -0.354 N 
ATOM      7  H   UNL     1       3.675  44.159  53.895  1.00  0.00     0.163 HD
BRANCH   6   8
ATOM      8  C   UNL     1       4.480  43.927  52.137  1.00  0.00     0.226 A 
ATOM      9  N   UNL     1       5.248  45.027  52.264  1.00  0.00    -0.195 NA
ATOM     10  N   UNL     1       4.631  42.968  51.215  1.00  0.00    -0.193 NA
ATOM     11  C   UNL     1       6.267  45.250  51.399  1.00  0.00     0.147 A 
ATOM     12  C   UNL     1       5.665  43.198  50.390  1.00  0.00     0.165 A 
ATOM     13  C   UNL     1       6.514  44.286  50.421  1.00  0.00     0.082 A 
ATOM     14  N   UNL     1       6.099  42.410  49.360  1.00  0.00    -0.250 N 
ATOM     15  C   UNL     1       7.437  44.040  49.383  1.00  0.00     0.149 A 
ATOM     16  N   UNL     1       7.186  42.904  48.723  1.00  0.00    -0.179 NA
ATOM     17  C   UNL     1       5.530  41.160  48.924  1.00  0.00     0.176 C 
BRANCH  11  18
ATOM     18  N   UNL     1       7.028  46.412  51.601  1.00  0.00    -0.339 N 
ATOM     19  H   UNL     1       7.397  46.680  50.690  1.00  0.00     0.168 HD
BRANCH  18  20
ATOM     20  C   UNL     1       7.972  46.666  52.618  1.00  0.00     0.040 A 
ATOM     21  C   UNL     1       9.350  46.483  52.449  1.00  0.00     0.027 A 
ATOM     22  C   UNL     1       7.513  47.194  53.832  1.00  0.00     0.027 A 
ATOM     23  C   UNL     1      10.245  46.782  53.482  1.00  0.00     0.017 A 
ATOM     24  C   UNL     1       8.401  47.495  54.869  1.00  0.00     0.017 A 
ATOM     25  C   UNL     1       9.765  47.284  54.689  1.00  0.00     0.013 A 
ATOM     26  I   UNL     1      11.093  47.730  56.224  1.00  0.00    -0.044 I 
ENDBRANCH  18  20
ENDBRANCH  11  18
ENDBRANCH   6   8
ENDBRANCH   1   6
TORSDOF 7
ENDMDL
MODEL 13
REMARK VINA RESULT:    -7.154      4.101      7.717
REMARK INTER + INTRA:         -11.043
REMARK INTER:                 -10.482
REMARK INTRA:                  -0.561
REMARK UNBOUND:                -0.961
REMARK SMILES COCCCNc1nc(Nc2ccc(I)cc2)c2cnn(C)c2n1
REMARK SMILES IDX 5 1 4 2 3 3 2 4 1 5 6 6 7 8 8 9 24 10 9 11 23 12 18 13 21 14
REMARK SMILES IDX 19 15 20 16 22 17 10 18 11 20 12 21 17 22 13 23 16 24 14 25
REMARK SMILES IDX 15 26
REMARK H PARENT 6 7 10 19
ROOT
ATOM      1  C   UNL     1       5.471  41.558  47.984  1.00  0.00     0.118 C 
ENDROOT
BRANCH   1   2
ATOM      2  C   UNL     1       5.746  41.955  46.536  1.00  0.00     0.050 C 
BRANCH   2   3
ATOM      3  C   UNL     1       4.798  41.288  45.546  1.00  0.00     0.161 C 
BRANCH   3   4
ATOM      4  O   UNL     1       3.824  40.553  46.286  1.00  0.00    -0.385 OA
ATOM      5  C   UNL     1       2.522  40.704  45.735  1.00  0.00     0.194 C 
ENDBRANCH   3   4
ENDBRANCH   2   3
ENDBRANCH   1   2
BRANCH   1   6
ATOM      6  N   UNL     1       6.471  42.046  48.918  1.00  0.00    -0.354 N 
ATOM      7  H   UNL     1       7.035  41.354  49.397  1.00  0.00     0.163 HD
BRANCH   6   8
ATOM      8  C   UNL     1       6.071  42.982  49.858  1.00  0.00     0.226 A 
ATOM      9  N   UNL     1       6.814  44.088  50.053  1.00  0.00    -0.195 NA
ATOM     10  N   UNL     1       4.936  42.677  50.499  1.00  0.00    -0.193 NA
ATOM     11  C   UNL     1       6.445  45.003  50.983  1.00  0.00     0.147 A 
ATOM     12  C   UNL     1       4.576  43.612  51.393  1.00  0.00     0.165 A 
ATOM     13  C   UNL     1       5.257  44.777  51.681  1.00  0.00     0.082 A 
ATOM     14  N   UNL     1       3.467  43.615  52.194  1.00  0.00    -0.250 N 
ATOM     15  C   UNL     1       4.459  45.420  52.650  1.00  0.00     0.149 A 
ATOM     16  N   UNL     1       3.370  44.714  52.978  1.00  0.00    -0.179 NA
ATOM     17  C   UNL     1       2.445  42.603  52.264  1.00  0.00     0.176 C 
BRANCH  11  18
ATOM     18  N   UNL     1       7.264  46.134  51.123  1.00  0.00    -0.339 N 
ATOM     19  H   UNL     1       7.818  46.198  50.271  1.00  0.00     0.168 HD
BRANCH  18  20
ATOM     20  C   UNL     1       8.023  46.522  52.246  1.00  0.00     0.040 A 
ATOM     21  C   UNL     1       7.449  46.927  53.457  1.00  0.00     0.027 A 
ATOM     22  C   UNL     1       9.419  46.432  52.166  1.00  0.00     0.027 A 
ATOM     23  C   UNL     1       8.250  47.272  54.550  1.00  0.00     0.017 A 
ATOM     24  C   UNL     1      10.227  46.774  53.255  1.00  0.00     0.017 A 
ATOM     25  C   UNL     1       9.637  47.197  54.443  1.00  0.00     0.013 A 
ATOM     26  I   UNL     1      10.829  47.707  56.066  1.00  0.00    -0.044 I 
ENDBRANCH  18  20
ENDBRANCH  11  18
ENDBRANCH   6   8
ENDBRANCH   1   6
TORSDOF 7
ENDMDL
MODEL 14
REMARK VINA RESULT:    -7.113      3.302      6.038
REMARK INTER + INTRA:         -10.986
REMARK INTER:                 -10.083
REMARK INTRA:                  -0.902
REMARK UNBOUND:                -0.961
REMARK SMILES COCCCNc1nc(Nc2ccc(I)cc2)c2cnn(C)c2n1
REMARK SMILES IDX 5 1 4 2 3 3 2 4 1 5 6 6 7 8 8 9 24 10 9 11 23 12 18 13 21 14
REMARK SMILES IDX 19 15 20 16 22 17 10 18 11 20 12 21 17 22 13 23 16 24 14 25
REMARK SMILES IDX 15 26
REMARK H PARENT 6 7 10 19
ROOT
ATOM      1  C   UNL     1       7.978  43.664  49.448  1.00  0.00     0.118 C 
ENDROOT
BRANCH   1   2
ATOM      2  C   UNL     1       6.699  42.979  48.974  1.00  0.00     0.050 C 
BRANCH   2   3
ATOM      3  C   UNL     1       6.264  41.835  49.883  1.00  0.00     0.161 C 
BRANCH   3   4
ATOM      4  O   UNL     1       5.157  42.283  50.665  1.00  0.00    -0.385 OA
ATOM      5  C   UNL     1       3.992  41.505  50.420  1.00  0.00     0.194 C 
ENDBRANCH   3   4
ENDBRANCH   2   3
ENDBRANCH   1   2
BRANCH   1   6
ATOM      6  N   UNL     1       7.869  45.111  49.515  1.00  0.00    -0.354 N 
ATOM      7  H   UNL     1       8.672  45.651  49.215  1.00  0.00     0.163 HD
BRANCH   6   8
ATOM      8  C   UNL     1       7.408  45.669  50.696  1.00  0.00     0.226 A 
ATOM      9  N   UNL     1       6.089  45.886  50.860  1.00  0.00    -0.195 NA
ATOM     10  N   UNL     1       8.365  45.941  51.593  1.00  0.00    -0.193 NA
ATOM     11  C   UNL     1       5.627  46.448  52.004  1.00  0.00     0.147 A 
ATOM     12  C   UNL     1       7.879  46.469  52.728  1.00  0.00     0.165 A 
ATOM     13  C   UNL     1       6.554  46.741  53.005  1.00  0.00     0.082 A 
ATOM     14  N   UNL     1       8.581  46.840  53.841  1.00  0.00    -0.250 N 
ATOM     15  C   UNL     1       6.568  47.248  54.321  1.00  0.00     0.149 A 
ATOM     16  N   UNL     1       7.801  47.323  54.836  1.00  0.00    -0.179 NA
ATOM     17  C   UNL     1      10.006  46.757  54.036  1.00  0.00     0.176 C 
BRANCH  11  18
ATOM     18  N   UNL     1       4.240  46.634  52.105  1.00  0.00    -0.339 N 
ATOM     19  H   UNL     1       4.099  47.454  52.693  1.00  0.00     0.168 HD
BRANCH  18  20
ATOM     20  C   UNL     1       3.249  45.662  52.354  1.00  0.00     0.040 A 
ATOM     21  C   UNL     1       3.025  45.103  53.618  1.00  0.00     0.027 A 
ATOM     22  C   UNL     1       2.403  45.292  51.300  1.00  0.00     0.027 A 
ATOM     23  C   UNL     1       2.006  44.165  53.816  1.00  0.00     0.017 A 
ATOM     24  C   UNL     1       1.382  44.355  51.491  1.00  0.00     0.017 A 
ATOM     25  C   UNL     1       1.191  43.793  52.749  1.00  0.00     0.013 A 
ATOM     26  I   UNL     1      -0.324  42.401  53.041  1.00  0.00    -0.044 I 
ENDBRANCH  18  20
ENDBRANCH  11  18
ENDBRANCH   6   8
ENDBRANCH   1   6
TORSDOF 7
ENDMDL
MODEL 15
REMARK VINA RESULT:    -7.111      3.941      7.069
REMARK INTER + INTRA:         -10.983
REMARK INTER:                 -10.220
REMARK INTRA:                  -0.763
REMARK UNBOUND:                -0.961
REMARK SMILES COCCCNc1nc(Nc2ccc(I)cc2)c2cnn(C)c2n1
REMARK SMILES IDX 5 1 4 2 3 3 2 4 1 5 6 6 7 8 8 9 24 10 9 11 23 12 18 13 21 14
REMARK SMILES IDX 19 15 20 16 22 17 10 18 11 20 12 21 17 22 13 23 16 24 14 25
REMARK SMILES IDX 15 26
REMARK H PARENT 6 7 10 19
ROOT
ATOM      1  C   UNL     1       5.510  41.485  50.490  1.00  0.00     0.118 C 
ENDROOT
BRANCH   1   2
ATOM      2  C   UNL     1       5.788  41.414  48.991  1.00  0.00     0.050 C 
BRANCH   2   3
ATOM      3  C   UNL     1       6.570  42.615  48.473  1.00  0.00     0.161 C 
BRANCH   3   4
ATOM      4  O   UNL     1       7.616  42.901  49.402  1.00  0.00    -0.385 OA
ATOM      5  C   UNL     1       8.377  44.035  49.003  1.00  0.00     0.194 C 
ENDBRANCH   3   4
ENDBRANCH   2   3
ENDBRANCH   1   2
BRANCH   1   6
ATOM      6  N   UNL     1       4.201  42.026  50.811  1.00  0.00    -0.354 N 
ATOM      7  H   UNL     1       3.450  41.843  50.156  1.00  0.00     0.163 HD
BRANCH   6   8
ATOM      8  C   UNL     1       4.126  43.363  51.168  1.00  0.00     0.226 A 
ATOM      9  N   UNL     1       5.225  44.137  51.083  1.00  0.00    -0.195 NA
ATOM     10  N   UNL     1       2.915  43.764  51.575  1.00  0.00    -0.193 NA
ATOM     11  C   UNL     1       5.170  45.441  51.447  1.00  0.00     0.147 A 
ATOM     12  C   UNL     1       2.880  45.065  51.901  1.00  0.00     0.165 A 
ATOM     13  C   UNL     1       3.938  45.951  51.860  1.00  0.00     0.082 A 
ATOM     14  N   UNL     1       1.801  45.787  52.334  1.00  0.00    -0.250 N 
ATOM     15  C   UNL     1       3.381  47.183  52.261  1.00  0.00     0.149 A 
ATOM     16  N   UNL     1       2.081  47.091  52.563  1.00  0.00    -0.179 NA
ATOM     17  C   UNL     1       0.462  45.302  52.547  1.00  0.00     0.176 C 
BRANCH  11  18
ATOM     18  N   UNL     1       6.353  46.186  51.321  1.00  0.00    -0.339 N 
ATOM     19  H   UNL     1       6.845  45.817  50.509  1.00  0.00     0.168 HD
BRANCH  18  20
ATOM     20  C   UNL     1       7.263  46.548  52.336  1.00  0.00     0.040 A 
ATOM     21  C   UNL     1       6.864  46.937  53.621  1.00  0.00     0.027 A 
ATOM     22  C   UNL     1       8.634  46.446  52.065  1.00  0.00     0.027 A 
ATOM     23  C   UNL     1       7.812  47.255  54.599  1.00  0.00     0.017 A 
ATOM     24  C   UNL     1       9.587  46.762  53.038  1.00  0.00     0.017 A 
ATOM     25  C   UNL     1       9.170  47.169  54.302  1.00  0.00     0.013 A 
ATOM     26  I   UNL     1      10.579  47.640  55.755  1.00  0.00    -0.044 I 
ENDBRANCH  18  20
ENDBRANCH  11  18
ENDBRANCH   6   8
ENDBRANCH   1   6
TORSDOF 7
ENDMDL
MODEL 16
REMARK VINA RESULT:    -7.070      3.662      5.217
REMARK INTER + INTRA:         -10.924
REMARK INTER:                 -10.136
REMARK INTRA:                  -0.789
REMARK UNBOUND:                -0.961
REMARK SMILES COCCCNc1nc(Nc2ccc(I)cc2)c2cnn(C)c2n1
REMARK SMILES IDX 5 1 4 2 3 3 2 4 1 5 6 6 7 8 8 9 24 10 9 11 23 12 18 13 21 14
REMARK SMILES IDX 19 15 20 16 22 17 10 18 11 20 12 21 17 22 13 23 16 24 14 25
REMARK SMILES IDX 15 26
REMARK H PARENT 6 7 10 19
ROOT
ATOM      1  C   UNL     1       4.550  45.378  55.218  1.00  0.00     0.118 C 
ENDROOT
BRANCH   1   2
ATOM      2  C   UNL     1       5.100  46.764  54.891  1.00  0.00     0.050 C 
BRANCH   2   3
ATOM      3  C   UNL     1       4.865  47.172  53.442  1.00  0.00     0.161 C 
BRANCH   3   4
ATOM      4  O   UNL     1       3.530  47.665  53.328  1.00  0.00    -0.385 OA
ATOM      5  C   UNL     1       2.874  47.146  52.178  1.00  0.00     0.194 C 
ENDBRANCH   3   4
ENDBRANCH   2   3
ENDBRANCH   1   2
BRANCH   1   6
ATOM      6  N   UNL     1       3.126  45.373  55.505  1.00  0.00    -0.354 N 
ATOM      7  H   UNL     1       2.848  45.231  56.468  1.00  0.00     0.163 HD
BRANCH   6   8
ATOM      8  C   UNL     1       2.312  44.579  54.713  1.00  0.00     0.226 A 
ATOM      9  N   UNL     1       2.855  43.861  53.711  1.00  0.00    -0.195 NA
ATOM     10  N   UNL     1       1.015  44.606  55.045  1.00  0.00    -0.193 NA
ATOM     11  C   UNL     1       2.068  43.094  52.917  1.00  0.00     0.147 A 
ATOM     12  C   UNL     1       0.262  43.816  54.263  1.00  0.00     0.165 A 
ATOM     13  C   UNL     1       0.704  43.043  53.208  1.00  0.00     0.082 A 
ATOM     14  N   UNL     1      -1.087  43.605  54.347  1.00  0.00    -0.250 N 
ATOM     15  C   UNL     1      -0.455  42.387  52.744  1.00  0.00     0.149 A 
ATOM     16  N   UNL     1      -1.555  42.731  53.424  1.00  0.00    -0.179 NA
ATOM     17  C   UNL     1      -2.001  44.197  55.289  1.00  0.00     0.176 C 
BRANCH  11  18
ATOM     18  N   UNL     1       2.707  42.368  51.900  1.00  0.00    -0.339 N 
ATOM     19  H   UNL     1       2.644  41.386  52.161  1.00  0.00     0.168 HD
BRANCH  18  20
ATOM     20  C   UNL     1       3.943  42.644  51.281  1.00  0.00     0.040 A 
ATOM     21  C   UNL     1       4.724  41.663  50.658  1.00  0.00     0.027 A 
ATOM     22  C   UNL     1       4.376  43.976  51.228  1.00  0.00     0.027 A 
ATOM     23  C   UNL     1       5.929  41.999  50.030  1.00  0.00     0.017 A 
ATOM     24  C   UNL     1       5.578  44.319  50.602  1.00  0.00     0.017 A 
ATOM     25  C   UNL     1       6.352  43.326  50.008  1.00  0.00     0.013 A 
ATOM     26  I   UNL     1       8.140  43.826  49.076  1.00  0.00    -0.044 I 
ENDBRANCH  18  20
ENDBRANCH  11  18
ENDBRANCH   6   8
ENDBRANCH   1   6
TORSDOF 7
ENDMDL
MODEL 17
REMARK VINA RESULT:    -6.984      4.222      7.336
REMARK INTER + INTRA:         -10.803
REMARK INTER:                  -9.946
REMARK INTRA:                  -0.858
REMARK UNBOUND:                -0.961
REMARK SMILES COCCCNc1nc(Nc2ccc(I)cc2)c2cnn(C)c2n1
REMARK SMILES IDX 5 1 4 2 3 3 2 4 1 5 6 6 7 8 8 9 24 10 9 11 23 12 18 13 21 14
REMARK SMILES IDX 19 15 20 16 22 17 10 18 11 20 12 21 17 22 13 23 16 24 14 25
REMARK SMILES IDX 15 26
REMARK H PARENT 6 7 10 19
ROOT
ATOM      1  C   UNL     1       2.297  46.040  52.992  1.00  0.00     0.118 C 
ENDROOT
BRANCH   1   2
ATOM      2  C   UNL     1       1.097  45.174  53.367  1.00  0.00     0.050 C 
BRANCH   2   3
ATOM      3  C   UNL     1      -0.058  45.299  52.381  1.00  0.00     0.161 C 
BRANCH   3   4
ATOM      4  O   UNL     1       0.212  44.449  51.267  1.00  0.00    -0.385 OA
ATOM      5  C   UNL     1      -0.453  43.198  51.387  1.00  0.00     0.194 C 
ENDBRANCH   3   4
ENDBRANCH   2   3
ENDBRANCH   1   2
BRANCH   1   6
ATOM      6  N   UNL     1       2.634  45.984  51.580  1.00  0.00    -0.354 N 
ATOM      7  H   UNL     1       1.899  45.710  50.939  1.00  0.00     0.163 HD
BRANCH   6   8
ATOM      8  C   UNL     1       3.781  45.298  51.218  1.00  0.00     0.226 A 
ATOM      9  N   UNL     1       4.964  45.942  51.199  1.00  0.00    -0.195 NA
ATOM     10  N   UNL     1       3.586  44.008  50.916  1.00  0.00    -0.193 NA
ATOM     11  C   UNL     1       6.091  45.287  50.828  1.00  0.00     0.147 A 
ATOM     12  C   UNL     1       4.722  43.375  50.581  1.00  0.00     0.165 A 
ATOM     13  C   UNL     1       5.984  43.930  50.521  1.00  0.00     0.082 A 
ATOM     14  N   UNL     1       4.872  42.059  50.239  1.00  0.00    -0.250 N 
ATOM     15  C   UNL     1       6.823  42.856  50.159  1.00  0.00     0.149 A 
ATOM     16  N   UNL     1       6.153  41.713  49.973  1.00  0.00    -0.179 NA
ATOM     17  C   UNL     1       3.836  41.063  50.149  1.00  0.00     0.176 C 
BRANCH  11  18
ATOM     18  N   UNL     1       7.287  46.022  50.842  1.00  0.00    -0.339 N 
ATOM     19  H   UNL     1       7.859  45.662  50.080  1.00  0.00     0.168 HD
BRANCH  18  20
ATOM     20  C   UNL     1       8.087  46.358  51.954  1.00  0.00     0.040 A 
ATOM     21  C   UNL     1       9.487  46.360  51.918  1.00  0.00     0.027 A 
ATOM     22  C   UNL     1       7.448  46.777  53.129  1.00  0.00     0.027 A 
ATOM     23  C   UNL     1      10.232  46.733  53.042  1.00  0.00     0.017 A 
ATOM     24  C   UNL     1       8.186  47.152  54.256  1.00  0.00     0.017 A 
ATOM     25  C   UNL     1       9.577  47.124  54.208  1.00  0.00     0.013 A 
ATOM     26  I   UNL     1      10.681  47.680  55.878  1.00  0.00    -0.044 I 
ENDBRANCH  18  20
ENDBRANCH  11  18
ENDBRANCH   6   8
ENDBRANCH   1   6
TORSDOF 7
ENDMDL
MODEL 18
REMARK VINA RESULT:    -6.974      3.132      6.128
REMARK INTER + INTRA:         -10.789
REMARK INTER:                  -9.654
REMARK INTRA:                  -1.135
REMARK UNBOUND:                -0.961
REMARK SMILES COCCCNc1nc(Nc2ccc(I)cc2)c2cnn(C)c2n1
REMARK SMILES IDX 5 1 4 2 3 3 2 4 1 5 6 6 7 8 8 9 24 10 9 11 23 12 18 13 21 14
REMARK SMILES IDX 19 15 20 16 22 17 10 18 11 20 12 21 17 22 13 23 16 24 14 25
REMARK SMILES IDX 15 26
REMARK H PARENT 6 7 10 19
ROOT
ATOM      1  C   UNL     1       7.335  43.469  49.529  1.00  0.00     0.118 C 
ENDROOT
BRANCH   1   2
ATOM      2  C   UNL     1       7.116  41.978  49.770  1.00  0.00     0.050 C 
BRANCH   2   3
ATOM      3  C   UNL     1       5.734  41.502  49.340  1.00  0.00     0.161 C 
BRANCH   3   4
ATOM      4  O   UNL     1       4.895  41.464  50.495  1.00  0.00    -0.385 OA
ATOM      5  C   UNL     1       3.562  41.098  50.164  1.00  0.00     0.194 C 
ENDBRANCH   3   4
ENDBRANCH   2   3
ENDBRANCH   1   2
BRANCH   1   6
ATOM      6  N   UNL     1       6.172  44.283  49.836  1.00  0.00    -0.354 N 
ATOM      7  H   UNL     1       5.930  45.013  49.177  1.00  0.00     0.163 HD
BRANCH   6   8
ATOM      8  C   UNL     1       6.081  44.822  51.109  1.00  0.00     0.226 A 
ATOM      9  N   UNL     1       5.004  44.551  51.871  1.00  0.00    -0.195 NA
ATOM     10  N   UNL     1       7.121  45.587  51.465  1.00  0.00    -0.193 NA
ATOM     11  C   UNL     1       4.894  45.087  53.111  1.00  0.00     0.147 A 
ATOM     12  C   UNL     1       7.002  46.081  52.707  1.00  0.00     0.165 A 
ATOM     13  C   UNL     1       5.947  45.878  53.574  1.00  0.00     0.082 A 
ATOM     14  N   UNL     1       7.890  46.878  53.375  1.00  0.00    -0.250 N 
ATOM     15  C   UNL     1       6.315  46.573  54.745  1.00  0.00     0.149 A 
ATOM     16  N   UNL     1       7.494  47.197  54.630  1.00  0.00    -0.179 NA
ATOM     17  C   UNL     1       9.150  47.374  52.884  1.00  0.00     0.176 C 
BRANCH  11  18
ATOM     18  N   UNL     1       3.748  44.751  53.849  1.00  0.00    -0.339 N 
ATOM     19  H   UNL     1       4.059  44.149  54.609  1.00  0.00     0.168 HD
BRANCH  18  20
ATOM     20  C   UNL     1       2.492  44.337  53.362  1.00  0.00     0.040 A 
ATOM     21  C   UNL     1       2.120  42.991  53.247  1.00  0.00     0.027 A 
ATOM     22  C   UNL     1       1.546  45.320  53.043  1.00  0.00     0.027 A 
ATOM     23  C   UNL     1       0.847  42.637  52.787  1.00  0.00     0.017 A 
ATOM     24  C   UNL     1       0.272  44.973  52.583  1.00  0.00     0.017 A 
ATOM     25  C   UNL     1      -0.070  43.630  52.454  1.00  0.00     0.013 A 
ATOM     26  I   UNL     1      -1.961  43.106  51.771  1.00  0.00    -0.044 I 
ENDBRANCH  18  20
ENDBRANCH  11  18
ENDBRANCH   6   8
ENDBRANCH   1   6
TORSDOF 7
ENDMDL
MODEL 19
REMARK VINA RESULT:    -6.960      4.760      7.587
REMARK INTER + INTRA:         -10.769
REMARK INTER:                  -9.873
REMARK INTRA:                  -0.896
REMARK UNBOUND:                -0.961
REMARK SMILES COCCCNc1nc(Nc2ccc(I)cc2)c2cnn(C)c2n1
REMARK SMILES IDX 5 1 4 2 3 3 2 4 1 5 6 6 7 8 8 9 24 10 9 11 23 12 18 13 21 14
REMARK SMILES IDX 19 15 20 16 22 17 10 18 11 20 12 21 17 22 13 23 16 24 14 25
REMARK SMILES IDX 15 26
REMARK H PARENT 6 7 10 19
ROOT
ATOM      1  C   UNL     1      -0.547  44.962  56.464  1.00  0.00     0.118 C 
ENDROOT
BRANCH   1   2
ATOM      2  C   UNL     1      -1.642  45.734  57.196  1.00  0.00     0.050 C 
BRANCH   2   3
ATOM      3  C   UNL     1      -1.184  47.106  57.676  1.00  0.00     0.161 C 
BRANCH   3   4
ATOM      4  O   UNL     1       0.078  46.953  58.326  1.00  0.00    -0.385 OA
ATOM      5  C   UNL     1       0.205  47.827  59.440  1.00  0.00     0.194 C 
ENDBRANCH   3   4
ENDBRANCH   2   3
ENDBRANCH   1   2
BRANCH   1   6
ATOM      6  N   UNL     1       0.141  45.749  55.455  1.00  0.00    -0.354 N 
ATOM      7  H   UNL     1      -0.332  46.575  55.110  1.00  0.00     0.163 HD
BRANCH   6   8
ATOM      8  C   UNL     1       0.664  45.079  54.361  1.00  0.00     0.226 A 
ATOM      9  N   UNL     1       1.958  44.706  54.365  1.00  0.00    -0.195 NA
ATOM     10  N   UNL     1      -0.213  44.858  53.373  1.00  0.00    -0.193 NA
ATOM     11  C   UNL     1       2.487  44.066  53.294  1.00  0.00     0.147 A 
ATOM     12  C   UNL     1       0.327  44.197  52.337  1.00  0.00     0.165 A 
ATOM     13  C   UNL     1       1.636  43.771  52.227  1.00  0.00     0.082 A 
ATOM     14  N   UNL     1      -0.296  43.802  51.185  1.00  0.00    -0.250 N 
ATOM     15  C   UNL     1       1.686  43.109  50.983  1.00  0.00     0.149 A 
ATOM     16  N   UNL     1       0.516  43.131  50.334  1.00  0.00    -0.179 NA
ATOM     17  C   UNL     1      -1.673  44.021  50.825  1.00  0.00     0.176 C 
BRANCH  11  18
ATOM     18  N   UNL     1       3.839  43.701  53.375  1.00  0.00    -0.339 N 
ATOM     19  H   UNL     1       3.967  43.257  54.282  1.00  0.00     0.168 HD
BRANCH  18  20
ATOM     20  C   UNL     1       4.969  44.473  53.032  1.00  0.00     0.040 A 
ATOM     21  C   UNL     1       5.286  44.823  51.713  1.00  0.00     0.027 A 
ATOM     22  C   UNL     1       5.772  44.970  54.066  1.00  0.00     0.027 A 
ATOM     23  C   UNL     1       6.402  45.618  51.432  1.00  0.00     0.017 A 
ATOM     24  C   UNL     1       6.889  45.766  53.793  1.00  0.00     0.017 A 
ATOM     25  C   UNL     1       7.201  46.083  52.474  1.00  0.00     0.013 A 
ATOM     26  I   UNL     1       8.859  47.266  52.059  1.00  0.00    -0.044 I 
ENDBRANCH  18  20
ENDBRANCH  11  18
ENDBRANCH   6   8
ENDBRANCH   1   6
TORSDOF 7
ENDMDL
MODEL 20
REMARK VINA RESULT:    -6.859      3.285      5.257
REMARK INTER + INTRA:         -10.627
REMARK INTER:                  -9.672
REMARK INTRA:                  -0.955
REMARK UNBOUND:                -0.961
REMARK SMILES COCCCNc1nc(Nc2ccc(I)cc2)c2cnn(C)c2n1
REMARK SMILES IDX 5 1 4 2 3 3 2 4 1 5 6 6 7 8 8 9 24 10 9 11 23 12 18 13 21 14
REMARK SMILES IDX 19 15 20 16 22 17 10 18 11 20 12 21 17 22 13 23 16 24 14 25
REMARK SMILES IDX 15 26
REMARK H PARENT 6 7 10 19
ROOT
ATOM      1  C   UNL     1       3.965  47.121  53.031  1.00  0.00     0.118 C 
ENDROOT
BRANCH   1   2
ATOM      2  C   UNL     1       4.444  47.000  54.475  1.00  0.00     0.050 C 
BRANCH   2   3
ATOM      3  C   UNL     1       5.959  47.086  54.610  1.00  0.00     0.161 C 
BRANCH   3   4
ATOM      4  O   UNL     1       6.459  45.774  54.871  1.00  0.00    -0.385 OA
ATOM      5  C   UNL     1       5.446  44.918  55.384  1.00  0.00     0.194 C 
ENDBRANCH   3   4
ENDBRANCH   2   3
ENDBRANCH   1   2
BRANCH   1   6
ATOM      6  N   UNL     1       4.963  46.720  52.054  1.00  0.00    -0.354 N 
ATOM      7  H   UNL     1       5.054  47.291  51.223  1.00  0.00     0.163 HD
BRANCH   6   8
ATOM      8  C   UNL     1       4.976  45.393  51.654  1.00  0.00     0.226 A 
ATOM      9  N   UNL     1       3.990  44.568  52.056  1.00  0.00    -0.195 NA
ATOM     10  N   UNL     1       6.010  45.058  50.872  1.00  0.00    -0.193 NA
ATOM     11  C   UNL     1       4.000  43.264  51.687  1.00  0.00     0.147 A 
ATOM     12  C   UNL     1       5.980  43.769  50.496  1.00  0.00     0.165 A 
ATOM     13  C   UNL     1       5.030  42.832  50.848  1.00  0.00     0.082 A 
ATOM     14  N   UNL     1       6.871  43.117  49.688  1.00  0.00    -0.250 N 
ATOM     15  C   UNL     1       5.429  41.658  50.177  1.00  0.00     0.149 A 
ATOM     16  N   UNL     1       6.557  41.818  49.476  1.00  0.00    -0.179 NA
ATOM     17  C   UNL     1       8.049  43.670  49.072  1.00  0.00     0.176 C 
BRANCH  11  18
ATOM     18  N   UNL     1       2.936  42.468  52.136  1.00  0.00    -0.339 N 
ATOM     19  H   UNL     1       3.067  41.546  51.724  1.00  0.00     0.168 HD
BRANCH  18  20
ATOM     20  C   UNL     1       1.566  42.800  52.193  1.00  0.00     0.040 A 
ATOM     21  C   UNL     1       0.822  43.178  51.068  1.00  0.00     0.027 A 
ATOM     22  C   UNL     1       0.904  42.679  53.422  1.00  0.00     0.027 A 
ATOM     23  C   UNL     1      -0.543  43.466  51.176  1.00  0.00     0.017 A 
ATOM     24  C   UNL     1      -0.460  42.966  53.537  1.00  0.00     0.017 A 
ATOM     25  C   UNL     1      -1.177  43.362  52.412  1.00  0.00     0.013 A 
ATOM     26  I   UNL     1      -3.204  43.789  52.574  1.00  0.00    -0.044 I 
ENDBRANCH  18  20
ENDBRANCH  11  18
ENDBRANCH   6   8
ENDBRANCH   1   6
TORSDOF 7
ENDMDL
