MODEL 1
REMARK VINA RESULT:    -8.529      0.000      0.000
REMARK INTER + INTRA:         -12.768
REMARK INTER:                 -11.520
REMARK INTRA:                  -1.248
REMARK UNBOUND:                -1.248
REMARK SMILES Cn1ncc2c(Nc3cccc(Cl)c3)nc(NCC[NH+](C)C)nc21
REMARK SMILES IDX 17 1 18 3 19 4 20 5 21 6 22 7 16 9 15 10 23 11 6 12 24 13
REMARK SMILES IDX 5 14 2 15 4 16 3 17 1 18 7 19 8 21 9 22 14 23 10 24 12 25
REMARK SMILES IDX 11 26 13 27
REMARK H PARENT 17 2 20 8 7 20
ROOT
ATOM      1  N   UNL     1       4.590  47.070  54.988  1.00  0.00    -0.348 N 
ATOM      2  H   UNL     1       4.884  47.673  55.761  1.00  0.00     0.163 HD
ENDROOT
BRANCH   1   3
ATOM      3  C   UNL     1       4.002  45.805  55.420  1.00  0.00     0.177 C 
BRANCH   3   4
ATOM      4  C   UNL     1       2.583  45.616  54.836  1.00  0.00     0.283 C 
BRANCH   4   5
ATOM      5  N   UNL     1       2.629  45.213  53.370  1.00  0.00    -0.338 N 
ATOM      6  C   UNL     1       1.937  46.202  52.475  1.00  0.00     0.332 C 
ATOM      7  C   UNL     1       2.182  43.811  53.124  1.00  0.00     0.332 C 
ATOM      8  H   UNL     1       3.630  45.268  53.099  1.00  0.00     0.347 HD
ENDBRANCH   4   5
ENDBRANCH   3   4
ENDBRANCH   1   3
BRANCH   1   9
ATOM      9  C   UNL     1       5.738  46.959  54.209  1.00  0.00     0.226 A 
ATOM     10  N   UNL     1       5.533  46.483  52.976  1.00  0.00    -0.195 NA
ATOM     11  N   UNL     1       6.924  47.276  54.768  1.00  0.00    -0.193 NA
ATOM     12  C   UNL     1       6.579  46.314  52.128  1.00  0.00     0.147 A 
ATOM     13  C   UNL     1       7.947  47.081  53.911  1.00  0.00     0.165 A 
ATOM     14  C   UNL     1       7.857  46.603  52.614  1.00  0.00     0.082 A 
ATOM     15  N   UNL     1       9.283  47.302  54.130  1.00  0.00    -0.250 N 
ATOM     16  C   UNL     1       9.195  46.519  52.175  1.00  0.00     0.149 A 
ATOM     17  N   UNL     1      10.066  46.952  53.092  1.00  0.00    -0.179 NA
ATOM     18  C   UNL     1       9.901  47.837  55.317  1.00  0.00     0.176 C 
BRANCH  12  19
ATOM     19  N   UNL     1       6.292  45.792  50.862  1.00  0.00    -0.339 N 
ATOM     20  H   UNL     1       6.621  46.438  50.149  1.00  0.00     0.168 HD
BRANCH  19  21
ATOM     21  C   UNL     1       6.310  44.460  50.405  1.00  0.00     0.041 A 
ATOM     22  C   UNL     1       7.326  43.936  49.596  1.00  0.00     0.026 A 
ATOM     23  C   UNL     1       5.256  43.615  50.781  1.00  0.00     0.046 A 
ATOM     24  C   UNL     1       7.297  42.601  49.180  1.00  0.00     0.004 A 
ATOM     25  C   UNL     1       5.230  42.283  50.366  1.00  0.00     0.043 A 
ATOM     26  C   UNL     1       6.248  41.772  49.569  1.00  0.00     0.020 A 
ATOM     27  Cl  UNL     1       3.929  41.266  50.848  1.00  0.00    -0.084 Cl
ENDBRANCH  19  21
ENDBRANCH  12  19
ENDBRANCH   1   9
TORSDOF 6
ENDMDL
MODEL 2
REMARK VINA RESULT:    -8.055      2.658      5.410
REMARK INTER + INTRA:         -12.127
REMARK INTER:                 -11.175
REMARK INTRA:                  -0.952
REMARK UNBOUND:                -1.248
REMARK SMILES Cn1ncc2c(Nc3cccc(Cl)c3)nc(NCC[NH+](C)C)nc21
REMARK SMILES IDX 17 1 18 3 19 4 20 5 21 6 22 7 16 9 15 10 23 11 6 12 24 13
REMARK SMILES IDX 5 14 2 15 4 16 3 17 1 18 7 19 8 21 9 22 14 23 10 24 12 25
REMARK SMILES IDX 11 26 13 27
REMARK H PARENT 17 2 20 8 7 20
ROOT
ATOM      1  N   UNL     1       2.963  43.807  53.333  1.00  0.00    -0.348 N 
ATOM      2  H   UNL     1       2.216  43.272  52.883  1.00  0.00     0.163 HD
ENDROOT
BRANCH   1   3
ATOM      3  C   UNL     1       2.537  45.113  53.828  1.00  0.00     0.177 C 
BRANCH   3   4
ATOM      4  C   UNL     1       2.809  45.259  55.343  1.00  0.00     0.283 C 
BRANCH   4   5
ATOM      5  N   UNL     1       4.097  46.022  55.610  1.00  0.00    -0.338 N 
ATOM      6  C   UNL     1       4.289  47.183  54.675  1.00  0.00     0.332 C 
ATOM      7  C   UNL     1       5.303  45.145  55.685  1.00  0.00     0.332 C 
ATOM      8  H   UNL     1       3.974  46.455  56.546  1.00  0.00     0.347 HD
ENDBRANCH   4   5
ENDBRANCH   3   4
ENDBRANCH   1   3
BRANCH   1   9
ATOM      9  C   UNL     1       3.968  43.832  52.371  1.00  0.00     0.226 A 
ATOM     10  N   UNL     1       4.732  44.931  52.390  1.00  0.00    -0.195 NA
ATOM     11  N   UNL     1       4.044  42.808  51.497  1.00  0.00    -0.193 NA
ATOM     12  C   UNL     1       5.736  45.078  51.488  1.00  0.00     0.147 A 
ATOM     13  C   UNL     1       5.036  42.989  50.601  1.00  0.00     0.165 A 
ATOM     14  C   UNL     1       5.892  44.075  50.527  1.00  0.00     0.082 A 
ATOM     15  N   UNL     1       5.408  42.156  49.577  1.00  0.00    -0.250 N 
ATOM     16  C   UNL     1       6.690  43.820  49.392  1.00  0.00     0.149 A 
ATOM     17  N   UNL     1       6.404  42.648  48.816  1.00  0.00    -0.179 NA
ATOM     18  C   UNL     1       4.851  40.869  49.245  1.00  0.00     0.176 C 
BRANCH  12  19
ATOM     19  N   UNL     1       6.480  46.261  51.555  1.00  0.00    -0.339 N 
ATOM     20  H   UNL     1       5.852  47.044  51.719  1.00  0.00     0.168 HD
BRANCH  19  21
ATOM     21  C   UNL     1       7.760  46.498  52.093  1.00  0.00     0.041 A 
ATOM     22  C   UNL     1       8.945  46.071  51.480  1.00  0.00     0.026 A 
ATOM     23  C   UNL     1       7.851  47.197  53.305  1.00  0.00     0.046 A 
ATOM     24  C   UNL     1      10.190  46.344  52.057  1.00  0.00     0.004 A 
ATOM     25  C   UNL     1       9.094  47.469  53.877  1.00  0.00     0.043 A 
ATOM     26  C   UNL     1      10.265  47.047  53.257  1.00  0.00     0.020 A 
ATOM     27  Cl  UNL     1       9.178  48.335  55.362  1.00  0.00    -0.084 Cl
ENDBRANCH  19  21
ENDBRANCH  12  19
ENDBRANCH   1   9
TORSDOF 6
ENDMDL
MODEL 3
REMARK VINA RESULT:    -7.970      2.780      5.219
REMARK INTER + INTRA:         -12.014
REMARK INTER:                 -11.080
REMARK INTRA:                  -0.934
REMARK UNBOUND:                -1.248
REMARK SMILES Cn1ncc2c(Nc3cccc(Cl)c3)nc(NCC[NH+](C)C)nc21
REMARK SMILES IDX 17 1 18 3 19 4 20 5 21 6 22 7 16 9 15 10 23 11 6 12 24 13
REMARK SMILES IDX 5 14 2 15 4 16 3 17 1 18 7 19 8 21 9 22 14 23 10 24 12 25
REMARK SMILES IDX 11 26 13 27
REMARK H PARENT 17 2 20 8 7 20
ROOT
ATOM      1  N   UNL     1       2.655  44.575  54.532  1.00  0.00    -0.348 N 
ATOM      2  H   UNL     1       2.387  43.606  54.722  1.00  0.00     0.163 HD
ENDROOT
BRANCH   1   3
ATOM      3  C   UNL     1       1.526  45.451  54.232  1.00  0.00     0.177 C 
BRANCH   3   4
ATOM      4  C   UNL     1       0.226  44.641  54.016  1.00  0.00     0.283 C 
BRANCH   4   5
ATOM      5  N   UNL     1       0.295  43.799  52.752  1.00  0.00    -0.338 N 
ATOM      6  C   UNL     1      -0.527  44.367  51.630  1.00  0.00     0.332 C 
ATOM      7  C   UNL     1       0.017  42.351  52.986  1.00  0.00     0.332 C 
ATOM      8  H   UNL     1       1.277  43.873  52.422  1.00  0.00     0.347 HD
ENDBRANCH   4   5
ENDBRANCH   3   4
ENDBRANCH   1   3
BRANCH   1   9
ATOM      9  C   UNL     1       3.602  44.455  53.518  1.00  0.00     0.226 A 
ATOM     10  N   UNL     1       4.475  45.467  53.446  1.00  0.00    -0.195 NA
ATOM     11  N   UNL     1       3.523  43.394  52.690  1.00  0.00    -0.193 NA
ATOM     12  C   UNL     1       5.436  45.471  52.488  1.00  0.00     0.147 A 
ATOM     13  C   UNL     1       4.477  43.433  51.737  1.00  0.00     0.165 A 
ATOM     14  C   UNL     1       5.434  44.419  51.567  1.00  0.00     0.082 A 
ATOM     15  N   UNL     1       4.702  42.524  50.735  1.00  0.00    -0.250 N 
ATOM     16  C   UNL     1       6.136  44.035  50.406  1.00  0.00     0.149 A 
ATOM     17  N   UNL     1       5.699  42.877  49.901  1.00  0.00    -0.179 NA
ATOM     18  C   UNL     1       3.998  41.290  50.492  1.00  0.00     0.176 C 
BRANCH  12  19
ATOM     19  N   UNL     1       6.300  46.571  52.461  1.00  0.00    -0.339 N 
ATOM     20  H   UNL     1       5.851  47.362  52.916  1.00  0.00     0.168 HD
BRANCH  19  21
ATOM     21  C   UNL     1       7.701  46.626  52.584  1.00  0.00     0.041 A 
ATOM     22  C   UNL     1       8.580  46.340  51.531  1.00  0.00     0.026 A 
ATOM     23  C   UNL     1       8.245  46.987  53.825  1.00  0.00     0.046 A 
ATOM     24  C   UNL     1       9.965  46.421  51.709  1.00  0.00     0.004 A 
ATOM     25  C   UNL     1       9.628  47.068  54.000  1.00  0.00     0.043 A 
ATOM     26  C   UNL     1      10.490  46.788  52.945  1.00  0.00     0.020 A 
ATOM     27  Cl  UNL     1      10.268  47.519  55.531  1.00  0.00    -0.084 Cl
ENDBRANCH  19  21
ENDBRANCH  12  19
ENDBRANCH   1   9
TORSDOF 6
ENDMDL
MODEL 4
REMARK VINA RESULT:    -7.933      2.877      5.356
REMARK INTER + INTRA:         -11.963
REMARK INTER:                 -11.490
REMARK INTRA:                  -0.473
REMARK UNBOUND:                -1.248
REMARK SMILES Cn1ncc2c(Nc3cccc(Cl)c3)nc(NCC[NH+](C)C)nc21
REMARK SMILES IDX 17 1 18 3 19 4 20 5 21 6 22 7 16 9 15 10 23 11 6 12 24 13
REMARK SMILES IDX 5 14 2 15 4 16 3 17 1 18 7 19 8 21 9 22 14 23 10 24 12 25
REMARK SMILES IDX 11 26 13 27
REMARK H PARENT 17 2 20 8 7 20
ROOT
ATOM      1  N   UNL     1       2.464  44.167  54.251  1.00  0.00    -0.348 N 
ATOM      2  H   UNL     1       1.703  43.639  53.817  1.00  0.00     0.163 HD
ENDROOT
BRANCH   1   3
ATOM      3  C   UNL     1       2.072  45.497  54.708  1.00  0.00     0.177 C 
BRANCH   3   4
ATOM      4  C   UNL     1       1.259  45.425  56.021  1.00  0.00     0.283 C 
BRANCH   4   5
ATOM      5  N   UNL     1      -0.216  45.711  55.784  1.00  0.00    -0.338 N 
ATOM      6  C   UNL     1      -0.890  46.315  56.983  1.00  0.00     0.332 C 
ATOM      7  C   UNL     1      -0.967  44.544  55.234  1.00  0.00     0.332 C 
ATOM      8  H   UNL     1      -0.240  46.458  55.063  1.00  0.00     0.347 HD
ENDBRANCH   4   5
ENDBRANCH   3   4
ENDBRANCH   1   3
BRANCH   1   9
ATOM      9  C   UNL     1       3.469  44.139  53.288  1.00  0.00     0.226 A 
ATOM     10  N   UNL     1       4.293  45.193  53.310  1.00  0.00    -0.195 NA
ATOM     11  N   UNL     1       3.486  43.115  52.410  1.00  0.00    -0.193 NA
ATOM     12  C   UNL     1       5.303  45.286  52.407  1.00  0.00     0.147 A 
ATOM     13  C   UNL     1       4.486  43.243  51.514  1.00  0.00     0.165 A 
ATOM     14  C   UNL     1       5.402  44.280  51.442  1.00  0.00     0.082 A 
ATOM     15  N   UNL     1       4.809  42.393  50.487  1.00  0.00    -0.250 N 
ATOM     16  C   UNL     1       6.182  43.983  50.306  1.00  0.00     0.149 A 
ATOM     17  N   UNL     1       5.831  42.831  49.726  1.00  0.00    -0.179 NA
ATOM     18  C   UNL     1       4.180  41.141  50.152  1.00  0.00     0.176 C 
BRANCH  12  19
ATOM     19  N   UNL     1       6.112  46.425  52.476  1.00  0.00    -0.339 N 
ATOM     20  H   UNL     1       5.643  47.137  53.031  1.00  0.00     0.168 HD
BRANCH  19  21
ATOM     21  C   UNL     1       7.513  46.538  52.562  1.00  0.00     0.041 A 
ATOM     22  C   UNL     1       8.375  46.276  51.489  1.00  0.00     0.026 A 
ATOM     23  C   UNL     1       8.074  46.933  53.785  1.00  0.00     0.046 A 
ATOM     24  C   UNL     1       9.760  46.415  51.630  1.00  0.00     0.004 A 
ATOM     25  C   UNL     1       9.456  47.072  53.922  1.00  0.00     0.043 A 
ATOM     26  C   UNL     1      10.301  46.816  52.849  1.00  0.00     0.020 A 
ATOM     27  Cl  UNL     1      10.116  47.566  55.432  1.00  0.00    -0.084 Cl
ENDBRANCH  19  21
ENDBRANCH  12  19
ENDBRANCH   1   9
TORSDOF 6
ENDMDL
MODEL 5
REMARK VINA RESULT:    -7.846      2.747      5.929
REMARK INTER + INTRA:         -11.846
REMARK INTER:                 -11.015
REMARK INTRA:                  -0.831
REMARK UNBOUND:                -1.248
REMARK SMILES Cn1ncc2c(Nc3cccc(Cl)c3)nc(NCC[NH+](C)C)nc21
REMARK SMILES IDX 17 1 18 3 19 4 20 5 21 6 22 7 16 9 15 10 23 11 6 12 24 13
REMARK SMILES IDX 5 14 2 15 4 16 3 17 1 18 7 19 8 21 9 22 14 23 10 24 12 25
REMARK SMILES IDX 11 26 13 27
REMARK H PARENT 17 2 20 8 7 20
ROOT
ATOM      1  N   UNL     1       3.765  42.565  51.001  1.00  0.00    -0.348 N 
ATOM      2  H   UNL     1       3.049  42.015  51.483  1.00  0.00     0.163 HD
ENDROOT
BRANCH   1   3
ATOM      3  C   UNL     1       4.991  41.822  50.724  1.00  0.00     0.177 C 
BRANCH   3   4
ATOM      4  C   UNL     1       4.952  41.170  49.323  1.00  0.00     0.283 C 
BRANCH   4   5
ATOM      5  N   UNL     1       6.099  41.653  48.448  1.00  0.00    -0.338 N 
ATOM      6  C   UNL     1       6.824  42.829  49.038  1.00  0.00     0.332 C 
ATOM      7  C   UNL     1       5.708  41.879  47.026  1.00  0.00     0.332 C 
ATOM      8  H   UNL     1       6.796  40.882  48.455  1.00  0.00     0.347 HD
ENDBRANCH   4   5
ENDBRANCH   3   4
ENDBRANCH   1   3
BRANCH   1   9
ATOM      9  C   UNL     1       3.917  43.683  51.816  1.00  0.00     0.226 A 
ATOM     10  N   UNL     1       4.864  44.541  51.417  1.00  0.00    -0.195 NA
ATOM     11  N   UNL     1       3.160  43.772  52.929  1.00  0.00    -0.193 NA
ATOM     12  C   UNL     1       5.116  45.662  52.141  1.00  0.00     0.147 A 
ATOM     13  C   UNL     1       3.444  44.884  53.637  1.00  0.00     0.165 A 
ATOM     14  C   UNL     1       4.393  45.843  53.323  1.00  0.00     0.082 A 
ATOM     15  N   UNL     1       2.872  45.303  54.811  1.00  0.00    -0.250 N 
ATOM     16  C   UNL     1       4.348  46.752  54.400  1.00  0.00     0.149 A 
ATOM     17  N   UNL     1       3.417  46.431  55.305  1.00  0.00    -0.179 NA
ATOM     18  C   UNL     1       1.802  44.672  55.541  1.00  0.00     0.176 C 
BRANCH  12  19
ATOM     19  N   UNL     1       6.134  46.501  51.675  1.00  0.00    -0.339 N 
ATOM     20  H   UNL     1       5.754  47.428  51.502  1.00  0.00     0.168 HD
BRANCH  19  21
ATOM     21  C   UNL     1       7.496  46.556  52.029  1.00  0.00     0.041 A 
ATOM     22  C   UNL     1       8.521  46.020  51.238  1.00  0.00     0.026 A 
ATOM     23  C   UNL     1       7.844  47.179  53.236  1.00  0.00     0.046 A 
ATOM     24  C   UNL     1       9.859  46.113  51.636  1.00  0.00     0.004 A 
ATOM     25  C   UNL     1       9.179  47.271  53.630  1.00  0.00     0.043 A 
ATOM     26  C   UNL     1      10.189  46.742  52.833  1.00  0.00     0.020 A 
ATOM     27  Cl  UNL     1       9.578  48.047  55.113  1.00  0.00    -0.084 Cl
ENDBRANCH  19  21
ENDBRANCH  12  19
ENDBRANCH   1   9
TORSDOF 6
ENDMDL
MODEL 6
REMARK VINA RESULT:    -7.803      3.130      5.486
REMARK INTER + INTRA:         -11.787
REMARK INTER:                 -11.145
REMARK INTRA:                  -0.642
REMARK UNBOUND:                -1.248
REMARK SMILES Cn1ncc2c(Nc3cccc(Cl)c3)nc(NCC[NH+](C)C)nc21
REMARK SMILES IDX 17 1 18 3 19 4 20 5 21 6 22 7 16 9 15 10 23 11 6 12 24 13
REMARK SMILES IDX 5 14 2 15 4 16 3 17 1 18 7 19 8 21 9 22 14 23 10 24 12 25
REMARK SMILES IDX 11 26 13 27
REMARK H PARENT 17 2 20 8 7 20
ROOT
ATOM      1  N   UNL     1       2.775  45.820  56.044  1.00  0.00    -0.348 N 
ATOM      2  H   UNL     1       3.373  45.390  56.755  1.00  0.00     0.163 HD
ENDROOT
BRANCH   1   3
ATOM      3  C   UNL     1       1.392  45.354  56.078  1.00  0.00     0.177 C 
BRANCH   3   4
ATOM      4  C   UNL     1       0.587  46.057  57.196  1.00  0.00     0.283 C 
BRANCH   4   5
ATOM      5  N   UNL     1      -0.806  46.445  56.724  1.00  0.00    -0.338 N 
ATOM      6  C   UNL     1      -1.447  47.484  57.599  1.00  0.00     0.332 C 
ATOM      7  C   UNL     1      -1.700  45.274  56.482  1.00  0.00     0.332 C 
ATOM      8  H   UNL     1      -0.668  46.918  55.810  1.00  0.00     0.347 HD
ENDBRANCH   4   5
ENDBRANCH   3   4
ENDBRANCH   1   3
BRANCH   1   9
ATOM      9  C   UNL     1       3.458  45.576  54.856  1.00  0.00     0.226 A 
ATOM     10  N   UNL     1       4.448  46.437  54.593  1.00  0.00    -0.195 NA
ATOM     11  N   UNL     1       3.038  44.560  54.074  1.00  0.00    -0.193 NA
ATOM     12  C   UNL     1       5.176  46.310  53.454  1.00  0.00     0.147 A 
ATOM     13  C   UNL     1       3.765  44.470  52.942  1.00  0.00     0.165 A 
ATOM     14  C   UNL     1       4.812  45.295  52.565  1.00  0.00     0.082 A 
ATOM     15  N   UNL     1       3.628  43.561  51.924  1.00  0.00    -0.250 N 
ATOM     16  C   UNL     1       5.185  44.832  51.286  1.00  0.00     0.149 A 
ATOM     17  N   UNL     1       4.472  43.770  50.895  1.00  0.00    -0.179 NA
ATOM     18  C   UNL     1       2.699  42.462  51.847  1.00  0.00     0.176 C 
BRANCH  12  19
ATOM     19  N   UNL     1       6.180  47.259  53.235  1.00  0.00    -0.339 N 
ATOM     20  H   UNL     1       5.937  48.123  53.714  1.00  0.00     0.168 HD
BRANCH  19  21
ATOM     21  C   UNL     1       7.575  47.095  53.135  1.00  0.00     0.041 A 
ATOM     22  C   UNL     1       8.226  46.729  51.949  1.00  0.00     0.026 A 
ATOM     23  C   UNL     1       8.353  47.309  54.282  1.00  0.00     0.046 A 
ATOM     24  C   UNL     1       9.617  46.591  51.906  1.00  0.00     0.004 A 
ATOM     25  C   UNL     1       9.741  47.172  54.236  1.00  0.00     0.043 A 
ATOM     26  C   UNL     1      10.377  46.815  53.052  1.00  0.00     0.020 A 
ATOM     27  Cl  UNL     1      10.672  47.447  55.657  1.00  0.00    -0.084 Cl
ENDBRANCH  19  21
ENDBRANCH  12  19
ENDBRANCH   1   9
TORSDOF 6
ENDMDL
MODEL 7
REMARK VINA RESULT:    -7.743      2.655      5.397
REMARK INTER + INTRA:         -11.707
REMARK INTER:                 -11.131
REMARK INTRA:                  -0.576
REMARK UNBOUND:                -1.248
REMARK SMILES Cn1ncc2c(Nc3cccc(Cl)c3)nc(NCC[NH+](C)C)nc21
REMARK SMILES IDX 17 1 18 3 19 4 20 5 21 6 22 7 16 9 15 10 23 11 6 12 24 13
REMARK SMILES IDX 5 14 2 15 4 16 3 17 1 18 7 19 8 21 9 22 14 23 10 24 12 25
REMARK SMILES IDX 11 26 13 27
REMARK H PARENT 17 2 20 8 7 20
ROOT
ATOM      1  N   UNL     1       2.253  44.161  53.903  1.00  0.00    -0.348 N 
ATOM      2  H   UNL     1       1.492  43.773  53.339  1.00  0.00     0.163 HD
ENDROOT
BRANCH   1   3
ATOM      3  C   UNL     1       1.936  45.448  54.515  1.00  0.00     0.177 C 
BRANCH   3   4
ATOM      4  C   UNL     1       1.230  45.266  55.878  1.00  0.00     0.283 C 
BRANCH   4   5
ATOM      5  N   UNL     1      -0.198  45.787  55.845  1.00  0.00    -0.338 N 
ATOM      6  C   UNL     1      -0.632  46.379  57.156  1.00  0.00     0.332 C 
ATOM      7  C   UNL     1      -1.180  44.796  55.314  1.00  0.00     0.332 C 
ATOM      8  H   UNL     1      -0.185  46.589  55.185  1.00  0.00     0.347 HD
ENDBRANCH   4   5
ENDBRANCH   3   4
ENDBRANCH   1   3
BRANCH   1   9
ATOM      9  C   UNL     1       3.334  44.167  53.026  1.00  0.00     0.226 A 
ATOM     10  N   UNL     1       4.110  45.255  53.104  1.00  0.00    -0.195 NA
ATOM     11  N   UNL     1       3.466  43.138  52.165  1.00  0.00    -0.193 NA
ATOM     12  C   UNL     1       5.187  45.383  52.287  1.00  0.00     0.147 A 
ATOM     13  C   UNL     1       4.531  43.300  51.354  1.00  0.00     0.165 A 
ATOM     14  C   UNL     1       5.406  44.373  51.346  1.00  0.00     0.082 A 
ATOM     15  N   UNL     1       4.973  42.457  50.366  1.00  0.00    -0.250 N 
ATOM     16  C   UNL     1       6.290  44.101  50.281  1.00  0.00     0.149 A 
ATOM     17  N   UNL     1       6.036  42.930  49.688  1.00  0.00    -0.179 NA
ATOM     18  C   UNL     1       4.426  41.177  49.994  1.00  0.00     0.176 C 
BRANCH  12  19
ATOM     19  N   UNL     1       5.940  46.555  52.410  1.00  0.00    -0.339 N 
ATOM     20  H   UNL     1       5.329  47.319  52.688  1.00  0.00     0.168 HD
BRANCH  19  21
ATOM     21  C   UNL     1       7.255  46.742  52.880  1.00  0.00     0.041 A 
ATOM     22  C   UNL     1       7.555  47.298  54.130  1.00  0.00     0.026 A 
ATOM     23  C   UNL     1       8.317  46.352  52.053  1.00  0.00     0.046 A 
ATOM     24  C   UNL     1       8.881  47.451  54.549  1.00  0.00     0.004 A 
ATOM     25  C   UNL     1       9.639  46.504  52.473  1.00  0.00     0.043 A 
ATOM     26  C   UNL     1       9.925  47.050  53.719  1.00  0.00     0.020 A 
ATOM     27  Cl  UNL     1      10.923  46.010  51.440  1.00  0.00    -0.084 Cl
ENDBRANCH  19  21
ENDBRANCH  12  19
ENDBRANCH   1   9
TORSDOF 6
ENDMDL
MODEL 8
REMARK VINA RESULT:    -7.729      3.199      6.633
REMARK INTER + INTRA:         -11.687
REMARK INTER:                 -10.961
REMARK INTRA:                  -0.726
REMARK UNBOUND:                -1.248
REMARK SMILES Cn1ncc2c(Nc3cccc(Cl)c3)nc(NCC[NH+](C)C)nc21
REMARK SMILES IDX 17 1 18 3 19 4 20 5 21 6 22 7 16 9 15 10 23 11 6 12 24 13
REMARK SMILES IDX 5 14 2 15 4 16 3 17 1 18 7 19 8 21 9 22 14 23 10 24 12 25
REMARK SMILES IDX 11 26 13 27
REMARK H PARENT 17 2 20 8 7 20
ROOT
ATOM      1  N   UNL     1       5.835  41.538  49.815  1.00  0.00    -0.348 N 
ATOM      2  H   UNL     1       6.811  41.777  49.623  1.00  0.00     0.163 HD
ENDROOT
BRANCH   1   3
ATOM      3  C   UNL     1       5.071  41.180  48.623  1.00  0.00     0.177 C 
BRANCH   3   4
ATOM      4  C   UNL     1       5.741  41.724  47.340  1.00  0.00     0.283 C 
BRANCH   4   5
ATOM      5  N   UNL     1       5.075  41.179  46.086  1.00  0.00    -0.338 N 
ATOM      6  C   UNL     1       5.053  42.175  44.961  1.00  0.00     0.332 C 
ATOM      7  C   UNL     1       3.733  40.575  46.340  1.00  0.00     0.332 C 
ATOM      8  H   UNL     1       5.696  40.416  45.751  1.00  0.00     0.347 HD
ENDBRANCH   4   5
ENDBRANCH   3   4
ENDBRANCH   1   3
BRANCH   1   9
ATOM      9  C   UNL     1       5.362  42.643  50.517  1.00  0.00     0.226 A 
ATOM     10  N   UNL     1       6.131  43.735  50.425  1.00  0.00    -0.195 NA
ATOM     11  N   UNL     1       4.238  42.504  51.250  1.00  0.00    -0.193 NA
ATOM     12  C   UNL     1       5.782  44.871  51.080  1.00  0.00     0.147 A 
ATOM     13  C   UNL     1       3.926  43.641  51.904  1.00  0.00     0.165 A 
ATOM     14  C   UNL     1       4.637  44.829  51.880  1.00  0.00     0.082 A 
ATOM     15  N   UNL     1       2.856  43.869  52.732  1.00  0.00    -0.250 N 
ATOM     16  C   UNL     1       3.944  45.675  52.771  1.00  0.00     0.149 A 
ATOM     17  N   UNL     1       2.853  45.097  53.285  1.00  0.00    -0.179 NA
ATOM     18  C   UNL     1       1.790  42.956  53.061  1.00  0.00     0.176 C 
BRANCH  12  19
ATOM     19  N   UNL     1       6.645  45.966  50.954  1.00  0.00    -0.339 N 
ATOM     20  H   UNL     1       6.097  46.814  50.840  1.00  0.00     0.168 HD
BRANCH  19  21
ATOM     21  C   UNL     1       7.879  46.223  51.582  1.00  0.00     0.041 A 
ATOM     22  C   UNL     1       9.109  45.789  51.071  1.00  0.00     0.026 A 
ATOM     23  C   UNL     1       7.875  46.953  52.779  1.00  0.00     0.046 A 
ATOM     24  C   UNL     1      10.306  46.084  51.733  1.00  0.00     0.004 A 
ATOM     25  C   UNL     1       9.071  47.247  53.437  1.00  0.00     0.043 A 
ATOM     26  C   UNL     1      10.287  46.816  52.917  1.00  0.00     0.020 A 
ATOM     27  Cl  UNL     1       9.038  48.149  54.901  1.00  0.00    -0.084 Cl
ENDBRANCH  19  21
ENDBRANCH  12  19
ENDBRANCH   1   9
TORSDOF 6
ENDMDL
MODEL 9
REMARK VINA RESULT:    -7.682      2.722      6.482
REMARK INTER + INTRA:         -11.624
REMARK INTER:                 -10.772
REMARK INTRA:                  -0.853
REMARK UNBOUND:                -1.248
REMARK SMILES Cn1ncc2c(Nc3cccc(Cl)c3)nc(NCC[NH+](C)C)nc21
REMARK SMILES IDX 17 1 18 3 19 4 20 5 21 6 22 7 16 9 15 10 23 11 6 12 24 13
REMARK SMILES IDX 5 14 2 15 4 16 3 17 1 18 7 19 8 21 9 22 14 23 10 24 12 25
REMARK SMILES IDX 11 26 13 27
REMARK H PARENT 17 2 20 8 7 20
ROOT
ATOM      1  N   UNL     1       4.159  41.465  51.203  1.00  0.00    -0.348 N 
ATOM      2  H   UNL     1       4.218  40.866  52.030  1.00  0.00     0.163 HD
ENDROOT
BRANCH   1   3
ATOM      3  C   UNL     1       5.355  41.435  50.366  1.00  0.00     0.177 C 
BRANCH   3   4
ATOM      4  C   UNL     1       5.016  41.034  48.912  1.00  0.00     0.283 C 
BRANCH   4   5
ATOM      5  N   UNL     1       6.050  41.563  47.930  1.00  0.00    -0.338 N 
ATOM      6  C   UNL     1       6.748  42.797  48.429  1.00  0.00     0.332 C 
ATOM      7  C   UNL     1       5.524  41.728  46.543  1.00  0.00     0.332 C 
ATOM      8  H   UNL     1       6.793  40.838  47.891  1.00  0.00     0.347 HD
ENDBRANCH   4   5
ENDBRANCH   3   4
ENDBRANCH   1   3
BRANCH   1   9
ATOM      9  C   UNL     1       3.830  42.712  51.728  1.00  0.00     0.226 A 
ATOM     10  N   UNL     1       4.711  43.682  51.458  1.00  0.00    -0.195 NA
ATOM     11  N   UNL     1       2.719  42.814  52.487  1.00  0.00    -0.193 NA
ATOM     12  C   UNL     1       4.507  44.938  51.931  1.00  0.00     0.147 A 
ATOM     13  C   UNL     1       2.552  44.067  52.959  1.00  0.00     0.165 A 
ATOM     14  C   UNL     1       3.388  45.149  52.741  1.00  0.00     0.082 A 
ATOM     15  N   UNL     1       1.538  44.538  53.753  1.00  0.00    -0.250 N 
ATOM     16  C   UNL     1       2.817  46.194  53.496  1.00  0.00     0.149 A 
ATOM     17  N   UNL     1       1.685  45.829  54.107  1.00  0.00    -0.179 NA
ATOM     18  C   UNL     1       0.389  43.813  54.233  1.00  0.00     0.176 C 
BRANCH  12  19
ATOM     19  N   UNL     1       5.480  45.896  51.625  1.00  0.00    -0.339 N 
ATOM     20  H   UNL     1       5.035  46.700  51.189  1.00  0.00     0.168 HD
BRANCH  19  21
ATOM     21  C   UNL     1       6.642  46.264  52.331  1.00  0.00     0.041 A 
ATOM     22  C   UNL     1       6.622  46.794  53.628  1.00  0.00     0.026 A 
ATOM     23  C   UNL     1       7.883  46.089  51.702  1.00  0.00     0.046 A 
ATOM     24  C   UNL     1       7.810  47.131  54.284  1.00  0.00     0.004 A 
ATOM     25  C   UNL     1       9.067  46.426  52.360  1.00  0.00     0.043 A 
ATOM     26  C   UNL     1       9.036  46.945  53.649  1.00  0.00     0.020 A 
ATOM     27  Cl  UNL     1      10.577  46.195  51.567  1.00  0.00    -0.084 Cl
ENDBRANCH  19  21
ENDBRANCH  12  19
ENDBRANCH   1   9
TORSDOF 6
ENDMDL
MODEL 10
REMARK VINA RESULT:    -7.545      2.865      6.617
REMARK INTER + INTRA:         -11.439
REMARK INTER:                 -10.986
REMARK INTRA:                  -0.453
REMARK UNBOUND:                -1.248
REMARK SMILES Cn1ncc2c(Nc3cccc(Cl)c3)nc(NCC[NH+](C)C)nc21
REMARK SMILES IDX 17 1 18 3 19 4 20 5 21 6 22 7 16 9 15 10 23 11 6 12 24 13
REMARK SMILES IDX 5 14 2 15 4 16 3 17 1 18 7 19 8 21 9 22 14 23 10 24 12 25
REMARK SMILES IDX 11 26 13 27
REMARK H PARENT 17 2 20 8 7 20
ROOT
ATOM      1  N   UNL     1       3.539  41.653  51.188  1.00  0.00    -0.348 N 
ATOM      2  H   UNL     1       3.409  40.796  51.733  1.00  0.00     0.163 HD
ENDROOT
BRANCH   1   3
ATOM      3  C   UNL     1       4.864  41.774  50.587  1.00  0.00     0.177 C 
BRANCH   3   4
ATOM      4  C   UNL     1       4.919  41.092  49.201  1.00  0.00     0.283 C 
BRANCH   4   5
ATOM      5  N   UNL     1       6.032  41.665  48.338  1.00  0.00    -0.338 N 
ATOM      6  C   UNL     1       6.680  42.873  48.952  1.00  0.00     0.332 C 
ATOM      7  C   UNL     1       5.628  41.894  46.919  1.00  0.00     0.332 C 
ATOM      8  H   UNL     1       6.778  40.941  48.331  1.00  0.00     0.347 HD
ENDBRANCH   4   5
ENDBRANCH   3   4
ENDBRANCH   1   3
BRANCH   1   9
ATOM      9  C   UNL     1       3.196  42.661  52.086  1.00  0.00     0.226 A 
ATOM     10  N   UNL     1       4.215  43.440  52.466  1.00  0.00    -0.195 NA
ATOM     11  N   UNL     1       1.921  42.725  52.521  1.00  0.00    -0.193 NA
ATOM     12  C   UNL     1       4.008  44.449  53.351  1.00  0.00     0.147 A 
ATOM     13  C   UNL     1       1.749  43.721  53.413  1.00  0.00     0.165 A 
ATOM     14  C   UNL     1       2.721  44.593  53.875  1.00  0.00     0.082 A 
ATOM     15  N   UNL     1       0.593  44.084  54.056  1.00  0.00    -0.250 N 
ATOM     16  C   UNL     1       2.056  45.389  54.831  1.00  0.00     0.149 A 
ATOM     17  N   UNL     1       0.758  45.089  54.938  1.00  0.00    -0.179 NA
ATOM     18  C   UNL     1      -0.719  43.509  53.896  1.00  0.00     0.176 C 
BRANCH  12  19
ATOM     19  N   UNL     1       5.124  45.209  53.719  1.00  0.00    -0.339 N 
ATOM     20  H   UNL     1       5.380  44.989  54.678  1.00  0.00     0.168 HD
BRANCH  19  21
ATOM     21  C   UNL     1       6.243  45.601  52.959  1.00  0.00     0.041 A 
ATOM     22  C   UNL     1       6.272  45.572  51.558  1.00  0.00     0.026 A 
ATOM     23  C   UNL     1       7.385  46.045  53.639  1.00  0.00     0.046 A 
ATOM     24  C   UNL     1       7.409  45.985  50.855  1.00  0.00     0.004 A 
ATOM     25  C   UNL     1       8.518  46.457  52.936  1.00  0.00     0.043 A 
ATOM     26  C   UNL     1       8.534  46.430  51.546  1.00  0.00     0.020 A 
ATOM     27  Cl  UNL     1       9.904  47.003  53.796  1.00  0.00    -0.084 Cl
ENDBRANCH  19  21
ENDBRANCH  12  19
ENDBRANCH   1   9
TORSDOF 6
ENDMDL
MODEL 11
REMARK VINA RESULT:    -7.417      1.742      5.459
REMARK INTER + INTRA:         -11.266
REMARK INTER:                 -10.597
REMARK INTRA:                  -0.669
REMARK UNBOUND:                -1.248
REMARK SMILES Cn1ncc2c(Nc3cccc(Cl)c3)nc(NCC[NH+](C)C)nc21
REMARK SMILES IDX 17 1 18 3 19 4 20 5 21 6 22 7 16 9 15 10 23 11 6 12 24 13
REMARK SMILES IDX 5 14 2 15 4 16 3 17 1 18 7 19 8 21 9 22 14 23 10 24 12 25
REMARK SMILES IDX 11 26 13 27
REMARK H PARENT 17 2 20 8 7 20
ROOT
ATOM      1  N   UNL     1       5.468  47.162  54.696  1.00  0.00    -0.348 N 
ATOM      2  H   UNL     1       5.308  47.957  54.073  1.00  0.00     0.163 HD
ENDROOT
BRANCH   1   3
ATOM      3  C   UNL     1       6.802  46.580  54.578  1.00  0.00     0.177 C 
BRANCH   3   4
ATOM      4  C   UNL     1       7.597  47.224  53.418  1.00  0.00     0.283 C 
BRANCH   4   5
ATOM      5  N   UNL     1       9.017  46.685  53.344  1.00  0.00    -0.338 N 
ATOM      6  C   UNL     1       9.906  47.242  54.420  1.00  0.00     0.332 C 
ATOM      7  C   UNL     1       9.626  46.796  51.987  1.00  0.00     0.332 C 
ATOM      8  H   UNL     1       8.940  45.672  53.564  1.00  0.00     0.347 HD
ENDBRANCH   4   5
ENDBRANCH   3   4
ENDBRANCH   1   3
BRANCH   1   9
ATOM      9  C   UNL     1       4.414  46.302  54.400  1.00  0.00     0.226 A 
ATOM     10  N   UNL     1       4.457  45.767  53.174  1.00  0.00    -0.195 NA
ATOM     11  N   UNL     1       3.446  46.134  55.324  1.00  0.00    -0.193 NA
ATOM     12  C   UNL     1       3.474  44.924  52.765  1.00  0.00     0.147 A 
ATOM     13  C   UNL     1       2.474  45.309  54.884  1.00  0.00     0.165 A 
ATOM     14  C   UNL     1       2.413  44.693  53.645  1.00  0.00     0.082 A 
ATOM     15  N   UNL     1       1.345  44.907  55.551  1.00  0.00    -0.250 N 
ATOM     16  C   UNL     1       1.184  44.002  53.653  1.00  0.00     0.149 A 
ATOM     17  N   UNL     1       0.534  44.122  54.816  1.00  0.00    -0.179 NA
ATOM     18  C   UNL     1       0.954  45.241  56.897  1.00  0.00     0.176 C 
BRANCH  12  19
ATOM     19  N   UNL     1       3.573  44.420  51.463  1.00  0.00    -0.339 N 
ATOM     20  H   UNL     1       3.371  45.163  50.799  1.00  0.00     0.168 HD
BRANCH  19  21
ATOM     21  C   UNL     1       4.462  43.469  50.926  1.00  0.00     0.041 A 
ATOM     22  C   UNL     1       4.213  42.090  50.936  1.00  0.00     0.026 A 
ATOM     23  C   UNL     1       5.656  43.925  50.351  1.00  0.00     0.046 A 
ATOM     24  C   UNL     1       5.128  41.191  50.377  1.00  0.00     0.004 A 
ATOM     25  C   UNL     1       6.566  43.027  49.793  1.00  0.00     0.043 A 
ATOM     26  C   UNL     1       6.306  41.661  49.802  1.00  0.00     0.020 A 
ATOM     27  Cl  UNL     1       8.021  43.615  49.087  1.00  0.00    -0.084 Cl
ENDBRANCH  19  21
ENDBRANCH  12  19
ENDBRANCH   1   9
TORSDOF 6
ENDMDL
MODEL 12
REMARK VINA RESULT:    -7.383      2.690      5.674
REMARK INTER + INTRA:         -11.220
REMARK INTER:                 -10.437
REMARK INTRA:                  -0.783
REMARK UNBOUND:                -1.248
REMARK SMILES Cn1ncc2c(Nc3cccc(Cl)c3)nc(NCC[NH+](C)C)nc21
REMARK SMILES IDX 17 1 18 3 19 4 20 5 21 6 22 7 16 9 15 10 23 11 6 12 24 13
REMARK SMILES IDX 5 14 2 15 4 16 3 17 1 18 7 19 8 21 9 22 14 23 10 24 12 25
REMARK SMILES IDX 11 26 13 27
REMARK H PARENT 17 2 20 8 7 20
ROOT
ATOM      1  N   UNL     1       7.790  45.909  50.471  1.00  0.00    -0.348 N 
ATOM      2  H   UNL     1       8.267  45.573  49.630  1.00  0.00     0.163 HD
ENDROOT
BRANCH   1   3
ATOM      3  C   UNL     1       8.692  46.195  51.584  1.00  0.00     0.177 C 
BRANCH   3   4
ATOM      4  C   UNL     1       8.460  47.617  52.146  1.00  0.00     0.283 C 
BRANCH   4   5
ATOM      5  N   UNL     1       8.580  47.646  53.662  1.00  0.00    -0.338 N 
ATOM      6  C   UNL     1       9.936  47.213  54.145  1.00  0.00     0.332 C 
ATOM      7  C   UNL     1       7.471  46.934  54.361  1.00  0.00     0.332 C 
ATOM      8  H   UNL     1       8.515  48.649  53.926  1.00  0.00     0.347 HD
ENDBRANCH   4   5
ENDBRANCH   3   4
ENDBRANCH   1   3
BRANCH   1   9
ATOM      9  C   UNL     1       6.834  44.928  50.715  1.00  0.00     0.226 A 
ATOM     10  N   UNL     1       6.916  43.857  49.918  1.00  0.00    -0.195 NA
ATOM     11  N   UNL     1       5.905  45.161  51.665  1.00  0.00    -0.193 NA
ATOM     12  C   UNL     1       6.026  42.839  50.050  1.00  0.00     0.147 A 
ATOM     13  C   UNL     1       5.025  44.144  51.762  1.00  0.00     0.165 A 
ATOM     14  C   UNL     1       5.012  42.988  51.000  1.00  0.00     0.082 A 
ATOM     15  N   UNL     1       3.958  44.034  52.617  1.00  0.00    -0.250 N 
ATOM     16  C   UNL     1       3.868  42.289  51.437  1.00  0.00     0.149 A 
ATOM     17  N   UNL     1       3.228  42.918  52.427  1.00  0.00    -0.179 NA
ATOM     18  C   UNL     1       3.554  44.962  53.643  1.00  0.00     0.176 C 
BRANCH  12  19
ATOM     19  N   UNL     1       6.160  41.762  49.168  1.00  0.00    -0.339 N 
ATOM     20  H   UNL     1       6.502  40.951  49.677  1.00  0.00     0.168 HD
BRANCH  19  21
ATOM     21  C   UNL     1       5.366  41.388  48.066  1.00  0.00     0.041 A 
ATOM     22  C   UNL     1       4.239  40.563  48.173  1.00  0.00     0.026 A 
ATOM     23  C   UNL     1       5.722  41.868  46.798  1.00  0.00     0.046 A 
ATOM     24  C   UNL     1       3.480  40.233  47.045  1.00  0.00     0.004 A 
ATOM     25  C   UNL     1       4.963  41.539  45.674  1.00  0.00     0.043 A 
ATOM     26  C   UNL     1       3.842  40.724  45.793  1.00  0.00     0.020 A 
ATOM     27  Cl  UNL     1       5.419  42.146  44.131  1.00  0.00    -0.084 Cl
ENDBRANCH  19  21
ENDBRANCH  12  19
ENDBRANCH   1   9
TORSDOF 6
ENDMDL
MODEL 13
REMARK VINA RESULT:    -7.312      2.754      5.407
REMARK INTER + INTRA:         -11.125
REMARK INTER:                 -10.998
REMARK INTRA:                  -0.127
REMARK UNBOUND:                -1.248
REMARK SMILES Cn1ncc2c(Nc3cccc(Cl)c3)nc(NCC[NH+](C)C)nc21
REMARK SMILES IDX 17 1 18 3 19 4 20 5 21 6 22 7 16 9 15 10 23 11 6 12 24 13
REMARK SMILES IDX 5 14 2 15 4 16 3 17 1 18 7 19 8 21 9 22 14 23 10 24 12 25
REMARK SMILES IDX 11 26 13 27
REMARK H PARENT 17 2 20 8 7 20
ROOT
ATOM      1  N   UNL     1       2.315  42.300  52.888  1.00  0.00    -0.348 N 
ATOM      2  H   UNL     1       1.930  41.714  52.144  1.00  0.00     0.163 HD
ENDROOT
BRANCH   1   3
ATOM      3  C   UNL     1       1.386  43.315  53.378  1.00  0.00     0.177 C 
BRANCH   3   4
ATOM      4  C   UNL     1       1.220  44.467  52.360  1.00  0.00     0.283 C 
BRANCH   4   5
ATOM      5  N   UNL     1       1.360  45.827  53.024  1.00  0.00    -0.338 N 
ATOM      6  C   UNL     1       2.358  46.712  52.332  1.00  0.00     0.332 C 
ATOM      7  C   UNL     1       1.593  45.749  54.496  1.00  0.00     0.332 C 
ATOM      8  H   UNL     1       0.446  46.300  52.883  1.00  0.00     0.347 HD
ENDBRANCH   4   5
ENDBRANCH   3   4
ENDBRANCH   1   3
BRANCH   1   9
ATOM      9  C   UNL     1       3.496  42.790  52.337  1.00  0.00     0.226 A 
ATOM     10  N   UNL     1       4.047  43.807  53.010  1.00  0.00    -0.195 NA
ATOM     11  N   UNL     1       3.935  42.250  51.182  1.00  0.00    -0.193 NA
ATOM     12  C   UNL     1       5.193  44.379  52.560  1.00  0.00     0.147 A 
ATOM     13  C   UNL     1       5.063  42.849  50.749  1.00  0.00     0.165 A 
ATOM     14  C   UNL     1       5.726  43.901  51.360  1.00  0.00     0.082 A 
ATOM     15  N   UNL     1       5.789  42.561  49.621  1.00  0.00    -0.250 N 
ATOM     16  C   UNL     1       6.792  44.201  50.487  1.00  0.00     0.149 A 
ATOM     17  N   UNL     1       6.840  43.382  49.432  1.00  0.00    -0.179 NA
ATOM     18  C   UNL     1       5.538  41.520  48.657  1.00  0.00     0.176 C 
BRANCH  12  19
ATOM     19  N   UNL     1       5.700  45.451  53.303  1.00  0.00    -0.339 N 
ATOM     20  H   UNL     1       5.594  45.253  54.294  1.00  0.00     0.168 HD
BRANCH  19  21
ATOM     21  C   UNL     1       6.810  46.281  53.054  1.00  0.00     0.041 A 
ATOM     22  C   UNL     1       6.930  47.087  51.914  1.00  0.00     0.026 A 
ATOM     23  C   UNL     1       7.848  46.302  53.996  1.00  0.00     0.046 A 
ATOM     24  C   UNL     1       8.052  47.901  51.724  1.00  0.00     0.004 A 
ATOM     25  C   UNL     1       8.966  47.116  53.805  1.00  0.00     0.043 A 
ATOM     26  C   UNL     1       9.071  47.917  52.673  1.00  0.00     0.020 A 
ATOM     27  Cl  UNL     1      10.222  47.128  54.981  1.00  0.00    -0.084 Cl
ENDBRANCH  19  21
ENDBRANCH  12  19
ENDBRANCH   1   9
TORSDOF 6
ENDMDL
MODEL 14
REMARK VINA RESULT:    -7.170      3.225      6.018
REMARK INTER + INTRA:         -10.932
REMARK INTER:                 -10.122
REMARK INTRA:                  -0.810
REMARK UNBOUND:                -1.248
REMARK SMILES Cn1ncc2c(Nc3cccc(Cl)c3)nc(NCC[NH+](C)C)nc21
REMARK SMILES IDX 17 1 18 3 19 4 20 5 21 6 22 7 16 9 15 10 23 11 6 12 24 13
REMARK SMILES IDX 5 14 2 15 4 16 3 17 1 18 7 19 8 21 9 22 14 23 10 24 12 25
REMARK SMILES IDX 11 26 13 27
REMARK H PARENT 17 2 20 8 7 20
ROOT
ATOM      1  N   UNL     1       1.900  45.592  56.420  1.00  0.00    -0.348 N 
ATOM      2  H   UNL     1       2.722  45.155  56.843  1.00  0.00     0.163 HD
ENDROOT
BRANCH   1   3
ATOM      3  C   UNL     1       0.640  45.216  57.055  1.00  0.00     0.177 C 
BRANCH   3   4
ATOM      4  C   UNL     1      -0.132  46.459  57.555  1.00  0.00     0.283 C 
BRANCH   4   5
ATOM      5  N   UNL     1      -1.278  46.820  56.622  1.00  0.00    -0.338 N 
ATOM      6  C   UNL     1      -2.188  47.868  57.197  1.00  0.00     0.332 C 
ATOM      7  C   UNL     1      -2.026  45.633  56.112  1.00  0.00     0.332 C 
ATOM      8  H   UNL     1      -0.834  47.278  55.802  1.00  0.00     0.347 HD
ENDBRANCH   4   5
ENDBRANCH   3   4
ENDBRANCH   1   3
BRANCH   1   9
ATOM      9  C   UNL     1       2.012  45.257  55.073  1.00  0.00     0.226 A 
ATOM     10  N   UNL     1       2.865  46.017  54.377  1.00  0.00    -0.195 NA
ATOM     11  N   UNL     1       1.234  44.265  54.593  1.00  0.00    -0.193 NA
ATOM     12  C   UNL     1       3.047  45.796  53.050  1.00  0.00     0.147 A 
ATOM     13  C   UNL     1       1.421  44.080  53.271  1.00  0.00     0.165 A 
ATOM     14  C   UNL     1       2.277  44.796  52.450  1.00  0.00     0.082 A 
ATOM     15  N   UNL     1       0.811  43.162  52.455  1.00  0.00    -0.250 N 
ATOM     16  C   UNL     1       2.055  44.269  51.161  1.00  0.00     0.149 A 
ATOM     17  N   UNL     1       1.169  43.268  51.161  1.00  0.00    -0.179 NA
ATOM     18  C   UNL     1      -0.144  42.151  52.831  1.00  0.00     0.176 C 
BRANCH  12  19
ATOM     19  N   UNL     1       3.938  46.644  52.383  1.00  0.00    -0.339 N 
ATOM     20  H   UNL     1       3.816  47.595  52.721  1.00  0.00     0.168 HD
BRANCH  19  21
ATOM     21  C   UNL     1       5.259  46.412  51.951  1.00  0.00     0.041 A 
ATOM     22  C   UNL     1       5.585  45.549  50.896  1.00  0.00     0.026 A 
ATOM     23  C   UNL     1       6.300  47.079  52.612  1.00  0.00     0.046 A 
ATOM     24  C   UNL     1       6.915  45.365  50.504  1.00  0.00     0.004 A 
ATOM     25  C   UNL     1       7.626  46.894  52.218  1.00  0.00     0.043 A 
ATOM     26  C   UNL     1       7.938  46.041  51.165  1.00  0.00     0.020 A 
ATOM     27  Cl  UNL     1       8.884  47.731  53.041  1.00  0.00    -0.084 Cl
ENDBRANCH  19  21
ENDBRANCH  12  19
ENDBRANCH   1   9
TORSDOF 6
ENDMDL
MODEL 15
REMARK VINA RESULT:    -7.155      3.057      5.316
REMARK INTER + INTRA:         -10.913
REMARK INTER:                 -10.221
REMARK INTRA:                  -0.692
REMARK UNBOUND:                -1.248
REMARK SMILES Cn1ncc2c(Nc3cccc(Cl)c3)nc(NCC[NH+](C)C)nc21
REMARK SMILES IDX 17 1 18 3 19 4 20 5 21 6 22 7 16 9 15 10 23 11 6 12 24 13
REMARK SMILES IDX 5 14 2 15 4 16 3 17 1 18 7 19 8 21 9 22 14 23 10 24 12 25
REMARK SMILES IDX 11 26 13 27
REMARK H PARENT 17 2 20 8 7 20
ROOT
ATOM      1  N   UNL     1       3.672  42.850  51.047  1.00  0.00    -0.348 N 
ATOM      2  H   UNL     1       3.994  43.206  50.143  1.00  0.00     0.163 HD
ENDROOT
BRANCH   1   3
ATOM      3  C   UNL     1       2.306  42.335  51.024  1.00  0.00     0.177 C 
BRANCH   3   4
ATOM      4  C   UNL     1       1.283  43.464  50.759  1.00  0.00     0.283 C 
BRANCH   4   5
ATOM      5  N   UNL     1       0.386  43.702  51.964  1.00  0.00    -0.338 N 
ATOM      6  C   UNL     1      -0.699  42.670  52.093  1.00  0.00     0.332 C 
ATOM      7  C   UNL     1      -0.140  45.096  52.049  1.00  0.00     0.332 C 
ATOM      8  H   UNL     1       0.992  43.552  52.795  1.00  0.00     0.347 HD
ENDBRANCH   4   5
ENDBRANCH   3   4
ENDBRANCH   1   3
BRANCH   1   9
ATOM      9  C   UNL     1       3.894  43.917  51.913  1.00  0.00     0.226 A 
ATOM     10  N   UNL     1       4.865  44.754  51.531  1.00  0.00    -0.195 NA
ATOM     11  N   UNL     1       3.172  43.978  53.051  1.00  0.00    -0.193 NA
ATOM     12  C   UNL     1       5.184  45.824  52.304  1.00  0.00     0.147 A 
ATOM     13  C   UNL     1       3.523  45.038  53.807  1.00  0.00     0.165 A 
ATOM     14  C   UNL     1       4.502  45.972  53.515  1.00  0.00     0.082 A 
ATOM     15  N   UNL     1       3.001  45.417  55.018  1.00  0.00    -0.250 N 
ATOM     16  C   UNL     1       4.526  46.824  54.639  1.00  0.00     0.149 A 
ATOM     17  N   UNL     1       3.607  46.495  55.553  1.00  0.00    -0.179 NA
ATOM     18  C   UNL     1       1.925  44.793  55.745  1.00  0.00     0.176 C 
BRANCH  12  19
ATOM     19  N   UNL     1       6.224  46.644  51.852  1.00  0.00    -0.339 N 
ATOM     20  H   UNL     1       5.896  47.605  51.799  1.00  0.00     0.168 HD
BRANCH  19  21
ATOM     21  C   UNL     1       7.607  46.580  52.113  1.00  0.00     0.041 A 
ATOM     22  C   UNL     1       8.535  46.030  51.220  1.00  0.00     0.026 A 
ATOM     23  C   UNL     1       8.078  47.095  53.329  1.00  0.00     0.046 A 
ATOM     24  C   UNL     1       9.900  46.003  51.528  1.00  0.00     0.004 A 
ATOM     25  C   UNL     1       9.439  47.068  53.634  1.00  0.00     0.043 A 
ATOM     26  C   UNL     1      10.353  46.525  52.737  1.00  0.00     0.020 A 
ATOM     27  Cl  UNL     1       9.991  47.712  55.131  1.00  0.00    -0.084 Cl
ENDBRANCH  19  21
ENDBRANCH  12  19
ENDBRANCH   1   9
TORSDOF 6
ENDMDL
MODEL 16
REMARK VINA RESULT:    -7.129      2.359      6.047
REMARK INTER + INTRA:         -10.877
REMARK INTER:                 -10.144
REMARK INTRA:                  -0.733
REMARK UNBOUND:                -1.248
REMARK SMILES Cn1ncc2c(Nc3cccc(Cl)c3)nc(NCC[NH+](C)C)nc21
REMARK SMILES IDX 17 1 18 3 19 4 20 5 21 6 22 7 16 9 15 10 23 11 6 12 24 13
REMARK SMILES IDX 5 14 2 15 4 16 3 17 1 18 7 19 8 21 9 22 14 23 10 24 12 25
REMARK SMILES IDX 11 26 13 27
REMARK H PARENT 17 2 20 8 7 20
ROOT
ATOM      1  N   UNL     1       5.860  46.800  52.502  1.00  0.00    -0.348 N 
ATOM      2  H   UNL     1       5.844  47.411  51.681  1.00  0.00     0.163 HD
ENDROOT
BRANCH   1   3
ATOM      3  C   UNL     1       7.074  46.923  53.303  1.00  0.00     0.177 C 
BRANCH   3   4
ATOM      4  C   UNL     1       8.076  47.910  52.661  1.00  0.00     0.283 C 
BRANCH   4   5
ATOM      5  N   UNL     1       9.515  47.461  52.866  1.00  0.00    -0.338 N 
ATOM      6  C   UNL     1       9.902  46.322  51.965  1.00  0.00     0.332 C 
ATOM      7  C   UNL     1       9.859  47.200  54.295  1.00  0.00     0.332 C 
ATOM      8  H   UNL     1      10.102  48.258  52.550  1.00  0.00     0.347 HD
ENDBRANCH   4   5
ENDBRANCH   3   4
ENDBRANCH   1   3
BRANCH   1   9
ATOM      9  C   UNL     1       5.623  45.536  51.969  1.00  0.00     0.226 A 
ATOM     10  N   UNL     1       4.614  44.869  52.540  1.00  0.00    -0.195 NA
ATOM     11  N   UNL     1       6.441  45.088  50.994  1.00  0.00    -0.193 NA
ATOM     12  C   UNL     1       4.298  43.618  52.117  1.00  0.00     0.147 A 
ATOM     13  C   UNL     1       6.117  43.838  50.606  1.00  0.00     0.165 A 
ATOM     14  C   UNL     1       5.095  43.055  51.117  1.00  0.00     0.082 A 
ATOM     15  N   UNL     1       6.721  43.073  49.642  1.00  0.00    -0.250 N 
ATOM     16  C   UNL     1       5.216  41.827  50.434  1.00  0.00     0.149 A 
ATOM     17  N   UNL     1       6.200  41.836  49.529  1.00  0.00    -0.179 NA
ATOM     18  C   UNL     1       7.820  43.444  48.787  1.00  0.00     0.176 C 
BRANCH  12  19
ATOM     19  N   UNL     1       3.245  42.973  52.775  1.00  0.00    -0.339 N 
ATOM     20  H   UNL     1       3.492  42.836  53.751  1.00  0.00     0.168 HD
BRANCH  19  21
ATOM     21  C   UNL     1       1.853  43.106  52.604  1.00  0.00     0.041 A 
ATOM     22  C   UNL     1       1.220  43.044  51.356  1.00  0.00     0.026 A 
ATOM     23  C   UNL     1       1.061  43.311  53.743  1.00  0.00     0.046 A 
ATOM     24  C   UNL     1      -0.169  43.173  51.248  1.00  0.00     0.004 A 
ATOM     25  C   UNL     1      -0.324  43.437  53.633  1.00  0.00     0.043 A 
ATOM     26  C   UNL     1      -0.943  43.367  52.389  1.00  0.00     0.020 A 
ATOM     27  Cl  UNL     1      -1.273  43.680  55.047  1.00  0.00    -0.084 Cl
ENDBRANCH  19  21
ENDBRANCH  12  19
ENDBRANCH   1   9
TORSDOF 6
ENDMDL
MODEL 17
REMARK VINA RESULT:    -7.100      2.610      6.664
REMARK INTER + INTRA:         -10.838
REMARK INTER:                 -10.187
REMARK INTRA:                  -0.651
REMARK UNBOUND:                -1.248
REMARK SMILES Cn1ncc2c(Nc3cccc(Cl)c3)nc(NCC[NH+](C)C)nc21
REMARK SMILES IDX 17 1 18 3 19 4 20 5 21 6 22 7 16 9 15 10 23 11 6 12 24 13
REMARK SMILES IDX 5 14 2 15 4 16 3 17 1 18 7 19 8 21 9 22 14 23 10 24 12 25
REMARK SMILES IDX 11 26 13 27
REMARK H PARENT 17 2 20 8 7 20
ROOT
ATOM      1  N   UNL     1       7.017  46.210  51.260  1.00  0.00    -0.348 N 
ATOM      2  H   UNL     1       7.933  45.760  51.194  1.00  0.00     0.163 HD
ENDROOT
BRANCH   1   3
ATOM      3  C   UNL     1       6.927  47.210  52.320  1.00  0.00     0.177 C 
BRANCH   3   4
ATOM      4  C   UNL     1       8.305  47.845  52.614  1.00  0.00     0.283 C 
BRANCH   4   5
ATOM      5  N   UNL     1       9.303  46.812  53.114  1.00  0.00    -0.338 N 
ATOM      6  C   UNL     1       9.935  47.199  54.421  1.00  0.00     0.332 C 
ATOM      7  C   UNL     1      10.312  46.414  52.088  1.00  0.00     0.332 C 
ATOM      8  H   UNL     1       8.740  45.966  53.333  1.00  0.00     0.347 HD
ENDBRANCH   4   5
ENDBRANCH   3   4
ENDBRANCH   1   3
BRANCH   1   9
ATOM      9  C   UNL     1       6.137  45.137  51.376  1.00  0.00     0.226 A 
ATOM     10  N   UNL     1       5.307  45.206  52.423  1.00  0.00    -0.195 NA
ATOM     11  N   UNL     1       6.235  44.130  50.484  1.00  0.00    -0.193 NA
ATOM     12  C   UNL     1       4.413  44.209  52.650  1.00  0.00     0.147 A 
ATOM     13  C   UNL     1       5.350  43.146  50.745  1.00  0.00     0.165 A 
ATOM     14  C   UNL     1       4.441  43.109  51.789  1.00  0.00     0.082 A 
ATOM     15  N   UNL     1       5.161  41.979  50.050  1.00  0.00    -0.250 N 
ATOM     16  C   UNL     1       3.806  41.856  51.661  1.00  0.00     0.149 A 
ATOM     17  N   UNL     1       4.235  41.168  50.598  1.00  0.00    -0.179 NA
ATOM     18  C   UNL     1       5.836  41.550  48.851  1.00  0.00     0.176 C 
BRANCH  12  19
ATOM     19  N   UNL     1       3.592  44.339  53.775  1.00  0.00    -0.339 N 
ATOM     20  H   UNL     1       4.090  44.853  54.498  1.00  0.00     0.168 HD
BRANCH  19  21
ATOM     21  C   UNL     1       2.200  44.535  53.864  1.00  0.00     0.041 A 
ATOM     22  C   UNL     1       1.363  44.637  52.745  1.00  0.00     0.026 A 
ATOM     23  C   UNL     1       1.623  44.632  55.137  1.00  0.00     0.046 A 
ATOM     24  C   UNL     1      -0.015  44.821  52.893  1.00  0.00     0.004 A 
ATOM     25  C   UNL     1       0.247  44.814  55.283  1.00  0.00     0.043 A 
ATOM     26  C   UNL     1      -0.575  44.907  54.166  1.00  0.00     0.020 A 
ATOM     27  Cl  UNL     1      -0.436  44.924  56.858  1.00  0.00    -0.084 Cl
ENDBRANCH  19  21
ENDBRANCH  12  19
ENDBRANCH   1   9
TORSDOF 6
ENDMDL
MODEL 18
REMARK VINA RESULT:    -7.096      2.305      5.982
REMARK INTER + INTRA:         -10.833
REMARK INTER:                 -10.572
REMARK INTRA:                  -0.261
REMARK UNBOUND:                -1.248
REMARK SMILES Cn1ncc2c(Nc3cccc(Cl)c3)nc(NCC[NH+](C)C)nc21
REMARK SMILES IDX 17 1 18 3 19 4 20 5 21 6 22 7 16 9 15 10 23 11 6 12 24 13
REMARK SMILES IDX 5 14 2 15 4 16 3 17 1 18 7 19 8 21 9 22 14 23 10 24 12 25
REMARK SMILES IDX 11 26 13 27
REMARK H PARENT 17 2 20 8 7 20
ROOT
ATOM      1  N   UNL     1       2.783  46.954  52.832  1.00  0.00    -0.348 N 
ATOM      2  H   UNL     1       2.440  47.229  51.909  1.00  0.00     0.163 HD
ENDROOT
BRANCH   1   3
ATOM      3  C   UNL     1       4.238  46.998  52.957  1.00  0.00     0.177 C 
BRANCH   3   4
ATOM      4  C   UNL     1       4.670  47.261  54.418  1.00  0.00     0.283 C 
BRANCH   4   5
ATOM      5  N   UNL     1       5.799  46.335  54.844  1.00  0.00    -0.338 N 
ATOM      6  C   UNL     1       6.890  46.238  53.815  1.00  0.00     0.332 C 
ATOM      7  C   UNL     1       5.329  44.995  55.304  1.00  0.00     0.332 C 
ATOM      8  H   UNL     1       6.247  46.799  55.658  1.00  0.00     0.347 HD
ENDBRANCH   4   5
ENDBRANCH   3   4
ENDBRANCH   1   3
BRANCH   1   9
ATOM      9  C   UNL     1       2.205  45.704  53.034  1.00  0.00     0.226 A 
ATOM     10  N   UNL     1       2.921  44.675  52.567  1.00  0.00    -0.195 NA
ATOM     11  N   UNL     1       0.988  45.648  53.613  1.00  0.00    -0.193 NA
ATOM     12  C   UNL     1       2.452  43.407  52.691  1.00  0.00     0.147 A 
ATOM     13  C   UNL     1       0.539  44.380  53.706  1.00  0.00     0.165 A 
ATOM     14  C   UNL     1       1.190  43.239  53.267  1.00  0.00     0.082 A 
ATOM     15  N   UNL     1      -0.647  43.944  54.240  1.00  0.00    -0.250 N 
ATOM     16  C   UNL     1       0.284  42.191  53.530  1.00  0.00     0.149 A 
ATOM     17  N   UNL     1      -0.833  42.615  54.130  1.00  0.00    -0.179 NA
ATOM     18  C   UNL     1      -1.673  44.739  54.867  1.00  0.00     0.176 C 
BRANCH  12  19
ATOM     19  N   UNL     1       3.245  42.383  52.161  1.00  0.00    -0.339 N 
ATOM     20  H   UNL     1       2.667  41.564  51.990  1.00  0.00     0.168 HD
BRANCH  19  21
ATOM     21  C   UNL     1       4.330  42.449  51.266  1.00  0.00     0.041 A 
ATOM     22  C   UNL     1       4.699  41.394  50.421  1.00  0.00     0.026 A 
ATOM     23  C   UNL     1       5.080  43.633  51.217  1.00  0.00     0.046 A 
ATOM     24  C   UNL     1       5.781  41.520  49.544  1.00  0.00     0.004 A 
ATOM     25  C   UNL     1       6.159  43.757  50.340  1.00  0.00     0.043 A 
ATOM     26  C   UNL     1       6.511  42.705  49.502  1.00  0.00     0.020 A 
ATOM     27  Cl  UNL     1       7.058  45.223  50.297  1.00  0.00    -0.084 Cl
ENDBRANCH  19  21
ENDBRANCH  12  19
ENDBRANCH   1   9
TORSDOF 6
ENDMDL
MODEL 19
REMARK VINA RESULT:    -6.979      1.978      4.966
REMARK INTER + INTRA:         -10.675
REMARK INTER:                  -9.784
REMARK INTRA:                  -0.892
REMARK UNBOUND:                -1.248
REMARK SMILES Cn1ncc2c(Nc3cccc(Cl)c3)nc(NCC[NH+](C)C)nc21
REMARK SMILES IDX 17 1 18 3 19 4 20 5 21 6 22 7 16 9 15 10 23 11 6 12 24 13
REMARK SMILES IDX 5 14 2 15 4 16 3 17 1 18 7 19 8 21 9 22 14 23 10 24 12 25
REMARK SMILES IDX 11 26 13 27
REMARK H PARENT 17 2 20 8 7 20
ROOT
ATOM      1  N   UNL     1       6.152  43.925  49.502  1.00  0.00    -0.348 N 
ATOM      2  H   UNL     1       5.144  43.817  49.641  1.00  0.00     0.163 HD
ENDROOT
BRANCH   1   3
ATOM      3  C   UNL     1       6.890  42.666  49.541  1.00  0.00     0.177 C 
BRANCH   3   4
ATOM      4  C   UNL     1       6.078  41.558  50.252  1.00  0.00     0.283 C 
BRANCH   4   5
ATOM      5  N   UNL     1       4.582  41.815  50.162  1.00  0.00    -0.338 N 
ATOM      6  C   UNL     1       3.952  42.053  51.505  1.00  0.00     0.332 C 
ATOM      7  C   UNL     1       3.849  40.790  49.362  1.00  0.00     0.332 C 
ATOM      8  H   UNL     1       4.486  42.720  49.662  1.00  0.00     0.347 HD
ENDBRANCH   4   5
ENDBRANCH   3   4
ENDBRANCH   1   3
BRANCH   1   9
ATOM      9  C   UNL     1       6.513  44.858  50.470  1.00  0.00     0.226 A 
ATOM     10  N   UNL     1       5.484  45.452  51.085  1.00  0.00    -0.195 NA
ATOM     11  N   UNL     1       7.824  45.114  50.654  1.00  0.00    -0.193 NA
ATOM     12  C   UNL     1       5.711  46.393  52.038  1.00  0.00     0.147 A 
ATOM     13  C   UNL     1       8.020  46.065  51.590  1.00  0.00     0.165 A 
ATOM     14  C   UNL     1       7.039  46.742  52.296  1.00  0.00     0.082 A 
ATOM     15  N   UNL     1       9.213  46.571  52.039  1.00  0.00    -0.250 N 
ATOM     16  C   UNL     1       7.749  47.667  53.090  1.00  0.00     0.149 A 
ATOM     17  N   UNL     1       9.074  47.561  52.943  1.00  0.00    -0.179 NA
ATOM     18  C   UNL     1      10.540  46.173  51.645  1.00  0.00     0.176 C 
BRANCH  12  19
ATOM     19  N   UNL     1       4.587  46.985  52.623  1.00  0.00    -0.339 N 
ATOM     20  H   UNL     1       4.298  47.784  52.064  1.00  0.00     0.168 HD
BRANCH  19  21
ATOM     21  C   UNL     1       3.496  46.396  53.292  1.00  0.00     0.041 A 
ATOM     22  C   UNL     1       3.531  46.020  54.641  1.00  0.00     0.026 A 
ATOM     23  C   UNL     1       2.316  46.175  52.569  1.00  0.00     0.046 A 
ATOM     24  C   UNL     1       2.412  45.447  55.256  1.00  0.00     0.004 A 
ATOM     25  C   UNL     1       1.201  45.605  53.185  1.00  0.00     0.043 A 
ATOM     26  C   UNL     1       1.244  45.241  54.526  1.00  0.00     0.020 A 
ATOM     27  Cl  UNL     1      -0.238  45.351  52.276  1.00  0.00    -0.084 Cl
ENDBRANCH  19  21
ENDBRANCH  12  19
ENDBRANCH   1   9
TORSDOF 6
ENDMDL
MODEL 20
REMARK VINA RESULT:    -6.962      2.787      5.572
REMARK INTER + INTRA:         -10.652
REMARK INTER:                  -9.702
REMARK INTRA:                  -0.950
REMARK UNBOUND:                -1.248
REMARK SMILES Cn1ncc2c(Nc3cccc(Cl)c3)nc(NCC[NH+](C)C)nc21
REMARK SMILES IDX 17 1 18 3 19 4 20 5 21 6 22 7 16 9 15 10 23 11 6 12 24 13
REMARK SMILES IDX 5 14 2 15 4 16 3 17 1 18 7 19 8 21 9 22 14 23 10 24 12 25
REMARK SMILES IDX 11 26 13 27
REMARK H PARENT 17 2 20 8 7 20
ROOT
ATOM      1  N   UNL     1       5.008  46.710  52.181  1.00  0.00    -0.348 N 
ATOM      2  H   UNL     1       5.473  47.211  51.420  1.00  0.00     0.163 HD
ENDROOT
BRANCH   1   3
ATOM      3  C   UNL     1       5.632  46.910  53.487  1.00  0.00     0.177 C 
BRANCH   3   4
ATOM      4  C   UNL     1       4.589  47.316  54.553  1.00  0.00     0.283 C 
BRANCH   4   5
ATOM      5  N   UNL     1       4.260  46.159  55.484  1.00  0.00    -0.338 N 
ATOM      6  C   UNL     1       5.278  45.056  55.422  1.00  0.00     0.332 C 
ATOM      7  C   UNL     1       2.863  45.655  55.335  1.00  0.00     0.332 C 
ATOM      8  H   UNL     1       4.346  46.544  56.445  1.00  0.00     0.347 HD
ENDBRANCH   4   5
ENDBRANCH   3   4
ENDBRANCH   1   3
BRANCH   1   9
ATOM      9  C   UNL     1       4.977  45.393  51.731  1.00  0.00     0.226 A 
ATOM     10  N   UNL     1       3.984  44.653  52.237  1.00  0.00    -0.195 NA
ATOM     11  N   UNL     1       5.952  44.979  50.896  1.00  0.00    -0.193 NA
ATOM     12  C   UNL     1       3.860  43.347  51.884  1.00  0.00     0.147 A 
ATOM     13  C   UNL     1       5.816  43.676  50.578  1.00  0.00     0.165 A 
ATOM     14  C   UNL     1       4.830  42.815  51.031  1.00  0.00     0.082 A 
ATOM     15  N   UNL     1       6.613  42.923  49.754  1.00  0.00    -0.250 N 
ATOM     16  C   UNL     1       5.167  41.565  50.469  1.00  0.00     0.149 A 
ATOM     17  N   UNL     1       6.247  41.629  49.684  1.00  0.00    -0.179 NA
ATOM     18  C   UNL     1       7.761  43.361  49.002  1.00  0.00     0.176 C 
BRANCH  12  19
ATOM     19  N   UNL     1       2.811  42.630  52.469  1.00  0.00    -0.339 N 
ATOM     20  H   UNL     1       3.118  42.252  53.361  1.00  0.00     0.168 HD
BRANCH  19  21
ATOM     21  C   UNL     1       1.425  42.882  52.460  1.00  0.00     0.041 A 
ATOM     22  C   UNL     1       0.657  42.927  51.289  1.00  0.00     0.026 A 
ATOM     23  C   UNL     1       0.782  43.098  53.686  1.00  0.00     0.046 A 
ATOM     24  C   UNL     1      -0.719  43.172  51.341  1.00  0.00     0.004 A 
ATOM     25  C   UNL     1      -0.592  43.340  53.737  1.00  0.00     0.043 A 
ATOM     26  C   UNL     1      -1.345  43.377  52.568  1.00  0.00     0.020 A 
ATOM     27  Cl  UNL     1      -1.357  43.595  55.256  1.00  0.00    -0.084 Cl
ENDBRANCH  19  21
ENDBRANCH  12  19
ENDBRANCH   1   9
TORSDOF 6
ENDMDL
