MODEL 1
REMARK VINA RESULT:    -8.575      0.000      0.000
REMARK INTER + INTRA:         -13.342
REMARK INTER:                 -12.585
REMARK INTRA:                  -0.756
REMARK UNBOUND:                -0.756
REMARK SMILES CCCCCCNc1nc(Nc2ccccc2Cl)c2cnn(C)c2n1
REMARK SMILES IDX 6 1 5 2 4 3 3 4 2 5 1 6 7 7 8 9 9 10 25 11 10 12 24 13 19 14
REMARK SMILES IDX 22 15 20 16 21 17 23 18 11 19 12 21 13 22 17 23 14 24 16 25
REMARK SMILES IDX 15 26 18 27
REMARK H PARENT 7 8 11 20
ROOT
ATOM      1  C   UNL     1       5.158  47.189  54.582  1.00  0.00     0.116 C 
ENDROOT
BRANCH   1   2
ATOM      2  C   UNL     1       6.632  46.782  54.561  1.00  0.00     0.021 C 
BRANCH   2   3
ATOM      3  C   UNL     1       7.400  47.279  53.331  1.00  0.00     0.002 C 
BRANCH   3   4
ATOM      4  C   UNL     1       8.778  47.876  53.633  1.00  0.00    -0.000 C 
BRANCH   4   5
ATOM      5  C   UNL     1       9.897  46.831  53.625  1.00  0.00    -0.003 C 
ATOM      6  C   UNL     1      10.246  46.404  52.207  1.00  0.00     0.004 C 
ENDBRANCH   4   5
ENDBRANCH   3   4
ENDBRANCH   2   3
ENDBRANCH   1   2
BRANCH   1   7
ATOM      7  N   UNL     1       4.320  46.148  55.154  1.00  0.00    -0.354 N 
ATOM      8  H   UNL     1       4.743  45.585  55.881  1.00  0.00     0.163 HD
BRANCH   7   9
ATOM      9  C   UNL     1       3.697  45.278  54.271  1.00  0.00     0.226 A 
ATOM     10  N   UNL     1       4.390  44.774  53.231  1.00  0.00    -0.195 NA
ATOM     11  N   UNL     1       2.420  45.005  54.561  1.00  0.00    -0.193 NA
ATOM     12  C   UNL     1       3.811  43.912  52.355  1.00  0.00     0.147 A 
ATOM     13  C   UNL     1       1.860  44.157  53.687  1.00  0.00     0.165 A 
ATOM     14  C   UNL     1       2.472  43.580  52.591  1.00  0.00     0.082 A 
ATOM     15  N   UNL     1       0.576  43.685  53.694  1.00  0.00    -0.250 N 
ATOM     16  C   UNL     1       1.467  42.775  52.013  1.00  0.00     0.149 A 
ATOM     17  N   UNL     1       0.309  42.828  52.681  1.00  0.00    -0.179 NA
ATOM     18  C   UNL     1      -0.460  44.005  54.644  1.00  0.00     0.176 C 
BRANCH  12  19
ATOM     19  N   UNL     1       4.520  43.358  51.283  1.00  0.00    -0.338 N 
ATOM     20  H   UNL     1       4.115  42.506  50.910  1.00  0.00     0.168 HD
BRANCH  19  21
ATOM     21  C   UNL     1       5.726  43.709  50.639  1.00  0.00     0.058 A 
ATOM     22  C   UNL     1       6.348  44.952  50.803  1.00  0.00     0.027 A 
ATOM     23  C   UNL     1       6.363  42.773  49.796  1.00  0.00     0.064 A 
ATOM     24  C   UNL     1       7.554  45.252  50.157  1.00  0.00     0.002 A 
ATOM     25  C   UNL     1       7.567  43.068  49.149  1.00  0.00     0.023 A 
ATOM     26  C   UNL     1       8.164  44.311  49.333  1.00  0.00     0.002 A 
ATOM     27  Cl  UNL     1       5.662  41.209  49.531  1.00  0.00    -0.082 Cl
ENDBRANCH  19  21
ENDBRANCH  12  19
ENDBRANCH   7   9
ENDBRANCH   1   7
TORSDOF 8
ENDMDL
MODEL 2
REMARK VINA RESULT:    -8.536      2.320      4.681
REMARK INTER + INTRA:         -13.284
REMARK INTER:                 -11.623
REMARK INTRA:                  -1.661
REMARK UNBOUND:                -0.756
REMARK SMILES CCCCCCNc1nc(Nc2ccccc2Cl)c2cnn(C)c2n1
REMARK SMILES IDX 6 1 5 2 4 3 3 4 2 5 1 6 7 7 8 9 9 10 25 11 10 12 24 13 19 14
REMARK SMILES IDX 22 15 20 16 21 17 23 18 11 19 12 21 13 22 17 23 14 24 16 25
REMARK SMILES IDX 15 26 18 27
REMARK H PARENT 7 8 11 20
ROOT
ATOM      1  C   UNL     1       2.365  46.398  52.934  1.00  0.00     0.116 C 
ENDROOT
BRANCH   1   2
ATOM      2  C   UNL     1       1.954  45.376  53.994  1.00  0.00     0.021 C 
BRANCH   2   3
ATOM      3  C   UNL     1       3.030  45.105  55.052  1.00  0.00     0.002 C 
BRANCH   3   4
ATOM      4  C   UNL     1       3.982  46.276  55.314  1.00  0.00    -0.000 C 
BRANCH   4   5
ATOM      5  C   UNL     1       5.434  45.960  54.949  1.00  0.00    -0.003 C 
ATOM      6  C   UNL     1       5.572  44.548  54.399  1.00  0.00     0.004 C 
ENDBRANCH   4   5
ENDBRANCH   3   4
ENDBRANCH   2   3
ENDBRANCH   1   2
BRANCH   1   7
ATOM      7  N   UNL     1       2.382  45.815  51.603  1.00  0.00    -0.354 N 
ATOM      8  H   UNL     1       1.607  45.204  51.374  1.00  0.00     0.163 HD
BRANCH   7   9
ATOM      9  C   UNL     1       3.544  45.171  51.206  1.00  0.00     0.226 A 
ATOM     10  N   UNL     1       4.689  45.873  51.089  1.00  0.00    -0.195 NA
ATOM     11  N   UNL     1       3.410  43.859  50.984  1.00  0.00    -0.193 NA
ATOM     12  C   UNL     1       5.846  45.269  50.714  1.00  0.00     0.147 A 
ATOM     13  C   UNL     1       4.557  43.277  50.610  1.00  0.00     0.165 A 
ATOM     14  C   UNL     1       5.784  43.893  50.459  1.00  0.00     0.082 A 
ATOM     15  N   UNL     1       4.758  41.958  50.302  1.00  0.00    -0.250 N 
ATOM     16  C   UNL     1       6.652  42.854  50.064  1.00  0.00     0.149 A 
ATOM     17  N   UNL     1       6.038  41.669  49.970  1.00  0.00    -0.179 NA
ATOM     18  C   UNL     1       3.771  40.907  50.307  1.00  0.00     0.176 C 
BRANCH  12  19
ATOM     19  N   UNL     1       7.051  45.974  50.609  1.00  0.00    -0.338 N 
ATOM     20  H   UNL     1       7.341  46.166  49.657  1.00  0.00     0.168 HD
BRANCH  19  21
ATOM     21  C   UNL     1       7.987  46.429  51.562  1.00  0.00     0.058 A 
ATOM     22  C   UNL     1       7.679  47.373  52.548  1.00  0.00     0.027 A 
ATOM     23  C   UNL     1       9.300  45.911  51.550  1.00  0.00     0.064 A 
ATOM     24  C   UNL     1       8.636  47.785  53.485  1.00  0.00     0.002 A 
ATOM     25  C   UNL     1      10.259  46.319  52.483  1.00  0.00     0.023 A 
ATOM     26  C   UNL     1       9.924  47.257  53.454  1.00  0.00     0.002 A 
ATOM     27  Cl  UNL     1       9.772  44.740  50.361  1.00  0.00    -0.082 Cl
ENDBRANCH  19  21
ENDBRANCH  12  19
ENDBRANCH   7   9
ENDBRANCH   1   7
TORSDOF 8
ENDMDL
MODEL 3
REMARK VINA RESULT:    -8.439      2.343      5.591
REMARK INTER + INTRA:         -13.142
REMARK INTER:                 -11.906
REMARK INTRA:                  -1.236
REMARK UNBOUND:                -0.756
REMARK SMILES CCCCCCNc1nc(Nc2ccccc2Cl)c2cnn(C)c2n1
REMARK SMILES IDX 6 1 5 2 4 3 3 4 2 5 1 6 7 7 8 9 9 10 25 11 10 12 24 13 19 14
REMARK SMILES IDX 22 15 20 16 21 17 23 18 11 19 12 21 13 22 17 23 14 24 16 25
REMARK SMILES IDX 15 26 18 27
REMARK H PARENT 7 8 11 20
ROOT
ATOM      1  C   UNL     1       3.525  46.050  55.432  1.00  0.00     0.116 C 
ENDROOT
BRANCH   1   2
ATOM      2  C   UNL     1       2.467  44.946  55.374  1.00  0.00     0.021 C 
BRANCH   2   3
ATOM      3  C   UNL     1       1.785  44.805  54.008  1.00  0.00     0.002 C 
BRANCH   3   4
ATOM      4  C   UNL     1       2.024  45.975  53.048  1.00  0.00    -0.000 C 
BRANCH   4   5
ATOM      5  C   UNL     1       2.180  45.530  51.591  1.00  0.00    -0.003 C 
ATOM      6  C   UNL     1       3.158  46.422  50.841  1.00  0.00     0.004 C 
ENDBRANCH   4   5
ENDBRANCH   3   4
ENDBRANCH   2   3
ENDBRANCH   1   2
BRANCH   1   7
ATOM      7  N   UNL     1       4.859  45.506  55.622  1.00  0.00    -0.354 N 
ATOM      8  H   UNL     1       5.322  45.754  56.488  1.00  0.00     0.163 HD
BRANCH   7   9
ATOM      9  C   UNL     1       5.774  45.698  54.598  1.00  0.00     0.226 A 
ATOM     10  N   UNL     1       5.524  45.191  53.376  1.00  0.00    -0.195 NA
ATOM     11  N   UNL     1       6.855  46.410  54.938  1.00  0.00    -0.193 NA
ATOM     12  C   UNL     1       6.395  45.370  52.349  1.00  0.00     0.147 A 
ATOM     13  C   UNL     1       7.708  46.576  53.918  1.00  0.00     0.165 A 
ATOM     14  C   UNL     1       7.554  46.104  52.629  1.00  0.00     0.082 A 
ATOM     15  N   UNL     1       8.903  47.244  53.935  1.00  0.00    -0.250 N 
ATOM     16  C   UNL     1       8.709  46.549  51.953  1.00  0.00     0.149 A 
ATOM     17  N   UNL     1       9.536  47.249  52.739  1.00  0.00    -0.179 NA
ATOM     18  C   UNL     1       9.508  47.910  55.061  1.00  0.00     0.176 C 
BRANCH  12  19
ATOM     19  N   UNL     1       6.142  44.873  51.065  1.00  0.00    -0.338 N 
ATOM     20  H   UNL     1       6.212  45.565  50.328  1.00  0.00     0.168 HD
BRANCH  19  21
ATOM     21  C   UNL     1       5.748  43.607  50.582  1.00  0.00     0.058 A 
ATOM     22  C   UNL     1       4.593  42.946  51.017  1.00  0.00     0.027 A 
ATOM     23  C   UNL     1       6.532  42.961  49.602  1.00  0.00     0.064 A 
ATOM     24  C   UNL     1       4.232  41.696  50.498  1.00  0.00     0.002 A 
ATOM     25  C   UNL     1       6.174  41.713  49.080  1.00  0.00     0.023 A 
ATOM     26  C   UNL     1       5.020  41.081  49.529  1.00  0.00     0.002 A 
ATOM     27  Cl  UNL     1       7.982  43.704  49.007  1.00  0.00    -0.082 Cl
ENDBRANCH  19  21
ENDBRANCH  12  19
ENDBRANCH   7   9
ENDBRANCH   1   7
TORSDOF 8
ENDMDL
MODEL 4
REMARK VINA RESULT:    -8.438      1.137      1.518
REMARK INTER + INTRA:         -13.140
REMARK INTER:                 -12.006
REMARK INTRA:                  -1.134
REMARK UNBOUND:                -0.756
REMARK SMILES CCCCCCNc1nc(Nc2ccccc2Cl)c2cnn(C)c2n1
REMARK SMILES IDX 6 1 5 2 4 3 3 4 2 5 1 6 7 7 8 9 9 10 25 11 10 12 24 13 19 14
REMARK SMILES IDX 22 15 20 16 21 17 23 18 11 19 12 21 13 22 17 23 14 24 16 25
REMARK SMILES IDX 15 26 18 27
REMARK H PARENT 7 8 11 20
ROOT
ATOM      1  C   UNL     1       7.097  46.530  54.749  1.00  0.00     0.116 C 
ENDROOT
BRANCH   1   2
ATOM      2  C   UNL     1       7.920  47.628  54.073  1.00  0.00     0.021 C 
BRANCH   2   3
ATOM      3  C   UNL     1       7.615  47.810  52.582  1.00  0.00     0.002 C 
BRANCH   3   4
ATOM      4  C   UNL     1       8.782  47.485  51.644  1.00  0.00    -0.000 C 
BRANCH   4   5
ATOM      5  C   UNL     1       9.958  46.817  52.362  1.00  0.00    -0.003 C 
ATOM      6  C   UNL     1      10.437  45.584  51.610  1.00  0.00     0.004 C 
ENDBRANCH   4   5
ENDBRANCH   3   4
ENDBRANCH   2   3
ENDBRANCH   1   2
BRANCH   1   7
ATOM      7  N   UNL     1       5.719  46.942  54.959  1.00  0.00    -0.354 N 
ATOM      8  H   UNL     1       5.462  47.167  55.912  1.00  0.00     0.163 HD
BRANCH   7   9
ATOM      9  C   UNL     1       4.726  46.120  54.448  1.00  0.00     0.226 A 
ATOM     10  N   UNL     1       4.915  45.500  53.267  1.00  0.00    -0.195 NA
ATOM     11  N   UNL     1       3.638  46.010  55.219  1.00  0.00    -0.193 NA
ATOM     12  C   UNL     1       3.966  44.680  52.746  1.00  0.00     0.147 A 
ATOM     13  C   UNL     1       2.708  45.203  54.691  1.00  0.00     0.165 A 
ATOM     14  C   UNL     1       2.795  44.517  53.495  1.00  0.00     0.082 A 
ATOM     15  N   UNL     1       1.486  44.886  55.220  1.00  0.00    -0.250 N 
ATOM     16  C   UNL     1       1.574  43.816  53.405  1.00  0.00     0.149 A 
ATOM     17  N   UNL     1       0.771  44.029  54.454  1.00  0.00    -0.179 NA
ATOM     18  C   UNL     1       0.930  45.360  56.462  1.00  0.00     0.176 C 
BRANCH  12  19
ATOM     19  N   UNL     1       4.152  44.007  51.533  1.00  0.00    -0.338 N 
ATOM     20  H   UNL     1       3.308  43.601  51.146  1.00  0.00     0.168 HD
BRANCH  19  21
ATOM     21  C   UNL     1       5.294  43.721  50.754  1.00  0.00     0.058 A 
ATOM     22  C   UNL     1       6.284  44.668  50.469  1.00  0.00     0.027 A 
ATOM     23  C   UNL     1       5.477  42.419  50.239  1.00  0.00     0.064 A 
ATOM     24  C   UNL     1       7.410  44.336  49.705  1.00  0.00     0.002 A 
ATOM     25  C   UNL     1       6.600  42.083  49.476  1.00  0.00     0.023 A 
ATOM     26  C   UNL     1       7.570  43.044  49.211  1.00  0.00     0.002 A 
ATOM     27  Cl  UNL     1       4.300  41.182  50.539  1.00  0.00    -0.082 Cl
ENDBRANCH  19  21
ENDBRANCH  12  19
ENDBRANCH   7   9
ENDBRANCH   1   7
TORSDOF 8
ENDMDL
MODEL 5
REMARK VINA RESULT:    -8.413      2.289      5.861
REMARK INTER + INTRA:         -13.104
REMARK INTER:                 -11.769
REMARK INTRA:                  -1.336
REMARK UNBOUND:                -0.756
REMARK SMILES CCCCCCNc1nc(Nc2ccccc2Cl)c2cnn(C)c2n1
REMARK SMILES IDX 6 1 5 2 4 3 3 4 2 5 1 6 7 7 8 9 9 10 25 11 10 12 24 13 19 14
REMARK SMILES IDX 22 15 20 16 21 17 23 18 11 19 12 21 13 22 17 23 14 24 16 25
REMARK SMILES IDX 15 26 18 27
REMARK H PARENT 7 8 11 20
ROOT
ATOM      1  C   UNL     1       1.920  42.771  52.358  1.00  0.00     0.116 C 
ENDROOT
BRANCH   1   2
ATOM      2  C   UNL     1       1.051  43.829  53.038  1.00  0.00     0.021 C 
BRANCH   2   3
ATOM      3  C   UNL     1       1.694  44.467  54.274  1.00  0.00     0.002 C 
BRANCH   3   4
ATOM      4  C   UNL     1       2.026  45.955  54.129  1.00  0.00    -0.000 C 
BRANCH   4   5
ATOM      5  C   UNL     1       2.102  46.411  52.670  1.00  0.00    -0.003 C 
ATOM      6  C   UNL     1       3.129  47.520  52.489  1.00  0.00     0.004 C 
ENDBRANCH   4   5
ENDBRANCH   3   4
ENDBRANCH   2   3
ENDBRANCH   1   2
BRANCH   1   7
ATOM      7  N   UNL     1       3.272  42.760  52.894  1.00  0.00    -0.354 N 
ATOM      8  H   UNL     1       3.391  43.175  53.809  1.00  0.00     0.163 HD
BRANCH   7   9
ATOM      9  C   UNL     1       4.280  43.258  52.082  1.00  0.00     0.226 A 
ATOM     10  N   UNL     1       4.849  44.443  52.376  1.00  0.00    -0.195 NA
ATOM     11  N   UNL     1       4.610  42.470  51.052  1.00  0.00    -0.193 NA
ATOM     12  C   UNL     1       5.846  44.952  51.607  1.00  0.00     0.147 A 
ATOM     13  C   UNL     1       5.591  42.986  50.299  1.00  0.00     0.165 A 
ATOM     14  C   UNL     1       6.245  44.185  50.506  1.00  0.00     0.082 A 
ATOM     15  N   UNL     1       6.151  42.439  49.176  1.00  0.00    -0.250 N 
ATOM     16  C   UNL     1       7.182  44.258  49.453  1.00  0.00     0.149 A 
ATOM     17  N   UNL     1       7.137  43.197  48.640  1.00  0.00    -0.179 NA
ATOM     18  C   UNL     1       5.800  41.189  48.553  1.00  0.00     0.176 C 
BRANCH  12  19
ATOM     19  N   UNL     1       6.468  46.169  51.909  1.00  0.00    -0.338 N 
ATOM     20  H   UNL     1       5.991  46.984  51.541  1.00  0.00     0.168 HD
BRANCH  19  21
ATOM     21  C   UNL     1       7.666  46.500  52.577  1.00  0.00     0.058 A 
ATOM     22  C   UNL     1       8.923  46.462  51.961  1.00  0.00     0.027 A 
ATOM     23  C   UNL     1       7.621  46.908  53.928  1.00  0.00     0.064 A 
ATOM     24  C   UNL     1      10.085  46.815  52.658  1.00  0.00     0.002 A 
ATOM     25  C   UNL     1       8.779  47.261  54.627  1.00  0.00     0.023 A 
ATOM     26  C   UNL     1      10.014  47.217  53.989  1.00  0.00     0.002 A 
ATOM     27  Cl  UNL     1       6.108  46.981  54.772  1.00  0.00    -0.082 Cl
ENDBRANCH  19  21
ENDBRANCH  12  19
ENDBRANCH   7   9
ENDBRANCH   1   7
TORSDOF 8
ENDMDL
MODEL 6
REMARK VINA RESULT:    -8.410      2.215      6.107
REMARK INTER + INTRA:         -13.099
REMARK INTER:                 -12.058
REMARK INTRA:                  -1.041
REMARK UNBOUND:                -0.756
REMARK SMILES CCCCCCNc1nc(Nc2ccccc2Cl)c2cnn(C)c2n1
REMARK SMILES IDX 6 1 5 2 4 3 3 4 2 5 1 6 7 7 8 9 9 10 25 11 10 12 24 13 19 14
REMARK SMILES IDX 22 15 20 16 21 17 23 18 11 19 12 21 13 22 17 23 14 24 16 25
REMARK SMILES IDX 15 26 18 27
REMARK H PARENT 7 8 11 20
ROOT
ATOM      1  C   UNL     1       1.665  43.285  52.546  1.00  0.00     0.116 C 
ENDROOT
BRANCH   1   2
ATOM      2  C   UNL     1       0.598  42.715  53.481  1.00  0.00     0.021 C 
BRANCH   2   3
ATOM      3  C   UNL     1      -0.234  43.781  54.204  1.00  0.00     0.002 C 
BRANCH   3   4
ATOM      4  C   UNL     1       0.524  45.069  54.538  1.00  0.00    -0.000 C 
BRANCH   4   5
ATOM      5  C   UNL     1       1.493  44.906  55.711  1.00  0.00    -0.003 C 
ATOM      6  C   UNL     1       2.813  45.614  55.442  1.00  0.00     0.004 C 
ENDBRANCH   4   5
ENDBRANCH   3   4
ENDBRANCH   2   3
ENDBRANCH   1   2
BRANCH   1   7
ATOM      7  N   UNL     1       3.007  42.960  52.999  1.00  0.00    -0.354 N 
ATOM      8  H   UNL     1       3.225  43.203  53.958  1.00  0.00     0.163 HD
BRANCH   7   9
ATOM      9  C   UNL     1       4.065  43.397  52.214  1.00  0.00     0.226 A 
ATOM     10  N   UNL     1       4.663  44.570  52.495  1.00  0.00    -0.195 NA
ATOM     11  N   UNL     1       4.408  42.565  51.224  1.00  0.00    -0.193 NA
ATOM     12  C   UNL     1       5.708  45.020  51.752  1.00  0.00     0.147 A 
ATOM     13  C   UNL     1       5.436  43.023  50.496  1.00  0.00     0.165 A 
ATOM     14  C   UNL     1       6.124  44.204  50.693  1.00  0.00     0.082 A 
ATOM     15  N   UNL     1       6.021  42.420  49.415  1.00  0.00    -0.250 N 
ATOM     16  C   UNL     1       7.104  44.211  49.678  1.00  0.00     0.149 A 
ATOM     17  N   UNL     1       7.054  43.126  48.897  1.00  0.00    -0.179 NA
ATOM     18  C   UNL     1       5.651  41.162  48.818  1.00  0.00     0.176 C 
BRANCH  12  19
ATOM     19  N   UNL     1       6.360  46.224  52.041  1.00  0.00    -0.338 N 
ATOM     20  H   UNL     1       5.861  47.053  51.736  1.00  0.00     0.168 HD
BRANCH  19  21
ATOM     21  C   UNL     1       7.608  46.530  52.624  1.00  0.00     0.058 A 
ATOM     22  C   UNL     1       8.817  46.471  51.921  1.00  0.00     0.027 A 
ATOM     23  C   UNL     1       7.666  46.931  53.976  1.00  0.00     0.064 A 
ATOM     24  C   UNL     1      10.032  46.798  52.535  1.00  0.00     0.002 A 
ATOM     25  C   UNL     1       8.877  47.259  54.593  1.00  0.00     0.023 A 
ATOM     26  C   UNL     1      10.063  47.194  53.869  1.00  0.00     0.002 A 
ATOM     27  Cl  UNL     1       6.218  47.029  54.926  1.00  0.00    -0.082 Cl
ENDBRANCH  19  21
ENDBRANCH  12  19
ENDBRANCH   7   9
ENDBRANCH   1   7
TORSDOF 8
ENDMDL
MODEL 7
REMARK VINA RESULT:    -8.405      2.287      6.011
REMARK INTER + INTRA:         -13.092
REMARK INTER:                 -11.854
REMARK INTRA:                  -1.238
REMARK UNBOUND:                -0.756
REMARK SMILES CCCCCCNc1nc(Nc2ccccc2Cl)c2cnn(C)c2n1
REMARK SMILES IDX 6 1 5 2 4 3 3 4 2 5 1 6 7 7 8 9 9 10 25 11 10 12 24 13 19 14
REMARK SMILES IDX 22 15 20 16 21 17 23 18 11 19 12 21 13 22 17 23 14 24 16 25
REMARK SMILES IDX 15 26 18 27
REMARK H PARENT 7 8 11 20
ROOT
ATOM      1  C   UNL     1       3.864  45.849  55.481  1.00  0.00     0.116 C 
ENDROOT
BRANCH   1   2
ATOM      2  C   UNL     1       2.487  45.669  54.842  1.00  0.00     0.021 C 
BRANCH   2   3
ATOM      3  C   UNL     1       2.434  44.577  53.766  1.00  0.00     0.002 C 
BRANCH   3   4
ATOM      4  C   UNL     1       1.148  43.745  53.759  1.00  0.00    -0.000 C 
BRANCH   4   5
ATOM      5  C   UNL     1       1.124  42.692  52.648  1.00  0.00    -0.003 C 
ATOM      6  C   UNL     1       0.957  43.336  51.279  1.00  0.00     0.004 C 
ENDBRANCH   4   5
ENDBRANCH   3   4
ENDBRANCH   2   3
ENDBRANCH   1   2
BRANCH   1   7
ATOM      7  N   UNL     1       4.553  47.016  54.954  1.00  0.00    -0.354 N 
ATOM      8  H   UNL     1       3.972  47.709  54.499  1.00  0.00     0.163 HD
BRANCH   7   9
ATOM      9  C   UNL     1       5.644  46.789  54.128  1.00  0.00     0.226 A 
ATOM     10  N   UNL     1       5.472  46.149  52.956  1.00  0.00    -0.195 NA
ATOM     11  N   UNL     1       6.806  47.262  54.594  1.00  0.00    -0.193 NA
ATOM     12  C   UNL     1       6.519  45.922  52.121  1.00  0.00     0.147 A 
ATOM     13  C   UNL     1       7.831  47.027  53.763  1.00  0.00     0.165 A 
ATOM     14  C   UNL     1       7.772  46.385  52.541  1.00  0.00     0.082 A 
ATOM     15  N   UNL     1       9.143  47.372  53.944  1.00  0.00    -0.250 N 
ATOM     16  C   UNL     1       9.102  46.403  52.071  1.00  0.00     0.149 A 
ATOM     17  N   UNL     1       9.945  47.007  52.916  1.00  0.00    -0.179 NA
ATOM     18  C   UNL     1       9.710  48.059  55.077  1.00  0.00     0.176 C 
BRANCH  12  19
ATOM     19  N   UNL     1       6.358  45.280  50.887  1.00  0.00    -0.338 N 
ATOM     20  H   UNL     1       6.505  45.879  50.082  1.00  0.00     0.168 HD
BRANCH  19  21
ATOM     21  C   UNL     1       5.973  43.972  50.523  1.00  0.00     0.058 A 
ATOM     22  C   UNL     1       4.816  43.351  51.007  1.00  0.00     0.027 A 
ATOM     23  C   UNL     1       6.769  43.239  49.617  1.00  0.00     0.064 A 
ATOM     24  C   UNL     1       4.464  42.056  50.607  1.00  0.00     0.002 A 
ATOM     25  C   UNL     1       6.421  41.946  49.214  1.00  0.00     0.023 A 
ATOM     26  C   UNL     1       5.264  41.355  49.709  1.00  0.00     0.002 A 
ATOM     27  Cl  UNL     1       8.223  43.927  48.968  1.00  0.00    -0.082 Cl
ENDBRANCH  19  21
ENDBRANCH  12  19
ENDBRANCH   7   9
ENDBRANCH   1   7
TORSDOF 8
ENDMDL
MODEL 8
REMARK VINA RESULT:    -8.384      1.490      1.957
REMARK INTER + INTRA:         -13.061
REMARK INTER:                 -12.088
REMARK INTRA:                  -0.974
REMARK UNBOUND:                -0.756
REMARK SMILES CCCCCCNc1nc(Nc2ccccc2Cl)c2cnn(C)c2n1
REMARK SMILES IDX 6 1 5 2 4 3 3 4 2 5 1 6 7 7 8 9 9 10 25 11 10 12 24 13 19 14
REMARK SMILES IDX 22 15 20 16 21 17 23 18 11 19 12 21 13 22 17 23 14 24 16 25
REMARK SMILES IDX 15 26 18 27
REMARK H PARENT 7 8 11 20
ROOT
ATOM      1  C   UNL     1       5.712  45.250  55.333  1.00  0.00     0.116 C 
ENDROOT
BRANCH   1   2
ATOM      2  C   UNL     1       6.345  46.428  54.592  1.00  0.00     0.021 C 
BRANCH   2   3
ATOM      3  C   UNL     1       7.181  46.023  53.372  1.00  0.00     0.002 C 
BRANCH   3   4
ATOM      4  C   UNL     1       7.702  47.194  52.533  1.00  0.00    -0.000 C 
BRANCH   4   5
ATOM      5  C   UNL     1       9.224  47.187  52.375  1.00  0.00    -0.003 C 
ATOM      6  C   UNL     1       9.922  47.213  53.727  1.00  0.00     0.004 C 
ENDBRANCH   4   5
ENDBRANCH   3   4
ENDBRANCH   2   3
ENDBRANCH   1   2
BRANCH   1   7
ATOM      7  N   UNL     1       4.317  45.505  55.656  1.00  0.00    -0.354 N 
ATOM      8  H   UNL     1       4.039  45.313  56.610  1.00  0.00     0.163 HD
BRANCH   7   9
ATOM      9  C   UNL     1       3.361  44.938  54.827  1.00  0.00     0.226 A 
ATOM     10  N   UNL     1       3.725  44.443  53.628  1.00  0.00    -0.195 NA
ATOM     11  N   UNL     1       2.120  44.928  55.328  1.00  0.00    -0.193 NA
ATOM     12  C   UNL     1       2.814  43.872  52.799  1.00  0.00     0.147 A 
ATOM     13  C   UNL     1       1.230  44.366  54.498  1.00  0.00     0.165 A 
ATOM     14  C   UNL     1       1.491  43.827  53.253  1.00  0.00     0.082 A 
ATOM     15  N   UNL     1      -0.113  44.207  54.705  1.00  0.00    -0.250 N 
ATOM     16  C   UNL     1       0.235  43.367  52.802  1.00  0.00     0.149 A 
ATOM     17  N   UNL     1      -0.748  43.589  53.682  1.00  0.00    -0.179 NA
ATOM     18  C   UNL     1      -0.866  44.617  55.863  1.00  0.00     0.176 C 
BRANCH  12  19
ATOM     19  N   UNL     1       3.176  43.329  51.560  1.00  0.00    -0.338 N 
ATOM     20  H   UNL     1       2.393  43.024  50.993  1.00  0.00     0.168 HD
BRANCH  19  21
ATOM     21  C   UNL     1       4.420  43.061  50.951  1.00  0.00     0.058 A 
ATOM     22  C   UNL     1       4.910  41.766  50.744  1.00  0.00     0.027 A 
ATOM     23  C   UNL     1       5.224  44.134  50.507  1.00  0.00     0.064 A 
ATOM     24  C   UNL     1       6.144  41.546  50.121  1.00  0.00     0.002 A 
ATOM     25  C   UNL     1       6.457  43.919  49.884  1.00  0.00     0.023 A 
ATOM     26  C   UNL     1       6.916  42.620  49.689  1.00  0.00     0.002 A 
ATOM     27  Cl  UNL     1       4.699  45.773  50.725  1.00  0.00    -0.082 Cl
ENDBRANCH  19  21
ENDBRANCH  12  19
ENDBRANCH   7   9
ENDBRANCH   1   7
TORSDOF 8
ENDMDL
MODEL 9
REMARK VINA RESULT:    -8.325      2.163      4.793
REMARK INTER + INTRA:         -12.975
REMARK INTER:                 -11.752
REMARK INTRA:                  -1.223
REMARK UNBOUND:                -0.756
REMARK SMILES CCCCCCNc1nc(Nc2ccccc2Cl)c2cnn(C)c2n1
REMARK SMILES IDX 6 1 5 2 4 3 3 4 2 5 1 6 7 7 8 9 9 10 25 11 10 12 24 13 19 14
REMARK SMILES IDX 22 15 20 16 21 17 23 18 11 19 12 21 13 22 17 23 14 24 16 25
REMARK SMILES IDX 15 26 18 27
REMARK H PARENT 7 8 11 20
ROOT
ATOM      1  C   UNL     1       3.595  41.180  50.073  1.00  0.00     0.116 C 
ENDROOT
BRANCH   1   2
ATOM      2  C   UNL     1       4.574  40.933  48.925  1.00  0.00     0.021 C 
BRANCH   2   3
ATOM      3  C   UNL     1       6.031  41.272  49.262  1.00  0.00     0.002 C 
BRANCH   3   4
ATOM      4  C   UNL     1       6.504  42.640  48.761  1.00  0.00    -0.000 C 
BRANCH   4   5
ATOM      5  C   UNL     1       7.638  43.227  49.605  1.00  0.00    -0.003 C 
ATOM      6  C   UNL     1       8.548  44.116  48.771  1.00  0.00     0.004 C 
ENDBRANCH   4   5
ENDBRANCH   3   4
ENDBRANCH   2   3
ENDBRANCH   1   2
BRANCH   1   7
ATOM      7  N   UNL     1       4.283  41.580  51.290  1.00  0.00    -0.354 N 
ATOM      8  H   UNL     1       4.279  40.906  52.046  1.00  0.00     0.163 HD
BRANCH   7   9
ATOM      9  C   UNL     1       3.945  42.810  51.834  1.00  0.00     0.226 A 
ATOM     10  N   UNL     1       4.782  43.856  51.689  1.00  0.00    -0.195 NA
ATOM     11  N   UNL     1       2.765  42.839  52.464  1.00  0.00    -0.193 NA
ATOM     12  C   UNL     1       4.475  45.076  52.201  1.00  0.00     0.147 A 
ATOM     13  C   UNL     1       2.477  44.047  52.969  1.00  0.00     0.165 A 
ATOM     14  C   UNL     1       3.255  45.185  52.879  1.00  0.00     0.082 A 
ATOM     15  N   UNL     1       1.359  44.408  53.671  1.00  0.00    -0.250 N 
ATOM     16  C   UNL     1       2.509  46.172  53.557  1.00  0.00     0.149 A 
ATOM     17  N   UNL     1       1.349  45.711  54.039  1.00  0.00    -0.179 NA
ATOM     18  C   UNL     1       0.249  43.562  54.029  1.00  0.00     0.176 C 
BRANCH  12  19
ATOM     19  N   UNL     1       5.318  46.181  52.041  1.00  0.00    -0.338 N 
ATOM     20  H   UNL     1       4.893  46.965  51.558  1.00  0.00     0.168 HD
BRANCH  19  21
ATOM     21  C   UNL     1       6.672  46.416  52.363  1.00  0.00     0.058 A 
ATOM     22  C   UNL     1       7.703  46.380  51.417  1.00  0.00     0.027 A 
ATOM     23  C   UNL     1       7.028  46.720  53.695  1.00  0.00     0.064 A 
ATOM     24  C   UNL     1       9.031  46.636  51.779  1.00  0.00     0.002 A 
ATOM     25  C   UNL     1       8.353  46.976  54.061  1.00  0.00     0.023 A 
ATOM     26  C   UNL     1       9.356  46.936  53.099  1.00  0.00     0.002 A 
ATOM     27  Cl  UNL     1       5.817  46.782  54.935  1.00  0.00    -0.082 Cl
ENDBRANCH  19  21
ENDBRANCH  12  19
ENDBRANCH   7   9
ENDBRANCH   1   7
TORSDOF 8
ENDMDL
MODEL 10
REMARK VINA RESULT:    -8.301      2.230      5.514
REMARK INTER + INTRA:         -12.939
REMARK INTER:                 -12.331
REMARK INTRA:                  -0.609
REMARK UNBOUND:                -0.756
REMARK SMILES CCCCCCNc1nc(Nc2ccccc2Cl)c2cnn(C)c2n1
REMARK SMILES IDX 6 1 5 2 4 3 3 4 2 5 1 6 7 7 8 9 9 10 25 11 10 12 24 13 19 14
REMARK SMILES IDX 22 15 20 16 21 17 23 18 11 19 12 21 13 22 17 23 14 24 16 25
REMARK SMILES IDX 15 26 18 27
REMARK H PARENT 7 8 11 20
ROOT
ATOM      1  C   UNL     1       6.574  47.049  53.152  1.00  0.00     0.116 C 
ENDROOT
BRANCH   1   2
ATOM      2  C   UNL     1       7.693  47.833  52.464  1.00  0.00     0.021 C 
BRANCH   2   3
ATOM      3  C   UNL     1       8.929  46.992  52.127  1.00  0.00     0.002 C 
BRANCH   3   4
ATOM      4  C   UNL     1       9.903  46.786  53.292  1.00  0.00    -0.000 C 
BRANCH   4   5
ATOM      5  C   UNL     1       9.551  47.628  54.521  1.00  0.00    -0.003 C 
ATOM      6  C   UNL     1      10.603  47.482  55.611  1.00  0.00     0.004 C 
ENDBRANCH   4   5
ENDBRANCH   3   4
ENDBRANCH   2   3
ENDBRANCH   1   2
BRANCH   1   7
ATOM      7  N   UNL     1       5.464  46.792  52.250  1.00  0.00    -0.354 N 
ATOM      8  H   UNL     1       4.593  47.259  52.471  1.00  0.00     0.163 HD
BRANCH   7   9
ATOM      9  C   UNL     1       5.162  45.466  51.976  1.00  0.00     0.226 A 
ATOM     10  N   UNL     1       4.191  44.846  52.674  1.00  0.00    -0.195 NA
ATOM     11  N   UNL     1       5.888  44.917  50.996  1.00  0.00    -0.193 NA
ATOM     12  C   UNL     1       3.864  43.552  52.422  1.00  0.00     0.147 A 
ATOM     13  C   UNL     1       5.559  43.639  50.761  1.00  0.00     0.165 A 
ATOM     14  C   UNL     1       4.584  42.906  51.410  1.00  0.00     0.082 A 
ATOM     15  N   UNL     1       6.112  42.795  49.836  1.00  0.00    -0.250 N 
ATOM     16  C   UNL     1       4.632  41.638  50.793  1.00  0.00     0.149 A 
ATOM     17  N   UNL     1       5.556  41.561  49.829  1.00  0.00    -0.179 NA
ATOM     18  C   UNL     1       7.178  43.098  48.915  1.00  0.00     0.176 C 
BRANCH  12  19
ATOM     19  N   UNL     1       2.842  42.896  53.118  1.00  0.00    -0.338 N 
ATOM     20  H   UNL     1       3.126  42.028  53.558  1.00  0.00     0.168 HD
BRANCH  19  21
ATOM     21  C   UNL     1       1.467  43.163  53.290  1.00  0.00     0.058 A 
ATOM     22  C   UNL     1       0.471  42.617  52.471  1.00  0.00     0.027 A 
ATOM     23  C   UNL     1       1.047  44.008  54.340  1.00  0.00     0.064 A 
ATOM     24  C   UNL     1      -0.883  42.897  52.688  1.00  0.00     0.002 A 
ATOM     25  C   UNL     1      -0.304  44.290  54.561  1.00  0.00     0.023 A 
ATOM     26  C   UNL     1      -1.272  43.730  53.733  1.00  0.00     0.002 A 
ATOM     27  Cl  UNL     1       2.212  44.733  55.402  1.00  0.00    -0.082 Cl
ENDBRANCH  19  21
ENDBRANCH  12  19
ENDBRANCH   7   9
ENDBRANCH   1   7
TORSDOF 8
ENDMDL
MODEL 11
REMARK VINA RESULT:    -8.262      2.556      6.660
REMARK INTER + INTRA:         -12.882
REMARK INTER:                 -11.288
REMARK INTRA:                  -1.594
REMARK UNBOUND:                -0.756
REMARK SMILES CCCCCCNc1nc(Nc2ccccc2Cl)c2cnn(C)c2n1
REMARK SMILES IDX 6 1 5 2 4 3 3 4 2 5 1 6 7 7 8 9 9 10 25 11 10 12 24 13 19 14
REMARK SMILES IDX 22 15 20 16 21 17 23 18 11 19 12 21 13 22 17 23 14 24 16 25
REMARK SMILES IDX 15 26 18 27
REMARK H PARENT 7 8 11 20
ROOT
ATOM      1  C   UNL     1       8.030  43.809  49.485  1.00  0.00     0.116 C 
ENDROOT
BRANCH   1   2
ATOM      2  C   UNL     1       6.993  43.035  48.671  1.00  0.00     0.021 C 
BRANCH   2   3
ATOM      3  C   UNL     1       6.243  41.964  49.472  1.00  0.00     0.002 C 
BRANCH   3   4
ATOM      4  C   UNL     1       5.322  42.509  50.567  1.00  0.00    -0.000 C 
BRANCH   4   5
ATOM      5  C   UNL     1       4.191  41.544  50.933  1.00  0.00    -0.003 C 
ATOM      6  C   UNL     1       3.650  40.832  49.702  1.00  0.00     0.004 C 
ENDBRANCH   4   5
ENDBRANCH   3   4
ENDBRANCH   2   3
ENDBRANCH   1   2
BRANCH   1   7
ATOM      7  N   UNL     1       7.705  45.224  49.564  1.00  0.00    -0.354 N 
ATOM      8  H   UNL     1       8.435  45.865  49.279  1.00  0.00     0.163 HD
BRANCH   7   9
ATOM      9  C   UNL     1       7.193  45.691  50.765  1.00  0.00     0.226 A 
ATOM     10  N   UNL     1       5.859  45.728  50.952  1.00  0.00    -0.195 NA
ATOM     11  N   UNL     1       8.115  46.062  51.661  1.00  0.00    -0.193 NA
ATOM     12  C   UNL     1       5.327  46.170  52.121  1.00  0.00     0.147 A 
ATOM     13  C   UNL     1       7.576  46.500  52.808  1.00  0.00     0.165 A 
ATOM     14  C   UNL     1       6.231  46.579  53.109  1.00  0.00     0.082 A 
ATOM     15  N   UNL     1       8.239  46.955  53.916  1.00  0.00    -0.250 N 
ATOM     16  C   UNL     1       6.196  47.091  54.423  1.00  0.00     0.149 A 
ATOM     17  N   UNL     1       7.415  47.318  54.926  1.00  0.00    -0.179 NA
ATOM     18  C   UNL     1       9.665  47.070  54.086  1.00  0.00     0.176 C 
BRANCH  12  19
ATOM     19  N   UNL     1       3.945  46.194  52.345  1.00  0.00    -0.338 N 
ATOM     20  H   UNL     1       3.586  47.094  52.643  1.00  0.00     0.168 HD
BRANCH  19  21
ATOM     21  C   UNL     1       2.944  45.201  52.297  1.00  0.00     0.058 A 
ATOM     22  C   UNL     1       2.324  44.794  51.110  1.00  0.00     0.027 A 
ATOM     23  C   UNL     1       2.540  44.562  53.489  1.00  0.00     0.064 A 
ATOM     24  C   UNL     1       1.345  43.792  51.107  1.00  0.00     0.002 A 
ATOM     25  C   UNL     1       1.563  43.561  53.491  1.00  0.00     0.023 A 
ATOM     26  C   UNL     1       0.966  43.175  52.295  1.00  0.00     0.002 A 
ATOM     27  Cl  UNL     1       3.250  45.005  55.008  1.00  0.00    -0.082 Cl
ENDBRANCH  19  21
ENDBRANCH  12  19
ENDBRANCH   7   9
ENDBRANCH   1   7
TORSDOF 8
ENDMDL
MODEL 12
REMARK VINA RESULT:    -8.236      2.694      4.177
REMARK INTER + INTRA:         -12.845
REMARK INTER:                 -12.187
REMARK INTRA:                  -0.658
REMARK UNBOUND:                -0.756
REMARK SMILES CCCCCCNc1nc(Nc2ccccc2Cl)c2cnn(C)c2n1
REMARK SMILES IDX 6 1 5 2 4 3 3 4 2 5 1 6 7 7 8 9 9 10 25 11 10 12 24 13 19 14
REMARK SMILES IDX 22 15 20 16 21 17 23 18 11 19 12 21 13 22 17 23 14 24 16 25
REMARK SMILES IDX 15 26 18 27
REMARK H PARENT 7 8 11 20
ROOT
ATOM      1  C   UNL     1       9.038  45.829  51.328  1.00  0.00     0.116 C 
ENDROOT
BRANCH   1   2
ATOM      2  C   UNL     1       9.226  47.136  52.099  1.00  0.00     0.021 C 
BRANCH   2   3
ATOM      3  C   UNL     1       8.376  47.239  53.371  1.00  0.00     0.002 C 
BRANCH   3   4
ATOM      4  C   UNL     1       9.083  47.891  54.564  1.00  0.00    -0.000 C 
BRANCH   4   5
ATOM      5  C   UNL     1      10.411  47.217  54.913  1.00  0.00    -0.003 C 
ATOM      6  C   UNL     1      10.912  47.655  56.281  1.00  0.00     0.004 C 
ENDBRANCH   4   5
ENDBRANCH   3   4
ENDBRANCH   2   3
ENDBRANCH   1   2
BRANCH   1   7
ATOM      7  N   UNL     1       7.888  45.888  50.441  1.00  0.00    -0.354 N 
ATOM      8  H   UNL     1       7.409  46.779  50.391  1.00  0.00     0.163 HD
BRANCH   7   9
ATOM      9  C   UNL     1       6.918  44.908  50.594  1.00  0.00     0.226 A 
ATOM     10  N   UNL     1       6.901  43.850  49.760  1.00  0.00    -0.195 NA
ATOM     11  N   UNL     1       6.068  45.114  51.606  1.00  0.00    -0.193 NA
ATOM     12  C   UNL     1       5.971  42.869  49.891  1.00  0.00     0.147 A 
ATOM     13  C   UNL     1       5.153  44.142  51.721  1.00  0.00     0.165 A 
ATOM     14  C   UNL     1       5.043  43.016  50.928  1.00  0.00     0.082 A 
ATOM     15  N   UNL     1       4.144  44.055  52.642  1.00  0.00    -0.250 N 
ATOM     16  C   UNL     1       3.938  42.320  51.461  1.00  0.00     0.149 A 
ATOM     17  N   UNL     1       3.386  42.942  52.510  1.00  0.00    -0.179 NA
ATOM     18  C   UNL     1       3.841  45.000  53.687  1.00  0.00     0.176 C 
BRANCH  12  19
ATOM     19  N   UNL     1       5.951  41.750  49.050  1.00  0.00    -0.338 N 
ATOM     20  H   UNL     1       6.548  40.988  49.354  1.00  0.00     0.168 HD
BRANCH  19  21
ATOM     21  C   UNL     1       5.310  41.477  47.823  1.00  0.00     0.058 A 
ATOM     22  C   UNL     1       5.787  41.938  46.590  1.00  0.00     0.027 A 
ATOM     23  C   UNL     1       4.139  40.690  47.809  1.00  0.00     0.064 A 
ATOM     24  C   UNL     1       5.127  41.629  45.394  1.00  0.00     0.002 A 
ATOM     25  C   UNL     1       3.477  40.379  46.617  1.00  0.00     0.023 A 
ATOM     26  C   UNL     1       3.975  40.849  45.406  1.00  0.00     0.002 A 
ATOM     27  Cl  UNL     1       3.474  40.078  49.290  1.00  0.00    -0.082 Cl
ENDBRANCH  19  21
ENDBRANCH  12  19
ENDBRANCH   7   9
ENDBRANCH   1   7
TORSDOF 8
ENDMDL
MODEL 13
REMARK VINA RESULT:    -8.235      2.587      5.427
REMARK INTER + INTRA:         -12.842
REMARK INTER:                 -12.021
REMARK INTRA:                  -0.821
REMARK UNBOUND:                -0.756
REMARK SMILES CCCCCCNc1nc(Nc2ccccc2Cl)c2cnn(C)c2n1
REMARK SMILES IDX 6 1 5 2 4 3 3 4 2 5 1 6 7 7 8 9 9 10 25 11 10 12 24 13 19 14
REMARK SMILES IDX 22 15 20 16 21 17 23 18 11 19 12 21 13 22 17 23 14 24 16 25
REMARK SMILES IDX 15 26 18 27
REMARK H PARENT 7 8 11 20
ROOT
ATOM      1  C   UNL     1       8.675  46.020  51.313  1.00  0.00     0.116 C 
ENDROOT
BRANCH   1   2
ATOM      2  C   UNL     1       9.540  46.779  52.320  1.00  0.00     0.021 C 
BRANCH   2   3
ATOM      3  C   UNL     1       8.789  47.867  53.096  1.00  0.00     0.002 C 
BRANCH   3   4
ATOM      4  C   UNL     1       9.154  47.966  54.580  1.00  0.00    -0.000 C 
BRANCH   4   5
ATOM      5  C   UNL     1      10.360  47.101  54.958  1.00  0.00    -0.003 C 
ATOM      6  C   UNL     1      11.015  47.594  56.239  1.00  0.00     0.004 C 
ENDBRANCH   4   5
ENDBRANCH   3   4
ENDBRANCH   2   3
ENDBRANCH   1   2
BRANCH   1   7
ATOM      7  N   UNL     1       7.374  46.647  51.142  1.00  0.00    -0.354 N 
ATOM      8  H   UNL     1       7.199  47.470  51.705  1.00  0.00     0.163 HD
BRANCH   7   9
ATOM      9  C   UNL     1       6.258  45.831  51.248  1.00  0.00     0.226 A 
ATOM     10  N   UNL     1       5.108  46.334  51.735  1.00  0.00    -0.195 NA
ATOM     11  N   UNL     1       6.440  44.575  50.823  1.00  0.00    -0.193 NA
ATOM     12  C   UNL     1       3.994  45.563  51.841  1.00  0.00     0.147 A 
ATOM     13  C   UNL     1       5.336  43.824  50.937  1.00  0.00     0.165 A 
ATOM     14  C   UNL     1       4.107  44.233  51.419  1.00  0.00     0.082 A 
ATOM     15  N   UNL     1       5.190  42.505  50.601  1.00  0.00    -0.250 N 
ATOM     16  C   UNL     1       3.295  43.084  51.324  1.00  0.00     0.149 A 
ATOM     17  N   UNL     1       3.943  42.026  50.822  1.00  0.00    -0.179 NA
ATOM     18  C   UNL     1       6.199  41.633  50.057  1.00  0.00     0.176 C 
BRANCH  12  19
ATOM     19  N   UNL     1       2.782  46.072  52.322  1.00  0.00    -0.338 N 
ATOM     20  H   UNL     1       2.525  46.974  51.937  1.00  0.00     0.168 HD
BRANCH  19  21
ATOM     21  C   UNL     1       1.859  45.615  53.287  1.00  0.00     0.058 A 
ATOM     22  C   UNL     1       0.583  45.141  52.962  1.00  0.00     0.027 A 
ATOM     23  C   UNL     1       2.223  45.610  54.651  1.00  0.00     0.064 A 
ATOM     24  C   UNL     1      -0.295  44.681  53.951  1.00  0.00     0.002 A 
ATOM     25  C   UNL     1       1.349  45.152  55.642  1.00  0.00     0.023 A 
ATOM     26  C   UNL     1       0.087  44.684  55.290  1.00  0.00     0.002 A 
ATOM     27  Cl  UNL     1       3.783  46.183  55.146  1.00  0.00    -0.082 Cl
ENDBRANCH  19  21
ENDBRANCH  12  19
ENDBRANCH   7   9
ENDBRANCH   1   7
TORSDOF 8
ENDMDL
MODEL 14
REMARK VINA RESULT:    -8.234      2.595      5.597
REMARK INTER + INTRA:         -12.841
REMARK INTER:                 -11.975
REMARK INTRA:                  -0.866
REMARK UNBOUND:                -0.756
REMARK SMILES CCCCCCNc1nc(Nc2ccccc2Cl)c2cnn(C)c2n1
REMARK SMILES IDX 6 1 5 2 4 3 3 4 2 5 1 6 7 7 8 9 9 10 25 11 10 12 24 13 19 14
REMARK SMILES IDX 22 15 20 16 21 17 23 18 11 19 12 21 13 22 17 23 14 24 16 25
REMARK SMILES IDX 15 26 18 27
REMARK H PARENT 7 8 11 20
ROOT
ATOM      1  C   UNL     1       3.542  41.105  50.069  1.00  0.00     0.116 C 
ENDROOT
BRANCH   1   2
ATOM      2  C   UNL     1       4.140  40.820  48.690  1.00  0.00     0.021 C 
BRANCH   2   3
ATOM      3  C   UNL     1       5.582  41.313  48.520  1.00  0.00     0.002 C 
BRANCH   3   4
ATOM      4  C   UNL     1       5.865  42.025  47.194  1.00  0.00    -0.000 C 
BRANCH   4   5
ATOM      5  C   UNL     1       5.145  41.383  46.005  1.00  0.00    -0.003 C 
ATOM      6  C   UNL     1       5.028  42.353  44.839  1.00  0.00     0.004 C 
ENDBRANCH   4   5
ENDBRANCH   3   4
ENDBRANCH   2   3
ENDBRANCH   1   2
BRANCH   1   7
ATOM      7  N   UNL     1       4.545  41.597  50.999  1.00  0.00    -0.354 N 
ATOM      8  H   UNL     1       4.841  40.950  51.719  1.00  0.00     0.163 HD
BRANCH   7   9
ATOM      9  C   UNL     1       4.294  42.813  51.618  1.00  0.00     0.226 A 
ATOM     10  N   UNL     1       5.169  43.827  51.476  1.00  0.00    -0.195 NA
ATOM     11  N   UNL     1       3.151  42.863  52.311  1.00  0.00    -0.193 NA
ATOM     12  C   UNL     1       4.946  45.032  52.061  1.00  0.00     0.147 A 
ATOM     13  C   UNL     1       2.946  44.056  52.887  1.00  0.00     0.165 A 
ATOM     14  C   UNL     1       3.770  45.161  52.808  1.00  0.00     0.082 A 
ATOM     15  N   UNL     1       1.884  44.431  53.665  1.00  0.00    -0.250 N 
ATOM     16  C   UNL     1       3.107  46.146  53.571  1.00  0.00     0.149 A 
ATOM     17  N   UNL     1       1.954  45.713  54.093  1.00  0.00    -0.179 NA
ATOM     18  C   UNL     1       0.756  43.617  54.042  1.00  0.00     0.176 C 
BRANCH  12  19
ATOM     19  N   UNL     1       5.831  46.107  51.907  1.00  0.00    -0.338 N 
ATOM     20  H   UNL     1       5.433  46.911  51.436  1.00  0.00     0.168 HD
BRANCH  19  21
ATOM     21  C   UNL     1       7.195  46.285  52.222  1.00  0.00     0.058 A 
ATOM     22  C   UNL     1       8.224  46.146  51.283  1.00  0.00     0.027 A 
ATOM     23  C   UNL     1       7.565  46.637  53.539  1.00  0.00     0.064 A 
ATOM     24  C   UNL     1       9.563  46.349  51.637  1.00  0.00     0.002 A 
ATOM     25  C   UNL     1       8.901  46.841  53.896  1.00  0.00     0.023 A 
ATOM     26  C   UNL     1       9.902  46.698  52.941  1.00  0.00     0.002 A 
ATOM     27  Cl  UNL     1       6.357  46.828  54.769  1.00  0.00    -0.082 Cl
ENDBRANCH  19  21
ENDBRANCH  12  19
ENDBRANCH   7   9
ENDBRANCH   1   7
TORSDOF 8
ENDMDL
MODEL 15
REMARK VINA RESULT:    -8.180      1.984      5.338
REMARK INTER + INTRA:         -12.762
REMARK INTER:                 -12.022
REMARK INTRA:                  -0.740
REMARK UNBOUND:                -0.756
REMARK SMILES CCCCCCNc1nc(Nc2ccccc2Cl)c2cnn(C)c2n1
REMARK SMILES IDX 6 1 5 2 4 3 3 4 2 5 1 6 7 7 8 9 9 10 25 11 10 12 24 13 19 14
REMARK SMILES IDX 22 15 20 16 21 17 23 18 11 19 12 21 13 22 17 23 14 24 16 25
REMARK SMILES IDX 15 26 18 27
REMARK H PARENT 7 8 11 20
ROOT
ATOM      1  C   UNL     1       6.100  47.018  53.969  1.00  0.00     0.116 C 
ENDROOT
BRANCH   1   2
ATOM      2  C   UNL     1       7.501  46.456  54.214  1.00  0.00     0.021 C 
BRANCH   2   3
ATOM      3  C   UNL     1       8.596  47.525  54.313  1.00  0.00     0.002 C 
BRANCH   3   4
ATOM      4  C   UNL     1       9.874  47.208  53.531  1.00  0.00    -0.000 C 
BRANCH   4   5
ATOM      5  C   UNL     1       9.616  46.939  52.046  1.00  0.00    -0.003 C 
ATOM      6  C   UNL     1      10.345  45.689  51.575  1.00  0.00     0.004 C 
ENDBRANCH   4   5
ENDBRANCH   3   4
ENDBRANCH   2   3
ENDBRANCH   1   2
BRANCH   1   7
ATOM      7  N   UNL     1       5.652  46.772  52.608  1.00  0.00    -0.354 N 
ATOM      8  H   UNL     1       4.979  47.431  52.235  1.00  0.00     0.163 HD
BRANCH   7   9
ATOM      9  C   UNL     1       5.188  45.499  52.313  1.00  0.00     0.226 A 
ATOM     10  N   UNL     1       4.146  44.993  53.001  1.00  0.00    -0.195 NA
ATOM     11  N   UNL     1       5.842  44.880  51.324  1.00  0.00    -0.193 NA
ATOM     12  C   UNL     1       3.662  43.754  52.728  1.00  0.00     0.147 A 
ATOM     13  C   UNL     1       5.357  43.657  51.068  1.00  0.00     0.165 A 
ATOM     14  C   UNL     1       4.297  43.041  51.705  1.00  0.00     0.082 A 
ATOM     15  N   UNL     1       5.802  42.767  50.128  1.00  0.00    -0.250 N 
ATOM     16  C   UNL     1       4.188  41.787  51.067  1.00  0.00     0.149 A 
ATOM     17  N   UNL     1       5.097  41.612  50.101  1.00  0.00    -0.179 NA
ATOM     18  C   UNL     1       6.899  42.950  49.212  1.00  0.00     0.176 C 
BRANCH  12  19
ATOM     19  N   UNL     1       2.565  43.219  53.414  1.00  0.00    -0.338 N 
ATOM     20  H   UNL     1       2.511  42.206  53.391  1.00  0.00     0.168 HD
BRANCH  19  21
ATOM     21  C   UNL     1       1.473  43.802  54.091  1.00  0.00     0.058 A 
ATOM     22  C   UNL     1       1.621  44.706  55.149  1.00  0.00     0.027 A 
ATOM     23  C   UNL     1       0.156  43.487  53.690  1.00  0.00     0.064 A 
ATOM     24  C   UNL     1       0.508  45.273  55.782  1.00  0.00     0.002 A 
ATOM     25  C   UNL     1      -0.958  44.052  54.319  1.00  0.00     0.023 A 
ATOM     26  C   UNL     1      -0.780  44.949  55.366  1.00  0.00     0.002 A 
ATOM     27  Cl  UNL     1      -0.124  42.374  52.389  1.00  0.00    -0.082 Cl
ENDBRANCH  19  21
ENDBRANCH  12  19
ENDBRANCH   7   9
ENDBRANCH   1   7
TORSDOF 8
ENDMDL
MODEL 16
REMARK VINA RESULT:    -8.132      2.615      5.821
REMARK INTER + INTRA:         -12.691
REMARK INTER:                 -11.805
REMARK INTRA:                  -0.886
REMARK UNBOUND:                -0.756
REMARK SMILES CCCCCCNc1nc(Nc2ccccc2Cl)c2cnn(C)c2n1
REMARK SMILES IDX 6 1 5 2 4 3 3 4 2 5 1 6 7 7 8 9 9 10 25 11 10 12 24 13 19 14
REMARK SMILES IDX 22 15 20 16 21 17 23 18 11 19 12 21 13 22 17 23 14 24 16 25
REMARK SMILES IDX 15 26 18 27
REMARK H PARENT 7 8 11 20
ROOT
ATOM      1  C   UNL     1       3.530  40.946  49.705  1.00  0.00     0.116 C 
ENDROOT
BRANCH   1   2
ATOM      2  C   UNL     1       4.327  40.781  48.411  1.00  0.00     0.021 C 
BRANCH   2   3
ATOM      3  C   UNL     1       3.541  40.121  47.272  1.00  0.00     0.002 C 
BRANCH   3   4
ATOM      4  C   UNL     1       3.705  40.792  45.905  1.00  0.00    -0.000 C 
BRANCH   4   5
ATOM      5  C   UNL     1       5.125  41.309  45.660  1.00  0.00    -0.003 C 
ATOM      6  C   UNL     1       5.119  42.544  44.771  1.00  0.00     0.004 C 
ENDBRANCH   4   5
ENDBRANCH   3   4
ENDBRANCH   2   3
ENDBRANCH   1   2
BRANCH   1   7
ATOM      7  N   UNL     1       4.393  41.259  50.832  1.00  0.00    -0.354 N 
ATOM      8  H   UNL     1       4.327  40.638  51.629  1.00  0.00     0.163 HD
BRANCH   7   9
ATOM      9  C   UNL     1       4.356  42.558  51.318  1.00  0.00     0.226 A 
ATOM     10  N   UNL     1       5.295  43.442  50.930  1.00  0.00    -0.195 NA
ATOM     11  N   UNL     1       3.340  42.816  52.149  1.00  0.00    -0.193 NA
ATOM     12  C   UNL     1       5.280  44.724  51.379  1.00  0.00     0.147 A 
ATOM     13  C   UNL     1       3.339  44.082  52.588  1.00  0.00     0.165 A 
ATOM     14  C   UNL     1       4.246  45.070  52.257  1.00  0.00     0.082 A 
ATOM     15  N   UNL     1       2.447  44.662  53.449  1.00  0.00    -0.250 N 
ATOM     16  C   UNL     1       3.803  46.204  52.970  1.00  0.00     0.149 A 
ATOM     17  N   UNL     1       2.704  45.968  53.696  1.00  0.00    -0.179 NA
ATOM     18  C   UNL     1       1.314  44.031  54.078  1.00  0.00     0.176 C 
BRANCH  12  19
ATOM     19  N   UNL     1       6.231  45.665  50.969  1.00  0.00    -0.338 N 
ATOM     20  H   UNL     1       6.040  46.088  50.068  1.00  0.00     0.168 HD
BRANCH  19  21
ATOM     21  C   UNL     1       7.447  46.114  51.528  1.00  0.00     0.058 A 
ATOM     22  C   UNL     1       7.513  47.034  52.582  1.00  0.00     0.027 A 
ATOM     23  C   UNL     1       8.669  45.614  51.029  1.00  0.00     0.064 A 
ATOM     24  C   UNL     1       8.742  47.439  53.117  1.00  0.00     0.002 A 
ATOM     25  C   UNL     1       9.899  46.016  51.561  1.00  0.00     0.023 A 
ATOM     26  C   UNL     1       9.933  46.930  52.610  1.00  0.00     0.002 A 
ATOM     27  Cl  UNL     1       8.684  44.474  49.723  1.00  0.00    -0.082 Cl
ENDBRANCH  19  21
ENDBRANCH  12  19
ENDBRANCH   7   9
ENDBRANCH   1   7
TORSDOF 8
ENDMDL
MODEL 17
REMARK VINA RESULT:    -8.035      3.129      6.770
REMARK INTER + INTRA:         -12.549
REMARK INTER:                 -11.723
REMARK INTRA:                  -0.827
REMARK UNBOUND:                -0.756
REMARK SMILES CCCCCCNc1nc(Nc2ccccc2Cl)c2cnn(C)c2n1
REMARK SMILES IDX 6 1 5 2 4 3 3 4 2 5 1 6 7 7 8 9 9 10 25 11 10 12 24 13 19 14
REMARK SMILES IDX 22 15 20 16 21 17 23 18 11 19 12 21 13 22 17 23 14 24 16 25
REMARK SMILES IDX 15 26 18 27
REMARK H PARENT 7 8 11 20
ROOT
ATOM      1  C   UNL     1       5.222  41.172  47.698  1.00  0.00     0.116 C 
ENDROOT
BRANCH   1   2
ATOM      2  C   UNL     1       5.747  41.991  46.518  1.00  0.00     0.021 C 
BRANCH   2   3
ATOM      3  C   UNL     1       4.936  41.820  45.228  1.00  0.00     0.002 C 
BRANCH   3   4
ATOM      4  C   UNL     1       4.208  40.478  45.101  1.00  0.00    -0.000 C 
BRANCH   4   5
ATOM      5  C   UNL     1       2.686  40.612  45.201  1.00  0.00    -0.003 C 
ATOM      6  C   UNL     1       2.044  39.310  45.657  1.00  0.00     0.004 C 
ENDBRANCH   4   5
ENDBRANCH   3   4
ENDBRANCH   2   3
ENDBRANCH   1   2
BRANCH   1   7
ATOM      7  N   UNL     1       6.072  41.311  48.869  1.00  0.00    -0.354 N 
ATOM      8  H   UNL     1       6.164  40.488  49.452  1.00  0.00     0.163 HD
BRANCH   7   9
ATOM      9  C   UNL     1       5.822  42.385  49.711  1.00  0.00     0.226 A 
ATOM     10  N   UNL     1       6.642  43.453  49.690  1.00  0.00    -0.195 NA
ATOM     11  N   UNL     1       4.736  42.252  50.481  1.00  0.00    -0.193 NA
ATOM     12  C   UNL     1       6.418  44.524  50.494  1.00  0.00     0.147 A 
ATOM     13  C   UNL     1       4.529  43.313  51.273  1.00  0.00     0.165 A 
ATOM     14  C   UNL     1       5.300  44.458  51.334  1.00  0.00     0.082 A 
ATOM     15  N   UNL     1       3.518  43.490  52.179  1.00  0.00    -0.250 N 
ATOM     16  C   UNL     1       4.661  45.258  52.305  1.00  0.00     0.149 A 
ATOM     17  N   UNL     1       3.571  44.679  52.822  1.00  0.00    -0.179 NA
ATOM     18  C   UNL     1       2.457  42.564  52.484  1.00  0.00     0.176 C 
BRANCH  12  19
ATOM     19  N   UNL     1       7.244  45.655  50.471  1.00  0.00    -0.338 N 
ATOM     20  H   UNL     1       7.247  46.152  49.588  1.00  0.00     0.168 HD
BRANCH  19  21
ATOM     21  C   UNL     1       8.128  46.222  51.414  1.00  0.00     0.058 A 
ATOM     22  C   UNL     1       7.740  47.201  52.336  1.00  0.00     0.027 A 
ATOM     23  C   UNL     1       9.470  45.787  51.458  1.00  0.00     0.064 A 
ATOM     24  C   UNL     1       8.648  47.724  53.265  1.00  0.00     0.002 A 
ATOM     25  C   UNL     1      10.380  46.308  52.384  1.00  0.00     0.023 A 
ATOM     26  C   UNL     1       9.966  47.277  53.291  1.00  0.00     0.002 A 
ATOM     27  Cl  UNL     1      10.040  44.581  50.350  1.00  0.00    -0.082 Cl
ENDBRANCH  19  21
ENDBRANCH  12  19
ENDBRANCH   7   9
ENDBRANCH   1   7
TORSDOF 8
ENDMDL
MODEL 18
REMARK VINA RESULT:    -8.008      2.229      6.048
REMARK INTER + INTRA:         -12.509
REMARK INTER:                 -11.494
REMARK INTRA:                  -1.015
REMARK UNBOUND:                -0.756
REMARK SMILES CCCCCCNc1nc(Nc2ccccc2Cl)c2cnn(C)c2n1
REMARK SMILES IDX 6 1 5 2 4 3 3 4 2 5 1 6 7 7 8 9 9 10 25 11 10 12 24 13 19 14
REMARK SMILES IDX 22 15 20 16 21 17 23 18 11 19 12 21 13 22 17 23 14 24 16 25
REMARK SMILES IDX 15 26 18 27
REMARK H PARENT 7 8 11 20
ROOT
ATOM      1  C   UNL     1       1.646  45.320  54.206  1.00  0.00     0.116 C 
ENDROOT
BRANCH   1   2
ATOM      2  C   UNL     1       0.680  45.200  55.385  1.00  0.00     0.021 C 
BRANCH   2   3
ATOM      3  C   UNL     1      -0.760  44.863  54.982  1.00  0.00     0.002 C 
BRANCH   3   4
ATOM      4  C   UNL     1      -0.972  43.423  54.504  1.00  0.00    -0.000 C 
BRANCH   4   5
ATOM      5  C   UNL     1      -1.265  43.327  53.005  1.00  0.00    -0.003 C 
ATOM      6  C   UNL     1      -0.139  42.622  52.264  1.00  0.00     0.004 C 
ENDBRANCH   4   5
ENDBRANCH   3   4
ENDBRANCH   2   3
ENDBRANCH   1   2
BRANCH   1   7
ATOM      7  N   UNL     1       2.543  44.179  54.128  1.00  0.00    -0.354 N 
ATOM      8  H   UNL     1       3.000  43.912  54.990  1.00  0.00     0.163 HD
BRANCH   7   9
ATOM      9  C   UNL     1       3.513  44.202  53.137  1.00  0.00     0.226 A 
ATOM     10  N   UNL     1       4.355  45.250  53.052  1.00  0.00    -0.195 NA
ATOM     11  N   UNL     1       3.526  43.127  52.340  1.00  0.00    -0.193 NA
ATOM     12  C   UNL     1       5.322  45.297  52.100  1.00  0.00     0.147 A 
ATOM     13  C   UNL     1       4.482  43.188  51.403  1.00  0.00     0.165 A 
ATOM     14  C   UNL     1       5.397  44.208  51.224  1.00  0.00     0.082 A 
ATOM     15  N   UNL     1       4.756  42.261  50.434  1.00  0.00    -0.250 N 
ATOM     16  C   UNL     1       6.175  43.789  50.124  1.00  0.00     0.149 A 
ATOM     17  N   UNL     1       5.797  42.602  49.639  1.00  0.00    -0.179 NA
ATOM     18  C   UNL     1       4.067  41.016  50.207  1.00  0.00     0.176 C 
BRANCH  12  19
ATOM     19  N   UNL     1       6.222  46.366  52.009  1.00  0.00    -0.338 N 
ATOM     20  H   UNL     1       5.857  47.180  51.527  1.00  0.00     0.168 HD
BRANCH  19  21
ATOM     21  C   UNL     1       7.568  46.529  52.401  1.00  0.00     0.058 A 
ATOM     22  C   UNL     1       8.648  46.348  51.529  1.00  0.00     0.027 A 
ATOM     23  C   UNL     1       7.866  46.907  53.728  1.00  0.00     0.064 A 
ATOM     24  C   UNL     1       9.968  46.536  51.957  1.00  0.00     0.002 A 
ATOM     25  C   UNL     1       9.183  47.097  54.159  1.00  0.00     0.023 A 
ATOM     26  C   UNL     1      10.236  46.913  53.270  1.00  0.00     0.002 A 
ATOM     27  Cl  UNL     1       6.592  47.150  54.879  1.00  0.00    -0.082 Cl
ENDBRANCH  19  21
ENDBRANCH  12  19
ENDBRANCH   7   9
ENDBRANCH   1   7
TORSDOF 8
ENDMDL
MODEL 19
REMARK VINA RESULT:    -7.971      1.962      5.168
REMARK INTER + INTRA:         -12.455
REMARK INTER:                 -11.345
REMARK INTRA:                  -1.110
REMARK UNBOUND:                -0.756
REMARK SMILES CCCCCCNc1nc(Nc2ccccc2Cl)c2cnn(C)c2n1
REMARK SMILES IDX 6 1 5 2 4 3 3 4 2 5 1 6 7 7 8 9 9 10 25 11 10 12 24 13 19 14
REMARK SMILES IDX 22 15 20 16 21 17 23 18 11 19 12 21 13 22 17 23 14 24 16 25
REMARK SMILES IDX 15 26 18 27
REMARK H PARENT 7 8 11 20
ROOT
ATOM      1  C   UNL     1       3.068  41.922  51.170  1.00  0.00     0.116 C 
ENDROOT
BRANCH   1   2
ATOM      2  C   UNL     1       3.988  41.177  50.201  1.00  0.00     0.021 C 
BRANCH   2   3
ATOM      3  C   UNL     1       5.449  41.640  50.245  1.00  0.00     0.002 C 
BRANCH   3   4
ATOM      4  C   UNL     1       6.140  41.711  48.880  1.00  0.00    -0.000 C 
BRANCH   4   5
ATOM      5  C   UNL     1       5.275  41.164  47.742  1.00  0.00    -0.003 C 
ATOM      6  C   UNL     1       5.567  41.879  46.431  1.00  0.00     0.004 C 
ENDBRANCH   4   5
ENDBRANCH   3   4
ENDBRANCH   2   3
ENDBRANCH   1   2
BRANCH   1   7
ATOM      7  N   UNL     1       2.953  43.330  50.827  1.00  0.00    -0.354 N 
ATOM      8  H   UNL     1       3.316  43.599  49.921  1.00  0.00     0.163 HD
BRANCH   7   9
ATOM      9  C   UNL     1       3.429  44.249  51.751  1.00  0.00     0.226 A 
ATOM     10  N   UNL     1       4.462  45.049  51.424  1.00  0.00    -0.195 NA
ATOM     11  N   UNL     1       2.777  44.258  52.919  1.00  0.00    -0.193 NA
ATOM     12  C   UNL     1       4.943  45.967  52.302  1.00  0.00     0.147 A 
ATOM     13  C   UNL     1       3.264  45.164  53.778  1.00  0.00     0.165 A 
ATOM     14  C   UNL     1       4.313  46.034  53.550  1.00  0.00     0.082 A 
ATOM     15  N   UNL     1       2.830  45.420  55.050  1.00  0.00    -0.250 N 
ATOM     16  C   UNL     1       4.422  46.771  54.749  1.00  0.00     0.149 A 
ATOM     17  N   UNL     1       3.519  46.408  55.668  1.00  0.00    -0.179 NA
ATOM     18  C   UNL     1       1.755  44.763  55.748  1.00  0.00     0.176 C 
BRANCH  12  19
ATOM     19  N   UNL     1       5.999  46.825  51.974  1.00  0.00    -0.338 N 
ATOM     20  H   UNL     1       5.747  47.575  51.340  1.00  0.00     0.168 HD
BRANCH  19  21
ATOM     21  C   UNL     1       7.372  46.832  52.299  1.00  0.00     0.058 A 
ATOM     22  C   UNL     1       7.894  47.507  53.409  1.00  0.00     0.027 A 
ATOM     23  C   UNL     1       8.284  46.118  51.491  1.00  0.00     0.064 A 
ATOM     24  C   UNL     1       9.262  47.474  53.704  1.00  0.00     0.002 A 
ATOM     25  C   UNL     1       9.651  46.082  51.782  1.00  0.00     0.023 A 
ATOM     26  C   UNL     1      10.140  46.760  52.893  1.00  0.00     0.002 A 
ATOM     27  Cl  UNL     1       7.728  45.255  50.093  1.00  0.00    -0.082 Cl
ENDBRANCH  19  21
ENDBRANCH  12  19
ENDBRANCH   7   9
ENDBRANCH   1   7
TORSDOF 8
ENDMDL
