MODEL 1
REMARK VINA RESULT:    -8.517      0.000      0.000
REMARK INTER + INTRA:         -13.824
REMARK INTER:                 -12.500
REMARK INTRA:                  -1.323
REMARK UNBOUND:                -1.323
REMARK SMILES CCCCCCNc1nc(Nc2ccccc2C)c2cnn(C)c2n1
REMARK SMILES IDX 6 1 5 2 4 3 3 4 2 5 1 6 7 7 8 9 9 10 25 11 10 12 24 13 19 14
REMARK SMILES IDX 22 15 20 16 21 17 23 18 11 19 12 21 13 22 17 23 14 24 16 25
REMARK SMILES IDX 15 26 18 27
REMARK H PARENT 7 8 11 20
ROOT
ATOM      1  C   UNL     1       4.099  45.803  55.479  1.00  0.00     0.116 C 
ENDROOT
BRANCH   1   2
ATOM      2  C   UNL     1       2.677  45.742  54.918  1.00  0.00     0.021 C 
BRANCH   2   3
ATOM      3  C   UNL     1       2.488  44.528  54.006  1.00  0.00     0.002 C 
BRANCH   3   4
ATOM      4  C   UNL     1       1.963  44.947  52.631  1.00  0.00    -0.000 C 
BRANCH   4   5
ATOM      5  C   UNL     1       2.398  46.356  52.220  1.00  0.00    -0.003 C 
ATOM      6  C   UNL     1       3.100  46.406  50.872  1.00  0.00     0.004 C 
ENDBRANCH   4   5
ENDBRANCH   3   4
ENDBRANCH   2   3
ENDBRANCH   1   2
BRANCH   1   7
ATOM      7  N   UNL     1       4.767  47.003  55.009  1.00  0.00    -0.354 N 
ATOM      8  H   UNL     1       5.054  47.657  55.729  1.00  0.00     0.163 HD
BRANCH   7   9
ATOM      9  C   UNL     1       5.879  46.808  54.199  1.00  0.00     0.226 A 
ATOM     10  N   UNL     1       5.734  46.259  52.977  1.00  0.00    -0.195 NA
ATOM     11  N   UNL     1       7.040  47.187  54.746  1.00  0.00    -0.193 NA
ATOM     12  C   UNL     1       6.809  46.039  52.172  1.00  0.00     0.147 A 
ATOM     13  C   UNL     1       8.089  46.977  53.939  1.00  0.00     0.165 A 
ATOM     14  C   UNL     1       8.058  46.421  52.676  1.00  0.00     0.082 A 
ATOM     15  N   UNL     1       9.403  47.262  54.196  1.00  0.00    -0.250 N 
ATOM     16  C   UNL     1       9.409  46.410  52.267  1.00  0.00     0.149 A 
ATOM     17  N   UNL     1      10.237  46.916  53.187  1.00  0.00    -0.179 NA
ATOM     18  C   UNL     1       9.943  47.864  55.388  1.00  0.00     0.176 C 
BRANCH  12  19
ATOM     19  N   UNL     1       6.688  45.415  50.921  1.00  0.00    -0.339 N 
ATOM     20  H   UNL     1       6.929  46.012  50.144  1.00  0.00     0.168 HD
BRANCH  19  21
ATOM     21  C   UNL     1       6.240  44.134  50.543  1.00  0.00     0.043 A 
ATOM     22  C   UNL     1       5.095  43.551  51.102  1.00  0.00     0.026 A 
ATOM     23  C   UNL     1       6.988  43.367  49.618  1.00  0.00    -0.028 A 
ATOM     24  C   UNL     1       4.677  42.264  50.749  1.00  0.00     0.002 A 
ATOM     25  C   UNL     1       6.558  42.073  49.266  1.00  0.00     0.005 A 
ATOM     26  C   UNL     1       5.408  41.527  49.830  1.00  0.00     0.000 A 
ATOM     27  C   UNL     1       8.251  43.894  48.989  1.00  0.00     0.046 C 
ENDBRANCH  19  21
ENDBRANCH  12  19
ENDBRANCH   7   9
ENDBRANCH   1   7
TORSDOF 8
ENDMDL
MODEL 2
REMARK VINA RESULT:    -8.469      2.273      5.730
REMARK INTER + INTRA:         -13.753
REMARK INTER:                 -12.898
REMARK INTRA:                  -0.855
REMARK UNBOUND:                -1.323
REMARK SMILES CCCCCCNc1nc(Nc2ccccc2C)c2cnn(C)c2n1
REMARK SMILES IDX 6 1 5 2 4 3 3 4 2 5 1 6 7 7 8 9 9 10 25 11 10 12 24 13 19 14
REMARK SMILES IDX 22 15 20 16 21 17 23 18 11 19 12 21 13 22 17 23 14 24 16 25
REMARK SMILES IDX 15 26 18 27
REMARK H PARENT 7 8 11 20
ROOT
ATOM      1  C   UNL     1       5.217  47.099  54.544  1.00  0.00     0.116 C 
ENDROOT
BRANCH   1   2
ATOM      2  C   UNL     1       6.713  46.783  54.554  1.00  0.00     0.021 C 
BRANCH   2   3
ATOM      3  C   UNL     1       7.396  47.268  53.274  1.00  0.00     0.002 C 
BRANCH   3   4
ATOM      4  C   UNL     1       8.789  47.829  53.570  1.00  0.00    -0.000 C 
BRANCH   4   5
ATOM      5  C   UNL     1       9.894  46.772  53.497  1.00  0.00    -0.003 C 
ATOM      6  C   UNL     1      10.263  46.376  52.076  1.00  0.00     0.004 C 
ENDBRANCH   4   5
ENDBRANCH   3   4
ENDBRANCH   2   3
ENDBRANCH   1   2
BRANCH   1   7
ATOM      7  N   UNL     1       4.471  45.993  55.118  1.00  0.00    -0.354 N 
ATOM      8  H   UNL     1       3.783  46.244  55.818  1.00  0.00     0.163 HD
BRANCH   7   9
ATOM      9  C   UNL     1       3.820  45.159  54.217  1.00  0.00     0.226 A 
ATOM     10  N   UNL     1       4.482  44.672  53.150  1.00  0.00    -0.195 NA
ATOM     11  N   UNL     1       2.533  44.928  54.504  1.00  0.00    -0.193 NA
ATOM     12  C   UNL     1       3.862  43.870  52.243  1.00  0.00     0.147 A 
ATOM     13  C   UNL     1       1.937  44.127  53.610  1.00  0.00     0.165 A 
ATOM     14  C   UNL     1       2.514  43.576  52.484  1.00  0.00     0.082 A 
ATOM     15  N   UNL     1       0.639  43.693  53.621  1.00  0.00    -0.250 N 
ATOM     16  C   UNL     1       1.473  42.836  51.885  1.00  0.00     0.149 A 
ATOM     17  N   UNL     1       0.324  42.904  52.567  1.00  0.00    -0.179 NA
ATOM     18  C   UNL     1      -0.367  43.995  54.607  1.00  0.00     0.176 C 
BRANCH  12  19
ATOM     19  N   UNL     1       4.516  43.399  51.094  1.00  0.00    -0.339 N 
ATOM     20  H   UNL     1       4.004  42.685  50.599  1.00  0.00     0.168 HD
BRANCH  19  21
ATOM     21  C   UNL     1       5.776  43.693  50.536  1.00  0.00     0.043 A 
ATOM     22  C   UNL     1       6.377  44.952  50.677  1.00  0.00     0.026 A 
ATOM     23  C   UNL     1       6.446  42.725  49.751  1.00  0.00    -0.028 A 
ATOM     24  C   UNL     1       7.610  45.249  50.089  1.00  0.00     0.002 A 
ATOM     25  C   UNL     1       7.690  43.032  49.166  1.00  0.00     0.005 A 
ATOM     26  C   UNL     1       8.267  44.287  49.335  1.00  0.00     0.000 A 
ATOM     27  C   UNL     1       5.865  41.356  49.514  1.00  0.00     0.046 C 
ENDBRANCH  19  21
ENDBRANCH  12  19
ENDBRANCH   7   9
ENDBRANCH   1   7
TORSDOF 8
ENDMDL
MODEL 3
REMARK VINA RESULT:    -8.228      2.530      6.120
REMARK INTER + INTRA:         -13.399
REMARK INTER:                 -12.672
REMARK INTRA:                  -0.727
REMARK UNBOUND:                -1.323
REMARK SMILES CCCCCCNc1nc(Nc2ccccc2C)c2cnn(C)c2n1
REMARK SMILES IDX 6 1 5 2 4 3 3 4 2 5 1 6 7 7 8 9 9 10 25 11 10 12 24 13 19 14
REMARK SMILES IDX 22 15 20 16 21 17 23 18 11 19 12 21 13 22 17 23 14 24 16 25
REMARK SMILES IDX 15 26 18 27
REMARK H PARENT 7 8 11 20
ROOT
ATOM      1  C   UNL     1       7.759  46.534  51.636  1.00  0.00     0.116 C 
ENDROOT
BRANCH   1   2
ATOM      2  C   UNL     1       9.100  47.267  51.590  1.00  0.00     0.021 C 
BRANCH   2   3
ATOM      3  C   UNL     1      10.091  46.685  52.599  1.00  0.00     0.002 C 
BRANCH   3   4
ATOM      4  C   UNL     1       9.452  46.545  53.982  1.00  0.00    -0.000 C 
BRANCH   4   5
ATOM      5  C   UNL     1       9.687  47.760  54.883  1.00  0.00    -0.003 C 
ATOM      6  C   UNL     1      10.790  47.552  55.908  1.00  0.00     0.004 C 
ENDBRANCH   4   5
ENDBRANCH   3   4
ENDBRANCH   2   3
ENDBRANCH   1   2
BRANCH   1   7
ATOM      7  N   UNL     1       7.623  45.675  50.473  1.00  0.00    -0.354 N 
ATOM      8  H   UNL     1       8.480  45.253  50.134  1.00  0.00     0.163 HD
BRANCH   7   9
ATOM      9  C   UNL     1       6.699  44.642  50.579  1.00  0.00     0.226 A 
ATOM     10  N   UNL     1       6.757  43.597  49.730  1.00  0.00    -0.195 NA
ATOM     11  N   UNL     1       5.791  44.805  51.549  1.00  0.00    -0.193 NA
ATOM     12  C   UNL     1       5.853  42.583  49.801  1.00  0.00     0.147 A 
ATOM     13  C   UNL     1       4.915  43.794  51.617  1.00  0.00     0.165 A 
ATOM     14  C   UNL     1       4.877  42.681  50.800  1.00  0.00     0.082 A 
ATOM     15  N   UNL     1       3.877  43.653  52.497  1.00  0.00    -0.250 N 
ATOM     16  C   UNL     1       3.772  41.941  51.272  1.00  0.00     0.149 A 
ATOM     17  N   UNL     1       3.152  42.526  52.302  1.00  0.00    -0.179 NA
ATOM     18  C   UNL     1       3.509  44.559  53.555  1.00  0.00     0.176 C 
BRANCH  12  19
ATOM     19  N   UNL     1       5.858  41.515  48.891  1.00  0.00    -0.339 N 
ATOM     20  H   UNL     1       6.438  40.741  49.176  1.00  0.00     0.168 HD
BRANCH  19  21
ATOM     21  C   UNL     1       5.253  41.344  47.629  1.00  0.00     0.043 A 
ATOM     22  C   UNL     1       5.735  41.985  46.480  1.00  0.00     0.026 A 
ATOM     23  C   UNL     1       4.083  40.557  47.506  1.00  0.00    -0.028 A 
ATOM     24  C   UNL     1       5.108  41.840  45.239  1.00  0.00     0.002 A 
ATOM     25  C   UNL     1       3.460  40.415  46.252  1.00  0.00     0.005 A 
ATOM     26  C   UNL     1       3.971  41.054  45.125  1.00  0.00     0.000 A 
ATOM     27  C   UNL     1       3.470  39.858  48.690  1.00  0.00     0.046 C 
ENDBRANCH  19  21
ENDBRANCH  12  19
ENDBRANCH   7   9
ENDBRANCH   1   7
TORSDOF 8
ENDMDL
MODEL 4
REMARK VINA RESULT:    -8.126      2.046      5.216
REMARK INTER + INTRA:         -13.250
REMARK INTER:                 -11.561
REMARK INTRA:                  -1.690
REMARK UNBOUND:                -1.323
REMARK SMILES CCCCCCNc1nc(Nc2ccccc2C)c2cnn(C)c2n1
REMARK SMILES IDX 6 1 5 2 4 3 3 4 2 5 1 6 7 7 8 9 9 10 25 11 10 12 24 13 19 14
REMARK SMILES IDX 22 15 20 16 21 17 23 18 11 19 12 21 13 22 17 23 14 24 16 25
REMARK SMILES IDX 15 26 18 27
REMARK H PARENT 7 8 11 20
ROOT
ATOM      1  C   UNL     1       2.325  46.456  52.798  1.00  0.00     0.116 C 
ENDROOT
BRANCH   1   2
ATOM      2  C   UNL     1       1.834  45.604  53.970  1.00  0.00     0.021 C 
BRANCH   2   3
ATOM      3  C   UNL     1       3.003  45.013  54.759  1.00  0.00     0.002 C 
BRANCH   3   4
ATOM      4  C   UNL     1       3.878  46.115  55.359  1.00  0.00    -0.000 C 
BRANCH   4   5
ATOM      5  C   UNL     1       5.360  45.971  55.003  1.00  0.00    -0.003 C 
ATOM      6  C   UNL     1       5.728  44.592  54.479  1.00  0.00     0.004 C 
ENDBRANCH   4   5
ENDBRANCH   3   4
ENDBRANCH   2   3
ENDBRANCH   1   2
BRANCH   1   7
ATOM      7  N   UNL     1       2.308  45.674  51.574  1.00  0.00    -0.354 N 
ATOM      8  H   UNL     1       1.982  46.160  50.747  1.00  0.00     0.163 HD
BRANCH   7   9
ATOM      9  C   UNL     1       3.506  45.066  51.219  1.00  0.00     0.226 A 
ATOM     10  N   UNL     1       4.641  45.791  51.170  1.00  0.00    -0.195 NA
ATOM     11  N   UNL     1       3.405  43.763  50.930  1.00  0.00    -0.193 NA
ATOM     12  C   UNL     1       5.823  45.224  50.805  1.00  0.00     0.147 A 
ATOM     13  C   UNL     1       4.577  43.213  50.585  1.00  0.00     0.165 A 
ATOM     14  C   UNL     1       5.795  43.858  50.498  1.00  0.00     0.082 A 
ATOM     15  N   UNL     1       4.814  41.910  50.245  1.00  0.00    -0.250 N 
ATOM     16  C   UNL     1       6.694  42.851  50.088  1.00  0.00     0.149 A 
ATOM     17  N   UNL     1       6.106  41.661  49.926  1.00  0.00    -0.179 NA
ATOM     18  C   UNL     1       3.852  40.838  50.195  1.00  0.00     0.176 C 
BRANCH  12  19
ATOM     19  N   UNL     1       7.004  45.972  50.691  1.00  0.00    -0.339 N 
ATOM     20  H   UNL     1       7.235  46.225  49.741  1.00  0.00     0.168 HD
BRANCH  19  21
ATOM     21  C   UNL     1       7.957  46.387  51.643  1.00  0.00     0.043 A 
ATOM     22  C   UNL     1       7.654  47.325  52.639  1.00  0.00     0.026 A 
ATOM     23  C   UNL     1       9.285  45.904  51.572  1.00  0.00    -0.028 A 
ATOM     24  C   UNL     1       8.614  47.760  53.557  1.00  0.00     0.002 A 
ATOM     25  C   UNL     1      10.245  46.345  52.503  1.00  0.00     0.005 A 
ATOM     26  C   UNL     1       9.909  47.268  53.489  1.00  0.00     0.000 A 
ATOM     27  C   UNL     1       9.716  44.920  50.517  1.00  0.00     0.046 C 
ENDBRANCH  19  21
ENDBRANCH  12  19
ENDBRANCH   7   9
ENDBRANCH   1   7
TORSDOF 8
ENDMDL
MODEL 5
REMARK VINA RESULT:    -8.084      2.507      5.883
REMARK INTER + INTRA:         -13.188
REMARK INTER:                 -12.194
REMARK INTRA:                  -0.994
REMARK UNBOUND:                -1.323
REMARK SMILES CCCCCCNc1nc(Nc2ccccc2C)c2cnn(C)c2n1
REMARK SMILES IDX 6 1 5 2 4 3 3 4 2 5 1 6 7 7 8 9 9 10 25 11 10 12 24 13 19 14
REMARK SMILES IDX 22 15 20 16 21 17 23 18 11 19 12 21 13 22 17 23 14 24 16 25
REMARK SMILES IDX 15 26 18 27
REMARK H PARENT 7 8 11 20
ROOT
ATOM      1  C   UNL     1       5.737  45.211  55.305  1.00  0.00     0.116 C 
ENDROOT
BRANCH   1   2
ATOM      2  C   UNL     1       6.302  46.442  54.596  1.00  0.00     0.021 C 
BRANCH   2   3
ATOM      3  C   UNL     1       7.200  46.048  53.423  1.00  0.00     0.002 C 
BRANCH   3   4
ATOM      4  C   UNL     1       7.630  47.277  52.619  1.00  0.00    -0.000 C 
BRANCH   4   5
ATOM      5  C   UNL     1       9.148  47.399  52.465  1.00  0.00    -0.003 C 
ATOM      6  C   UNL     1       9.913  47.126  53.751  1.00  0.00     0.004 C 
ENDBRANCH   4   5
ENDBRANCH   3   4
ENDBRANCH   2   3
ENDBRANCH   1   2
BRANCH   1   7
ATOM      7  N   UNL     1       4.357  45.448  55.690  1.00  0.00    -0.354 N 
ATOM      8  H   UNL     1       4.099  46.419  55.824  1.00  0.00     0.163 HD
BRANCH   7   9
ATOM      9  C   UNL     1       3.386  44.902  54.858  1.00  0.00     0.226 A 
ATOM     10  N   UNL     1       3.729  44.422  53.647  1.00  0.00    -0.195 NA
ATOM     11  N   UNL     1       2.146  44.925  55.361  1.00  0.00    -0.193 NA
ATOM     12  C   UNL     1       2.795  43.900  52.806  1.00  0.00     0.147 A 
ATOM     13  C   UNL     1       1.237  44.397  54.529  1.00  0.00     0.165 A 
ATOM     14  C   UNL     1       1.474  43.882  53.270  1.00  0.00     0.082 A 
ATOM     15  N   UNL     1      -0.107  44.262  54.747  1.00  0.00    -0.250 N 
ATOM     16  C   UNL     1       0.203  43.473  52.816  1.00  0.00     0.149 A 
ATOM     17  N   UNL     1      -0.769  43.705  53.705  1.00  0.00    -0.179 NA
ATOM     18  C   UNL     1      -0.837  44.649  55.927  1.00  0.00     0.176 C 
BRANCH  12  19
ATOM     19  N   UNL     1       3.121  43.449  51.518  1.00  0.00    -0.339 N 
ATOM     20  H   UNL     1       2.318  43.275  50.934  1.00  0.00     0.168 HD
BRANCH  19  21
ATOM     21  C   UNL     1       4.353  43.138  50.908  1.00  0.00     0.043 A 
ATOM     22  C   UNL     1       4.785  41.816  50.734  1.00  0.00     0.026 A 
ATOM     23  C   UNL     1       5.226  44.177  50.508  1.00  0.00    -0.028 A 
ATOM     24  C   UNL     1       6.025  41.516  50.162  1.00  0.00     0.002 A 
ATOM     25  C   UNL     1       6.472  43.866  49.930  1.00  0.00     0.005 A 
ATOM     26  C   UNL     1       6.867  42.542  49.758  1.00  0.00     0.000 A 
ATOM     27  C   UNL     1       4.866  45.628  50.685  1.00  0.00     0.046 C 
ENDBRANCH  19  21
ENDBRANCH  12  19
ENDBRANCH   7   9
ENDBRANCH   1   7
TORSDOF 8
ENDMDL
MODEL 6
REMARK VINA RESULT:    -8.034      2.022      5.473
REMARK INTER + INTRA:         -13.115
REMARK INTER:                 -12.048
REMARK INTRA:                  -1.068
REMARK UNBOUND:                -1.323
REMARK SMILES CCCCCCNc1nc(Nc2ccccc2C)c2cnn(C)c2n1
REMARK SMILES IDX 6 1 5 2 4 3 3 4 2 5 1 6 7 7 8 9 9 10 25 11 10 12 24 13 19 14
REMARK SMILES IDX 22 15 20 16 21 17 23 18 11 19 12 21 13 22 17 23 14 24 16 25
REMARK SMILES IDX 15 26 18 27
REMARK H PARENT 7 8 11 20
ROOT
ATOM      1  C   UNL     1       1.658  43.312  52.619  1.00  0.00     0.116 C 
ENDROOT
BRANCH   1   2
ATOM      2  C   UNL     1       0.596  42.669  53.511  1.00  0.00     0.021 C 
BRANCH   2   3
ATOM      3  C   UNL     1      -0.230  43.726  54.247  1.00  0.00     0.002 C 
BRANCH   3   4
ATOM      4  C   UNL     1       0.510  45.064  54.305  1.00  0.00    -0.000 C 
BRANCH   4   5
ATOM      5  C   UNL     1       1.280  45.273  55.611  1.00  0.00    -0.003 C 
ATOM      6  C   UNL     1       2.771  45.496  55.408  1.00  0.00     0.004 C 
ENDBRANCH   4   5
ENDBRANCH   3   4
ENDBRANCH   2   3
ENDBRANCH   1   2
BRANCH   1   7
ATOM      7  N   UNL     1       2.971  42.785  52.949  1.00  0.00    -0.354 N 
ATOM      8  H   UNL     1       3.047  41.774  52.966  1.00  0.00     0.163 HD
BRANCH   7   9
ATOM      9  C   UNL     1       4.028  43.239  52.169  1.00  0.00     0.226 A 
ATOM     10  N   UNL     1       4.625  44.410  52.461  1.00  0.00    -0.195 NA
ATOM     11  N   UNL     1       4.350  42.437  51.148  1.00  0.00    -0.193 NA
ATOM     12  C   UNL     1       5.649  44.887  51.702  1.00  0.00     0.147 A 
ATOM     13  C   UNL     1       5.367  42.910  50.415  1.00  0.00     0.165 A 
ATOM     14  C   UNL     1       6.047  44.094  50.619  1.00  0.00     0.082 A 
ATOM     15  N   UNL     1       5.939  42.329  49.316  1.00  0.00    -0.250 N 
ATOM     16  C   UNL     1       7.002  44.130  49.581  1.00  0.00     0.149 A 
ATOM     17  N   UNL     1       6.942  43.062  48.778  1.00  0.00    -0.179 NA
ATOM     18  C   UNL     1       5.578  41.070  48.714  1.00  0.00     0.176 C 
BRANCH  12  19
ATOM     19  N   UNL     1       6.247  46.131  51.953  1.00  0.00    -0.339 N 
ATOM     20  H   UNL     1       5.689  46.917  51.655  1.00  0.00     0.168 HD
BRANCH  19  21
ATOM     21  C   UNL     1       7.501  46.487  52.488  1.00  0.00     0.043 A 
ATOM     22  C   UNL     1       8.676  46.439  51.725  1.00  0.00     0.026 A 
ATOM     23  C   UNL     1       7.612  46.848  53.851  1.00  0.00    -0.028 A 
ATOM     24  C   UNL     1       9.922  46.758  52.273  1.00  0.00     0.002 A 
ATOM     25  C   UNL     1       8.870  47.172  54.394  1.00  0.00     0.005 A 
ATOM     26  C   UNL     1      10.018  47.126  53.607  1.00  0.00     0.000 A 
ATOM     27  C   UNL     1       6.411  46.896  54.759  1.00  0.00     0.046 C 
ENDBRANCH  19  21
ENDBRANCH  12  19
ENDBRANCH   7   9
ENDBRANCH   1   7
TORSDOF 8
ENDMDL
MODEL 7
REMARK VINA RESULT:    -7.988      1.278      4.761
REMARK INTER + INTRA:         -13.047
REMARK INTER:                 -11.407
REMARK INTRA:                  -1.640
REMARK UNBOUND:                -1.323
REMARK SMILES CCCCCCNc1nc(Nc2ccccc2C)c2cnn(C)c2n1
REMARK SMILES IDX 6 1 5 2 4 3 3 4 2 5 1 6 7 7 8 9 9 10 25 11 10 12 24 13 19 14
REMARK SMILES IDX 22 15 20 16 21 17 23 18 11 19 12 21 13 22 17 23 14 24 16 25
REMARK SMILES IDX 15 26 18 27
REMARK H PARENT 7 8 11 20
ROOT
ATOM      1  C   UNL     1       8.131  43.800  49.435  1.00  0.00     0.116 C 
ENDROOT
BRANCH   1   2
ATOM      2  C   UNL     1       6.916  43.034  48.909  1.00  0.00     0.021 C 
BRANCH   2   3
ATOM      3  C   UNL     1       6.390  42.040  49.945  1.00  0.00     0.002 C 
BRANCH   3   4
ATOM      4  C   UNL     1       5.123  42.566  50.622  1.00  0.00    -0.000 C 
BRANCH   4   5
ATOM      5  C   UNL     1       4.074  41.479  50.871  1.00  0.00    -0.003 C 
ATOM      6  C   UNL     1       3.608  40.783  49.602  1.00  0.00     0.004 C 
ENDBRANCH   4   5
ENDBRANCH   3   4
ENDBRANCH   2   3
ENDBRANCH   1   2
BRANCH   1   7
ATOM      7  N   UNL     1       7.827  45.218  49.517  1.00  0.00    -0.354 N 
ATOM      8  H   UNL     1       7.187  45.571  48.815  1.00  0.00     0.163 HD
BRANCH   7   9
ATOM      9  C   UNL     1       7.350  45.672  50.740  1.00  0.00     0.226 A 
ATOM     10  N   UNL     1       6.023  45.726  50.968  1.00  0.00    -0.195 NA
ATOM     11  N   UNL     1       8.301  46.046  51.605  1.00  0.00    -0.193 NA
ATOM     12  C   UNL     1       5.530  46.186  52.149  1.00  0.00     0.147 A 
ATOM     13  C   UNL     1       7.803  46.484  52.769  1.00  0.00     0.165 A 
ATOM     14  C   UNL     1       6.469  46.586  53.108  1.00  0.00     0.082 A 
ATOM     15  N   UNL     1       8.505  46.926  53.857  1.00  0.00    -0.250 N 
ATOM     16  C   UNL     1       6.481  47.107  54.419  1.00  0.00     0.149 A 
ATOM     17  N   UNL     1       7.717  47.324  54.883  1.00  0.00    -0.179 NA
ATOM     18  C   UNL     1       9.938  47.003  53.992  1.00  0.00     0.176 C 
BRANCH  12  19
ATOM     19  N   UNL     1       4.152  46.305  52.386  1.00  0.00    -0.339 N 
ATOM     20  H   UNL     1       3.869  47.228  52.679  1.00  0.00     0.168 HD
BRANCH  19  21
ATOM     21  C   UNL     1       3.100  45.367  52.346  1.00  0.00     0.043 A 
ATOM     22  C   UNL     1       2.428  45.054  51.157  1.00  0.00     0.026 A 
ATOM     23  C   UNL     1       2.651  44.757  53.541  1.00  0.00    -0.028 A 
ATOM     24  C   UNL     1       1.361  44.150  51.132  1.00  0.00     0.002 A 
ATOM     25  C   UNL     1       1.579  43.845  53.505  1.00  0.00     0.005 A 
ATOM     26  C   UNL     1       0.938  43.545  52.306  1.00  0.00     0.000 A 
ATOM     27  C   UNL     1       3.288  45.055  54.872  1.00  0.00     0.046 C 
ENDBRANCH  19  21
ENDBRANCH  12  19
ENDBRANCH   7   9
ENDBRANCH   1   7
TORSDOF 8
ENDMDL
MODEL 8
REMARK VINA RESULT:    -7.974      1.895      5.207
REMARK INTER + INTRA:         -13.027
REMARK INTER:                 -11.870
REMARK INTRA:                  -1.158
REMARK UNBOUND:                -1.323
REMARK SMILES CCCCCCNc1nc(Nc2ccccc2C)c2cnn(C)c2n1
REMARK SMILES IDX 6 1 5 2 4 3 3 4 2 5 1 6 7 7 8 9 9 10 25 11 10 12 24 13 19 14
REMARK SMILES IDX 22 15 20 16 21 17 23 18 11 19 12 21 13 22 17 23 14 24 16 25
REMARK SMILES IDX 15 26 18 27
REMARK H PARENT 7 8 11 20
ROOT
ATOM      1  C   UNL     1       2.265  42.872  52.516  1.00  0.00     0.116 C 
ENDROOT
BRANCH   1   2
ATOM      2  C   UNL     1       1.239  43.995  52.677  1.00  0.00     0.021 C 
BRANCH   2   3
ATOM      3  C   UNL     1       1.627  45.228  51.861  1.00  0.00     0.002 C 
BRANCH   3   4
ATOM      4  C   UNL     1       1.991  46.402  52.773  1.00  0.00    -0.000 C 
BRANCH   4   5
ATOM      5  C   UNL     1       3.119  47.274  52.216  1.00  0.00    -0.003 C 
ATOM      6  C   UNL     1       4.036  47.839  53.290  1.00  0.00     0.004 C 
ENDBRANCH   4   5
ENDBRANCH   3   4
ENDBRANCH   2   3
ENDBRANCH   1   2
BRANCH   1   7
ATOM      7  N   UNL     1       3.534  43.271  53.101  1.00  0.00    -0.354 N 
ATOM      8  H   UNL     1       3.928  42.627  53.776  1.00  0.00     0.163 HD
BRANCH   7   9
ATOM      9  C   UNL     1       4.555  43.566  52.206  1.00  0.00     0.226 A 
ATOM     10  N   UNL     1       5.326  44.654  52.398  1.00  0.00    -0.195 NA
ATOM     11  N   UNL     1       4.665  42.708  51.185  1.00  0.00    -0.193 NA
ATOM     12  C   UNL     1       6.319  44.976  51.526  1.00  0.00     0.147 A 
ATOM     13  C   UNL     1       5.655  43.028  50.340  1.00  0.00     0.165 A 
ATOM     14  C   UNL     1       6.499  44.116  50.435  1.00  0.00     0.082 A 
ATOM     15  N   UNL     1       6.031  42.354  49.210  1.00  0.00    -0.250 N 
ATOM     16  C   UNL     1       7.339  44.004  49.308  1.00  0.00     0.149 A 
ATOM     17  N   UNL     1       7.060  42.937  48.551  1.00  0.00    -0.179 NA
ATOM     18  C   UNL     1       5.451  41.142  48.689  1.00  0.00     0.176 C 
BRANCH  12  19
ATOM     19  N   UNL     1       7.095  46.136  51.674  1.00  0.00    -0.339 N 
ATOM     20  H   UNL     1       7.003  46.786  50.908  1.00  0.00     0.168 HD
BRANCH  19  21
ATOM     21  C   UNL     1       8.019  46.536  52.660  1.00  0.00     0.043 A 
ATOM     22  C   UNL     1       7.616  47.176  53.840  1.00  0.00     0.026 A 
ATOM     23  C   UNL     1       9.405  46.353  52.447  1.00  0.00    -0.028 A 
ATOM     24  C   UNL     1       8.542  47.604  54.797  1.00  0.00     0.002 A 
ATOM     25  C   UNL     1      10.330  46.783  53.418  1.00  0.00     0.005 A 
ATOM     26  C   UNL     1       9.898  47.406  54.586  1.00  0.00     0.000 A 
ATOM     27  C   UNL     1       9.936  45.705  51.195  1.00  0.00     0.046 C 
ENDBRANCH  19  21
ENDBRANCH  12  19
ENDBRANCH   7   9
ENDBRANCH   1   7
TORSDOF 8
ENDMDL
MODEL 9
REMARK VINA RESULT:    -7.956      1.975      5.731
REMARK INTER + INTRA:         -13.001
REMARK INTER:                 -11.829
REMARK INTRA:                  -1.172
REMARK UNBOUND:                -1.323
REMARK SMILES CCCCCCNc1nc(Nc2ccccc2C)c2cnn(C)c2n1
REMARK SMILES IDX 6 1 5 2 4 3 3 4 2 5 1 6 7 7 8 9 9 10 25 11 10 12 24 13 19 14
REMARK SMILES IDX 22 15 20 16 21 17 23 18 11 19 12 21 13 22 17 23 14 24 16 25
REMARK SMILES IDX 15 26 18 27
REMARK H PARENT 7 8 11 20
ROOT
ATOM      1  C   UNL     1       4.291  41.543  51.137  1.00  0.00     0.116 C 
ENDROOT
BRANCH   1   2
ATOM      2  C   UNL     1       4.760  41.202  49.722  1.00  0.00     0.021 C 
BRANCH   2   3
ATOM      3  C   UNL     1       6.114  41.842  49.413  1.00  0.00     0.002 C 
BRANCH   3   4
ATOM      4  C   UNL     1       6.185  42.308  47.957  1.00  0.00    -0.000 C 
BRANCH   4   5
ATOM      5  C   UNL     1       5.313  41.477  47.012  1.00  0.00    -0.003 C 
ATOM      6  C   UNL     1       5.395  41.924  45.561  1.00  0.00     0.004 C 
ENDBRANCH   4   5
ENDBRANCH   3   4
ENDBRANCH   2   3
ENDBRANCH   1   2
BRANCH   1   7
ATOM      7  N   UNL     1       3.366  42.663  51.098  1.00  0.00    -0.354 N 
ATOM      8  H   UNL     1       2.409  42.451  51.357  1.00  0.00     0.163 HD
BRANCH   7   9
ATOM      9  C   UNL     1       3.728  43.783  51.836  1.00  0.00     0.226 A 
ATOM     10  N   UNL     1       4.694  44.605  51.381  1.00  0.00    -0.195 NA
ATOM     11  N   UNL     1       3.061  43.931  52.987  1.00  0.00    -0.193 NA
ATOM     12  C   UNL     1       5.081  45.698  52.094  1.00  0.00     0.147 A 
ATOM     13  C   UNL     1       3.442  45.017  53.673  1.00  0.00     0.165 A 
ATOM     14  C   UNL     1       4.419  45.922  53.307  1.00  0.00     0.082 A 
ATOM     15  N   UNL     1       2.952  45.453  54.874  1.00  0.00    -0.250 N 
ATOM     16  C   UNL     1       4.440  46.857  54.364  1.00  0.00     0.149 A 
ATOM     17  N   UNL     1       3.555  46.578  55.327  1.00  0.00    -0.179 NA
ATOM     18  C   UNL     1       1.908  44.843  55.658  1.00  0.00     0.176 C 
BRANCH  12  19
ATOM     19  N   UNL     1       6.124  46.534  51.669  1.00  0.00    -0.339 N 
ATOM     20  H   UNL     1       5.858  47.177  50.939  1.00  0.00     0.168 HD
BRANCH  19  21
ATOM     21  C   UNL     1       7.485  46.606  52.028  1.00  0.00     0.043 A 
ATOM     22  C   UNL     1       7.932  47.396  53.096  1.00  0.00     0.026 A 
ATOM     23  C   UNL     1       8.456  45.917  51.264  1.00  0.00    -0.028 A 
ATOM     24  C   UNL     1       9.287  47.491  53.424  1.00  0.00     0.002 A 
ATOM     25  C   UNL     1       9.819  46.016  51.603  1.00  0.00     0.005 A 
ATOM     26  C   UNL     1      10.231  46.800  52.678  1.00  0.00     0.000 A 
ATOM     27  C   UNL     1       8.077  45.070  50.078  1.00  0.00     0.046 C 
ENDBRANCH  19  21
ENDBRANCH  12  19
ENDBRANCH   7   9
ENDBRANCH   1   7
TORSDOF 8
ENDMDL
MODEL 10
REMARK VINA RESULT:    -7.935      2.445      6.604
REMARK INTER + INTRA:         -12.970
REMARK INTER:                 -12.064
REMARK INTRA:                  -0.906
REMARK UNBOUND:                -1.323
REMARK SMILES CCCCCCNc1nc(Nc2ccccc2C)c2cnn(C)c2n1
REMARK SMILES IDX 6 1 5 2 4 3 3 4 2 5 1 6 7 7 8 9 9 10 25 11 10 12 24 13 19 14
REMARK SMILES IDX 22 15 20 16 21 17 23 18 11 19 12 21 13 22 17 23 14 24 16 25
REMARK SMILES IDX 15 26 18 27
REMARK H PARENT 7 8 11 20
ROOT
ATOM      1  C   UNL     1       5.784  41.199  49.045  1.00  0.00     0.116 C 
ENDROOT
BRANCH   1   2
ATOM      2  C   UNL     1       5.017  41.078  47.728  1.00  0.00     0.021 C 
BRANCH   2   3
ATOM      3  C   UNL     1       5.667  41.913  46.624  1.00  0.00     0.002 C 
BRANCH   3   4
ATOM      4  C   UNL     1       4.983  41.676  45.276  1.00  0.00    -0.000 C 
BRANCH   4   5
ATOM      5  C   UNL     1       3.740  40.787  45.376  1.00  0.00    -0.003 C 
ATOM      6  C   UNL     1       2.444  41.517  45.058  1.00  0.00     0.004 C 
ENDBRANCH   4   5
ENDBRANCH   3   4
ENDBRANCH   2   3
ENDBRANCH   1   2
BRANCH   1   7
ATOM      7  N   UNL     1       6.534  42.442  49.071  1.00  0.00    -0.354 N 
ATOM      8  H   UNL     1       6.571  42.952  48.195  1.00  0.00     0.163 HD
BRANCH   7   9
ATOM      9  C   UNL     1       6.158  43.365  50.040  1.00  0.00     0.226 A 
ATOM     10  N   UNL     1       6.911  44.461  50.255  1.00  0.00    -0.195 NA
ATOM     11  N   UNL     1       5.041  43.048  50.705  1.00  0.00    -0.193 NA
ATOM     12  C   UNL     1       6.575  45.369  51.211  1.00  0.00     0.147 A 
ATOM     13  C   UNL     1       4.713  43.956  51.635  1.00  0.00     0.165 A 
ATOM     14  C   UNL     1       5.410  45.108  51.942  1.00  0.00     0.082 A 
ATOM     15  N   UNL     1       3.632  43.933  52.473  1.00  0.00    -0.250 N 
ATOM     16  C   UNL     1       4.665  45.698  52.985  1.00  0.00     0.149 A 
ATOM     17  N   UNL     1       3.582  44.988  53.320  1.00  0.00    -0.179 NA
ATOM     18  C   UNL     1       2.600  42.929  52.528  1.00  0.00     0.176 C 
BRANCH  12  19
ATOM     19  N   UNL     1       7.376  46.486  51.492  1.00  0.00    -0.339 N 
ATOM     20  H   UNL     1       7.390  47.173  50.753  1.00  0.00     0.168 HD
BRANCH  19  21
ATOM     21  C   UNL     1       8.209  46.802  52.584  1.00  0.00     0.043 A 
ATOM     22  C   UNL     1       7.739  47.514  53.696  1.00  0.00     0.026 A 
ATOM     23  C   UNL     1       9.580  46.455  52.552  1.00  0.00    -0.028 A 
ATOM     24  C   UNL     1       8.579  47.857  54.759  1.00  0.00     0.002 A 
ATOM     25  C   UNL     1      10.419  46.801  53.629  1.00  0.00     0.005 A 
ATOM     26  C   UNL     1       9.919  47.498  54.726  1.00  0.00     0.000 A 
ATOM     27  C   UNL     1      10.185  45.720  51.386  1.00  0.00     0.046 C 
ENDBRANCH  19  21
ENDBRANCH  12  19
ENDBRANCH   7   9
ENDBRANCH   1   7
TORSDOF 8
ENDMDL
MODEL 11
REMARK VINA RESULT:    -7.918      2.368      6.817
REMARK INTER + INTRA:         -12.944
REMARK INTER:                 -12.158
REMARK INTRA:                  -0.786
REMARK UNBOUND:                -1.323
REMARK SMILES CCCCCCNc1nc(Nc2ccccc2C)c2cnn(C)c2n1
REMARK SMILES IDX 6 1 5 2 4 3 3 4 2 5 1 6 7 7 8 9 9 10 25 11 10 12 24 13 19 14
REMARK SMILES IDX 22 15 20 16 21 17 23 18 11 19 12 21 13 22 17 23 14 24 16 25
REMARK SMILES IDX 15 26 18 27
REMARK H PARENT 7 8 11 20
ROOT
ATOM      1  C   UNL     1       7.049  46.387  51.543  1.00  0.00     0.116 C 
ENDROOT
BRANCH   1   2
ATOM      2  C   UNL     1       7.881  47.485  52.207  1.00  0.00     0.021 C 
BRANCH   2   3
ATOM      3  C   UNL     1       9.378  47.179  52.123  1.00  0.00     0.002 C 
BRANCH   3   4
ATOM      4  C   UNL     1       9.909  46.649  53.456  1.00  0.00    -0.000 C 
BRANCH   4   5
ATOM      5  C   UNL     1       9.588  47.563  54.642  1.00  0.00    -0.003 C 
ATOM      6  C   UNL     1      10.646  47.534  55.734  1.00  0.00     0.004 C 
ENDBRANCH   4   5
ENDBRANCH   3   4
ENDBRANCH   2   3
ENDBRANCH   1   2
BRANCH   1   7
ATOM      7  N   UNL     1       6.124  45.814  52.506  1.00  0.00    -0.354 N 
ATOM      8  H   UNL     1       5.427  46.449  52.878  1.00  0.00     0.163 HD
BRANCH   7   9
ATOM      9  C   UNL     1       5.433  44.681  52.092  1.00  0.00     0.226 A 
ATOM     10  N   UNL     1       4.373  44.244  52.799  1.00  0.00    -0.195 NA
ATOM     11  N   UNL     1       5.924  44.102  50.990  1.00  0.00    -0.193 NA
ATOM     12  C   UNL     1       3.691  43.127  52.426  1.00  0.00     0.147 A 
ATOM     13  C   UNL     1       5.237  43.010  50.626  1.00  0.00     0.165 A 
ATOM     14  C   UNL     1       4.144  42.471  51.275  1.00  0.00     0.082 A 
ATOM     15  N   UNL     1       5.475  42.202  49.548  1.00  0.00    -0.250 N 
ATOM     16  C   UNL     1       3.808  41.336  50.507  1.00  0.00     0.149 A 
ATOM     17  N   UNL     1       4.616  41.159  49.455  1.00  0.00    -0.179 NA
ATOM     18  C   UNL     1       6.511  42.357  48.560  1.00  0.00     0.176 C 
BRANCH  12  19
ATOM     19  N   UNL     1       2.622  42.620  53.180  1.00  0.00    -0.339 N 
ATOM     20  H   UNL     1       2.867  41.822  53.748  1.00  0.00     0.168 HD
BRANCH  19  21
ATOM     21  C   UNL     1       1.261  42.978  53.250  1.00  0.00     0.043 A 
ATOM     22  C   UNL     1       0.307  42.453  52.367  1.00  0.00     0.026 A 
ATOM     23  C   UNL     1       0.830  43.943  54.191  1.00  0.00    -0.028 A 
ATOM     24  C   UNL     1      -1.035  42.841  52.418  1.00  0.00     0.002 A 
ATOM     25  C   UNL     1      -0.524  44.325  54.238  1.00  0.00     0.005 A 
ATOM     26  C   UNL     1      -1.450  43.776  53.355  1.00  0.00     0.000 A 
ATOM     27  C   UNL     1       1.786  44.588  55.159  1.00  0.00     0.046 C 
ENDBRANCH  19  21
ENDBRANCH  12  19
ENDBRANCH   7   9
ENDBRANCH   1   7
TORSDOF 8
ENDMDL
MODEL 12
REMARK VINA RESULT:    -7.913      1.894      6.622
REMARK INTER + INTRA:         -12.937
REMARK INTER:                 -12.173
REMARK INTRA:                  -0.763
REMARK UNBOUND:                -1.323
REMARK SMILES CCCCCCNc1nc(Nc2ccccc2C)c2cnn(C)c2n1
REMARK SMILES IDX 6 1 5 2 4 3 3 4 2 5 1 6 7 7 8 9 9 10 25 11 10 12 24 13 19 14
REMARK SMILES IDX 22 15 20 16 21 17 23 18 11 19 12 21 13 22 17 23 14 24 16 25
REMARK SMILES IDX 15 26 18 27
REMARK H PARENT 7 8 11 20
ROOT
ATOM      1  C   UNL     1       8.957  45.925  51.599  1.00  0.00     0.116 C 
ENDROOT
BRANCH   1   2
ATOM      2  C   UNL     1       9.659  47.060  52.345  1.00  0.00     0.021 C 
BRANCH   2   3
ATOM      3  C   UNL     1       8.669  47.884  53.170  1.00  0.00     0.002 C 
BRANCH   3   4
ATOM      4  C   UNL     1       9.155  48.050  54.611  1.00  0.00    -0.000 C 
BRANCH   4   5
ATOM      5  C   UNL     1      10.332  47.136  54.962  1.00  0.00    -0.003 C 
ATOM      6  C   UNL     1      11.039  47.524  56.251  1.00  0.00     0.004 C 
ENDBRANCH   4   5
ENDBRANCH   3   4
ENDBRANCH   2   3
ENDBRANCH   1   2
BRANCH   1   7
ATOM      7  N   UNL     1       7.792  46.436  50.898  1.00  0.00    -0.354 N 
ATOM      8  H   UNL     1       7.900  46.559  49.898  1.00  0.00     0.163 HD
BRANCH   7   9
ATOM      9  C   UNL     1       6.610  45.727  51.075  1.00  0.00     0.226 A 
ATOM     10  N   UNL     1       5.547  46.322  51.649  1.00  0.00    -0.195 NA
ATOM     11  N   UNL     1       6.654  44.458  50.651  1.00  0.00    -0.193 NA
ATOM     12  C   UNL     1       4.385  45.644  51.851  1.00  0.00     0.147 A 
ATOM     13  C   UNL     1       5.500  43.804  50.844  1.00  0.00     0.165 A 
ATOM     14  C   UNL     1       4.354  44.311  51.424  1.00  0.00     0.082 A 
ATOM     15  N   UNL     1       5.217  42.507  50.515  1.00  0.00    -0.250 N 
ATOM     16  C   UNL     1       3.447  43.231  51.401  1.00  0.00     0.149 A 
ATOM     17  N   UNL     1       3.963  42.125  50.854  1.00  0.00    -0.179 NA
ATOM     18  C   UNL     1       6.098  41.562  49.876  1.00  0.00     0.176 C 
BRANCH  12  19
ATOM     19  N   UNL     1       3.286  46.225  52.501  1.00  0.00    -0.339 N 
ATOM     20  H   UNL     1       3.178  47.211  52.315  1.00  0.00     0.168 HD
BRANCH  19  21
ATOM     21  C   UNL     1       2.339  45.706  53.408  1.00  0.00     0.043 A 
ATOM     22  C   UNL     1       1.029  45.395  53.019  1.00  0.00     0.026 A 
ATOM     23  C   UNL     1       2.681  45.544  54.771  1.00  0.00    -0.028 A 
ATOM     24  C   UNL     1       0.085  44.916  53.932  1.00  0.00     0.002 A 
ATOM     25  C   UNL     1       1.724  45.057  55.683  1.00  0.00     0.005 A 
ATOM     26  C   UNL     1       0.434  44.746  55.263  1.00  0.00     0.000 A 
ATOM     27  C   UNL     1       4.053  45.883  55.291  1.00  0.00     0.046 C 
ENDBRANCH  19  21
ENDBRANCH  12  19
ENDBRANCH   7   9
ENDBRANCH   1   7
TORSDOF 8
ENDMDL
MODEL 13
REMARK VINA RESULT:    -7.814      2.153      6.426
REMARK INTER + INTRA:         -12.792
REMARK INTER:                 -11.613
REMARK INTRA:                  -1.179
REMARK UNBOUND:                -1.323
REMARK SMILES CCCCCCNc1nc(Nc2ccccc2C)c2cnn(C)c2n1
REMARK SMILES IDX 6 1 5 2 4 3 3 4 2 5 1 6 7 7 8 9 9 10 25 11 10 12 24 13 19 14
REMARK SMILES IDX 22 15 20 16 21 17 23 18 11 19 12 21 13 22 17 23 14 24 16 25
REMARK SMILES IDX 15 26 18 27
REMARK H PARENT 7 8 11 20
ROOT
ATOM      1  C   UNL     1       3.593  41.116  50.112  1.00  0.00     0.116 C 
ENDROOT
BRANCH   1   2
ATOM      2  C   UNL     1       4.538  41.048  48.912  1.00  0.00     0.021 C 
BRANCH   2   3
ATOM      3  C   UNL     1       5.988  41.301  49.328  1.00  0.00     0.002 C 
BRANCH   3   4
ATOM      4  C   UNL     1       6.551  42.545  48.637  1.00  0.00    -0.000 C 
BRANCH   4   5
ATOM      5  C   UNL     1       7.453  43.385  49.545  1.00  0.00    -0.003 C 
ATOM      6  C   UNL     1       8.550  44.125  48.795  1.00  0.00     0.004 C 
ENDBRANCH   4   5
ENDBRANCH   3   4
ENDBRANCH   2   3
ENDBRANCH   1   2
BRANCH   1   7
ATOM      7  N   UNL     1       4.317  41.559  51.291  1.00  0.00    -0.354 N 
ATOM      8  H   UNL     1       5.325  41.598  51.198  1.00  0.00     0.163 HD
BRANCH   7   9
ATOM      9  C   UNL     1       3.930  42.782  51.824  1.00  0.00     0.226 A 
ATOM     10  N   UNL     1       4.723  43.861  51.679  1.00  0.00    -0.195 NA
ATOM     11  N   UNL     1       2.760  42.760  52.474  1.00  0.00    -0.193 NA
ATOM     12  C   UNL     1       4.376  45.066  52.209  1.00  0.00     0.147 A 
ATOM     13  C   UNL     1       2.423  43.955  52.980  1.00  0.00     0.165 A 
ATOM     14  C   UNL     1       3.158  45.121  52.896  1.00  0.00     0.082 A 
ATOM     15  N   UNL     1       1.294  44.268  53.686  1.00  0.00    -0.250 N 
ATOM     16  C   UNL     1       2.381  46.072  53.592  1.00  0.00     0.149 A 
ATOM     17  N   UNL     1       1.246  45.562  54.082  1.00  0.00    -0.179 NA
ATOM     18  C   UNL     1       0.211  43.381  54.028  1.00  0.00     0.176 C 
BRANCH  12  19
ATOM     19  N   UNL     1       5.214  46.188  52.120  1.00  0.00    -0.339 N 
ATOM     20  H   UNL     1       4.749  47.016  51.779  1.00  0.00     0.168 HD
BRANCH  19  21
ATOM     21  C   UNL     1       6.591  46.361  52.363  1.00  0.00     0.043 A 
ATOM     22  C   UNL     1       7.518  46.501  51.321  1.00  0.00     0.026 A 
ATOM     23  C   UNL     1       7.086  46.333  53.688  1.00  0.00    -0.028 A 
ATOM     24  C   UNL     1       8.888  46.635  51.567  1.00  0.00     0.002 A 
ATOM     25  C   UNL     1       8.466  46.472  53.927  1.00  0.00     0.005 A 
ATOM     26  C   UNL     1       9.361  46.622  52.871  1.00  0.00     0.000 A 
ATOM     27  C   UNL     1       6.172  46.153  54.872  1.00  0.00     0.046 C 
ENDBRANCH  19  21
ENDBRANCH  12  19
ENDBRANCH   7   9
ENDBRANCH   1   7
TORSDOF 8
ENDMDL
MODEL 14
REMARK VINA RESULT:    -7.789      2.090      5.287
REMARK INTER + INTRA:         -12.755
REMARK INTER:                 -11.671
REMARK INTRA:                  -1.083
REMARK UNBOUND:                -1.323
REMARK SMILES CCCCCCNc1nc(Nc2ccccc2C)c2cnn(C)c2n1
REMARK SMILES IDX 6 1 5 2 4 3 3 4 2 5 1 6 7 7 8 9 9 10 25 11 10 12 24 13 19 14
REMARK SMILES IDX 22 15 20 16 21 17 23 18 11 19 12 21 13 22 17 23 14 24 16 25
REMARK SMILES IDX 15 26 18 27
REMARK H PARENT 7 8 11 20
ROOT
ATOM      1  C   UNL     1       2.327  45.553  53.840  1.00  0.00     0.116 C 
ENDROOT
BRANCH   1   2
ATOM      2  C   UNL     1       1.654  45.905  52.513  1.00  0.00     0.021 C 
BRANCH   2   3
ATOM      3  C   UNL     1       0.283  45.238  52.387  1.00  0.00     0.002 C 
BRANCH   3   4
ATOM      4  C   UNL     1       0.316  44.097  51.368  1.00  0.00    -0.000 C 
BRANCH   4   5
ATOM      5  C   UNL     1      -0.031  42.734  51.974  1.00  0.00    -0.003 C 
ATOM      6  C   UNL     1      -0.254  42.778  53.478  1.00  0.00     0.004 C 
ENDBRANCH   4   5
ENDBRANCH   3   4
ENDBRANCH   2   3
ENDBRANCH   1   2
BRANCH   1   7
ATOM      7  N   UNL     1       2.949  44.243  53.750  1.00  0.00    -0.354 N 
ATOM      8  H   UNL     1       2.313  43.461  53.648  1.00  0.00     0.163 HD
BRANCH   7   9
ATOM      9  C   UNL     1       3.912  44.089  52.760  1.00  0.00     0.226 A 
ATOM     10  N   UNL     1       4.913  44.985  52.649  1.00  0.00    -0.195 NA
ATOM     11  N   UNL     1       3.731  43.026  51.968  1.00  0.00    -0.193 NA
ATOM     12  C   UNL     1       5.857  44.868  51.677  1.00  0.00     0.147 A 
ATOM     13  C   UNL     1       4.674  42.914  51.023  1.00  0.00     0.165 A 
ATOM     14  C   UNL     1       5.737  43.771  50.814  1.00  0.00     0.082 A 
ATOM     15  N   UNL     1       4.781  41.940  50.069  1.00  0.00    -0.250 N 
ATOM     16  C   UNL     1       6.414  43.222  49.705  1.00  0.00     0.149 A 
ATOM     17  N   UNL     1       5.837  42.109  49.239  1.00  0.00    -0.179 NA
ATOM     18  C   UNL     1       3.905  40.811  49.881  1.00  0.00     0.176 C 
BRANCH  12  19
ATOM     19  N   UNL     1       6.873  45.820  51.506  1.00  0.00    -0.339 N 
ATOM     20  H   UNL     1       6.919  46.202  50.573  1.00  0.00     0.168 HD
BRANCH  19  21
ATOM     21  C   UNL     1       7.875  46.300  52.373  1.00  0.00     0.043 A 
ATOM     22  C   UNL     1       7.571  47.034  53.527  1.00  0.00     0.026 A 
ATOM     23  C   UNL     1       9.240  46.101  52.056  1.00  0.00    -0.028 A 
ATOM     24  C   UNL     1       8.572  47.538  54.363  1.00  0.00     0.002 A 
ATOM     25  C   UNL     1      10.241  46.610  52.905  1.00  0.00     0.005 A 
ATOM     26  C   UNL     1       9.907  47.325  54.052  1.00  0.00     0.000 A 
ATOM     27  C   UNL     1       9.666  45.354  50.820  1.00  0.00     0.046 C 
ENDBRANCH  19  21
ENDBRANCH  12  19
ENDBRANCH   7   9
ENDBRANCH   1   7
TORSDOF 8
ENDMDL
MODEL 15
REMARK VINA RESULT:    -7.745      2.610      6.695
REMARK INTER + INTRA:         -12.691
REMARK INTER:                 -11.832
REMARK INTRA:                  -0.859
REMARK UNBOUND:                -1.323
REMARK SMILES CCCCCCNc1nc(Nc2ccccc2C)c2cnn(C)c2n1
REMARK SMILES IDX 6 1 5 2 4 3 3 4 2 5 1 6 7 7 8 9 9 10 25 11 10 12 24 13 19 14
REMARK SMILES IDX 22 15 20 16 21 17 23 18 11 19 12 21 13 22 17 23 14 24 16 25
REMARK SMILES IDX 15 26 18 27
REMARK H PARENT 7 8 11 20
ROOT
ATOM      1  C   UNL     1       5.935  41.710  49.444  1.00  0.00     0.116 C 
ENDROOT
BRANCH   1   2
ATOM      2  C   UNL     1       5.278  41.217  48.154  1.00  0.00     0.021 C 
BRANCH   2   3
ATOM      3  C   UNL     1       5.832  41.947  46.930  1.00  0.00     0.002 C 
BRANCH   3   4
ATOM      4  C   UNL     1       5.039  41.595  45.670  1.00  0.00    -0.000 C 
BRANCH   4   5
ATOM      5  C   UNL     1       3.776  40.779  45.959  1.00  0.00    -0.003 C 
ATOM      6  C   UNL     1       2.621  41.096  45.023  1.00  0.00     0.004 C 
ENDBRANCH   4   5
ENDBRANCH   3   4
ENDBRANCH   2   3
ENDBRANCH   1   2
BRANCH   1   7
ATOM      7  N   UNL     1       5.029  41.528  50.565  1.00  0.00    -0.354 N 
ATOM      8  H   UNL     1       5.340  40.881  51.280  1.00  0.00     0.163 HD
BRANCH   7   9
ATOM      9  C   UNL     1       4.638  42.683  51.231  1.00  0.00     0.226 A 
ATOM     10  N   UNL     1       5.398  43.793  51.158  1.00  0.00    -0.195 NA
ATOM     11  N   UNL     1       3.501  42.566  51.927  1.00  0.00    -0.193 NA
ATOM     12  C   UNL     1       5.048  44.930  51.817  1.00  0.00     0.147 A 
ATOM     13  C   UNL     1       3.160  43.696  52.561  1.00  0.00     0.165 A 
ATOM     14  C   UNL     1       3.862  44.885  52.559  1.00  0.00     0.082 A 
ATOM     15  N   UNL     1       2.057  43.908  53.342  1.00  0.00    -0.250 N 
ATOM     16  C   UNL     1       3.096  45.742  53.377  1.00  0.00     0.149 A 
ATOM     17  N   UNL     1       1.997  45.156  53.864  1.00  0.00    -0.179 NA
ATOM     18  C   UNL     1       1.013  42.962  53.643  1.00  0.00     0.176 C 
BRANCH  12  19
ATOM     19  N   UNL     1       5.854  46.079  51.802  1.00  0.00    -0.339 N 
ATOM     20  H   UNL     1       5.404  46.886  51.399  1.00  0.00     0.168 HD
BRANCH  19  21
ATOM     21  C   UNL     1       7.191  46.301  52.190  1.00  0.00     0.043 A 
ATOM     22  C   UNL     1       8.259  46.165  51.293  1.00  0.00     0.026 A 
ATOM     23  C   UNL     1       7.494  46.612  53.537  1.00  0.00    -0.028 A 
ATOM     24  C   UNL     1       9.585  46.350  51.694  1.00  0.00     0.002 A 
ATOM     25  C   UNL     1       8.833  46.801  53.931  1.00  0.00     0.005 A 
ATOM     26  C   UNL     1       9.871  46.670  53.013  1.00  0.00     0.000 A 
ATOM     27  C   UNL     1       6.418  46.746  54.581  1.00  0.00     0.046 C 
ENDBRANCH  19  21
ENDBRANCH  12  19
ENDBRANCH   7   9
ENDBRANCH   1   7
TORSDOF 8
ENDMDL
MODEL 16
REMARK VINA RESULT:    -7.721      2.330      6.671
REMARK INTER + INTRA:         -12.656
REMARK INTER:                 -11.980
REMARK INTRA:                  -0.676
REMARK UNBOUND:                -1.323
REMARK SMILES CCCCCCNc1nc(Nc2ccccc2C)c2cnn(C)c2n1
REMARK SMILES IDX 6 1 5 2 4 3 3 4 2 5 1 6 7 7 8 9 9 10 25 11 10 12 24 13 19 14
REMARK SMILES IDX 22 15 20 16 21 17 23 18 11 19 12 21 13 22 17 23 14 24 16 25
REMARK SMILES IDX 15 26 18 27
REMARK H PARENT 7 8 11 20
ROOT
ATOM      1  C   UNL     1       5.684  47.185  53.267  1.00  0.00     0.116 C 
ENDROOT
BRANCH   1   2
ATOM      2  C   UNL     1       7.156  46.777  53.344  1.00  0.00     0.021 C 
BRANCH   2   3
ATOM      3  C   UNL     1       8.036  47.701  52.502  1.00  0.00     0.002 C 
BRANCH   3   4
ATOM      4  C   UNL     1       9.490  47.224  52.496  1.00  0.00    -0.000 C 
BRANCH   4   5
ATOM      5  C   UNL     1       9.883  46.462  53.764  1.00  0.00    -0.003 C 
ATOM      6  C   UNL     1      10.207  47.369  54.941  1.00  0.00     0.004 C 
ENDBRANCH   4   5
ENDBRANCH   3   4
ENDBRANCH   2   3
ENDBRANCH   1   2
BRANCH   1   7
ATOM      7  N   UNL     1       5.129  46.804  51.980  1.00  0.00    -0.354 N 
ATOM      8  H   UNL     1       5.702  47.024  51.173  1.00  0.00     0.163 HD
BRANCH   7   9
ATOM      9  C   UNL     1       4.761  45.471  51.841  1.00  0.00     0.226 A 
ATOM     10  N   UNL     1       3.787  44.958  52.618  1.00  0.00    -0.195 NA
ATOM     11  N   UNL     1       5.455  44.795  50.919  1.00  0.00    -0.193 NA
ATOM     12  C   UNL     1       3.420  43.652  52.515  1.00  0.00     0.147 A 
ATOM     13  C   UNL     1       5.077  43.514  50.818  1.00  0.00     0.165 A 
ATOM     14  C   UNL     1       4.099  42.883  51.561  1.00  0.00     0.082 A 
ATOM     15  N   UNL     1       5.579  42.565  49.970  1.00  0.00    -0.250 N 
ATOM     16  C   UNL     1       4.101  41.556  51.084  1.00  0.00     0.149 A 
ATOM     17  N   UNL     1       5.002  41.349  50.118  1.00  0.00    -0.179 NA
ATOM     18  C   UNL     1       6.618  42.743  48.987  1.00  0.00     0.176 C 
BRANCH  12  19
ATOM     19  N   UNL     1       2.450  43.081  53.353  1.00  0.00    -0.339 N 
ATOM     20  H   UNL     1       2.511  42.077  53.420  1.00  0.00     0.168 HD
BRANCH  19  21
ATOM     21  C   UNL     1       1.375  43.641  54.072  1.00  0.00     0.043 A 
ATOM     22  C   UNL     1       1.574  44.553  55.118  1.00  0.00     0.026 A 
ATOM     23  C   UNL     1       0.049  43.237  53.790  1.00  0.00    -0.028 A 
ATOM     24  C   UNL     1       0.504  45.075  55.851  1.00  0.00     0.002 A 
ATOM     25  C   UNL     1      -1.022  43.771  54.532  1.00  0.00     0.005 A 
ATOM     26  C   UNL     1      -0.794  44.685  55.557  1.00  0.00     0.000 A 
ATOM     27  C   UNL     1      -0.263  42.236  52.709  1.00  0.00     0.046 C 
ENDBRANCH  19  21
ENDBRANCH  12  19
ENDBRANCH   7   9
ENDBRANCH   1   7
TORSDOF 8
ENDMDL
MODEL 17
REMARK VINA RESULT:    -7.590      3.168      7.243
REMARK INTER + INTRA:         -12.463
REMARK INTER:                 -10.632
REMARK INTRA:                  -1.831
REMARK UNBOUND:                -1.323
REMARK SMILES CCCCCCNc1nc(Nc2ccccc2C)c2cnn(C)c2n1
REMARK SMILES IDX 6 1 5 2 4 3 3 4 2 5 1 6 7 7 8 9 9 10 25 11 10 12 24 13 19 14
REMARK SMILES IDX 22 15 20 16 21 17 23 18 11 19 12 21 13 22 17 23 14 24 16 25
REMARK SMILES IDX 15 26 18 27
REMARK H PARENT 7 8 11 20
ROOT
ATOM      1  C   UNL     1       4.689  41.213  50.533  1.00  0.00     0.116 C 
ENDROOT
BRANCH   1   2
ATOM      2  C   UNL     1       5.350  41.489  49.181  1.00  0.00     0.021 C 
BRANCH   2   3
ATOM      3  C   UNL     1       6.301  42.684  49.258  1.00  0.00     0.002 C 
BRANCH   3   4
ATOM      4  C   UNL     1       6.138  43.436  50.580  1.00  0.00    -0.000 C 
BRANCH   4   5
ATOM      5  C   UNL     1       6.169  44.958  50.418  1.00  0.00    -0.003 C 
ATOM      6  C   UNL     1       7.568  45.548  50.489  1.00  0.00     0.004 C 
ENDBRANCH   4   5
ENDBRANCH   3   4
ENDBRANCH   2   3
ENDBRANCH   1   2
BRANCH   1   7
ATOM      7  N   UNL     1       3.244  41.227  50.391  1.00  0.00    -0.354 N 
ATOM      8  H   UNL     1       2.766  40.382  50.683  1.00  0.00     0.163 HD
BRANCH   7   9
ATOM      9  C   UNL     1       2.578  42.280  51.008  1.00  0.00     0.226 A 
ATOM     10  N   UNL     1       3.205  43.017  51.945  1.00  0.00    -0.195 NA
ATOM     11  N   UNL     1       1.315  42.454  50.600  1.00  0.00    -0.193 NA
ATOM     12  C   UNL     1       2.569  44.040  52.578  1.00  0.00     0.147 A 
ATOM     13  C   UNL     1       0.704  43.473  51.220  1.00  0.00     0.165 A 
ATOM     14  C   UNL     1       1.245  44.287  52.195  1.00  0.00     0.082 A 
ATOM     15  N   UNL     1      -0.576  43.914  51.026  1.00  0.00    -0.250 N 
ATOM     16  C   UNL     1       0.202  45.179  52.522  1.00  0.00     0.149 A 
ATOM     17  N   UNL     1      -0.915  44.957  51.820  1.00  0.00    -0.179 NA
ATOM     18  C   UNL     1      -1.544  43.385  50.099  1.00  0.00     0.176 C 
BRANCH  12  19
ATOM     19  N   UNL     1       3.183  44.782  53.598  1.00  0.00    -0.339 N 
ATOM     20  H   UNL     1       2.624  44.862  54.434  1.00  0.00     0.168 HD
BRANCH  19  21
ATOM     21  C   UNL     1       4.405  45.482  53.655  1.00  0.00     0.043 A 
ATOM     22  C   UNL     1       5.545  44.940  54.263  1.00  0.00     0.026 A 
ATOM     23  C   UNL     1       4.490  46.799  53.145  1.00  0.00    -0.028 A 
ATOM     24  C   UNL     1       6.744  45.655  54.349  1.00  0.00     0.002 A 
ATOM     25  C   UNL     1       5.702  47.510  53.232  1.00  0.00     0.005 A 
ATOM     26  C   UNL     1       6.822  46.939  53.832  1.00  0.00     0.000 A 
ATOM     27  C   UNL     1       3.310  47.479  52.504  1.00  0.00     0.046 C 
ENDBRANCH  19  21
ENDBRANCH  12  19
ENDBRANCH   7   9
ENDBRANCH   1   7
TORSDOF 8
ENDMDL
MODEL 18
REMARK VINA RESULT:    -7.564      2.238      5.363
REMARK INTER + INTRA:         -12.425
REMARK INTER:                 -11.446
REMARK INTRA:                  -0.979
REMARK UNBOUND:                -1.323
REMARK SMILES CCCCCCNc1nc(Nc2ccccc2C)c2cnn(C)c2n1
REMARK SMILES IDX 6 1 5 2 4 3 3 4 2 5 1 6 7 7 8 9 9 10 25 11 10 12 24 13 19 14
REMARK SMILES IDX 22 15 20 16 21 17 23 18 11 19 12 21 13 22 17 23 14 24 16 25
REMARK SMILES IDX 15 26 18 27
REMARK H PARENT 7 8 11 20
ROOT
ATOM      1  C   UNL     1       1.651  45.318  53.874  1.00  0.00     0.116 C 
ENDROOT
BRANCH   1   2
ATOM      2  C   UNL     1       0.224  44.853  53.579  1.00  0.00     0.021 C 
BRANCH   2   3
ATOM      3  C   UNL     1       0.062  43.353  53.825  1.00  0.00     0.002 C 
BRANCH   3   4
ATOM      4  C   UNL     1      -0.107  42.592  52.508  1.00  0.00    -0.000 C 
BRANCH   4   5
ATOM      5  C   UNL     1      -0.309  43.511  51.300  1.00  0.00    -0.003 C 
ATOM      6  C   UNL     1      -1.545  43.173  50.481  1.00  0.00     0.004 C 
ENDBRANCH   4   5
ENDBRANCH   3   4
ENDBRANCH   2   3
ENDBRANCH   1   2
BRANCH   1   7
ATOM      7  N   UNL     1       2.549  44.176  53.904  1.00  0.00    -0.354 N 
ATOM      8  H   UNL     1       2.105  43.267  53.847  1.00  0.00     0.163 HD
BRANCH   7   9
ATOM      9  C   UNL     1       3.566  44.172  52.957  1.00  0.00     0.226 A 
ATOM     10  N   UNL     1       4.433  45.200  52.896  1.00  0.00    -0.195 NA
ATOM     11  N   UNL     1       3.571  43.102  52.152  1.00  0.00    -0.193 NA
ATOM     12  C   UNL     1       5.426  45.229  51.965  1.00  0.00     0.147 A 
ATOM     13  C   UNL     1       4.560  43.136  51.249  1.00  0.00     0.165 A 
ATOM     14  C   UNL     1       5.499  44.136  51.092  1.00  0.00     0.082 A 
ATOM     15  N   UNL     1       4.844  42.198  50.294  1.00  0.00    -0.250 N 
ATOM     16  C   UNL     1       6.293  43.702  50.011  1.00  0.00     0.149 A 
ATOM     17  N   UNL     1       5.900  42.524  49.513  1.00  0.00    -0.179 NA
ATOM     18  C   UNL     1       4.146  40.959  50.062  1.00  0.00     0.176 C 
BRANCH  12  19
ATOM     19  N   UNL     1       6.304  46.317  51.845  1.00  0.00    -0.339 N 
ATOM     20  H   UNL     1       5.930  47.082  51.304  1.00  0.00     0.168 HD
BRANCH  19  21
ATOM     21  C   UNL     1       7.627  46.518  52.287  1.00  0.00     0.043 A 
ATOM     22  C   UNL     1       8.732  46.273  51.460  1.00  0.00     0.026 A 
ATOM     23  C   UNL     1       7.874  46.919  53.621  1.00  0.00    -0.028 A 
ATOM     24  C   UNL     1      10.043  46.439  51.917  1.00  0.00     0.002 A 
ATOM     25  C   UNL     1       9.198  47.087  54.071  1.00  0.00     0.005 A 
ATOM     26  C   UNL     1      10.275  46.848  53.222  1.00  0.00     0.000 A 
ATOM     27  C   UNL     1       6.753  47.173  54.594  1.00  0.00     0.046 C 
ENDBRANCH  19  21
ENDBRANCH  12  19
ENDBRANCH   7   9
ENDBRANCH   1   7
TORSDOF 8
ENDMDL
