MODEL 1
REMARK VINA RESULT:    -9.440      0.000      0.000
REMARK INTER + INTRA:         -13.872
REMARK INTER:                 -13.027
REMARK INTRA:                  -0.845
REMARK UNBOUND:                -0.845
REMARK SMILES Cc1ccc(Nc2nc(NCc3ccccc3)nc(N3CC(O)C3)n2)cc1
REMARK SMILES IDX 7 1 8 2 9 3 18 4 19 5 25 6 6 7 5 9 2 10 3 11 27 12 4 13
REMARK SMILES IDX 26 14 1 15 10 16 11 18 12 19 13 20 17 21 14 22 16 23 15 24
REMARK SMILES IDX 20 25 21 26 24 27 22 28 23 29
REMARK H PARENT 6 8 10 17 23 30
ROOT
ATOM      1  C   UNL     1       6.486  45.234  50.954  1.00  0.00     0.233 A 
ATOM      2  N   UNL     1       6.924  44.331  50.090  1.00  0.00    -0.177 NA
ATOM      3  C   UNL     1       6.115  43.315  49.844  1.00  0.00     0.229 A 
ATOM      4  N   UNL     1       4.922  43.165  50.395  1.00  0.00    -0.177 NA
ATOM      5  C   UNL     1       4.554  44.108  51.253  1.00  0.00     0.232 A 
ATOM      6  N   UNL     1       5.303  45.163  51.554  1.00  0.00    -0.176 NA
ENDROOT
BRANCH   1   7
ATOM      7  N   UNL     1       7.240  46.359  51.287  1.00  0.00    -0.324 N 
ATOM      8  H   UNL     1       7.102  47.070  50.584  1.00  0.00     0.170 HD
BRANCH   7   9
ATOM      9  C   UNL     1       8.038  46.706  52.383  1.00  0.00     0.041 A 
ATOM     10  C   UNL     1       9.767  47.313  54.552  1.00  0.00    -0.051 A 
ATOM     11  C   UNL     1      10.281  46.816  53.354  1.00  0.00     0.005 A 
ATOM     12  C   UNL     1       8.389  47.520  54.655  1.00  0.00     0.005 A 
ATOM     13  C   UNL     1       9.426  46.511  52.289  1.00  0.00     0.026 A 
ATOM     14  C   UNL     1       7.539  47.211  53.586  1.00  0.00     0.026 A 
ATOM     15  C   UNL     1      10.680  47.675  55.685  1.00  0.00     0.044 C 
ENDBRANCH   7   9
ENDBRANCH   1   7
BRANCH   3  16
ATOM     16  N   UNL     1       6.595  42.371  48.946  1.00  0.00    -0.350 N 
ATOM     17  H   UNL     1       6.765  42.853  48.070  1.00  0.00     0.164 HD
BRANCH  16  18
ATOM     18  C   UNL     1       5.774  41.183  48.834  1.00  0.00     0.152 C 
BRANCH  18  19
ATOM     19  C   UNL     1       5.086  41.184  47.487  1.00  0.00    -0.029 A 
ATOM     20  C   UNL     1       3.891  40.478  47.291  1.00  0.00     0.005 A 
ATOM     21  C   UNL     1       5.625  41.919  46.420  1.00  0.00     0.005 A 
ATOM     22  C   UNL     1       3.257  40.495  46.046  1.00  0.00     0.000 A 
ATOM     23  C   UNL     1       4.989  41.934  45.177  1.00  0.00     0.000 A 
ATOM     24  C   UNL     1       3.806  41.221  44.991  1.00  0.00     0.000 A 
ENDBRANCH  18  19
ENDBRANCH  16  18
ENDBRANCH   3  16
BRANCH   5  25
ATOM     25  N   UNL     1       3.294  44.000  51.855  1.00  0.00    -0.335 N 
ATOM     26  C   UNL     1       2.367  42.930  51.621  1.00  0.00     0.153 C 
ATOM     27  C   UNL     1       3.058  43.995  53.266  1.00  0.00     0.153 C 
ATOM     28  C   UNL     1       1.704  43.324  52.956  1.00  0.00     0.153 C 
BRANCH  28  29
ATOM     29  O   UNL     1       1.291  42.245  53.823  1.00  0.00    -0.389 OA
ATOM     30  H   UNL     1       0.848  42.681  54.571  1.00  0.00     0.211 HD
ENDBRANCH  28  29
ENDBRANCH   5  25
TORSDOF 7
ENDMDL
MODEL 2
REMARK VINA RESULT:    -9.411      0.934      1.423
REMARK INTER + INTRA:         -13.832
REMARK INTER:                 -13.005
REMARK INTRA:                  -0.828
REMARK UNBOUND:                -0.845
REMARK SMILES Cc1ccc(Nc2nc(NCc3ccccc3)nc(N3CC(O)C3)n2)cc1
REMARK SMILES IDX 7 1 8 2 9 3 18 4 19 5 25 6 6 7 5 9 2 10 3 11 27 12 4 13
REMARK SMILES IDX 26 14 1 15 10 16 11 18 12 19 13 20 17 21 14 22 16 23 15 24
REMARK SMILES IDX 20 25 21 26 24 27 22 28 23 29
REMARK H PARENT 6 8 10 17 23 30
ROOT
ATOM      1  C   UNL     1       6.593  45.214  50.934  1.00  0.00     0.233 A 
ATOM      2  N   UNL     1       6.973  44.246  50.112  1.00  0.00    -0.177 NA
ATOM      3  C   UNL     1       6.092  43.285  49.893  1.00  0.00     0.229 A 
ATOM      4  N   UNL     1       4.884  43.248  50.430  1.00  0.00    -0.177 NA
ATOM      5  C   UNL     1       4.577  44.250  51.244  1.00  0.00     0.232 A 
ATOM      6  N   UNL     1       5.401  45.256  51.517  1.00  0.00    -0.176 NA
ENDROOT
BRANCH   1   7
ATOM      7  N   UNL     1       7.426  46.291  51.234  1.00  0.00    -0.324 N 
ATOM      8  H   UNL     1       7.331  46.993  50.517  1.00  0.00     0.170 HD
BRANCH   7   9
ATOM      9  C   UNL     1       8.257  46.606  52.316  1.00  0.00     0.041 A 
ATOM     10  C   UNL     1       9.833  47.348  54.559  1.00  0.00    -0.051 A 
ATOM     11  C   UNL     1       8.449  47.529  54.573  1.00  0.00     0.005 A 
ATOM     12  C   UNL     1      10.422  46.781  53.425  1.00  0.00     0.005 A 
ATOM     13  C   UNL     1       7.676  47.169  53.464  1.00  0.00     0.026 A 
ATOM     14  C   UNL     1       9.642  46.424  52.318  1.00  0.00     0.026 A 
ATOM     15  C   UNL     1      10.664  47.699  55.755  1.00  0.00     0.044 C 
ENDBRANCH   7   9
ENDBRANCH   1   7
BRANCH   3  16
ATOM     16  N   UNL     1       6.510  42.273  49.040  1.00  0.00    -0.350 N 
ATOM     17  H   UNL     1       6.757  42.709  48.158  1.00  0.00     0.164 HD
BRANCH  16  18
ATOM     18  C   UNL     1       5.583  41.165  48.929  1.00  0.00     0.152 C 
BRANCH  18  19
ATOM     19  C   UNL     1       4.993  41.154  47.538  1.00  0.00    -0.029 A 
ATOM     20  C   UNL     1       3.818  40.439  47.261  1.00  0.00     0.005 A 
ATOM     21  C   UNL     1       5.600  41.886  46.506  1.00  0.00     0.005 A 
ATOM     22  C   UNL     1       3.274  40.444  45.975  1.00  0.00     0.000 A 
ATOM     23  C   UNL     1       5.053  41.890  45.222  1.00  0.00     0.000 A 
ATOM     24  C   UNL     1       3.891  41.168  44.957  1.00  0.00     0.000 A 
ENDBRANCH  18  19
ENDBRANCH  16  18
ENDBRANCH   3  16
BRANCH   5  25
ATOM     25  N   UNL     1       3.304  44.261  51.830  1.00  0.00    -0.335 N 
ATOM     26  C   UNL     1       2.945  45.031  52.985  1.00  0.00     0.153 C 
ATOM     27  C   UNL     1       2.091  44.585  51.144  1.00  0.00     0.153 C 
ATOM     28  C   UNL     1       1.480  44.874  52.531  1.00  0.00     0.153 C 
BRANCH  28  29
ATOM     29  O   UNL     1       0.632  46.038  52.646  1.00  0.00    -0.389 OA
ATOM     30  H   UNL     1       0.539  46.371  51.738  1.00  0.00     0.211 HD
ENDBRANCH  28  29
ENDBRANCH   5  25
TORSDOF 7
ENDMDL
MODEL 3
REMARK VINA RESULT:    -9.362      2.715      7.701
REMARK INTER + INTRA:         -13.765
REMARK INTER:                 -13.001
REMARK INTRA:                  -0.764
REMARK UNBOUND:                -0.845
REMARK SMILES Cc1ccc(Nc2nc(NCc3ccccc3)nc(N3CC(O)C3)n2)cc1
REMARK SMILES IDX 7 1 8 2 9 3 18 4 19 5 25 6 6 7 5 9 2 10 3 11 27 12 4 13
REMARK SMILES IDX 26 14 1 15 10 16 11 18 12 19 13 20 17 21 14 22 16 23 15 24
REMARK SMILES IDX 20 25 21 26 24 27 22 28 23 29
REMARK H PARENT 6 8 10 17 23 30
ROOT
ATOM      1  C   UNL     1       3.208  43.957  52.999  1.00  0.00     0.233 A 
ATOM      2  N   UNL     1       3.633  45.212  52.991  1.00  0.00    -0.177 NA
ATOM      3  C   UNL     1       4.649  45.481  52.189  1.00  0.00     0.229 A 
ATOM      4  N   UNL     1       5.238  44.589  51.411  1.00  0.00    -0.177 NA
ATOM      5  C   UNL     1       4.760  43.353  51.476  1.00  0.00     0.232 A 
ATOM      6  N   UNL     1       3.741  42.997  52.251  1.00  0.00    -0.176 NA
ENDROOT
BRANCH   1   7
ATOM      7  N   UNL     1       2.137  43.549  53.791  1.00  0.00    -0.324 N 
ATOM      8  H   UNL     1       2.085  42.541  53.786  1.00  0.00     0.170 HD
BRANCH   7   9
ATOM      9  C   UNL     1       1.221  44.220  54.611  1.00  0.00     0.041 A 
ATOM     10  C   UNL     1      -0.532  45.567  56.392  1.00  0.00    -0.051 A 
ATOM     11  C   UNL     1       0.841  45.536  56.638  1.00  0.00     0.005 A 
ATOM     12  C   UNL     1      -1.022  44.936  55.246  1.00  0.00     0.005 A 
ATOM     13  C   UNL     1       1.702  44.866  55.762  1.00  0.00     0.026 A 
ATOM     14  C   UNL     1      -0.155  44.265  54.375  1.00  0.00     0.026 A 
ATOM     15  C   UNL     1      -1.457  46.312  57.306  1.00  0.00     0.044 C 
ENDBRANCH   7   9
ENDBRANCH   1   7
BRANCH   3  16
ATOM     16  N   UNL     1       5.089  46.798  52.202  1.00  0.00    -0.350 N 
ATOM     17  H   UNL     1       5.601  46.950  51.340  1.00  0.00     0.164 HD
BRANCH  16  18
ATOM     18  C   UNL     1       5.801  47.177  53.405  1.00  0.00     0.152 C 
BRANCH  18  19
ATOM     19  C   UNL     1       7.288  47.089  53.145  1.00  0.00    -0.029 A 
ATOM     20  C   UNL     1       7.793  47.140  51.838  1.00  0.00     0.005 A 
ATOM     21  C   UNL     1       8.187  46.982  54.218  1.00  0.00     0.005 A 
ATOM     22  C   UNL     1       9.169  47.069  51.609  1.00  0.00     0.000 A 
ATOM     23  C   UNL     1       9.561  46.911  53.985  1.00  0.00     0.000 A 
ATOM     24  C   UNL     1      10.052  46.953  52.681  1.00  0.00     0.000 A 
ENDBRANCH  18  19
ENDBRANCH  16  18
ENDBRANCH   3  16
BRANCH   5  25
ATOM     25  N   UNL     1       5.344  42.373  50.662  1.00  0.00    -0.335 N 
ATOM     26  C   UNL     1       4.612  41.429  49.870  1.00  0.00     0.153 C 
ATOM     27  C   UNL     1       6.286  42.632  49.618  1.00  0.00     0.153 C 
ATOM     28  C   UNL     1       5.897  41.257  49.037  1.00  0.00     0.153 C 
BRANCH  28  29
ATOM     29  O   UNL     1       5.739  41.169  47.604  1.00  0.00    -0.389 OA
ATOM     30  H   UNL     1       6.592  40.834  47.278  1.00  0.00     0.211 HD
ENDBRANCH  28  29
ENDBRANCH   5  25
TORSDOF 7
ENDMDL
MODEL 4
REMARK VINA RESULT:    -9.337      2.723      7.747
REMARK INTER + INTRA:         -13.731
REMARK INTER:                 -12.953
REMARK INTRA:                  -0.778
REMARK UNBOUND:                -0.845
REMARK SMILES Cc1ccc(Nc2nc(NCc3ccccc3)nc(N3CC(O)C3)n2)cc1
REMARK SMILES IDX 7 1 8 2 9 3 18 4 19 5 25 6 6 7 5 9 2 10 3 11 27 12 4 13
REMARK SMILES IDX 26 14 1 15 10 16 11 18 12 19 13 20 17 21 14 22 16 23 15 24
REMARK SMILES IDX 20 25 21 26 24 27 22 28 23 29
REMARK H PARENT 6 8 10 17 23 30
ROOT
ATOM      1  C   UNL     1       3.147  43.979  52.973  1.00  0.00     0.233 A 
ATOM      2  N   UNL     1       3.572  45.233  52.976  1.00  0.00    -0.177 NA
ATOM      3  C   UNL     1       4.606  45.503  52.197  1.00  0.00     0.229 A 
ATOM      4  N   UNL     1       5.213  44.612  51.432  1.00  0.00    -0.177 NA
ATOM      5  C   UNL     1       4.733  43.376  51.486  1.00  0.00     0.232 A 
ATOM      6  N   UNL     1       3.697  43.019  52.237  1.00  0.00    -0.176 NA
ENDROOT
BRANCH   1   7
ATOM      7  N   UNL     1       2.058  43.571  53.740  1.00  0.00    -0.324 N 
ATOM      8  H   UNL     1       1.934  42.574  53.637  1.00  0.00     0.170 HD
BRANCH   7   9
ATOM      9  C   UNL     1       1.202  44.219  54.639  1.00  0.00     0.041 A 
ATOM     10  C   UNL     1      -0.638  45.548  56.345  1.00  0.00    -0.051 A 
ATOM     11  C   UNL     1      -1.084  44.883  55.202  1.00  0.00     0.005 A 
ATOM     12  C   UNL     1       0.728  45.532  56.639  1.00  0.00     0.005 A 
ATOM     13  C   UNL     1      -0.174  44.235  54.359  1.00  0.00     0.026 A 
ATOM     14  C   UNL     1       1.633  44.883  55.790  1.00  0.00     0.026 A 
ATOM     15  C   UNL     1      -1.609  46.215  57.272  1.00  0.00     0.044 C 
ENDBRANCH   7   9
ENDBRANCH   1   7
BRANCH   3  16
ATOM     16  N   UNL     1       5.046  46.820  52.222  1.00  0.00    -0.350 N 
ATOM     17  H   UNL     1       5.584  46.970  51.376  1.00  0.00     0.164 HD
BRANCH  16  18
ATOM     18  C   UNL     1       5.722  47.201  53.445  1.00  0.00     0.152 C 
BRANCH  18  19
ATOM     19  C   UNL     1       7.216  47.143  53.222  1.00  0.00    -0.029 A 
ATOM     20  C   UNL     1       8.100  47.027  54.304  1.00  0.00     0.005 A 
ATOM     21  C   UNL     1       7.737  47.177  51.919  1.00  0.00     0.005 A 
ATOM     22  C   UNL     1       9.478  46.962  54.087  1.00  0.00     0.000 A 
ATOM     23  C   UNL     1       9.115  47.111  51.706  1.00  0.00     0.000 A 
ATOM     24  C   UNL     1       9.985  47.005  52.790  1.00  0.00     0.000 A 
ENDBRANCH  18  19
ENDBRANCH  16  18
ENDBRANCH   3  16
BRANCH   5  25
ATOM     25  N   UNL     1       5.335  42.397  50.684  1.00  0.00    -0.335 N 
ATOM     26  C   UNL     1       4.622  41.463  49.864  1.00  0.00     0.153 C 
ATOM     27  C   UNL     1       6.312  42.655  49.672  1.00  0.00     0.153 C 
ATOM     28  C   UNL     1       5.932  41.286  49.070  1.00  0.00     0.153 C 
BRANCH  28  29
ATOM     29  O   UNL     1       5.819  41.208  47.632  1.00  0.00    -0.389 OA
ATOM     30  H   UNL     1       6.583  40.679  47.349  1.00  0.00     0.211 HD
ENDBRANCH  28  29
ENDBRANCH   5  25
TORSDOF 7
ENDMDL
MODEL 5
REMARK VINA RESULT:    -9.303      1.261      1.666
REMARK INTER + INTRA:         -13.683
REMARK INTER:                 -12.843
REMARK INTRA:                  -0.840
REMARK UNBOUND:                -0.845
REMARK SMILES Cc1ccc(Nc2nc(NCc3ccccc3)nc(N3CC(O)C3)n2)cc1
REMARK SMILES IDX 7 1 8 2 9 3 18 4 19 5 25 6 6 7 5 9 2 10 3 11 27 12 4 13
REMARK SMILES IDX 26 14 1 15 10 16 11 18 12 19 13 20 17 21 14 22 16 23 15 24
REMARK SMILES IDX 20 25 21 26 24 27 22 28 23 29
REMARK H PARENT 6 8 10 17 23 30
ROOT
ATOM      1  C   UNL     1       5.640  44.854  51.299  1.00  0.00     0.233 A 
ATOM      2  N   UNL     1       5.860  43.641  50.814  1.00  0.00    -0.177 NA
ATOM      3  C   UNL     1       4.840  42.800  50.855  1.00  0.00     0.229 A 
ATOM      4  N   UNL     1       3.646  43.104  51.334  1.00  0.00    -0.177 NA
ATOM      5  C   UNL     1       3.503  44.336  51.805  1.00  0.00     0.232 A 
ATOM      6  N   UNL     1       4.473  45.244  51.799  1.00  0.00    -0.176 NA
ENDROOT
BRANCH   1   7
ATOM      7  N   UNL     1       6.630  45.835  51.300  1.00  0.00    -0.324 N 
ATOM      8  H   UNL     1       6.559  46.379  50.453  1.00  0.00     0.170 HD
BRANCH   7   9
ATOM      9  C   UNL     1       7.595  46.244  52.229  1.00  0.00     0.041 A 
ATOM     10  C   UNL     1       9.438  47.146  54.191  1.00  0.00    -0.051 A 
ATOM     11  C   UNL     1       8.080  47.041  54.490  1.00  0.00     0.005 A 
ATOM     12  C   UNL     1       9.873  46.785  52.913  1.00  0.00     0.005 A 
ATOM     13  C   UNL     1       7.172  46.602  53.519  1.00  0.00     0.026 A 
ATOM     14  C   UNL     1       8.959  46.348  51.945  1.00  0.00     0.026 A 
ATOM     15  C   UNL     1      10.421  47.582  55.235  1.00  0.00     0.044 C 
ENDBRANCH   7   9
ENDBRANCH   1   7
BRANCH   3  16
ATOM     16  N   UNL     1       5.091  41.530  50.354  1.00  0.00    -0.350 N 
ATOM     17  H   UNL     1       5.341  40.943  51.141  1.00  0.00     0.164 HD
BRANCH  16  18
ATOM     18  C   UNL     1       6.031  41.499  49.252  1.00  0.00     0.152 C 
BRANCH  18  19
ATOM     19  C   UNL     1       5.270  41.291  47.962  1.00  0.00    -0.029 A 
ATOM     20  C   UNL     1       4.077  40.554  47.942  1.00  0.00     0.005 A 
ATOM     21  C   UNL     1       5.737  41.859  46.767  1.00  0.00     0.005 A 
ATOM     22  C   UNL     1       3.375  40.377  46.748  1.00  0.00     0.000 A 
ATOM     23  C   UNL     1       5.033  41.681  45.575  1.00  0.00     0.000 A 
ATOM     24  C   UNL     1       3.853  40.938  45.565  1.00  0.00     0.000 A 
ENDBRANCH  18  19
ENDBRANCH  16  18
ENDBRANCH   3  16
BRANCH   5  25
ATOM     25  N   UNL     1       2.252  44.710  52.314  1.00  0.00    -0.335 N 
ATOM     26  C   UNL     1       1.557  44.017  53.359  1.00  0.00     0.153 C 
ATOM     27  C   UNL     1       1.940  45.996  52.856  1.00  0.00     0.153 C 
ATOM     28  C   UNL     1       0.755  45.317  53.573  1.00  0.00     0.153 C 
BRANCH  28  29
ATOM     29  O   UNL     1       0.501  45.709  54.940  1.00  0.00    -0.389 OA
ATOM     30  H   UNL     1       1.380  45.871  55.322  1.00  0.00     0.211 HD
ENDBRANCH  28  29
ENDBRANCH   5  25
TORSDOF 7
ENDMDL
MODEL 6
REMARK VINA RESULT:    -9.282      2.979      4.235
REMARK INTER + INTRA:         -13.654
REMARK INTER:                 -12.761
REMARK INTRA:                  -0.893
REMARK UNBOUND:                -0.845
REMARK SMILES Cc1ccc(Nc2nc(NCc3ccccc3)nc(N3CC(O)C3)n2)cc1
REMARK SMILES IDX 7 1 8 2 9 3 18 4 19 5 25 6 6 7 5 9 2 10 3 11 27 12 4 13
REMARK SMILES IDX 26 14 1 15 10 16 11 18 12 19 13 20 17 21 14 22 16 23 15 24
REMARK SMILES IDX 20 25 21 26 24 27 22 28 23 29
REMARK H PARENT 6 8 10 17 23 30
ROOT
ATOM      1  C   UNL     1       3.840  45.778  54.084  1.00  0.00     0.233 A 
ATOM      2  N   UNL     1       3.945  44.654  53.389  1.00  0.00    -0.177 NA
ATOM      3  C   UNL     1       2.923  43.819  53.467  1.00  0.00     0.229 A 
ATOM      4  N   UNL     1       1.830  44.047  54.174  1.00  0.00    -0.177 NA
ATOM      5  C   UNL     1       1.799  45.192  54.846  1.00  0.00     0.232 A 
ATOM      6  N   UNL     1       2.780  46.088  54.821  1.00  0.00    -0.176 NA
ENDROOT
BRANCH   1   7
ATOM      7  N   UNL     1       4.843  46.744  54.073  1.00  0.00    -0.324 N 
ATOM      8  H   UNL     1       4.505  47.579  54.529  1.00  0.00     0.170 HD
BRANCH   7   9
ATOM      9  C   UNL     1       6.179  46.757  53.654  1.00  0.00     0.041 A 
ATOM     10  C   UNL     1       8.842  46.721  52.668  1.00  0.00    -0.051 A 
ATOM     11  C   UNL     1       7.760  46.725  51.787  1.00  0.00     0.005 A 
ATOM     12  C   UNL     1       8.587  46.750  54.042  1.00  0.00     0.005 A 
ATOM     13  C   UNL     1       6.448  46.736  52.276  1.00  0.00     0.026 A 
ATOM     14  C   UNL     1       7.272  46.759  54.524  1.00  0.00     0.026 A 
ATOM     15  C   UNL     1      10.249  46.744  52.152  1.00  0.00     0.044 C 
ENDBRANCH   7   9
ENDBRANCH   1   7
BRANCH   3  16
ATOM     16  N   UNL     1       3.056  42.642  52.743  1.00  0.00    -0.350 N 
ATOM     17  H   UNL     1       3.886  42.172  53.087  1.00  0.00     0.164 HD
BRANCH  16  18
ATOM     18  C   UNL     1       3.010  42.817  51.306  1.00  0.00     0.152 C 
BRANCH  18  19
ATOM     19  C   UNL     1       4.410  42.687  50.749  1.00  0.00    -0.029 A 
ATOM     20  C   UNL     1       4.955  41.428  50.460  1.00  0.00     0.005 A 
ATOM     21  C   UNL     1       5.176  43.834  50.488  1.00  0.00     0.005 A 
ATOM     22  C   UNL     1       6.244  41.319  49.936  1.00  0.00     0.000 A 
ATOM     23  C   UNL     1       6.464  43.722  49.964  1.00  0.00     0.000 A 
ATOM     24  C   UNL     1       6.999  42.464  49.689  1.00  0.00     0.000 A 
ENDBRANCH  18  19
ENDBRANCH  16  18
ENDBRANCH   3  16
BRANCH   5  25
ATOM     25  N   UNL     1       0.656  45.484  55.602  1.00  0.00    -0.335 N 
ATOM     26  C   UNL     1      -0.634  44.897  55.390  1.00  0.00     0.153 C 
ATOM     27  C   UNL     1       0.562  45.360  57.024  1.00  0.00     0.153 C 
ATOM     28  C   UNL     1      -0.968  45.311  56.837  1.00  0.00     0.153 C 
BRANCH  28  29
ATOM     29  O   UNL     1      -1.698  44.356  57.638  1.00  0.00    -0.389 OA
ATOM     30  H   UNL     1      -1.282  43.498  57.447  1.00  0.00     0.211 HD
ENDBRANCH  28  29
ENDBRANCH   5  25
TORSDOF 7
ENDMDL
MODEL 7
REMARK VINA RESULT:    -9.098      2.506      7.235
REMARK INTER + INTRA:         -13.400
REMARK INTER:                 -12.594
REMARK INTRA:                  -0.806
REMARK UNBOUND:                -0.845
REMARK SMILES Cc1ccc(Nc2nc(NCc3ccccc3)nc(N3CC(O)C3)n2)cc1
REMARK SMILES IDX 7 1 8 2 9 3 18 4 19 5 25 6 6 7 5 9 2 10 3 11 27 12 4 13
REMARK SMILES IDX 26 14 1 15 10 16 11 18 12 19 13 20 17 21 14 22 16 23 15 24
REMARK SMILES IDX 20 25 21 26 24 27 22 28 23 29
REMARK H PARENT 6 8 10 17 23 30
ROOT
ATOM      1  C   UNL     1       3.684  44.121  53.505  1.00  0.00     0.233 A 
ATOM      2  N   UNL     1       4.739  44.898  53.701  1.00  0.00    -0.177 NA
ATOM      3  C   UNL     1       4.563  45.931  54.508  1.00  0.00     0.229 A 
ATOM      4  N   UNL     1       3.424  46.212  55.117  1.00  0.00    -0.177 NA
ATOM      5  C   UNL     1       2.412  45.390  54.868  1.00  0.00     0.232 A 
ATOM      6  N   UNL     1       2.503  44.329  54.074  1.00  0.00    -0.176 NA
ENDROOT
BRANCH   1   7
ATOM      7  N   UNL     1       3.745  42.994  52.687  1.00  0.00    -0.324 N 
ATOM      8  H   UNL     1       3.150  42.274  53.069  1.00  0.00     0.170 HD
BRANCH   7   9
ATOM      9  C   UNL     1       4.369  42.709  51.466  1.00  0.00     0.041 A 
ATOM     10  C   UNL     1       5.589  41.982  49.007  1.00  0.00    -0.051 A 
ATOM     11  C   UNL     1       4.558  41.209  49.542  1.00  0.00     0.005 A 
ATOM     12  C   UNL     1       5.996  43.126  49.698  1.00  0.00     0.005 A 
ATOM     13  C   UNL     1       3.963  41.566  50.758  1.00  0.00     0.026 A 
ATOM     14  C   UNL     1       5.397  43.476  50.915  1.00  0.00     0.026 A 
ATOM     15  C   UNL     1       6.208  41.626  47.689  1.00  0.00     0.044 C 
ENDBRANCH   7   9
ENDBRANCH   1   7
BRANCH   3  16
ATOM     16  N   UNL     1       5.675  46.742  54.693  1.00  0.00    -0.350 N 
ATOM     17  H   UNL     1       5.501  47.302  55.520  1.00  0.00     0.164 HD
BRANCH  16  18
ATOM     18  C   UNL     1       6.064  47.498  53.520  1.00  0.00     0.152 C 
BRANCH  18  19
ATOM     19  C   UNL     1       7.492  47.151  53.163  1.00  0.00    -0.029 A 
ATOM     20  C   UNL     1       7.795  46.516  51.950  1.00  0.00     0.005 A 
ATOM     21  C   UNL     1       8.540  47.488  54.034  1.00  0.00     0.005 A 
ATOM     22  C   UNL     1       9.118  46.211  51.624  1.00  0.00     0.000 A 
ATOM     23  C   UNL     1       9.861  47.182  53.704  1.00  0.00     0.000 A 
ATOM     24  C   UNL     1      10.150  46.542  52.500  1.00  0.00     0.000 A 
ENDBRANCH  18  19
ENDBRANCH  16  18
ENDBRANCH   3  16
BRANCH   5  25
ATOM     25  N   UNL     1       1.186  45.640  55.499  1.00  0.00    -0.335 N 
ATOM     26  C   UNL     1      -0.027  44.921  55.237  1.00  0.00     0.153 C 
ATOM     27  C   UNL     1       0.976  45.627  56.914  1.00  0.00     0.153 C 
ATOM     28  C   UNL     1      -0.522  45.423  56.608  1.00  0.00     0.153 C 
BRANCH  28  29
ATOM     29  O   UNL     1      -1.238  44.475  57.430  1.00  0.00    -0.389 OA
ATOM     30  H   UNL     1      -0.931  43.602  57.132  1.00  0.00     0.211 HD
ENDBRANCH  28  29
ENDBRANCH   5  25
TORSDOF 7
ENDMDL
MODEL 8
REMARK VINA RESULT:    -8.979      4.154      8.133
REMARK INTER + INTRA:         -13.237
REMARK INTER:                 -12.448
REMARK INTRA:                  -0.789
REMARK UNBOUND:                -0.845
REMARK SMILES Cc1ccc(Nc2nc(NCc3ccccc3)nc(N3CC(O)C3)n2)cc1
REMARK SMILES IDX 7 1 8 2 9 3 18 4 19 5 25 6 6 7 5 9 2 10 3 11 27 12 4 13
REMARK SMILES IDX 26 14 1 15 10 16 11 18 12 19 13 20 17 21 14 22 16 23 15 24
REMARK SMILES IDX 20 25 21 26 24 27 22 28 23 29
REMARK H PARENT 6 8 10 17 23 30
ROOT
ATOM      1  C   UNL     1       2.409  45.291  55.626  1.00  0.00     0.233 A 
ATOM      2  N   UNL     1       3.493  46.053  55.618  1.00  0.00    -0.177 NA
ATOM      3  C   UNL     1       4.196  46.059  54.499  1.00  0.00     0.229 A 
ATOM      4  N   UNL     1       3.875  45.370  53.417  1.00  0.00    -0.177 NA
ATOM      5  C   UNL     1       2.779  44.628  53.502  1.00  0.00     0.232 A 
ATOM      6  N   UNL     1       2.013  44.567  54.586  1.00  0.00    -0.176 NA
ENDROOT
BRANCH   1   7
ATOM      7  N   UNL     1       1.576  45.210  56.742  1.00  0.00    -0.324 N 
ATOM      8  H   UNL     1       1.673  44.297  57.162  1.00  0.00     0.170 HD
BRANCH   7   9
ATOM      9  C   UNL     1       0.743  46.120  57.404  1.00  0.00     0.041 A 
ATOM     10  C   UNL     1      -0.860  47.944  58.875  1.00  0.00    -0.051 A 
ATOM     11  C   UNL     1       0.449  47.670  59.273  1.00  0.00     0.005 A 
ATOM     12  C   UNL     1      -1.357  47.315  57.731  1.00  0.00     0.005 A 
ATOM     13  C   UNL     1       1.235  46.765  58.550  1.00  0.00     0.026 A 
ATOM     14  C   UNL     1      -0.566  46.409  57.013  1.00  0.00     0.026 A 
ATOM     15  C   UNL     1      -1.696  48.938  59.624  1.00  0.00     0.044 C 
ENDBRANCH   7   9
ENDBRANCH   1   7
BRANCH   3  16
ATOM     16  N   UNL     1       5.335  46.853  54.511  1.00  0.00    -0.350 N 
ATOM     17  H   UNL     1       5.158  47.617  55.154  1.00  0.00     0.164 HD
BRANCH  16  18
ATOM     18  C   UNL     1       5.794  47.258  53.199  1.00  0.00     0.152 C 
BRANCH  18  19
ATOM     19  C   UNL     1       7.297  47.109  53.136  1.00  0.00    -0.029 A 
ATOM     20  C   UNL     1       7.940  46.814  51.925  1.00  0.00     0.005 A 
ATOM     21  C   UNL     1       8.075  47.292  54.290  1.00  0.00     0.005 A 
ATOM     22  C   UNL     1       9.330  46.690  51.874  1.00  0.00     0.000 A 
ATOM     23  C   UNL     1       9.464  47.168  54.236  1.00  0.00     0.000 A 
ATOM     24  C   UNL     1      10.091  46.865  53.029  1.00  0.00     0.000 A 
ENDBRANCH  18  19
ENDBRANCH  16  18
ENDBRANCH   3  16
BRANCH   5  25
ATOM     25  N   UNL     1       2.391  43.888  52.377  1.00  0.00    -0.335 N 
ATOM     26  C   UNL     1       1.285  42.976  52.343  1.00  0.00     0.153 C 
ATOM     27  C   UNL     1       2.066  44.447  51.101  1.00  0.00     0.153 C 
ATOM     28  C   UNL     1       1.308  43.135  50.810  1.00  0.00     0.153 C 
BRANCH  28  29
ATOM     29  O   UNL     1       0.031  43.247  50.145  1.00  0.00    -0.389 OA
ATOM     30  H   UNL     1       0.247  43.341  49.202  1.00  0.00     0.211 HD
ENDBRANCH  28  29
ENDBRANCH   5  25
TORSDOF 7
ENDMDL
MODEL 9
REMARK VINA RESULT:    -8.952      3.778      8.023
REMARK INTER + INTRA:         -13.199
REMARK INTER:                 -12.367
REMARK INTRA:                  -0.832
REMARK UNBOUND:                -0.845
REMARK SMILES Cc1ccc(Nc2nc(NCc3ccccc3)nc(N3CC(O)C3)n2)cc1
REMARK SMILES IDX 7 1 8 2 9 3 18 4 19 5 25 6 6 7 5 9 2 10 3 11 27 12 4 13
REMARK SMILES IDX 26 14 1 15 10 16 11 18 12 19 13 20 17 21 14 22 16 23 15 24
REMARK SMILES IDX 20 25 21 26 24 27 22 28 23 29
REMARK H PARENT 6 8 10 17 23 30
ROOT
ATOM      1  C   UNL     1       2.676  45.091  55.180  1.00  0.00     0.233 A 
ATOM      2  N   UNL     1       3.627  46.010  55.259  1.00  0.00    -0.177 NA
ATOM      3  C   UNL     1       4.432  46.112  54.216  1.00  0.00     0.229 A 
ATOM      4  N   UNL     1       4.332  45.371  53.125  1.00  0.00    -0.177 NA
ATOM      5  C   UNL     1       3.358  44.470  53.121  1.00  0.00     0.232 A 
ATOM      6  N   UNL     1       2.503  44.303  54.125  1.00  0.00    -0.176 NA
ENDROOT
BRANCH   1   7
ATOM      7  N   UNL     1       1.757  44.895  56.209  1.00  0.00    -0.324 N 
ATOM      8  H   UNL     1       1.868  43.963  56.579  1.00  0.00     0.170 HD
BRANCH   7   9
ATOM      9  C   UNL     1       0.819  45.716  56.847  1.00  0.00     0.041 A 
ATOM     10  C   UNL     1      -0.994  47.373  58.271  1.00  0.00    -0.051 A 
ATOM     11  C   UNL     1       0.336  47.264  58.678  1.00  0.00     0.005 A 
ATOM     12  C   UNL     1      -1.409  46.663  57.142  1.00  0.00     0.005 A 
ATOM     13  C   UNL     1       1.226  46.441  57.978  1.00  0.00     0.026 A 
ATOM     14  C   UNL     1      -0.513  45.840  56.447  1.00  0.00     0.026 A 
ATOM     15  C   UNL     1      -1.944  48.279  58.994  1.00  0.00     0.044 C 
ENDBRANCH   7   9
ENDBRANCH   1   7
BRANCH   3  16
ATOM     16  N   UNL     1       5.430  47.072  54.321  1.00  0.00    -0.350 N 
ATOM     17  H   UNL     1       5.068  47.815  54.908  1.00  0.00     0.164 HD
BRANCH  16  18
ATOM     18  C   UNL     1       5.970  47.512  53.051  1.00  0.00     0.152 C 
BRANCH  18  19
ATOM     19  C   UNL     1       7.463  47.273  53.042  1.00  0.00    -0.029 A 
ATOM     20  C   UNL     1       8.191  47.228  54.240  1.00  0.00     0.005 A 
ATOM     21  C   UNL     1       8.138  47.065  51.829  1.00  0.00     0.005 A 
ATOM     22  C   UNL     1       9.567  46.996  54.223  1.00  0.00     0.000 A 
ATOM     23  C   UNL     1       9.515  46.833  51.815  1.00  0.00     0.000 A 
ATOM     24  C   UNL     1      10.229  46.800  53.012  1.00  0.00     0.000 A 
ENDBRANCH  18  19
ENDBRANCH  16  18
ENDBRANCH   3  16
BRANCH   5  25
ATOM     25  N   UNL     1       3.204  43.667  51.983  1.00  0.00    -0.335 N 
ATOM     26  C   UNL     1       4.281  43.032  51.281  1.00  0.00     0.153 C 
ATOM     27  C   UNL     1       2.371  42.507  51.906  1.00  0.00     0.153 C 
ATOM     28  C   UNL     1       3.225  42.073  50.697  1.00  0.00     0.153 C 
BRANCH  28  29
ATOM     29  O   UNL     1       3.586  40.677  50.614  1.00  0.00    -0.389 OA
ATOM     30  H   UNL     1       3.797  40.418  51.527  1.00  0.00     0.211 HD
ENDBRANCH  28  29
ENDBRANCH   5  25
TORSDOF 7
ENDMDL
MODEL 10
REMARK VINA RESULT:    -8.949      2.847      8.023
REMARK INTER + INTRA:         -13.194
REMARK INTER:                 -12.357
REMARK INTRA:                  -0.837
REMARK UNBOUND:                -0.845
REMARK SMILES Cc1ccc(Nc2nc(NCc3ccccc3)nc(N3CC(O)C3)n2)cc1
REMARK SMILES IDX 7 1 8 2 9 3 18 4 19 5 25 6 6 7 5 9 2 10 3 11 27 12 4 13
REMARK SMILES IDX 26 14 1 15 10 16 11 18 12 19 13 20 17 21 14 22 16 23 15 24
REMARK SMILES IDX 20 25 21 26 24 27 22 28 23 29
REMARK H PARENT 6 8 10 17 23 30
ROOT
ATOM      1  C   UNL     1       2.809  44.945  53.238  1.00  0.00     0.233 A 
ATOM      2  N   UNL     1       3.706  45.397  54.102  1.00  0.00    -0.177 NA
ATOM      3  C   UNL     1       4.962  45.053  53.876  1.00  0.00     0.229 A 
ATOM      4  N   UNL     1       5.358  44.310  52.856  1.00  0.00    -0.177 NA
ATOM      5  C   UNL     1       4.402  43.892  52.036  1.00  0.00     0.232 A 
ATOM      6  N   UNL     1       3.117  44.193  52.187  1.00  0.00    -0.176 NA
ENDROOT
BRANCH   1   7
ATOM      7  N   UNL     1       1.454  45.248  53.358  1.00  0.00    -0.324 N 
ATOM      8  H   UNL     1       1.162  45.783  52.554  1.00  0.00     0.170 HD
BRANCH   7   9
ATOM      9  C   UNL     1       0.458  44.907  54.281  1.00  0.00     0.041 A 
ATOM     10  C   UNL     1      -1.458  44.241  56.268  1.00  0.00    -0.051 A 
ATOM     11  C   UNL     1      -0.358  45.039  56.584  1.00  0.00     0.005 A 
ATOM     12  C   UNL     1      -1.603  43.791  54.953  1.00  0.00     0.005 A 
ATOM     13  C   UNL     1       0.589  45.360  55.604  1.00  0.00     0.026 A 
ATOM     14  C   UNL     1      -0.651  44.115  53.978  1.00  0.00     0.026 A 
ATOM     15  C   UNL     1      -2.494  43.920  57.303  1.00  0.00     0.044 C 
ENDBRANCH   7   9
ENDBRANCH   1   7
BRANCH   3  16
ATOM     16  N   UNL     1       5.887  45.525  54.798  1.00  0.00    -0.350 N 
ATOM     17  H   UNL     1       5.534  45.294  55.720  1.00  0.00     0.164 HD
BRANCH  16  18
ATOM     18  C   UNL     1       6.252  46.915  54.619  1.00  0.00     0.152 C 
BRANCH  18  19
ATOM     19  C   UNL     1       7.464  46.995  53.719  1.00  0.00    -0.029 A 
ATOM     20  C   UNL     1       8.733  46.623  54.189  1.00  0.00     0.005 A 
ATOM     21  C   UNL     1       7.330  47.417  52.388  1.00  0.00     0.005 A 
ATOM     22  C   UNL     1       9.845  46.689  53.347  1.00  0.00     0.000 A 
ATOM     23  C   UNL     1       8.444  47.481  51.549  1.00  0.00     0.000 A 
ATOM     24  C   UNL     1       9.701  47.119  52.029  1.00  0.00     0.000 A 
ENDBRANCH  18  19
ENDBRANCH  16  18
ENDBRANCH   3  16
BRANCH   5  25
ATOM     25  N   UNL     1       4.772  43.110  50.933  1.00  0.00    -0.335 N 
ATOM     26  C   UNL     1       6.030  43.203  50.253  1.00  0.00     0.153 C 
ATOM     27  C   UNL     1       4.779  41.680  50.909  1.00  0.00     0.153 C 
ATOM     28  C   UNL     1       5.750  41.786  49.715  1.00  0.00     0.153 C 
BRANCH  28  29
ATOM     29  O   UNL     1       6.863  40.866  49.688  1.00  0.00    -0.389 OA
ATOM     30  H   UNL     1       7.494  41.254  49.058  1.00  0.00     0.211 HD
ENDBRANCH  28  29
ENDBRANCH   5  25
TORSDOF 7
ENDMDL
MODEL 11
REMARK VINA RESULT:    -8.933      2.466      8.147
REMARK INTER + INTRA:         -13.173
REMARK INTER:                 -12.400
REMARK INTRA:                  -0.773
REMARK UNBOUND:                -0.845
REMARK SMILES Cc1ccc(Nc2nc(NCc3ccccc3)nc(N3CC(O)C3)n2)cc1
REMARK SMILES IDX 7 1 8 2 9 3 18 4 19 5 25 6 6 7 5 9 2 10 3 11 27 12 4 13
REMARK SMILES IDX 26 14 1 15 10 16 11 18 12 19 13 20 17 21 14 22 16 23 15 24
REMARK SMILES IDX 20 25 21 26 24 27 22 28 23 29
REMARK H PARENT 6 8 10 17 23 30
ROOT
ATOM      1  C   UNL     1       3.387  44.007  53.021  1.00  0.00     0.233 A 
ATOM      2  N   UNL     1       3.823  45.258  53.028  1.00  0.00    -0.177 NA
ATOM      3  C   UNL     1       4.829  45.532  52.216  1.00  0.00     0.229 A 
ATOM      4  N   UNL     1       5.398  44.648  51.413  1.00  0.00    -0.177 NA
ATOM      5  C   UNL     1       4.909  43.415  51.465  1.00  0.00     0.232 A 
ATOM      6  N   UNL     1       3.899  43.055  52.250  1.00  0.00    -0.176 NA
ENDROOT
BRANCH   1   7
ATOM      7  N   UNL     1       2.323  43.595  53.823  1.00  0.00    -0.324 N 
ATOM      8  H   UNL     1       2.684  43.250  54.700  1.00  0.00     0.170 HD
BRANCH   7   9
ATOM      9  C   UNL     1       0.930  43.641  53.692  1.00  0.00     0.041 A 
ATOM     10  C   UNL     1      -1.904  43.779  53.575  1.00  0.00    -0.051 A 
ATOM     11  C   UNL     1      -1.197  44.518  54.524  1.00  0.00     0.005 A 
ATOM     12  C   UNL     1      -1.188  42.984  52.676  1.00  0.00     0.005 A 
ATOM     13  C   UNL     1       0.200  44.442  54.584  1.00  0.00     0.026 A 
ATOM     14  C   UNL     1       0.209  42.912  52.743  1.00  0.00     0.026 A 
ATOM     15  C   UNL     1      -3.396  43.881  53.482  1.00  0.00     0.044 C 
ENDBRANCH   7   9
ENDBRANCH   1   7
BRANCH   3  16
ATOM     16  N   UNL     1       5.281  46.844  52.244  1.00  0.00    -0.350 N 
ATOM     17  H   UNL     1       5.796  47.001  51.385  1.00  0.00     0.164 HD
BRANCH  16  18
ATOM     18  C   UNL     1       5.996  47.202  53.453  1.00  0.00     0.152 C 
BRANCH  18  19
ATOM     19  C   UNL     1       7.482  47.085  53.199  1.00  0.00    -0.029 A 
ATOM     20  C   UNL     1       8.392  47.052  54.266  1.00  0.00     0.005 A 
ATOM     21  C   UNL     1       7.969  46.981  51.887  1.00  0.00     0.005 A 
ATOM     22  C   UNL     1       9.762  46.932  54.022  1.00  0.00     0.000 A 
ATOM     23  C   UNL     1       9.338  46.861  51.647  1.00  0.00     0.000 A 
ATOM     24  C   UNL     1      10.234  46.838  52.715  1.00  0.00     0.000 A 
ENDBRANCH  18  19
ENDBRANCH  16  18
ENDBRANCH   3  16
BRANCH   5  25
ATOM     25  N   UNL     1       5.471  42.444  50.625  1.00  0.00    -0.335 N 
ATOM     26  C   UNL     1       4.720  41.477  49.880  1.00  0.00     0.153 C 
ATOM     27  C   UNL     1       6.348  42.719  49.529  1.00  0.00     0.153 C 
ATOM     28  C   UNL     1       5.961  41.331  48.978  1.00  0.00     0.153 C 
BRANCH  28  29
ATOM     29  O   UNL     1       5.727  41.230  47.556  1.00  0.00    -0.389 OA
ATOM     30  H   UNL     1       6.598  41.027  47.173  1.00  0.00     0.211 HD
ENDBRANCH  28  29
ENDBRANCH   5  25
TORSDOF 7
ENDMDL
MODEL 12
REMARK VINA RESULT:    -8.857      1.310      7.597
REMARK INTER + INTRA:         -13.068
REMARK INTER:                 -12.246
REMARK INTRA:                  -0.822
REMARK UNBOUND:                -0.845
REMARK SMILES Cc1ccc(Nc2nc(NCc3ccccc3)nc(N3CC(O)C3)n2)cc1
REMARK SMILES IDX 7 1 8 2 9 3 18 4 19 5 25 6 6 7 5 9 2 10 3 11 27 12 4 13
REMARK SMILES IDX 26 14 1 15 10 16 11 18 12 19 13 20 17 21 14 22 16 23 15 24
REMARK SMILES IDX 20 25 21 26 24 27 22 28 23 29
REMARK H PARENT 6 8 10 17 23 30
ROOT
ATOM      1  C   UNL     1       4.632  42.548  50.899  1.00  0.00     0.233 A 
ATOM      2  N   UNL     1       5.289  43.681  51.105  1.00  0.00    -0.177 NA
ATOM      3  C   UNL     1       4.750  44.521  51.971  1.00  0.00     0.229 A 
ATOM      4  N   UNL     1       3.626  44.290  52.629  1.00  0.00    -0.177 NA
ATOM      5  C   UNL     1       3.024  43.137  52.367  1.00  0.00     0.232 A 
ATOM      6  N   UNL     1       3.498  42.235  51.514  1.00  0.00    -0.176 NA
ENDROOT
BRANCH   1   7
ATOM      7  N   UNL     1       5.105  41.575  50.019  1.00  0.00    -0.324 N 
ATOM      8  H   UNL     1       5.708  40.940  50.521  1.00  0.00     0.170 HD
BRANCH   7   9
ATOM      9  C   UNL     1       4.856  41.275  48.675  1.00  0.00     0.041 A 
ATOM     10  C   UNL     1       4.429  40.796  45.909  1.00  0.00    -0.051 A 
ATOM     11  C   UNL     1       5.489  41.597  46.334  1.00  0.00     0.005 A 
ATOM     12  C   UNL     1       3.594  40.223  46.872  1.00  0.00     0.005 A 
ATOM     13  C   UNL     1       5.693  41.837  47.698  1.00  0.00     0.026 A 
ATOM     14  C   UNL     1       3.803  40.469  48.235  1.00  0.00     0.026 A 
ATOM     15  C   UNL     1       4.224  40.505  44.453  1.00  0.00     0.044 C 
ENDBRANCH   7   9
ENDBRANCH   1   7
BRANCH   3  16
ATOM     16  N   UNL     1       5.444  45.707  52.167  1.00  0.00    -0.350 N 
ATOM     17  H   UNL     1       4.765  46.459  52.134  1.00  0.00     0.164 HD
BRANCH  16  18
ATOM     18  C   UNL     1       6.584  45.882  51.290  1.00  0.00     0.152 C 
BRANCH  18  19
ATOM     19  C   UNL     1       7.762  46.365  52.106  1.00  0.00    -0.029 A 
ATOM     20  C   UNL     1       7.567  47.032  53.324  1.00  0.00     0.005 A 
ATOM     21  C   UNL     1       9.073  46.127  51.664  1.00  0.00     0.005 A 
ATOM     22  C   UNL     1       8.662  47.464  54.076  1.00  0.00     0.000 A 
ATOM     23  C   UNL     1      10.164  46.560  52.418  1.00  0.00     0.000 A 
ATOM     24  C   UNL     1       9.959  47.230  53.623  1.00  0.00     0.000 A 
ENDBRANCH  18  19
ENDBRANCH  16  18
ENDBRANCH   3  16
BRANCH   5  25
ATOM     25  N   UNL     1       1.835  42.841  53.048  1.00  0.00    -0.335 N 
ATOM     26  C   UNL     1       1.226  43.688  54.031  1.00  0.00     0.153 C 
ATOM     27  C   UNL     1       0.585  42.545  52.420  1.00  0.00     0.153 C 
ATOM     28  C   UNL     1      -0.084  42.924  53.757  1.00  0.00     0.153 C 
BRANCH  28  29
ATOM     29  O   UNL     1      -1.295  43.709  53.688  1.00  0.00    -0.389 OA
ATOM     30  H   UNL     1      -1.913  43.170  53.164  1.00  0.00     0.211 HD
ENDBRANCH  28  29
ENDBRANCH   5  25
TORSDOF 7
ENDMDL
MODEL 13
REMARK VINA RESULT:    -8.854      1.155      7.937
REMARK INTER + INTRA:         -13.064
REMARK INTER:                 -12.174
REMARK INTRA:                  -0.890
REMARK UNBOUND:                -0.845
REMARK SMILES Cc1ccc(Nc2nc(NCc3ccccc3)nc(N3CC(O)C3)n2)cc1
REMARK SMILES IDX 7 1 8 2 9 3 18 4 19 5 25 6 6 7 5 9 2 10 3 11 27 12 4 13
REMARK SMILES IDX 26 14 1 15 10 16 11 18 12 19 13 20 17 21 14 22 16 23 15 24
REMARK SMILES IDX 20 25 21 26 24 27 22 28 23 29
REMARK H PARENT 6 8 10 17 23 30
ROOT
ATOM      1  C   UNL     1       5.947  42.682  49.745  1.00  0.00     0.233 A 
ATOM      2  N   UNL     1       6.851  43.632  49.556  1.00  0.00    -0.177 NA
ATOM      3  C   UNL     1       6.809  44.656  50.391  1.00  0.00     0.229 A 
ATOM      4  N   UNL     1       5.941  44.771  51.382  1.00  0.00    -0.177 NA
ATOM      5  C   UNL     1       5.064  43.782  51.506  1.00  0.00     0.232 A 
ATOM      6  N   UNL     1       5.038  42.716  50.713  1.00  0.00    -0.176 NA
ENDROOT
BRANCH   1   7
ATOM      7  N   UNL     1       5.895  41.546  48.940  1.00  0.00    -0.324 N 
ATOM      8  H   UNL     1       6.510  40.842  49.320  1.00  0.00     0.170 HD
BRANCH   7   9
ATOM      9  C   UNL     1       5.141  41.180  47.819  1.00  0.00     0.041 A 
ATOM     10  C   UNL     1       3.669  40.561  45.471  1.00  0.00    -0.051 A 
ATOM     11  C   UNL     1       4.831  41.330  45.397  1.00  0.00     0.005 A 
ATOM     12  C   UNL     1       3.255  40.091  46.720  1.00  0.00     0.005 A 
ATOM     13  C   UNL     1       5.551  41.639  46.557  1.00  0.00     0.026 A 
ATOM     14  C   UNL     1       3.979  40.406  47.877  1.00  0.00     0.026 A 
ATOM     15  C   UNL     1       2.912  40.196  44.230  1.00  0.00     0.044 C 
ENDBRANCH   7   9
ENDBRANCH   1   7
BRANCH   3  16
ATOM     16  N   UNL     1       7.755  45.647  50.171  1.00  0.00    -0.350 N 
ATOM     17  H   UNL     1       7.829  45.772  49.168  1.00  0.00     0.164 HD
BRANCH  16  18
ATOM     18  C   UNL     1       9.016  45.429  50.850  1.00  0.00     0.152 C 
BRANCH  18  19
ATOM     19  C   UNL     1       9.100  46.354  52.043  1.00  0.00    -0.029 A 
ATOM     20  C   UNL     1       8.320  47.518  52.106  1.00  0.00     0.005 A 
ATOM     21  C   UNL     1       9.945  46.044  53.120  1.00  0.00     0.005 A 
ATOM     22  C   UNL     1       8.395  48.360  53.217  1.00  0.00     0.000 A 
ATOM     23  C   UNL     1      10.018  46.887  54.229  1.00  0.00     0.000 A 
ATOM     24  C   UNL     1       9.244  48.046  54.277  1.00  0.00     0.000 A 
ENDBRANCH  18  19
ENDBRANCH  16  18
ENDBRANCH   3  16
BRANCH   5  25
ATOM     25  N   UNL     1       4.130  43.853  52.548  1.00  0.00    -0.335 N 
ATOM     26  C   UNL     1       4.135  44.846  53.582  1.00  0.00     0.153 C 
ATOM     27  C   UNL     1       2.713  43.935  52.373  1.00  0.00     0.153 C 
ATOM     28  C   UNL     1       2.650  44.501  53.807  1.00  0.00     0.153 C 
BRANCH  28  29
ATOM     29  O   UNL     1       1.750  45.606  54.038  1.00  0.00    -0.389 OA
ATOM     30  H   UNL     1       1.541  45.565  54.987  1.00  0.00     0.211 HD
ENDBRANCH  28  29
ENDBRANCH   5  25
TORSDOF 7
ENDMDL
MODEL 14
REMARK VINA RESULT:    -8.639      2.609      5.235
REMARK INTER + INTRA:         -12.767
REMARK INTER:                 -11.855
REMARK INTRA:                  -0.912
REMARK UNBOUND:                -0.845
REMARK SMILES Cc1ccc(Nc2nc(NCc3ccccc3)nc(N3CC(O)C3)n2)cc1
REMARK SMILES IDX 7 1 8 2 9 3 18 4 19 5 25 6 6 7 5 9 2 10 3 11 27 12 4 13
REMARK SMILES IDX 26 14 1 15 10 16 11 18 12 19 13 20 17 21 14 22 16 23 15 24
REMARK SMILES IDX 20 25 21 26 24 27 22 28 23 29
REMARK H PARENT 6 8 10 17 23 30
ROOT
ATOM      1  C   UNL     1       6.363  46.706  51.786  1.00  0.00     0.233 A 
ATOM      2  N   UNL     1       5.165  47.095  52.196  1.00  0.00    -0.177 NA
ATOM      3  C   UNL     1       4.152  46.308  51.874  1.00  0.00     0.229 A 
ATOM      4  N   UNL     1       4.273  45.182  51.193  1.00  0.00    -0.177 NA
ATOM      5  C   UNL     1       5.504  44.860  50.815  1.00  0.00     0.232 A 
ATOM      6  N   UNL     1       6.577  45.591  51.097  1.00  0.00    -0.176 NA
ENDROOT
BRANCH   1   7
ATOM      7  N   UNL     1       7.512  47.441  52.073  1.00  0.00    -0.324 N 
ATOM      8  H   UNL     1       7.622  48.167  51.381  1.00  0.00     0.170 HD
BRANCH   7   9
ATOM      9  C   UNL     1       8.444  47.424  53.118  1.00  0.00     0.041 A 
ATOM     10  C   UNL     1      10.284  47.531  55.278  1.00  0.00    -0.051 A 
ATOM     11  C   UNL     1       9.128  48.313  55.292  1.00  0.00     0.005 A 
ATOM     12  C   UNL     1      10.508  46.686  54.188  1.00  0.00     0.005 A 
ATOM     13  C   UNL     1       8.226  48.263  54.223  1.00  0.00     0.026 A 
ATOM     14  C   UNL     1       9.602  46.643  53.120  1.00  0.00     0.026 A 
ATOM     15  C   UNL     1      11.237  47.553  56.435  1.00  0.00     0.044 C 
ENDBRANCH   7   9
ENDBRANCH   1   7
BRANCH   3  16
ATOM     16  N   UNL     1       2.903  46.737  52.301  1.00  0.00    -0.350 N 
ATOM     17  H   UNL     1       2.917  47.751  52.294  1.00  0.00     0.164 HD
BRANCH  16  18
ATOM     18  C   UNL     1       2.462  46.146  53.547  1.00  0.00     0.152 C 
BRANCH  18  19
ATOM     19  C   UNL     1       1.484  45.032  53.246  1.00  0.00    -0.029 A 
ATOM     20  C   UNL     1       0.396  45.244  52.386  1.00  0.00     0.005 A 
ATOM     21  C   UNL     1       1.671  43.758  53.803  1.00  0.00     0.005 A 
ATOM     22  C   UNL     1      -0.494  44.207  52.104  1.00  0.00     0.000 A 
ATOM     23  C   UNL     1       0.779  42.723  53.519  1.00  0.00     0.000 A 
ATOM     24  C   UNL     1      -0.304  42.948  52.671  1.00  0.00     0.000 A 
ENDBRANCH  18  19
ENDBRANCH  16  18
ENDBRANCH   3  16
BRANCH   5  25
ATOM     25  N   UNL     1       5.686  43.669  50.099  1.00  0.00    -0.335 N 
ATOM     26  C   UNL     1       6.937  43.229  49.553  1.00  0.00     0.153 C 
ATOM     27  C   UNL     1       5.353  42.365  50.582  1.00  0.00     0.153 C 
ATOM     28  C   UNL     1       6.332  41.812  49.526  1.00  0.00     0.153 C 
BRANCH  28  29
ATOM     29  O   UNL     1       7.193  40.726  49.931  1.00  0.00    -0.389 OA
ATOM     30  H   UNL     1       6.742  39.920  49.625  1.00  0.00     0.211 HD
ENDBRANCH  28  29
ENDBRANCH   5  25
TORSDOF 7
ENDMDL
MODEL 15
REMARK VINA RESULT:    -8.532      2.339      6.133
REMARK INTER + INTRA:         -12.619
REMARK INTER:                 -11.811
REMARK INTRA:                  -0.808
REMARK UNBOUND:                -0.845
REMARK SMILES Cc1ccc(Nc2nc(NCc3ccccc3)nc(N3CC(O)C3)n2)cc1
REMARK SMILES IDX 7 1 8 2 9 3 18 4 19 5 25 6 6 7 5 9 2 10 3 11 27 12 4 13
REMARK SMILES IDX 26 14 1 15 10 16 11 18 12 19 13 20 17 21 14 22 16 23 15 24
REMARK SMILES IDX 20 25 21 26 24 27 22 28 23 29
REMARK H PARENT 6 8 10 17 23 30
ROOT
ATOM      1  C   UNL     1       5.817  45.930  51.796  1.00  0.00     0.233 A 
ATOM      2  N   UNL     1       4.604  46.184  52.265  1.00  0.00    -0.177 NA
ATOM      3  C   UNL     1       3.698  45.238  52.089  1.00  0.00     0.229 A 
ATOM      4  N   UNL     1       3.937  44.081  51.495  1.00  0.00    -0.177 NA
ATOM      5  C   UNL     1       5.174  43.900  51.050  1.00  0.00     0.232 A 
ATOM      6  N   UNL     1       6.145  44.796  51.187  1.00  0.00    -0.176 NA
ENDROOT
BRANCH   1   7
ATOM      7  N   UNL     1       6.862  46.841  51.931  1.00  0.00    -0.324 N 
ATOM      8  H   UNL     1       6.770  47.558  51.227  1.00  0.00     0.170 HD
BRANCH   7   9
ATOM      9  C   UNL     1       7.908  46.995  52.849  1.00  0.00     0.041 A 
ATOM     10  C   UNL     1       9.943  47.418  54.784  1.00  0.00    -0.051 A 
ATOM     11  C   UNL     1       8.619  47.757  55.063  1.00  0.00     0.005 A 
ATOM     12  C   UNL     1      10.243  46.854  53.540  1.00  0.00     0.005 A 
ATOM     13  C   UNL     1       7.619  47.553  54.105  1.00  0.00     0.026 A 
ATOM     14  C   UNL     1       9.237  46.655  52.586  1.00  0.00     0.026 A 
ATOM     15  C   UNL     1      11.015  47.600  55.816  1.00  0.00     0.044 C 
ENDBRANCH   7   9
ENDBRANCH   1   7
BRANCH   3  16
ATOM     16  N   UNL     1       2.430  45.525  52.575  1.00  0.00    -0.350 N 
ATOM     17  H   UNL     1       2.540  46.224  53.302  1.00  0.00     0.164 HD
BRANCH  16  18
ATOM     18  C   UNL     1       1.661  44.361  52.965  1.00  0.00     0.152 C 
BRANCH  18  19
ATOM     19  C   UNL     1       1.005  44.629  54.300  1.00  0.00    -0.029 A 
ATOM     20  C   UNL     1       1.733  45.189  55.360  1.00  0.00     0.005 A 
ATOM     21  C   UNL     1      -0.357  44.345  54.488  1.00  0.00     0.005 A 
ATOM     22  C   UNL     1       1.115  45.443  56.586  1.00  0.00     0.000 A 
ATOM     23  C   UNL     1      -0.972  44.601  55.715  1.00  0.00     0.000 A 
ATOM     24  C   UNL     1      -0.235  45.148  56.764  1.00  0.00     0.000 A 
ENDBRANCH  18  19
ENDBRANCH  16  18
ENDBRANCH   3  16
BRANCH   5  25
ATOM     25  N   UNL     1       5.481  42.685  50.422  1.00  0.00    -0.335 N 
ATOM     26  C   UNL     1       4.516  41.691  50.054  1.00  0.00     0.153 C 
ATOM     27  C   UNL     1       6.193  42.558  49.188  1.00  0.00     0.153 C 
ATOM     28  C   UNL     1       5.570  41.152  49.067  1.00  0.00     0.153 C 
BRANCH  28  29
ATOM     29  O   UNL     1       5.098  40.752  47.762  1.00  0.00    -0.389 OA
ATOM     30  H   UNL     1       5.762  40.120  47.438  1.00  0.00     0.211 HD
ENDBRANCH  28  29
ENDBRANCH   5  25
TORSDOF 7
ENDMDL
MODEL 16
REMARK VINA RESULT:    -8.532      1.996      7.253
REMARK INTER + INTRA:         -12.619
REMARK INTER:                 -11.763
REMARK INTRA:                  -0.855
REMARK UNBOUND:                -0.845
REMARK SMILES Cc1ccc(Nc2nc(NCc3ccccc3)nc(N3CC(O)C3)n2)cc1
REMARK SMILES IDX 7 1 8 2 9 3 18 4 19 5 25 6 6 7 5 9 2 10 3 11 27 12 4 13
REMARK SMILES IDX 26 14 1 15 10 16 11 18 12 19 13 20 17 21 14 22 16 23 15 24
REMARK SMILES IDX 20 25 21 26 24 27 22 28 23 29
REMARK H PARENT 6 8 10 17 23 30
ROOT
ATOM      1  C   UNL     1       3.888  43.610  52.759  1.00  0.00     0.233 A 
ATOM      2  N   UNL     1       4.768  44.553  53.063  1.00  0.00    -0.177 NA
ATOM      3  C   UNL     1       4.295  45.612  53.697  1.00  0.00     0.229 A 
ATOM      4  N   UNL     1       3.028  45.769  54.040  1.00  0.00    -0.177 NA
ATOM      5  C   UNL     1       2.206  44.784  53.698  1.00  0.00     0.232 A 
ATOM      6  N   UNL     1       2.598  43.684  53.064  1.00  0.00    -0.176 NA
ENDROOT
BRANCH   1   7
ATOM      7  N   UNL     1       4.264  42.439  52.103  1.00  0.00    -0.324 N 
ATOM      8  H   UNL     1       4.222  41.667  52.753  1.00  0.00     0.170 HD
BRANCH   7   9
ATOM      9  C   UNL     1       4.589  42.126  50.778  1.00  0.00     0.041 A 
ATOM     10  C   UNL     1       5.321  41.631  48.080  1.00  0.00    -0.051 A 
ATOM     11  C   UNL     1       6.040  42.543  48.853  1.00  0.00     0.005 A 
ATOM     12  C   UNL     1       4.246  40.958  48.665  1.00  0.00     0.005 A 
ATOM     13  C   UNL     1       5.673  42.790  50.181  1.00  0.00     0.026 A 
ATOM     14  C   UNL     1       3.883  41.211  49.994  1.00  0.00     0.026 A 
ATOM     15  C   UNL     1       5.729  41.335  46.668  1.00  0.00     0.044 C 
ENDBRANCH   7   9
ENDBRANCH   1   7
BRANCH   3  16
ATOM     16  N   UNL     1       5.227  46.596  53.997  1.00  0.00    -0.350 N 
ATOM     17  H   UNL     1       4.787  47.237  54.648  1.00  0.00     0.164 HD
BRANCH  16  18
ATOM     18  C   UNL     1       5.824  47.226  52.837  1.00  0.00     0.152 C 
BRANCH  18  19
ATOM     19  C   UNL     1       7.329  47.137  52.948  1.00  0.00    -0.029 A 
ATOM     20  C   UNL     1       7.961  47.184  54.199  1.00  0.00     0.005 A 
ATOM     21  C   UNL     1       8.115  46.978  51.796  1.00  0.00     0.005 A 
ATOM     22  C   UNL     1       9.351  47.089  54.293  1.00  0.00     0.000 A 
ATOM     23  C   UNL     1       9.504  46.883  51.893  1.00  0.00     0.000 A 
ATOM     24  C   UNL     1      10.122  46.940  53.141  1.00  0.00     0.000 A 
ENDBRANCH  18  19
ENDBRANCH  16  18
ENDBRANCH   3  16
BRANCH   5  25
ATOM     25  N   UNL     1       0.854  44.898  54.050  1.00  0.00    -0.335 N 
ATOM     26  C   UNL     1      -0.217  44.195  53.407  1.00  0.00     0.153 C 
ATOM     27  C   UNL     1       0.326  44.660  55.358  1.00  0.00     0.153 C 
ATOM     28  C   UNL     1      -1.046  44.463  54.679  1.00  0.00     0.153 C 
BRANCH  28  29
ATOM     29  O   UNL     1      -1.869  43.379  55.162  1.00  0.00    -0.389 OA
ATOM     30  H   UNL     1      -2.315  43.735  55.950  1.00  0.00     0.211 HD
ENDBRANCH  28  29
ENDBRANCH   5  25
TORSDOF 7
ENDMDL
MODEL 17
REMARK VINA RESULT:    -8.528      2.878      7.544
REMARK INTER + INTRA:         -12.614
REMARK INTER:                 -11.783
REMARK INTRA:                  -0.831
REMARK UNBOUND:                -0.845
REMARK SMILES Cc1ccc(Nc2nc(NCc3ccccc3)nc(N3CC(O)C3)n2)cc1
REMARK SMILES IDX 7 1 8 2 9 3 18 4 19 5 25 6 6 7 5 9 2 10 3 11 27 12 4 13
REMARK SMILES IDX 26 14 1 15 10 16 11 18 12 19 13 20 17 21 14 22 16 23 15 24
REMARK SMILES IDX 20 25 21 26 24 27 22 28 23 29
REMARK H PARENT 6 8 10 17 23 30
ROOT
ATOM      1  C   UNL     1       6.521  45.669  51.596  1.00  0.00     0.233 A 
ATOM      2  N   UNL     1       5.352  46.172  51.964  1.00  0.00    -0.177 NA
ATOM      3  C   UNL     1       5.381  47.076  52.928  1.00  0.00     0.229 A 
ATOM      4  N   UNL     1       6.486  47.497  53.519  1.00  0.00    -0.177 NA
ATOM      5  C   UNL     1       7.617  46.944  53.100  1.00  0.00     0.232 A 
ATOM      6  N   UNL     1       7.679  46.032  52.135  1.00  0.00    -0.176 NA
ENDROOT
BRANCH   1   7
ATOM      7  N   UNL     1       6.626  44.719  50.581  1.00  0.00    -0.324 N 
ATOM      8  H   UNL     1       7.454  44.905  50.036  1.00  0.00     0.170 HD
BRANCH   7   9
ATOM      9  C   UNL     1       5.895  43.574  50.240  1.00  0.00     0.041 A 
ATOM     10  C   UNL     1       4.352  41.254  49.692  1.00  0.00    -0.051 A 
ATOM     11  C   UNL     1       3.967  42.140  50.700  1.00  0.00     0.005 A 
ATOM     12  C   UNL     1       5.501  41.541  48.951  1.00  0.00     0.005 A 
ATOM     13  C   UNL     1       4.733  43.279  50.972  1.00  0.00     0.026 A 
ATOM     14  C   UNL     1       6.264  42.682  49.231  1.00  0.00     0.026 A 
ATOM     15  C   UNL     1       3.518  40.051  49.371  1.00  0.00     0.044 C 
ENDBRANCH   7   9
ENDBRANCH   1   7
BRANCH   3  16
ATOM     16  N   UNL     1       4.146  47.583  53.309  1.00  0.00    -0.350 N 
ATOM     17  H   UNL     1       3.981  47.281  54.263  1.00  0.00     0.164 HD
BRANCH  16  18
ATOM     18  C   UNL     1       3.069  47.290  52.386  1.00  0.00     0.152 C 
BRANCH  18  19
ATOM     19  C   UNL     1       2.335  46.057  52.861  1.00  0.00    -0.029 A 
ATOM     20  C   UNL     1       1.715  45.193  51.947  1.00  0.00     0.005 A 
ATOM     21  C   UNL     1       2.287  45.747  54.229  1.00  0.00     0.005 A 
ATOM     22  C   UNL     1       1.049  44.050  52.394  1.00  0.00     0.000 A 
ATOM     23  C   UNL     1       1.620  44.604  54.673  1.00  0.00     0.000 A 
ATOM     24  C   UNL     1       1.000  43.757  53.756  1.00  0.00     0.000 A 
ENDBRANCH  18  19
ENDBRANCH  16  18
ENDBRANCH   3  16
BRANCH   5  25
ATOM     25  N   UNL     1       8.817  47.365  53.688  1.00  0.00    -0.335 N 
ATOM     26  C   UNL     1       8.909  48.118  54.905  1.00  0.00     0.153 C 
ATOM     27  C   UNL     1       9.897  46.501  54.054  1.00  0.00     0.153 C 
ATOM     28  C   UNL     1      10.365  47.621  55.005  1.00  0.00     0.153 C 
BRANCH  28  29
ATOM     29  O   UNL     1      10.830  47.223  56.313  1.00  0.00    -0.389 OA
ATOM     30  H   UNL     1      11.771  47.009  56.190  1.00  0.00     0.211 HD
ENDBRANCH  28  29
ENDBRANCH   5  25
TORSDOF 7
ENDMDL
MODEL 18
REMARK VINA RESULT:    -8.502      3.553      7.076
REMARK INTER + INTRA:         -12.577
REMARK INTER:                 -11.346
REMARK INTRA:                  -1.232
REMARK UNBOUND:                -0.845
REMARK SMILES Cc1ccc(Nc2nc(NCc3ccccc3)nc(N3CC(O)C3)n2)cc1
REMARK SMILES IDX 7 1 8 2 9 3 18 4 19 5 25 6 6 7 5 9 2 10 3 11 27 12 4 13
REMARK SMILES IDX 26 14 1 15 10 16 11 18 12 19 13 20 17 21 14 22 16 23 15 24
REMARK SMILES IDX 20 25 21 26 24 27 22 28 23 29
REMARK H PARENT 6 8 10 17 23 30
ROOT
ATOM      1  C   UNL     1       2.300  42.741  52.121  1.00  0.00     0.233 A 
ATOM      2  N   UNL     1       2.514  43.191  53.348  1.00  0.00    -0.177 NA
ATOM      3  C   UNL     1       1.506  43.823  53.924  1.00  0.00     0.229 A 
ATOM      4  N   UNL     1       0.328  44.015  53.357  1.00  0.00    -0.177 NA
ATOM      5  C   UNL     1       0.189  43.538  52.126  1.00  0.00     0.232 A 
ATOM      6  N   UNL     1       1.148  42.888  51.476  1.00  0.00    -0.176 NA
ENDROOT
BRANCH   1   7
ATOM      7  N   UNL     1       3.278  42.046  51.412  1.00  0.00    -0.324 N 
ATOM      8  H   UNL     1       2.969  41.097  51.261  1.00  0.00     0.170 HD
BRANCH   7   9
ATOM      9  C   UNL     1       4.499  42.407  50.829  1.00  0.00     0.041 A 
ATOM     10  C   UNL     1       6.927  43.288  49.649  1.00  0.00    -0.051 A 
ATOM     11  C   UNL     1       6.142  44.167  50.396  1.00  0.00     0.005 A 
ATOM     12  C   UNL     1       6.501  41.965  49.507  1.00  0.00     0.005 A 
ATOM     13  C   UNL     1       4.943  43.732  50.971  1.00  0.00     0.026 A 
ATOM     14  C   UNL     1       5.298  41.537  50.084  1.00  0.00     0.026 A 
ATOM     15  C   UNL     1       8.230  43.737  49.059  1.00  0.00     0.044 C 
ENDBRANCH   7   9
ENDBRANCH   1   7
BRANCH   3  16
ATOM     16  N   UNL     1       1.752  44.299  55.205  1.00  0.00    -0.350 N 
ATOM     17  H   UNL     1       0.970  44.016  55.784  1.00  0.00     0.164 HD
BRANCH  16  18
ATOM     18  C   UNL     1       2.071  45.711  55.266  1.00  0.00     0.152 C 
BRANCH  18  19
ATOM     19  C   UNL     1       3.461  45.926  54.713  1.00  0.00    -0.029 A 
ATOM     20  C   UNL     1       4.576  45.329  55.319  1.00  0.00     0.005 A 
ATOM     21  C   UNL     1       3.651  46.709  53.563  1.00  0.00     0.005 A 
ATOM     22  C   UNL     1       5.855  45.524  54.793  1.00  0.00     0.000 A 
ATOM     23  C   UNL     1       4.931  46.902  53.040  1.00  0.00     0.000 A 
ATOM     24  C   UNL     1       6.032  46.311  53.657  1.00  0.00     0.000 A 
ENDBRANCH  18  19
ENDBRANCH  16  18
ENDBRANCH   3  16
BRANCH   5  25
ATOM     25  N   UNL     1      -1.046  43.706  51.486  1.00  0.00    -0.335 N 
ATOM     26  C   UNL     1      -1.669  44.973  51.236  1.00  0.00     0.153 C 
ATOM     27  C   UNL     1      -1.368  43.206  50.185  1.00  0.00     0.153 C 
ATOM     28  C   UNL     1      -2.496  44.258  50.150  1.00  0.00     0.153 C 
BRANCH  28  29
ATOM     29  O   UNL     1      -2.696  44.967  48.908  1.00  0.00    -0.389 OA
ATOM     30  H   UNL     1      -1.803  45.087  48.542  1.00  0.00     0.211 HD
ENDBRANCH  28  29
ENDBRANCH   5  25
TORSDOF 7
ENDMDL
