MODEL 1
REMARK VINA RESULT:    -8.776      0.000      0.000
REMARK INTER + INTRA:         -13.335
REMARK INTER:                 -12.367
REMARK INTRA:                  -0.968
REMARK UNBOUND:                -0.968
REMARK SMILES CCOc1ccc(Nc2nc(NC[C@@H]3CCCO3)nc3c2cnn3C)cc1
REMARK SMILES IDX 8 1 7 3 4 4 5 5 27 6 6 7 26 8 3 9 2 10 1 11 9 12 10 13 21 14
REMARK SMILES IDX 11 15 20 16 22 17 19 18 24 19 23 20 25 21 12 22 13 24 14 25
REMARK SMILES IDX 15 26 18 27 16 28 17 29
REMARK H PARENT 8 2 12 23
ROOT
ATOM      1  N   UNL     1       6.103  41.784  49.106  1.00  0.00    -0.339 N 
ATOM      2  H   UNL     1       6.920  41.214  49.276  1.00  0.00     0.168 HD
ENDROOT
BRANCH   1   3
ATOM      3  C   UNL     1       5.385  41.426  47.952  1.00  0.00     0.040 A 
ATOM      4  C   UNL     1       3.801  40.692  45.716  1.00  0.00     0.119 A 
ATOM      5  C   UNL     1       3.474  40.233  46.989  1.00  0.00     0.048 A 
ATOM      6  C   UNL     1       4.913  41.520  45.565  1.00  0.00     0.048 A 
ATOM      7  C   UNL     1       4.258  40.601  48.092  1.00  0.00     0.030 A 
ATOM      8  C   UNL     1       5.691  41.885  46.669  1.00  0.00     0.030 A 
BRANCH   4   9
ATOM      9  O   UNL     1       3.129  40.415  44.560  1.00  0.00    -0.494 OA
BRANCH   9  10
ATOM     10  C   UNL     1       1.708  40.530  44.590  1.00  0.00     0.226 C 
ATOM     11  C   UNL     1       1.359  42.006  44.656  1.00  0.00     0.049 C 
ENDBRANCH   9  10
ENDBRANCH   4   9
ENDBRANCH   1   3
BRANCH   1  12
ATOM     12  C   UNL     1       5.944  42.835  50.022  1.00  0.00     0.147 A 
ATOM     13  N   UNL     1       6.755  43.924  50.010  1.00  0.00    -0.195 NA
ATOM     14  C   UNL     1       4.914  42.829  50.971  1.00  0.00     0.082 A 
ATOM     15  C   UNL     1       6.577  44.936  50.882  1.00  0.00     0.226 A 
ATOM     16  C   UNL     1       4.821  43.922  51.810  1.00  0.00     0.165 A 
ATOM     17  C   UNL     1       3.855  41.989  51.374  1.00  0.00     0.149 A 
ATOM     18  N   UNL     1       5.615  45.002  51.809  1.00  0.00    -0.193 NA
ATOM     19  N   UNL     1       3.757  43.677  52.635  1.00  0.00    -0.250 N 
ATOM     20  N   UNL     1       3.139  42.499  52.384  1.00  0.00    -0.179 NA
ATOM     21  C   UNL     1       3.267  44.524  53.693  1.00  0.00     0.176 C 
BRANCH  15  22
ATOM     22  N   UNL     1       7.430  46.025  50.839  1.00  0.00    -0.351 N 
ATOM     23  H   UNL     1       8.381  45.690  50.751  1.00  0.00     0.163 HD
BRANCH  22  24
ATOM     24  C   UNL     1       7.184  47.064  51.829  1.00  0.00     0.148 C 
BRANCH  24  25
ATOM     25  C   UNL     1       8.481  47.835  52.154  1.00  0.00     0.137 C 
ATOM     26  C   UNL     1       9.706  46.931  52.149  1.00  0.00     0.036 C 
ATOM     27  O   UNL     1       8.414  48.399  53.479  1.00  0.00    -0.376 OA
ATOM     28  C   UNL     1       9.777  46.464  53.582  1.00  0.00     0.031 C 
ATOM     29  C   UNL     1       9.319  47.692  54.337  1.00  0.00     0.160 C 
ENDBRANCH  24  25
ENDBRANCH  22  24
ENDBRANCH  15  22
ENDBRANCH   1  12
TORSDOF 7
ENDMDL
MODEL 2
REMARK VINA RESULT:    -8.728      0.759      1.027
REMARK INTER + INTRA:         -13.268
REMARK INTER:                 -12.305
REMARK INTRA:                  -0.963
REMARK UNBOUND:                -0.968
REMARK SMILES CCOc1ccc(Nc2nc(NC[C@@H]3CCCO3)nc3c2cnn3C)cc1
REMARK SMILES IDX 8 1 7 3 4 4 5 5 27 6 6 7 26 8 3 9 2 10 1 11 9 12 10 13 21 14
REMARK SMILES IDX 11 15 20 16 22 17 19 18 24 19 23 20 25 21 12 22 13 24 14 25
REMARK SMILES IDX 15 26 18 27 16 28 17 29
REMARK H PARENT 8 2 12 23
ROOT
ATOM      1  N   UNL     1       6.071  41.819  49.189  1.00  0.00    -0.339 N 
ATOM      2  H   UNL     1       6.873  41.242  49.395  1.00  0.00     0.168 HD
ENDROOT
BRANCH   1   3
ATOM      3  C   UNL     1       5.391  41.457  48.013  1.00  0.00     0.040 A 
ATOM      4  C   UNL     1       3.880  40.716  45.729  1.00  0.00     0.119 A 
ATOM      5  C   UNL     1       3.499  40.278  46.994  1.00  0.00     0.048 A 
ATOM      6  C   UNL     1       5.009  41.525  45.609  1.00  0.00     0.048 A 
ATOM      7  C   UNL     1       4.247  40.650  48.121  1.00  0.00     0.030 A 
ATOM      8  C   UNL     1       5.751  41.895  46.737  1.00  0.00     0.030 A 
BRANCH   4   9
ATOM      9  O   UNL     1       3.248  40.433  44.551  1.00  0.00    -0.494 OA
BRANCH   9  10
ATOM     10  C   UNL     1       3.978  39.678  43.587  1.00  0.00     0.226 C 
ATOM     11  C   UNL     1       3.895  38.214  43.978  1.00  0.00     0.049 C 
ENDBRANCH   9  10
ENDBRANCH   4   9
ENDBRANCH   1   3
BRANCH   1  12
ATOM     12  C   UNL     1       5.892  42.883  50.086  1.00  0.00     0.147 A 
ATOM     13  N   UNL     1       6.711  43.967  50.085  1.00  0.00    -0.195 NA
ATOM     14  C   UNL     1       4.833  42.897  51.002  1.00  0.00     0.082 A 
ATOM     15  C   UNL     1       6.514  44.991  50.937  1.00  0.00     0.226 A 
ATOM     16  C   UNL     1       4.723  44.002  51.824  1.00  0.00     0.165 A 
ATOM     17  C   UNL     1       3.755  42.070  51.384  1.00  0.00     0.149 A 
ATOM     18  N   UNL     1       5.525  45.076  51.834  1.00  0.00    -0.193 NA
ATOM     19  N   UNL     1       3.632  43.775  52.620  1.00  0.00    -0.250 N 
ATOM     20  N   UNL     1       3.013  42.598  52.364  1.00  0.00    -0.179 NA
ATOM     21  C   UNL     1       3.117  44.639  53.651  1.00  0.00     0.176 C 
BRANCH  15  22
ATOM     22  N   UNL     1       7.376  46.073  50.907  1.00  0.00    -0.351 N 
ATOM     23  H   UNL     1       8.317  45.735  50.749  1.00  0.00     0.163 HD
BRANCH  22  24
ATOM     24  C   UNL     1       7.196  47.059  51.964  1.00  0.00     0.148 C 
BRANCH  24  25
ATOM     25  C   UNL     1       8.513  47.816  52.242  1.00  0.00     0.137 C 
ATOM     26  C   UNL     1       9.725  46.896  52.206  1.00  0.00     0.036 C 
ATOM     27  O   UNL     1       8.493  48.389  53.565  1.00  0.00    -0.376 OA
ATOM     28  C   UNL     1       9.834  46.438  53.639  1.00  0.00     0.031 C 
ATOM     29  C   UNL     1       9.415  47.676  54.399  1.00  0.00     0.160 C 
ENDBRANCH  24  25
ENDBRANCH  22  24
ENDBRANCH  15  22
ENDBRANCH   1  12
TORSDOF 7
ENDMDL
MODEL 3
REMARK VINA RESULT:    -8.612      3.776      7.100
REMARK INTER + INTRA:         -13.105
REMARK INTER:                 -12.258
REMARK INTRA:                  -0.847
REMARK UNBOUND:                -0.968
REMARK SMILES CCOc1ccc(Nc2nc(NC[C@@H]3CCCO3)nc3c2cnn3C)cc1
REMARK SMILES IDX 8 1 7 3 4 4 5 5 27 6 6 7 26 8 3 9 2 10 1 11 9 12 10 13 21 14
REMARK SMILES IDX 11 15 20 16 22 17 19 18 24 19 23 20 25 21 12 22 13 24 14 25
REMARK SMILES IDX 15 26 18 27 16 28 17 29
REMARK H PARENT 8 2 12 23
ROOT
ATOM      1  N   UNL     1       2.382  44.860  52.277  1.00  0.00    -0.339 N 
ATOM      2  H   UNL     1       1.686  45.043  51.567  1.00  0.00     0.168 HD
ENDROOT
BRANCH   1   3
ATOM      3  C   UNL     1       1.900  44.973  53.593  1.00  0.00     0.040 A 
ATOM      4  C   UNL     1       1.042  45.320  56.274  1.00  0.00     0.119 A 
ATOM      5  C   UNL     1       2.365  45.573  55.923  1.00  0.00     0.048 A 
ATOM      6  C   UNL     1       0.153  44.901  55.286  1.00  0.00     0.048 A 
ATOM      7  C   UNL     1       2.784  45.404  54.595  1.00  0.00     0.030 A 
ATOM      8  C   UNL     1       0.575  44.735  53.962  1.00  0.00     0.030 A 
BRANCH   4   9
ATOM      9  O   UNL     1       0.500  45.443  57.522  1.00  0.00    -0.494 OA
BRANCH   9  10
ATOM     10  C   UNL     1       0.098  46.750  57.929  1.00  0.00     0.226 C 
ATOM     11  C   UNL     1       1.015  47.192  59.055  1.00  0.00     0.049 C 
ENDBRANCH   9  10
ENDBRANCH   4   9
ENDBRANCH   1   3
BRANCH   1  12
ATOM     12  C   UNL     1       3.666  44.622  51.764  1.00  0.00     0.147 A 
ATOM     13  N   UNL     1       4.619  45.590  51.741  1.00  0.00    -0.195 NA
ATOM     14  C   UNL     1       4.041  43.360  51.286  1.00  0.00     0.082 A 
ATOM     15  C   UNL     1       5.854  45.341  51.266  1.00  0.00     0.226 A 
ATOM     16  C   UNL     1       5.336  43.217  50.828  1.00  0.00     0.165 A 
ATOM     17  C   UNL     1       3.464  42.085  51.108  1.00  0.00     0.149 A 
ATOM     18  N   UNL     1       6.284  44.163  50.799  1.00  0.00    -0.193 NA
ATOM     19  N   UNL     1       5.450  41.916  50.416  1.00  0.00    -0.250 N 
ATOM     20  N   UNL     1       4.316  41.195  50.584  1.00  0.00    -0.179 NA
ATOM     21  C   UNL     1       6.614  41.286  49.847  1.00  0.00     0.176 C 
BRANCH  15  22
ATOM     22  N   UNL     1       6.793  46.358  51.255  1.00  0.00    -0.351 N 
ATOM     23  H   UNL     1       7.670  45.986  50.913  1.00  0.00     0.163 HD
BRANCH  22  24
ATOM     24  C   UNL     1       6.848  47.185  52.453  1.00  0.00     0.148 C 
BRANCH  24  25
ATOM     25  C   UNL     1       8.161  47.994  52.505  1.00  0.00     0.137 C 
ATOM     26  C   UNL     1       9.340  47.216  51.937  1.00  0.00     0.036 C 
ATOM     27  O   UNL     1       8.512  48.296  53.871  1.00  0.00    -0.376 OA
ATOM     28  C   UNL     1       9.881  46.502  53.150  1.00  0.00     0.031 C 
ATOM     29  C   UNL     1       9.662  47.525  54.242  1.00  0.00     0.160 C 
ENDBRANCH  24  25
ENDBRANCH  22  24
ENDBRANCH  15  22
ENDBRANCH   1  12
TORSDOF 7
ENDMDL
MODEL 4
REMARK VINA RESULT:    -8.605      2.661      5.728
REMARK INTER + INTRA:         -13.095
REMARK INTER:                 -11.910
REMARK INTRA:                  -1.185
REMARK UNBOUND:                -0.968
REMARK SMILES CCOc1ccc(Nc2nc(NC[C@@H]3CCCO3)nc3c2cnn3C)cc1
REMARK SMILES IDX 8 1 7 3 4 4 5 5 27 6 6 7 26 8 3 9 2 10 1 11 9 12 10 13 21 14
REMARK SMILES IDX 11 15 20 16 22 17 19 18 24 19 23 20 25 21 12 22 13 24 14 25
REMARK SMILES IDX 15 26 18 27 16 28 17 29
REMARK H PARENT 8 2 12 23
ROOT
ATOM      1  N   UNL     1       6.899  45.793  50.909  1.00  0.00    -0.339 N 
ATOM      2  H   UNL     1       7.159  46.450  50.187  1.00  0.00     0.168 HD
ENDROOT
BRANCH   1   3
ATOM      3  C   UNL     1       6.459  44.550  50.421  1.00  0.00     0.040 A 
ATOM      4  C   UNL     1       5.729  42.006  49.402  1.00  0.00     0.119 A 
ATOM      5  C   UNL     1       6.851  42.664  48.907  1.00  0.00     0.048 A 
ATOM      6  C   UNL     1       4.980  42.617  50.407  1.00  0.00     0.048 A 
ATOM      7  C   UNL     1       7.210  43.920  49.416  1.00  0.00     0.030 A 
ATOM      8  C   UNL     1       5.343  43.870  50.913  1.00  0.00     0.030 A 
BRANCH   4   9
ATOM      9  O   UNL     1       5.266  40.784  49.002  1.00  0.00    -0.494 OA
BRANCH   9  10
ATOM     10  C   UNL     1       3.852  40.605  48.969  1.00  0.00     0.226 C 
ATOM     11  C   UNL     1       3.481  40.050  47.606  1.00  0.00     0.049 C 
ENDBRANCH   9  10
ENDBRANCH   4   9
ENDBRANCH   1   3
BRANCH   1  12
ATOM     12  C   UNL     1       6.967  46.321  52.207  1.00  0.00     0.147 A 
ATOM     13  N   UNL     1       5.856  46.493  52.970  1.00  0.00    -0.195 NA
ATOM     14  C   UNL     1       8.192  46.662  52.795  1.00  0.00     0.082 A 
ATOM     15  C   UNL     1       5.939  46.980  54.223  1.00  0.00     0.226 A 
ATOM     16  C   UNL     1       8.159  47.147  54.088  1.00  0.00     0.165 A 
ATOM     17  C   UNL     1       9.561  46.668  52.455  1.00  0.00     0.149 A 
ATOM     18  N   UNL     1       7.071  47.321  54.850  1.00  0.00    -0.193 NA
ATOM     19  N   UNL     1       9.459  47.408  54.427  1.00  0.00    -0.250 N 
ATOM     20  N   UNL     1      10.343  47.115  53.445  1.00  0.00    -0.179 NA
ATOM     21  C   UNL     1       9.938  47.941  55.678  1.00  0.00     0.176 C 
BRANCH  15  22
ATOM     22  N   UNL     1       4.782  47.144  54.964  1.00  0.00    -0.351 N 
ATOM     23  H   UNL     1       4.968  47.793  55.718  1.00  0.00     0.163 HD
BRANCH  22  24
ATOM     24  C   UNL     1       4.068  45.921  55.306  1.00  0.00     0.148 C 
BRANCH  24  25
ATOM     25  C   UNL     1       2.608  45.977  54.807  1.00  0.00     0.137 C 
ATOM     26  C   UNL     1       2.084  44.605  54.404  1.00  0.00     0.036 C 
ATOM     27  O   UNL     1       2.511  46.797  53.625  1.00  0.00    -0.376 OA
ATOM     28  C   UNL     1       2.447  44.530  52.942  1.00  0.00     0.031 C 
ATOM     29  C   UNL     1       2.245  45.959  52.493  1.00  0.00     0.160 C 
ENDBRANCH  24  25
ENDBRANCH  22  24
ENDBRANCH  15  22
ENDBRANCH   1  12
TORSDOF 7
ENDMDL
MODEL 5
REMARK VINA RESULT:    -8.409      4.554      8.655
REMARK INTER + INTRA:         -12.819
REMARK INTER:                 -11.299
REMARK INTRA:                  -1.520
REMARK UNBOUND:                -0.968
REMARK SMILES CCOc1ccc(Nc2nc(NC[C@@H]3CCCO3)nc3c2cnn3C)cc1
REMARK SMILES IDX 8 1 7 3 4 4 5 5 27 6 6 7 26 8 3 9 2 10 1 11 9 12 10 13 21 14
REMARK SMILES IDX 11 15 20 16 22 17 19 18 24 19 23 20 25 21 12 22 13 24 14 25
REMARK SMILES IDX 15 26 18 27 16 28 17 29
REMARK H PARENT 8 2 12 23
ROOT
ATOM      1  N   UNL     1       3.269  45.779  55.973  1.00  0.00    -0.339 N 
ATOM      2  H   UNL     1       3.457  45.981  56.944  1.00  0.00     0.168 HD
ENDROOT
BRANCH   1   3
ATOM      3  C   UNL     1       4.355  46.028  55.115  1.00  0.00     0.040 A 
ATOM      4  C   UNL     1       6.566  46.365  53.370  1.00  0.00     0.119 A 
ATOM      5  C   UNL     1       6.478  45.238  54.181  1.00  0.00     0.048 A 
ATOM      6  C   UNL     1       5.548  47.316  53.429  1.00  0.00     0.048 A 
ATOM      7  C   UNL     1       5.382  45.073  55.040  1.00  0.00     0.030 A 
ATOM      8  C   UNL     1       4.455  47.147  54.287  1.00  0.00     0.030 A 
BRANCH   4   9
ATOM      9  O   UNL     1       7.571  46.652  52.490  1.00  0.00    -0.494 OA
BRANCH   9  10
ATOM     10  C   UNL     1       8.533  47.623  52.897  1.00  0.00     0.226 C 
ATOM     11  C   UNL     1       9.827  46.895  53.214  1.00  0.00     0.049 C 
ENDBRANCH   9  10
ENDBRANCH   4   9
ENDBRANCH   1   3
BRANCH   1  12
ATOM     12  C   UNL     1       1.947  45.382  55.721  1.00  0.00     0.147 A 
ATOM     13  N   UNL     1       1.623  44.602  54.657  1.00  0.00    -0.195 NA
ATOM     14  C   UNL     1       0.899  45.740  56.578  1.00  0.00     0.082 A 
ATOM     15  C   UNL     1       0.353  44.210  54.440  1.00  0.00     0.226 A 
ATOM     16  C   UNL     1      -0.363  45.277  56.262  1.00  0.00     0.165 A 
ATOM     17  C   UNL     1       0.711  46.487  57.760  1.00  0.00     0.149 A 
ATOM     18  N   UNL     1      -0.695  44.509  55.216  1.00  0.00    -0.193 NA
ATOM     19  N   UNL     1      -1.198  45.761  57.233  1.00  0.00    -0.250 N 
ATOM     20  N   UNL     1      -0.563  46.502  58.172  1.00  0.00    -0.179 NA
ATOM     21  C   UNL     1      -2.621  45.558  57.333  1.00  0.00     0.176 C 
BRANCH  15  22
ATOM     22  N   UNL     1       0.066  43.420  53.340  1.00  0.00    -0.351 N 
ATOM     23  H   UNL     1      -0.828  42.971  53.488  1.00  0.00     0.163 HD
BRANCH  22  24
ATOM     24  C   UNL     1       1.156  42.582  52.859  1.00  0.00     0.148 C 
BRANCH  24  25
ATOM     25  C   UNL     1       1.594  43.007  51.441  1.00  0.00     0.137 C 
ATOM     26  C   UNL     1       3.103  42.926  51.255  1.00  0.00     0.036 C 
ATOM     27  O   UNL     1       1.241  44.384  51.196  1.00  0.00    -0.376 OA
ATOM     28  C   UNL     1       3.561  44.302  51.670  1.00  0.00     0.031 C 
ATOM     29  C   UNL     1       2.435  45.176  51.163  1.00  0.00     0.160 C 
ENDBRANCH  24  25
ENDBRANCH  22  24
ENDBRANCH  15  22
ENDBRANCH   1  12
TORSDOF 7
ENDMDL
MODEL 6
REMARK VINA RESULT:    -8.398      3.260      5.784
REMARK INTER + INTRA:         -12.803
REMARK INTER:                 -11.807
REMARK INTRA:                  -0.996
REMARK UNBOUND:                -0.968
REMARK SMILES CCOc1ccc(Nc2nc(NC[C@@H]3CCCO3)nc3c2cnn3C)cc1
REMARK SMILES IDX 8 1 7 3 4 4 5 5 27 6 6 7 26 8 3 9 2 10 1 11 9 12 10 13 21 14
REMARK SMILES IDX 11 15 20 16 22 17 19 18 24 19 23 20 25 21 12 22 13 24 14 25
REMARK SMILES IDX 15 26 18 27 16 28 17 29
REMARK H PARENT 8 2 12 23
ROOT
ATOM      1  N   UNL     1       3.276  44.292  53.628  1.00  0.00    -0.339 N 
ATOM      2  H   UNL     1       3.638  44.111  54.553  1.00  0.00     0.168 HD
ENDROOT
BRANCH   1   3
ATOM      3  C   UNL     1       1.884  44.489  53.586  1.00  0.00     0.040 A 
ATOM      4  C   UNL     1      -0.915  44.873  53.337  1.00  0.00     0.119 A 
ATOM      5  C   UNL     1      -0.059  45.276  52.317  1.00  0.00     0.048 A 
ATOM      6  C   UNL     1      -0.373  44.275  54.474  1.00  0.00     0.048 A 
ATOM      7  C   UNL     1       1.325  45.081  52.443  1.00  0.00     0.030 A 
ATOM      8  C   UNL     1       1.008  44.082  54.594  1.00  0.00     0.030 A 
BRANCH   4   9
ATOM      9  O   UNL     1      -2.275  45.000  53.348  1.00  0.00    -0.494 OA
BRANCH   9  10
ATOM     10  C   UNL     1      -3.040  43.797  53.399  1.00  0.00     0.226 C 
ATOM     11  C   UNL     1      -3.131  43.240  51.990  1.00  0.00     0.049 C 
ENDBRANCH   9  10
ENDBRANCH   4   9
ENDBRANCH   1   3
BRANCH   1  12
ATOM     12  C   UNL     1       4.244  44.220  52.615  1.00  0.00     0.147 A 
ATOM     13  N   UNL     1       5.175  45.194  52.442  1.00  0.00    -0.195 NA
ATOM     14  C   UNL     1       4.321  43.118  51.754  1.00  0.00     0.082 A 
ATOM     15  C   UNL     1       6.112  45.101  51.479  1.00  0.00     0.226 A 
ATOM     16  C   UNL     1       5.327  43.125  50.807  1.00  0.00     0.165 A 
ATOM     17  C   UNL     1       3.639  41.904  51.529  1.00  0.00     0.149 A 
ATOM     18  N   UNL     1       6.250  44.079  50.626  1.00  0.00    -0.193 NA
ATOM     19  N   UNL     1       5.187  41.962  50.098  1.00  0.00    -0.250 N 
ATOM     20  N   UNL     1       4.162  41.188  50.526  1.00  0.00    -0.179 NA
ATOM     21  C   UNL     1       5.998  41.518  48.992  1.00  0.00     0.176 C 
BRANCH  15  22
ATOM     22  N   UNL     1       7.039  46.119  51.335  1.00  0.00    -0.351 N 
ATOM     23  H   UNL     1       7.950  45.708  51.174  1.00  0.00     0.163 HD
BRANCH  22  24
ATOM     24  C   UNL     1       6.961  47.192  52.317  1.00  0.00     0.148 C 
BRANCH  24  25
ATOM     25  C   UNL     1       8.310  47.934  52.430  1.00  0.00     0.137 C 
ATOM     26  C   UNL     1       9.491  47.040  52.078  1.00  0.00     0.036 C 
ATOM     27  O   UNL     1       8.534  48.365  53.788  1.00  0.00    -0.376 OA
ATOM     28  C   UNL     1       9.857  46.436  53.411  1.00  0.00     0.031 C 
ATOM     29  C   UNL     1       9.589  47.582  54.361  1.00  0.00     0.160 C 
ENDBRANCH  24  25
ENDBRANCH  22  24
ENDBRANCH  15  22
ENDBRANCH   1  12
TORSDOF 7
ENDMDL
MODEL 7
REMARK VINA RESULT:    -8.364      3.576      5.149
REMARK INTER + INTRA:         -12.755
REMARK INTER:                 -11.670
REMARK INTRA:                  -1.085
REMARK UNBOUND:                -0.968
REMARK SMILES CCOc1ccc(Nc2nc(NC[C@@H]3CCCO3)nc3c2cnn3C)cc1
REMARK SMILES IDX 8 1 7 3 4 4 5 5 27 6 6 7 26 8 3 9 2 10 1 11 9 12 10 13 21 14
REMARK SMILES IDX 11 15 20 16 22 17 19 18 24 19 23 20 25 21 12 22 13 24 14 25
REMARK SMILES IDX 15 26 18 27 16 28 17 29
REMARK H PARENT 8 2 12 23
ROOT
ATOM      1  N   UNL     1       2.897  42.882  51.884  1.00  0.00    -0.339 N 
ATOM      2  H   UNL     1       2.237  42.219  51.503  1.00  0.00     0.168 HD
ENDROOT
BRANCH   1   3
ATOM      3  C   UNL     1       4.136  42.904  51.220  1.00  0.00     0.040 A 
ATOM      4  C   UNL     1       6.590  42.809  49.801  1.00  0.00     0.119 A 
ATOM      5  C   UNL     1       5.908  41.634  50.101  1.00  0.00     0.048 A 
ATOM      6  C   UNL     1       6.043  44.027  50.204  1.00  0.00     0.048 A 
ATOM      7  C   UNL     1       4.693  41.686  50.800  1.00  0.00     0.030 A 
ATOM      8  C   UNL     1       4.829  44.073  50.900  1.00  0.00     0.030 A 
BRANCH   4   9
ATOM      9  O   UNL     1       7.776  42.907  49.129  1.00  0.00    -0.494 OA
BRANCH   9  10
ATOM     10  C   UNL     1       8.369  44.201  49.042  1.00  0.00     0.226 C 
ATOM     11  C   UNL     1       9.546  44.241  49.999  1.00  0.00     0.049 C 
ENDBRANCH   9  10
ENDBRANCH   4   9
ENDBRANCH   1   3
BRANCH   1  12
ATOM     12  C   UNL     1       2.434  43.550  53.028  1.00  0.00     0.147 A 
ATOM     13  N   UNL     1       3.236  44.375  53.751  1.00  0.00    -0.195 NA
ATOM     14  C   UNL     1       1.107  43.429  53.459  1.00  0.00     0.082 A 
ATOM     15  C   UNL     1       2.771  45.026  54.834  1.00  0.00     0.226 A 
ATOM     16  C   UNL     1       0.738  44.148  54.579  1.00  0.00     0.165 A 
ATOM     17  C   UNL     1      -0.068  42.746  53.080  1.00  0.00     0.149 A 
ATOM     18  N   UNL     1       1.519  44.963  55.301  1.00  0.00    -0.193 NA
ATOM     19  N   UNL     1      -0.583  43.859  54.796  1.00  0.00    -0.250 N 
ATOM     20  N   UNL     1      -1.106  43.006  53.884  1.00  0.00    -0.179 NA
ATOM     21  C   UNL     1      -1.416  44.361  55.859  1.00  0.00     0.176 C 
BRANCH  15  22
ATOM     22  N   UNL     1       3.624  45.852  55.545  1.00  0.00    -0.351 N 
ATOM     23  H   UNL     1       3.232  46.785  55.564  1.00  0.00     0.163 HD
BRANCH  22  24
ATOM     24  C   UNL     1       5.039  45.736  55.218  1.00  0.00     0.148 C 
BRANCH  24  25
ATOM     25  C   UNL     1       5.576  47.053  54.617  1.00  0.00     0.137 C 
ATOM     26  C   UNL     1       5.573  47.035  53.095  1.00  0.00     0.036 C 
ATOM     27  O   UNL     1       6.950  47.260  55.005  1.00  0.00    -0.376 OA
ATOM     28  C   UNL     1       6.936  46.478  52.769  1.00  0.00     0.031 C 
ATOM     29  C   UNL     1       7.793  47.081  53.860  1.00  0.00     0.160 C 
ENDBRANCH  24  25
ENDBRANCH  22  24
ENDBRANCH  15  22
ENDBRANCH   1  12
TORSDOF 7
ENDMDL
MODEL 8
REMARK VINA RESULT:    -8.289      3.538      8.256
REMARK INTER + INTRA:         -12.650
REMARK INTER:                 -11.649
REMARK INTRA:                  -1.001
REMARK UNBOUND:                -0.968
REMARK SMILES CCOc1ccc(Nc2nc(NC[C@@H]3CCCO3)nc3c2cnn3C)cc1
REMARK SMILES IDX 8 1 7 3 4 4 5 5 27 6 6 7 26 8 3 9 2 10 1 11 9 12 10 13 21 14
REMARK SMILES IDX 11 15 20 16 22 17 19 18 24 19 23 20 25 21 12 22 13 24 14 25
REMARK SMILES IDX 15 26 18 27 16 28 17 29
REMARK H PARENT 8 2 12 23
ROOT
ATOM      1  N   UNL     1       6.606  46.102  50.900  1.00  0.00    -0.339 N 
ATOM      2  H   UNL     1       6.715  46.531  49.993  1.00  0.00     0.168 HD
ENDROOT
BRANCH   1   3
ATOM      3  C   UNL     1       7.646  46.392  51.800  1.00  0.00     0.040 A 
ATOM      4  C   UNL     1       9.639  46.952  53.740  1.00  0.00     0.119 A 
ATOM      5  C   UNL     1       8.300  47.216  54.014  1.00  0.00     0.048 A 
ATOM      6  C   UNL     1       9.977  46.405  52.503  1.00  0.00     0.048 A 
ATOM      7  C   UNL     1       7.318  46.934  53.053  1.00  0.00     0.030 A 
ATOM      8  C   UNL     1       8.993  46.124  51.549  1.00  0.00     0.030 A 
BRANCH   4   9
ATOM      9  O   UNL     1      10.694  47.174  54.579  1.00  0.00    -0.494 OA
BRANCH   9  10
ATOM     10  C   UNL     1      10.414  47.822  55.818  1.00  0.00     0.226 C 
ATOM     11  C   UNL     1      11.508  47.447  56.801  1.00  0.00     0.049 C 
ENDBRANCH   9  10
ENDBRANCH   4   9
ENDBRANCH   1   3
BRANCH   1  12
ATOM     12  C   UNL     1       5.487  45.262  51.000  1.00  0.00     0.147 A 
ATOM     13  N   UNL     1       4.298  45.706  51.485  1.00  0.00    -0.195 NA
ATOM     14  C   UNL     1       5.529  43.931  50.566  1.00  0.00     0.082 A 
ATOM     15  C   UNL     1       3.225  44.894  51.554  1.00  0.00     0.226 A 
ATOM     16  C   UNL     1       4.368  43.191  50.679  1.00  0.00     0.165 A 
ATOM     17  C   UNL     1       6.462  43.033  50.006  1.00  0.00     0.149 A 
ATOM     18  N   UNL     1       3.191  43.617  51.156  1.00  0.00    -0.193 NA
ATOM     19  N   UNL     1       4.667  41.943  50.202  1.00  0.00    -0.250 N 
ATOM     20  N   UNL     1       5.946  41.820  49.775  1.00  0.00    -0.179 NA
ATOM     21  C   UNL     1       3.780  40.810  50.124  1.00  0.00     0.176 C 
BRANCH  15  22
ATOM     22  N   UNL     1       2.035  45.386  52.061  1.00  0.00    -0.351 N 
ATOM     23  H   UNL     1       1.579  45.935  51.343  1.00  0.00     0.163 HD
BRANCH  22  24
ATOM     24  C   UNL     1       2.104  45.968  53.394  1.00  0.00     0.148 C 
BRANCH  24  25
ATOM     25  C   UNL     1       2.079  44.869  54.478  1.00  0.00     0.137 C 
ATOM     26  C   UNL     1       0.805  44.037  54.425  1.00  0.00     0.036 C 
ATOM     27  O   UNL     1       2.110  45.459  55.794  1.00  0.00    -0.376 OA
ATOM     28  C   UNL     1      -0.119  44.791  55.349  1.00  0.00     0.031 C 
ATOM     29  C   UNL     1       0.832  45.280  56.418  1.00  0.00     0.160 C 
ENDBRANCH  24  25
ENDBRANCH  22  24
ENDBRANCH  15  22
ENDBRANCH   1  12
TORSDOF 7
ENDMDL
MODEL 9
REMARK VINA RESULT:    -8.263      2.660      7.685
REMARK INTER + INTRA:         -12.613
REMARK INTER:                 -11.453
REMARK INTRA:                  -1.160
REMARK UNBOUND:                -0.968
REMARK SMILES CCOc1ccc(Nc2nc(NC[C@@H]3CCCO3)nc3c2cnn3C)cc1
REMARK SMILES IDX 8 1 7 3 4 4 5 5 27 6 6 7 26 8 3 9 2 10 1 11 9 12 10 13 21 14
REMARK SMILES IDX 11 15 20 16 22 17 19 18 24 19 23 20 25 21 12 22 13 24 14 25
REMARK SMILES IDX 15 26 18 27 16 28 17 29
REMARK H PARENT 8 2 12 23
ROOT
ATOM      1  N   UNL     1       3.853  45.021  53.633  1.00  0.00    -0.339 N 
ATOM      2  H   UNL     1       3.369  45.160  54.509  1.00  0.00     0.168 HD
ENDROOT
BRANCH   1   3
ATOM      3  C   UNL     1       5.043  45.760  53.512  1.00  0.00     0.040 A 
ATOM      4  C   UNL     1       7.512  47.150  53.378  1.00  0.00     0.119 A 
ATOM      5  C   UNL     1       7.137  46.499  54.549  1.00  0.00     0.048 A 
ATOM      6  C   UNL     1       6.657  47.100  52.277  1.00  0.00     0.048 A 
ATOM      7  C   UNL     1       5.916  45.810  54.610  1.00  0.00     0.030 A 
ATOM      8  C   UNL     1       5.441  46.410  52.343  1.00  0.00     0.030 A 
BRANCH   4   9
ATOM      9  O   UNL     1       8.666  47.853  53.179  1.00  0.00    -0.494 OA
BRANCH   9  10
ATOM     10  C   UNL     1       9.894  47.166  53.407  1.00  0.00     0.226 C 
ATOM     11  C   UNL     1      10.254  46.415  52.138  1.00  0.00     0.049 C 
ENDBRANCH   9  10
ENDBRANCH   4   9
ENDBRANCH   1   3
BRANCH   1  12
ATOM     12  C   UNL     1       3.169  44.190  52.734  1.00  0.00     0.147 A 
ATOM     13  N   UNL     1       3.749  43.084  52.197  1.00  0.00    -0.195 NA
ATOM     14  C   UNL     1       1.839  44.438  52.374  1.00  0.00     0.082 A 
ATOM     15  C   UNL     1       3.073  42.283  51.351  1.00  0.00     0.226 A 
ATOM     16  C   UNL     1       1.242  43.546  51.504  1.00  0.00     0.165 A 
ATOM     17  C   UNL     1       0.833  45.391  52.640  1.00  0.00     0.149 A 
ATOM     18  N   UNL     1       1.803  42.454  50.967  1.00  0.00    -0.193 NA
ATOM     19  N   UNL     1      -0.032  44.005  51.307  1.00  0.00    -0.250 N 
ATOM     20  N   UNL     1      -0.313  45.134  52.000  1.00  0.00    -0.179 NA
ATOM     21  C   UNL     1      -1.045  43.417  50.467  1.00  0.00     0.176 C 
BRANCH  15  22
ATOM     22  N   UNL     1       3.704  41.170  50.823  1.00  0.00    -0.351 N 
ATOM     23  H   UNL     1       4.508  40.950  51.397  1.00  0.00     0.163 HD
BRANCH  22  24
ATOM     24  C   UNL     1       3.903  41.178  49.380  1.00  0.00     0.148 C 
BRANCH  24  25
ATOM     25  C   UNL     1       5.394  40.991  49.028  1.00  0.00     0.137 C 
ATOM     26  C   UNL     1       6.315  41.499  50.129  1.00  0.00     0.036 C 
ATOM     27  O   UNL     1       5.733  41.751  47.850  1.00  0.00    -0.376 OA
ATOM     28  C   UNL     1       6.534  42.939  49.737  1.00  0.00     0.031 C 
ATOM     29  C   UNL     1       6.567  42.854  48.228  1.00  0.00     0.160 C 
ENDBRANCH  24  25
ENDBRANCH  22  24
ENDBRANCH  15  22
ENDBRANCH   1  12
TORSDOF 7
ENDMDL
MODEL 10
REMARK VINA RESULT:    -8.245      3.669      6.527
REMARK INTER + INTRA:         -12.587
REMARK INTER:                 -11.776
REMARK INTRA:                  -0.812
REMARK UNBOUND:                -0.968
REMARK SMILES CCOc1ccc(Nc2nc(NC[C@@H]3CCCO3)nc3c2cnn3C)cc1
REMARK SMILES IDX 8 1 7 3 4 4 5 5 27 6 6 7 26 8 3 9 2 10 1 11 9 12 10 13 21 14
REMARK SMILES IDX 11 15 20 16 22 17 19 18 24 19 23 20 25 21 12 22 13 24 14 25
REMARK SMILES IDX 15 26 18 27 16 28 17 29
REMARK H PARENT 8 2 12 23
ROOT
ATOM      1  N   UNL     1       2.882  43.024  53.067  1.00  0.00    -0.339 N 
ATOM      2  H   UNL     1       2.969  42.022  53.156  1.00  0.00     0.168 HD
ENDROOT
BRANCH   1   3
ATOM      3  C   UNL     1       1.705  43.548  53.631  1.00  0.00     0.040 A 
ATOM      4  C   UNL     1      -0.739  44.458  54.748  1.00  0.00     0.119 A 
ATOM      5  C   UNL     1      -0.738  43.449  53.790  1.00  0.00     0.048 A 
ATOM      6  C   UNL     1       0.480  45.005  55.149  1.00  0.00     0.048 A 
ATOM      7  C   UNL     1       0.473  42.999  53.243  1.00  0.00     0.030 A 
ATOM      8  C   UNL     1       1.685  44.552  54.601  1.00  0.00     0.030 A 
BRANCH   4   9
ATOM      9  O   UNL     1      -1.837  44.989  55.362  1.00  0.00    -0.494 OA
BRANCH   9  10
ATOM     10  C   UNL     1      -1.921  44.847  56.779  1.00  0.00     0.226 C 
ATOM     11  C   UNL     1      -2.553  43.500  57.079  1.00  0.00     0.049 C 
ENDBRANCH   9  10
ENDBRANCH   4   9
ENDBRANCH   1   3
BRANCH   1  12
ATOM     12  C   UNL     1       3.917  43.621  52.333  1.00  0.00     0.147 A 
ATOM     13  N   UNL     1       4.335  44.889  52.584  1.00  0.00    -0.195 NA
ATOM     14  C   UNL     1       4.597  42.923  51.327  1.00  0.00     0.082 A 
ATOM     15  C   UNL     1       5.345  45.442  51.885  1.00  0.00     0.226 A 
ATOM     16  C   UNL     1       5.621  43.586  50.679  1.00  0.00     0.165 A 
ATOM     17  C   UNL     1       4.563  41.652  50.716  1.00  0.00     0.149 A 
ATOM     18  N   UNL     1       6.042  44.836  50.917  1.00  0.00    -0.193 NA
ATOM     19  N   UNL     1       6.114  42.708  49.752  1.00  0.00    -0.250 N 
ATOM     20  N   UNL     1       5.487  41.508  49.759  1.00  0.00    -0.179 NA
ATOM     21  C   UNL     1       7.188  42.943  48.820  1.00  0.00     0.176 C 
BRANCH  15  22
ATOM     22  N   UNL     1       5.736  46.739  52.170  1.00  0.00    -0.351 N 
ATOM     23  H   UNL     1       5.926  47.219  51.299  1.00  0.00     0.163 HD
BRANCH  22  24
ATOM     24  C   UNL     1       6.717  46.887  53.236  1.00  0.00     0.148 C 
BRANCH  24  25
ATOM     25  C   UNL     1       7.922  47.727  52.763  1.00  0.00     0.137 C 
ATOM     26  C   UNL     1       8.861  46.934  51.864  1.00  0.00     0.036 C 
ATOM     27  O   UNL     1       8.718  48.145  53.891  1.00  0.00    -0.376 OA
ATOM     28  C   UNL     1       9.831  46.331  52.849  1.00  0.00     0.031 C 
ATOM     29  C   UNL     1       9.962  47.432  53.877  1.00  0.00     0.160 C 
ENDBRANCH  24  25
ENDBRANCH  22  24
ENDBRANCH  15  22
ENDBRANCH   1  12
TORSDOF 7
ENDMDL
MODEL 11
REMARK VINA RESULT:    -8.222      2.448      8.086
REMARK INTER + INTRA:         -12.555
REMARK INTER:                 -11.805
REMARK INTRA:                  -0.750
REMARK UNBOUND:                -0.968
REMARK SMILES CCOc1ccc(Nc2nc(NC[C@@H]3CCCO3)nc3c2cnn3C)cc1
REMARK SMILES IDX 8 1 7 3 4 4 5 5 27 6 6 7 26 8 3 9 2 10 1 11 9 12 10 13 21 14
REMARK SMILES IDX 11 15 20 16 22 17 19 18 24 19 23 20 25 21 12 22 13 24 14 25
REMARK SMILES IDX 15 26 18 27 16 28 17 29
REMARK H PARENT 8 2 12 23
ROOT
ATOM      1  N   UNL     1       5.214  46.003  51.795  1.00  0.00    -0.339 N 
ATOM      2  H   UNL     1       4.962  46.596  51.018  1.00  0.00     0.168 HD
ENDROOT
BRANCH   1   3
ATOM      3  C   UNL     1       6.437  46.341  52.401  1.00  0.00     0.040 A 
ATOM      4  C   UNL     1       8.936  47.122  53.494  1.00  0.00     0.119 A 
ATOM      5  C   UNL     1       8.753  47.091  52.114  1.00  0.00     0.048 A 
ATOM      6  C   UNL     1       7.871  46.769  54.322  1.00  0.00     0.048 A 
ATOM      7  C   UNL     1       7.514  46.707  51.578  1.00  0.00     0.030 A 
ATOM      8  C   UNL     1       6.637  46.389  53.782  1.00  0.00     0.030 A 
BRANCH   4   9
ATOM      9  O   UNL     1      10.082  47.475  54.149  1.00  0.00    -0.494 OA
BRANCH   9  10
ATOM     10  C   UNL     1       9.943  47.977  55.476  1.00  0.00     0.226 C 
ATOM     11  C   UNL     1      11.155  47.532  56.274  1.00  0.00     0.049 C 
ENDBRANCH   9  10
ENDBRANCH   4   9
ENDBRANCH   1   3
BRANCH   1  12
ATOM     12  C   UNL     1       4.320  44.945  52.015  1.00  0.00     0.147 A 
ATOM     13  N   UNL     1       4.530  43.708  51.495  1.00  0.00    -0.195 NA
ATOM     14  C   UNL     1       3.182  45.103  52.817  1.00  0.00     0.082 A 
ATOM     15  C   UNL     1       3.673  42.696  51.732  1.00  0.00     0.226 A 
ATOM     16  C   UNL     1       2.376  43.996  52.998  1.00  0.00     0.165 A 
ATOM     17  C   UNL     1       2.546  46.122  53.557  1.00  0.00     0.149 A 
ATOM     18  N   UNL     1       2.573  42.772  52.489  1.00  0.00    -0.193 NA
ATOM     19  N   UNL     1       1.345  44.405  53.800  1.00  0.00    -0.250 N 
ATOM     20  N   UNL     1       1.429  45.706  54.166  1.00  0.00    -0.179 NA
ATOM     21  C   UNL     1       0.238  43.607  54.262  1.00  0.00     0.176 C 
BRANCH  15  22
ATOM     22  N   UNL     1       3.923  41.453  51.178  1.00  0.00    -0.351 N 
ATOM     23  H   UNL     1       4.743  41.058  51.621  1.00  0.00     0.163 HD
BRANCH  22  24
ATOM     24  C   UNL     1       3.859  41.381  49.724  1.00  0.00     0.148 C 
BRANCH  24  25
ATOM     25  C   UNL     1       5.210  40.925  49.134  1.00  0.00     0.137 C 
ATOM     26  C   UNL     1       6.393  41.413  49.958  1.00  0.00     0.036 C 
ATOM     27  O   UNL     1       5.395  41.477  47.815  1.00  0.00    -0.376 OA
ATOM     28  C   UNL     1       6.711  42.744  49.324  1.00  0.00     0.031 C 
ATOM     29  C   UNL     1       6.424  42.474  47.864  1.00  0.00     0.160 C 
ENDBRANCH  24  25
ENDBRANCH  22  24
ENDBRANCH  15  22
ENDBRANCH   1  12
TORSDOF 7
ENDMDL
MODEL 12
REMARK VINA RESULT:    -8.220      3.323      5.425
REMARK INTER + INTRA:         -12.552
REMARK INTER:                 -11.558
REMARK INTRA:                  -0.994
REMARK UNBOUND:                -0.968
REMARK SMILES CCOc1ccc(Nc2nc(NC[C@@H]3CCCO3)nc3c2cnn3C)cc1
REMARK SMILES IDX 8 1 7 3 4 4 5 5 27 6 6 7 26 8 3 9 2 10 1 11 9 12 10 13 21 14
REMARK SMILES IDX 11 15 20 16 22 17 19 18 24 19 23 20 25 21 12 22 13 24 14 25
REMARK SMILES IDX 15 26 18 27 16 28 17 29
REMARK H PARENT 8 2 12 23
ROOT
ATOM      1  N   UNL     1       3.279  42.793  52.711  1.00  0.00    -0.339 N 
ATOM      2  H   UNL     1       3.630  42.014  53.250  1.00  0.00     0.168 HD
ENDROOT
BRANCH   1   3
ATOM      3  C   UNL     1       1.877  42.891  52.693  1.00  0.00     0.040 A 
ATOM      4  C   UNL     1      -0.951  43.017  52.508  1.00  0.00     0.119 A 
ATOM      5  C   UNL     1      -0.170  43.058  51.356  1.00  0.00     0.048 A 
ATOM      6  C   UNL     1      -0.318  42.907  53.746  1.00  0.00     0.048 A 
ATOM      7  C   UNL     1       1.228  42.992  51.452  1.00  0.00     0.030 A 
ATOM      8  C   UNL     1       1.076  42.839  53.836  1.00  0.00     0.030 A 
BRANCH   4   9
ATOM      9  O   UNL     1      -2.315  43.070  52.561  1.00  0.00    -0.494 OA
BRANCH   9  10
ATOM     10  C   UNL     1      -2.894  44.117  53.339  1.00  0.00     0.226 C 
ATOM     11  C   UNL     1      -3.036  45.338  52.448  1.00  0.00     0.049 C 
ENDBRANCH   9  10
ENDBRANCH   4   9
ENDBRANCH   1   3
BRANCH   1  12
ATOM     12  C   UNL     1       4.280  43.525  52.055  1.00  0.00     0.147 A 
ATOM     13  N   UNL     1       4.588  44.799  52.414  1.00  0.00    -0.195 NA
ATOM     14  C   UNL     1       5.038  42.964  51.020  1.00  0.00     0.082 A 
ATOM     15  C   UNL     1       5.566  45.482  51.789  1.00  0.00     0.226 A 
ATOM     16  C   UNL     1       6.019  43.755  50.454  1.00  0.00     0.165 A 
ATOM     17  C   UNL     1       5.121  41.746  50.313  1.00  0.00     0.149 A 
ATOM     18  N   UNL     1       6.332  45.011  50.799  1.00  0.00    -0.193 NA
ATOM     19  N   UNL     1       6.603  42.993  49.478  1.00  0.00    -0.250 N 
ATOM     20  N   UNL     1       6.076  41.750  49.375  1.00  0.00    -0.179 NA
ATOM     21  C   UNL     1       7.676  43.384  48.599  1.00  0.00     0.176 C 
BRANCH  15  22
ATOM     22  N   UNL     1       5.843  46.780  52.183  1.00  0.00    -0.351 N 
ATOM     23  H   UNL     1       6.101  47.319  51.366  1.00  0.00     0.163 HD
BRANCH  22  24
ATOM     24  C   UNL     1       6.688  46.919  53.361  1.00  0.00     0.148 C 
BRANCH  24  25
ATOM     25  C   UNL     1       7.892  47.840  53.070  1.00  0.00     0.137 C 
ATOM     26  C   UNL     1       8.872  47.214  52.087  1.00  0.00     0.036 C 
ATOM     27  O   UNL     1       8.645  48.080  54.277  1.00  0.00    -0.376 OA
ATOM     28  C   UNL     1       9.821  46.472  52.994  1.00  0.00     0.031 C 
ATOM     29  C   UNL     1       9.901  47.394  54.190  1.00  0.00     0.160 C 
ENDBRANCH  24  25
ENDBRANCH  22  24
ENDBRANCH  15  22
ENDBRANCH   1  12
TORSDOF 7
ENDMDL
MODEL 13
REMARK VINA RESULT:    -8.131      3.029      8.517
REMARK INTER + INTRA:         -12.426
REMARK INTER:                 -11.381
REMARK INTRA:                  -1.045
REMARK UNBOUND:                -0.968
REMARK SMILES CCOc1ccc(Nc2nc(NC[C@@H]3CCCO3)nc3c2cnn3C)cc1
REMARK SMILES IDX 8 1 7 3 4 4 5 5 27 6 6 7 26 8 3 9 2 10 1 11 9 12 10 13 21 14
REMARK SMILES IDX 11 15 20 16 22 17 19 18 24 19 23 20 25 21 12 22 13 24 14 25
REMARK SMILES IDX 15 26 18 27 16 28 17 29
REMARK H PARENT 8 2 12 23
ROOT
ATOM      1  N   UNL     1       5.565  45.856  52.085  1.00  0.00    -0.339 N 
ATOM      2  H   UNL     1       5.014  46.626  51.733  1.00  0.00     0.168 HD
ENDROOT
BRANCH   1   3
ATOM      3  C   UNL     1       6.770  46.246  52.695  1.00  0.00     0.040 A 
ATOM      4  C   UNL     1       9.246  47.106  53.782  1.00  0.00     0.119 A 
ATOM      5  C   UNL     1       9.135  46.832  52.423  1.00  0.00     0.048 A 
ATOM      6  C   UNL     1       8.121  46.956  54.593  1.00  0.00     0.048 A 
ATOM      7  C   UNL     1       7.908  46.410  51.889  1.00  0.00     0.030 A 
ATOM      8  C   UNL     1       6.899  46.537  54.055  1.00  0.00     0.030 A 
BRANCH   4   9
ATOM      9  O   UNL     1      10.372  47.523  54.433  1.00  0.00    -0.494 OA
BRANCH   9  10
ATOM     10  C   UNL     1      10.234  47.878  55.808  1.00  0.00     0.226 C 
ATOM     11  C   UNL     1      11.471  47.394  56.543  1.00  0.00     0.049 C 
ENDBRANCH   9  10
ENDBRANCH   4   9
ENDBRANCH   1   3
BRANCH   1  12
ATOM     12  C   UNL     1       5.024  44.594  51.801  1.00  0.00     0.147 A 
ATOM     13  N   UNL     1       4.012  44.066  52.538  1.00  0.00    -0.195 NA
ATOM     14  C   UNL     1       5.475  43.830  50.718  1.00  0.00     0.082 A 
ATOM     15  C   UNL     1       3.486  42.862  52.241  1.00  0.00     0.226 A 
ATOM     16  C   UNL     1       4.860  42.612  50.502  1.00  0.00     0.165 A 
ATOM     17  C   UNL     1       6.441  43.919  49.693  1.00  0.00     0.149 A 
ATOM     18  N   UNL     1       3.863  42.081  51.221  1.00  0.00    -0.193 NA
ATOM     19  N   UNL     1       5.475  42.066  49.407  1.00  0.00    -0.250 N 
ATOM     20  N   UNL     1       6.446  42.853  48.885  1.00  0.00    -0.179 NA
ATOM     21  C   UNL     1       5.189  40.792  48.799  1.00  0.00     0.176 C 
BRANCH  15  22
ATOM     22  N   UNL     1       2.460  42.359  53.021  1.00  0.00    -0.351 N 
ATOM     23  H   UNL     1       2.694  41.413  53.295  1.00  0.00     0.163 HD
BRANCH  22  24
ATOM     24  C   UNL     1       1.111  42.588  52.521  1.00  0.00     0.148 C 
BRANCH  24  25
ATOM     25  C   UNL     1       0.318  43.506  53.475  1.00  0.00     0.137 C 
ATOM     26  C   UNL     1      -0.196  44.757  52.776  1.00  0.00     0.036 C 
ATOM     27  O   UNL     1       1.165  43.973  54.545  1.00  0.00    -0.376 OA
ATOM     28  C   UNL     1       0.934  45.736  52.979  1.00  0.00     0.031 C 
ATOM     29  C   UNL     1       1.423  45.371  54.363  1.00  0.00     0.160 C 
ENDBRANCH  24  25
ENDBRANCH  22  24
ENDBRANCH  15  22
ENDBRANCH   1  12
TORSDOF 7
ENDMDL
MODEL 14
REMARK VINA RESULT:    -8.071      3.238      7.703
REMARK INTER + INTRA:         -12.342
REMARK INTER:                 -11.271
REMARK INTRA:                  -1.070
REMARK UNBOUND:                -0.968
REMARK SMILES CCOc1ccc(Nc2nc(NC[C@@H]3CCCO3)nc3c2cnn3C)cc1
REMARK SMILES IDX 8 1 7 3 4 4 5 5 27 6 6 7 26 8 3 9 2 10 1 11 9 12 10 13 21 14
REMARK SMILES IDX 11 15 20 16 22 17 19 18 24 19 23 20 25 21 12 22 13 24 14 25
REMARK SMILES IDX 15 26 18 27 16 28 17 29
REMARK H PARENT 8 2 12 23
ROOT
ATOM      1  N   UNL     1       7.033  45.655  50.629  1.00  0.00    -0.339 N 
ATOM      2  H   UNL     1       7.247  45.871  49.666  1.00  0.00     0.168 HD
ENDROOT
BRANCH   1   3
ATOM      3  C   UNL     1       7.985  46.129  51.549  1.00  0.00     0.040 A 
ATOM      4  C   UNL     1       9.784  47.097  53.516  1.00  0.00     0.119 A 
ATOM      5  C   UNL     1       8.445  47.477  53.542  1.00  0.00     0.048 A 
ATOM      6  C   UNL     1      10.218  46.232  52.513  1.00  0.00     0.048 A 
ATOM      7  C   UNL     1       7.558  46.993  52.570  1.00  0.00     0.030 A 
ATOM      8  C   UNL     1       9.329  45.751  51.545  1.00  0.00     0.030 A 
BRANCH   4   9
ATOM      9  O   UNL     1      10.752  47.489  54.396  1.00  0.00    -0.494 OA
BRANCH   9  10
ATOM     10  C   UNL     1      10.332  47.829  55.716  1.00  0.00     0.226 C 
ATOM     11  C   UNL     1      11.443  47.442  56.675  1.00  0.00     0.049 C 
ENDBRANCH   9  10
ENDBRANCH   4   9
ENDBRANCH   1   3
BRANCH   1  12
ATOM     12  C   UNL     1       5.883  44.867  50.791  1.00  0.00     0.147 A 
ATOM     13  N   UNL     1       4.801  45.311  51.482  1.00  0.00    -0.195 NA
ATOM     14  C   UNL     1       5.780  43.595  50.214  1.00  0.00     0.082 A 
ATOM     15  C   UNL     1       3.696  44.552  51.610  1.00  0.00     0.226 A 
ATOM     16  C   UNL     1       4.598  42.907  50.405  1.00  0.00     0.165 A 
ATOM     17  C   UNL     1       6.569  42.722  49.436  1.00  0.00     0.149 A 
ATOM     18  N   UNL     1       3.525  43.334  51.085  1.00  0.00    -0.193 NA
ATOM     19  N   UNL     1       4.748  41.710  49.759  1.00  0.00    -0.250 N 
ATOM     20  N   UNL     1       5.948  41.572  49.148  1.00  0.00    -0.179 NA
ATOM     21  C   UNL     1       3.784  40.640  49.682  1.00  0.00     0.176 C 
BRANCH  15  22
ATOM     22  N   UNL     1       2.618  45.042  52.328  1.00  0.00    -0.351 N 
ATOM     23  H   UNL     1       1.764  44.772  51.856  1.00  0.00     0.163 HD
BRANCH  22  24
ATOM     24  C   UNL     1       2.722  46.428  52.764  1.00  0.00     0.148 C 
BRANCH  24  25
ATOM     25  C   UNL     1       2.914  46.512  54.293  1.00  0.00     0.137 C 
ATOM     26  C   UNL     1       4.234  47.170  54.673  1.00  0.00     0.036 C 
ATOM     27  O   UNL     1       2.955  45.190  54.869  1.00  0.00    -0.376 OA
ATOM     28  C   UNL     1       5.179  45.997  54.747  1.00  0.00     0.031 C 
ATOM     29  C   UNL     1       4.290  44.910  55.309  1.00  0.00     0.160 C 
ENDBRANCH  24  25
ENDBRANCH  22  24
ENDBRANCH  15  22
ENDBRANCH   1  12
TORSDOF 7
ENDMDL
MODEL 15
REMARK VINA RESULT:    -8.040      3.609      8.044
REMARK INTER + INTRA:         -12.298
REMARK INTER:                 -11.450
REMARK INTRA:                  -0.849
REMARK UNBOUND:                -0.968
REMARK SMILES CCOc1ccc(Nc2nc(NC[C@@H]3CCCO3)nc3c2cnn3C)cc1
REMARK SMILES IDX 8 1 7 3 4 4 5 5 27 6 6 7 26 8 3 9 2 10 1 11 9 12 10 13 21 14
REMARK SMILES IDX 11 15 20 16 22 17 19 18 24 19 23 20 25 21 12 22 13 24 14 25
REMARK SMILES IDX 15 26 18 27 16 28 17 29
REMARK H PARENT 8 2 12 23
ROOT
ATOM      1  N   UNL     1       3.390  45.769  55.091  1.00  0.00    -0.339 N 
ATOM      2  H   UNL     1       3.261  46.197  55.997  1.00  0.00     0.168 HD
ENDROOT
BRANCH   1   3
ATOM      3  C   UNL     1       4.580  46.146  54.444  1.00  0.00     0.040 A 
ATOM      4  C   UNL     1       7.049  46.763  53.192  1.00  0.00     0.119 A 
ATOM      5  C   UNL     1       7.023  45.980  54.341  1.00  0.00     0.048 A 
ATOM      6  C   UNL     1       5.844  47.231  52.669  1.00  0.00     0.048 A 
ATOM      7  C   UNL     1       5.799  45.673  54.955  1.00  0.00     0.030 A 
ATOM      8  C   UNL     1       4.626  46.921  53.284  1.00  0.00     0.030 A 
BRANCH   4   9
ATOM      9  O   UNL     1       8.163  47.136  52.494  1.00  0.00    -0.494 OA
BRANCH   9  10
ATOM     10  C   UNL     1       9.427  46.766  53.040  1.00  0.00     0.226 C 
ATOM     11  C   UNL     1      10.259  46.159  51.925  1.00  0.00     0.049 C 
ENDBRANCH   9  10
ENDBRANCH   4   9
ENDBRANCH   1   3
BRANCH   1  12
ATOM     12  C   UNL     1       2.309  44.975  54.679  1.00  0.00     0.147 A 
ATOM     13  N   UNL     1       2.413  44.107  53.639  1.00  0.00    -0.195 NA
ATOM     14  C   UNL     1       1.079  45.010  55.347  1.00  0.00     0.082 A 
ATOM     15  C   UNL     1       1.374  43.334  53.269  1.00  0.00     0.226 A 
ATOM     16  C   UNL     1       0.085  44.169  54.885  1.00  0.00     0.165 A 
ATOM     17  C   UNL     1       0.485  45.690  56.431  1.00  0.00     0.149 A 
ATOM     18  N   UNL     1       0.174  43.311  53.861  1.00  0.00    -0.193 NA
ATOM     19  N   UNL     1      -1.003  44.393  55.687  1.00  0.00    -0.250 N 
ATOM     20  N   UNL     1      -0.781  45.318  56.651  1.00  0.00    -0.179 NA
ATOM     21  C   UNL     1      -2.294  43.760  55.593  1.00  0.00     0.176 C 
BRANCH  15  22
ATOM     22  N   UNL     1       1.521  42.467  52.200  1.00  0.00    -0.351 N 
ATOM     23  H   UNL     1       1.508  41.517  52.548  1.00  0.00     0.163 HD
BRANCH  22  24
ATOM     24  C   UNL     1       2.568  42.808  51.246  1.00  0.00     0.148 C 
BRANCH  24  25
ATOM     25  C   UNL     1       3.938  42.278  51.718  1.00  0.00     0.137 C 
ATOM     26  C   UNL     1       5.042  43.315  51.560  1.00  0.00     0.036 C 
ATOM     27  O   UNL     1       4.343  41.148  50.919  1.00  0.00    -0.376 OA
ATOM     28  C   UNL     1       5.557  43.039  50.170  1.00  0.00     0.031 C 
ATOM     29  C   UNL     1       5.441  41.534  50.082  1.00  0.00     0.160 C 
ENDBRANCH  24  25
ENDBRANCH  22  24
ENDBRANCH  15  22
ENDBRANCH   1  12
TORSDOF 7
ENDMDL
MODEL 16
REMARK VINA RESULT:    -7.925      2.137      3.275
REMARK INTER + INTRA:         -12.137
REMARK INTER:                 -11.172
REMARK INTRA:                  -0.965
REMARK UNBOUND:                -0.968
REMARK SMILES CCOc1ccc(Nc2nc(NC[C@@H]3CCCO3)nc3c2cnn3C)cc1
REMARK SMILES IDX 8 1 7 3 4 4 5 5 27 6 6 7 26 8 3 9 2 10 1 11 9 12 10 13 21 14
REMARK SMILES IDX 11 15 20 16 22 17 19 18 24 19 23 20 25 21 12 22 13 24 14 25
REMARK SMILES IDX 15 26 18 27 16 28 17 29
REMARK H PARENT 8 2 12 23
ROOT
ATOM      1  N   UNL     1       3.856  41.791  51.951  1.00  0.00    -0.339 N 
ATOM      2  H   UNL     1       3.841  40.916  52.456  1.00  0.00     0.168 HD
ENDROOT
BRANCH   1   3
ATOM      3  C   UNL     1       4.374  41.691  50.648  1.00  0.00     0.040 A 
ATOM      4  C   UNL     1       5.264  41.462  47.964  1.00  0.00     0.119 A 
ATOM      5  C   UNL     1       4.137  40.766  48.391  1.00  0.00     0.048 A 
ATOM      6  C   UNL     1       5.939  42.274  48.876  1.00  0.00     0.048 A 
ATOM      7  C   UNL     1       3.699  40.885  49.718  1.00  0.00     0.030 A 
ATOM      8  C   UNL     1       5.496  42.390  50.198  1.00  0.00     0.030 A 
BRANCH   4   9
ATOM      9  O   UNL     1       5.800  41.440  46.707  1.00  0.00    -0.494 OA
BRANCH   9  10
ATOM     10  C   UNL     1       4.887  41.397  45.613  1.00  0.00     0.226 C 
ATOM     11  C   UNL     1       5.252  42.516  44.654  1.00  0.00     0.049 C 
ENDBRANCH   9  10
ENDBRANCH   4   9
ENDBRANCH   1   3
BRANCH   1  12
ATOM     12  C   UNL     1       3.434  42.892  52.711  1.00  0.00     0.147 A 
ATOM     13  N   UNL     1       4.287  43.887  53.068  1.00  0.00    -0.195 NA
ATOM     14  C   UNL     1       2.098  43.039  53.106  1.00  0.00     0.082 A 
ATOM     15  C   UNL     1       3.863  44.949  53.779  1.00  0.00     0.226 A 
ATOM     16  C   UNL     1       1.773  44.172  53.827  1.00  0.00     0.165 A 
ATOM     17  C   UNL     1       0.880  42.336  52.992  1.00  0.00     0.149 A 
ATOM     18  N   UNL     1       2.606  45.158  54.186  1.00  0.00    -0.193 NA
ATOM     19  N   UNL     1       0.434  44.078  54.095  1.00  0.00    -0.250 N 
ATOM     20  N   UNL     1      -0.142  42.964  53.586  1.00  0.00    -0.179 NA
ATOM     21  C   UNL     1      -0.370  45.019  54.834  1.00  0.00     0.176 C 
BRANCH  15  22
ATOM     22  N   UNL     1       4.767  45.937  54.127  1.00  0.00    -0.351 N 
ATOM     23  H   UNL     1       4.316  46.838  54.032  1.00  0.00     0.163 HD
BRANCH  22  24
ATOM     24  C   UNL     1       6.102  45.803  53.560  1.00  0.00     0.148 C 
BRANCH  24  25
ATOM     25  C   UNL     1       6.288  46.751  52.356  1.00  0.00     0.137 C 
ATOM     26  C   UNL     1       7.124  46.121  51.250  1.00  0.00     0.036 C 
ATOM     27  O   UNL     1       6.999  47.941  52.756  1.00  0.00    -0.376 OA
ATOM     28  C   UNL     1       8.527  46.528  51.624  1.00  0.00     0.031 C 
ATOM     29  C   UNL     1       8.314  47.915  52.187  1.00  0.00     0.160 C 
ENDBRANCH  24  25
ENDBRANCH  22  24
ENDBRANCH  15  22
ENDBRANCH   1  12
TORSDOF 7
ENDMDL
MODEL 17
REMARK VINA RESULT:    -7.663      2.302      4.728
REMARK INTER + INTRA:         -11.767
REMARK INTER:                 -10.630
REMARK INTRA:                  -1.137
REMARK UNBOUND:                -0.968
REMARK SMILES CCOc1ccc(Nc2nc(NC[C@@H]3CCCO3)nc3c2cnn3C)cc1
REMARK SMILES IDX 8 1 7 3 4 4 5 5 27 6 6 7 26 8 3 9 2 10 1 11 9 12 10 13 21 14
REMARK SMILES IDX 11 15 20 16 22 17 19 18 24 19 23 20 25 21 12 22 13 24 14 25
REMARK SMILES IDX 15 26 18 27 16 28 17 29
REMARK H PARENT 8 2 12 23
ROOT
ATOM      1  N   UNL     1       5.534  41.381  49.283  1.00  0.00    -0.339 N 
ATOM      2  H   UNL     1       6.349  40.817  49.481  1.00  0.00     0.168 HD
ENDROOT
BRANCH   1   3
ATOM      3  C   UNL     1       5.008  41.194  47.993  1.00  0.00     0.040 A 
ATOM      4  C   UNL     1       4.101  40.833  45.330  1.00  0.00     0.119 A 
ATOM      5  C   UNL     1       5.225  41.612  45.588  1.00  0.00     0.048 A 
ATOM      6  C   UNL     1       3.437  40.234  46.400  1.00  0.00     0.048 A 
ATOM      7  C   UNL     1       5.672  41.784  46.906  1.00  0.00     0.030 A 
ATOM      8  C   UNL     1       3.889  40.408  47.713  1.00  0.00     0.030 A 
BRANCH   4   9
ATOM      9  O   UNL     1       3.557  40.580  44.102  1.00  0.00    -0.494 OA
BRANCH   9  10
ATOM     10  C   UNL     1       3.465  39.215  43.701  1.00  0.00     0.226 C 
ATOM     11  C   UNL     1       4.837  38.772  43.227  1.00  0.00     0.049 C 
ENDBRANCH   9  10
ENDBRANCH   4   9
ENDBRANCH   1   3
BRANCH   1  12
ATOM     12  C   UNL     1       5.189  42.262  50.319  1.00  0.00     0.147 A 
ATOM     13  N   UNL     1       4.184  41.986  51.190  1.00  0.00    -0.195 NA
ATOM     14  C   UNL     1       5.892  43.455  50.529  1.00  0.00     0.082 A 
ATOM     15  C   UNL     1       3.878  42.832  52.192  1.00  0.00     0.226 A 
ATOM     16  C   UNL     1       5.496  44.244  51.592  1.00  0.00     0.165 A 
ATOM     17  C   UNL     1       6.964  44.165  49.948  1.00  0.00     0.149 A 
ATOM     18  N   UNL     1       4.506  43.983  52.456  1.00  0.00    -0.193 NA
ATOM     19  N   UNL     1       6.320  45.337  51.579  1.00  0.00    -0.250 N 
ATOM     20  N   UNL     1       7.238  45.310  50.584  1.00  0.00    -0.179 NA
ATOM     21  C   UNL     1       6.292  46.454  52.490  1.00  0.00     0.176 C 
BRANCH  15  22
ATOM     22  N   UNL     1       2.842  42.515  53.054  1.00  0.00    -0.351 N 
ATOM     23  H   UNL     1       3.008  41.592  53.436  1.00  0.00     0.163 HD
BRANCH  22  24
ATOM     24  C   UNL     1       1.499  42.795  52.563  1.00  0.00     0.148 C 
BRANCH  24  25
ATOM     25  C   UNL     1       0.768  43.786  53.493  1.00  0.00     0.137 C 
ATOM     26  C   UNL     1       0.368  45.066  52.770  1.00  0.00     0.036 C 
ATOM     27  O   UNL     1       1.633  44.197  54.571  1.00  0.00    -0.376 OA
ATOM     28  C   UNL     1       1.570  45.953  52.981  1.00  0.00     0.031 C 
ATOM     29  C   UNL     1       2.006  45.568  54.377  1.00  0.00     0.160 C 
ENDBRANCH  24  25
ENDBRANCH  22  24
ENDBRANCH  15  22
ENDBRANCH   1  12
TORSDOF 7
ENDMDL
MODEL 18
REMARK VINA RESULT:    -7.625      4.350      8.515
REMARK INTER + INTRA:         -11.713
REMARK INTER:                 -10.737
REMARK INTRA:                  -0.976
REMARK UNBOUND:                -0.968
REMARK SMILES CCOc1ccc(Nc2nc(NC[C@@H]3CCCO3)nc3c2cnn3C)cc1
REMARK SMILES IDX 8 1 7 3 4 4 5 5 27 6 6 7 26 8 3 9 2 10 1 11 9 12 10 13 21 14
REMARK SMILES IDX 11 15 20 16 22 17 19 18 24 19 23 20 25 21 12 22 13 24 14 25
REMARK SMILES IDX 15 26 18 27 16 28 17 29
REMARK H PARENT 8 2 12 23
ROOT
ATOM      1  N   UNL     1       4.121  43.961  53.438  1.00  0.00    -0.339 N 
ATOM      2  H   UNL     1       4.405  43.085  53.854  1.00  0.00     0.168 HD
ENDROOT
BRANCH   1   3
ATOM      3  C   UNL     1       5.193  44.793  53.069  1.00  0.00     0.040 A 
ATOM      4  C   UNL     1       7.281  46.495  52.180  1.00  0.00     0.119 A 
ATOM      5  C   UNL     1       6.565  45.727  51.267  1.00  0.00     0.048 A 
ATOM      6  C   UNL     1       6.949  46.415  53.532  1.00  0.00     0.048 A 
ATOM      7  C   UNL     1       5.531  44.890  51.710  1.00  0.00     0.030 A 
ATOM      8  C   UNL     1       5.915  45.579  53.969  1.00  0.00     0.030 A 
BRANCH   4   9
ATOM      9  O   UNL     1       8.306  47.350  51.889  1.00  0.00    -0.494 OA
BRANCH   9  10
ATOM     10  C   UNL     1       9.523  47.174  52.611  1.00  0.00     0.226 C 
ATOM     11  C   UNL     1      10.327  46.090  51.917  1.00  0.00     0.049 C 
ENDBRANCH   9  10
ENDBRANCH   4   9
ENDBRANCH   1   3
BRANCH   1  12
ATOM     12  C   UNL     1       2.732  44.152  53.410  1.00  0.00     0.147 A 
ATOM     13  N   UNL     1       2.076  44.791  54.414  1.00  0.00    -0.195 NA
ATOM     14  C   UNL     1       1.956  43.727  52.324  1.00  0.00     0.082 A 
ATOM     15  C   UNL     1       0.745  44.987  54.363  1.00  0.00     0.226 A 
ATOM     16  C   UNL     1       0.600  43.987  52.376  1.00  0.00     0.165 A 
ATOM     17  C   UNL     1       2.137  43.062  51.093  1.00  0.00     0.149 A 
ATOM     18  N   UNL     1      -0.058  44.614  53.360  1.00  0.00    -0.193 NA
ATOM     19  N   UNL     1       0.073  43.476  51.220  1.00  0.00    -0.250 N 
ATOM     20  N   UNL     1       0.997  42.908  50.410  1.00  0.00    -0.179 NA
ATOM     21  C   UNL     1      -1.311  43.491  50.818  1.00  0.00     0.176 C 
BRANCH  15  22
ATOM     22  N   UNL     1       0.116  45.637  55.411  1.00  0.00    -0.351 N 
ATOM     23  H   UNL     1       0.728  45.622  56.217  1.00  0.00     0.163 HD
BRANCH  22  24
ATOM     24  C   UNL     1      -1.279  45.282  55.633  1.00  0.00     0.148 C 
BRANCH  24  25
ATOM     25  C   UNL     1      -1.671  45.483  57.112  1.00  0.00     0.137 C 
ATOM     26  C   UNL     1      -2.908  46.357  57.267  1.00  0.00     0.036 C 
ATOM     27  O   UNL     1      -0.617  46.163  57.824  1.00  0.00    -0.376 OA
ATOM     28  C   UNL     1      -2.322  47.743  57.367  1.00  0.00     0.031 C 
ATOM     29  C   UNL     1      -1.048  47.493  58.142  1.00  0.00     0.160 C 
ENDBRANCH  24  25
ENDBRANCH  22  24
ENDBRANCH  15  22
ENDBRANCH   1  12
TORSDOF 7
ENDMDL
