MODEL 1
REMARK VINA RESULT:    -8.688      0.000      0.000
REMARK INTER + INTRA:         -13.373
REMARK INTER:                 -12.243
REMARK INTRA:                  -1.130
REMARK UNBOUND:                -1.130
REMARK SMILES Cc1c(Cl)cccc1Nc1nc(NCCCNC=O)nc2c1cnn2C
REMARK SMILES IDX 13 1 12 3 10 4 11 5 22 6 21 7 23 8 20 9 25 10 24 11 26 12
REMARK SMILES IDX 9 13 8 15 2 16 3 17 5 18 7 19 6 20 1 21 4 22 14 23 15 24
REMARK SMILES IDX 16 25 17 26 18 27 19 29
REMARK H PARENT 13 2 9 14 17 28
ROOT
ATOM      1  N   UNL     1       2.910  42.766  53.120  1.00  0.00    -0.354 N 
ATOM      2  H   UNL     1       2.885  41.749  53.089  1.00  0.00     0.163 HD
ENDROOT
BRANCH   1   3
ATOM      3  C   UNL     1       3.932  43.111  52.240  1.00  0.00     0.226 A 
ATOM      4  C   UNL     1       5.548  44.752  51.751  1.00  0.00     0.147 A 
ATOM      5  N   UNL     1       4.540  44.275  52.529  1.00  0.00    -0.195 NA
ATOM      6  C   UNL     1       5.924  43.964  50.657  1.00  0.00     0.082 A 
ATOM      7  C   UNL     1       5.234  42.784  50.458  1.00  0.00     0.165 A 
ATOM      8  C   UNL     1       6.864  43.999  49.605  1.00  0.00     0.149 A 
ATOM      9  N   UNL     1       4.236  42.305  51.215  1.00  0.00    -0.193 NA
ATOM     10  N   UNL     1       5.777  42.212  49.340  1.00  0.00    -0.250 N 
ATOM     11  N   UNL     1       6.786  42.934  48.800  1.00  0.00    -0.179 NA
ATOM     12  C   UNL     1       5.384  40.969  48.725  1.00  0.00     0.176 C 
BRANCH   4  13
ATOM     13  N   UNL     1       6.210  45.952  52.054  1.00  0.00    -0.339 N 
ATOM     14  H   UNL     1       5.585  46.722  52.236  1.00  0.00     0.168 HD
BRANCH  13  15
ATOM     15  C   UNL     1       7.567  46.240  52.323  1.00  0.00     0.044 A 
ATOM     16  C   UNL     1       7.951  46.728  53.600  1.00  0.00    -0.009 A 
ATOM     17  C   UNL     1       9.317  46.983  53.853  1.00  0.00     0.046 A 
ATOM     18  C   UNL     1      10.277  46.827  52.853  1.00  0.00     0.021 A 
ATOM     19  C   UNL     1       8.554  46.116  51.331  1.00  0.00     0.026 A 
ATOM     20  C   UNL     1       9.894  46.403  51.588  1.00  0.00     0.004 A 
ATOM     21  C   UNL     1       6.923  46.930  54.687  1.00  0.00     0.048 C 
ATOM     22  Cl  UNL     1       9.889  47.488  55.408  1.00  0.00    -0.084 Cl
ENDBRANCH  13  15
ENDBRANCH   4  13
ENDBRANCH   1   3
BRANCH   1  23
ATOM     23  C   UNL     1       1.650  43.444  52.874  1.00  0.00     0.118 C 
BRANCH  23  24
ATOM     24  C   UNL     1       1.221  44.240  54.107  1.00  0.00     0.042 C 
BRANCH  24  25
ATOM     25  C   UNL     1       1.754  45.668  54.096  1.00  0.00     0.117 C 
BRANCH  25  26
ATOM     26  N   UNL     1       1.832  46.197  52.748  1.00  0.00    -0.359 N 
ATOM     27  C   UNL     1       2.778  47.131  52.412  1.00  0.00     0.337 C 
ATOM     28  H   UNL     1       1.048  46.073  52.119  1.00  0.00     0.163 HD
ATOM     29  O   UNL     1       3.667  47.542  53.142  1.00  0.00    -0.279 OA
ENDBRANCH  25  26
ENDBRANCH  24  25
ENDBRANCH  23  24
ENDBRANCH   1  23
TORSDOF 7
ENDMDL
MODEL 2
REMARK VINA RESULT:    -8.590      2.057      2.289
REMARK INTER + INTRA:         -13.235
REMARK INTER:                 -12.466
REMARK INTRA:                  -0.769
REMARK UNBOUND:                -1.130
REMARK SMILES Cc1c(Cl)cccc1Nc1nc(NCCCNC=O)nc2c1cnn2C
REMARK SMILES IDX 13 1 12 3 10 4 11 5 22 6 21 7 23 8 20 9 25 10 24 11 26 12
REMARK SMILES IDX 9 13 8 15 2 16 3 17 5 18 7 19 6 20 1 21 4 22 14 23 15 24
REMARK SMILES IDX 16 25 17 26 18 27 19 29
REMARK H PARENT 13 2 9 14 17 28
ROOT
ATOM      1  N   UNL     1       2.573  43.924  53.858  1.00  0.00    -0.354 N 
ATOM      2  H   UNL     1       1.700  43.767  53.361  1.00  0.00     0.163 HD
ENDROOT
BRANCH   1   3
ATOM      3  C   UNL     1       3.544  43.917  52.860  1.00  0.00     0.226 A 
ATOM      4  C   UNL     1       5.327  45.142  51.933  1.00  0.00     0.147 A 
ATOM      5  N   UNL     1       4.342  44.999  52.858  1.00  0.00    -0.195 NA
ATOM      6  C   UNL     1       5.474  44.104  51.005  1.00  0.00     0.082 A 
ATOM      7  C   UNL     1       4.601  43.038  51.104  1.00  0.00     0.165 A 
ATOM      8  C   UNL     1       6.300  43.778  49.909  1.00  0.00     0.149 A 
ATOM      9  N   UNL     1       3.623  42.887  52.008  1.00  0.00    -0.193 NA
ATOM     10  N   UNL     1       4.941  42.177  50.097  1.00  0.00    -0.250 N 
ATOM     11  N   UNL     1       5.987  42.603  49.351  1.00  0.00    -0.179 NA
ATOM     12  C   UNL     1       4.310  40.919  49.782  1.00  0.00     0.176 C 
BRANCH   4  13
ATOM     13  N   UNL     1       6.186  46.253  51.934  1.00  0.00    -0.339 N 
ATOM     14  H   UNL     1       5.703  47.135  51.858  1.00  0.00     0.168 HD
BRANCH  13  15
ATOM     15  C   UNL     1       7.569  46.377  52.196  1.00  0.00     0.044 A 
ATOM     16  C   UNL     1       8.015  46.788  53.480  1.00  0.00    -0.009 A 
ATOM     17  C   UNL     1       9.402  46.879  53.725  1.00  0.00     0.046 A 
ATOM     18  C   UNL     1      10.331  46.638  52.712  1.00  0.00     0.021 A 
ATOM     19  C   UNL     1       8.527  46.164  51.191  1.00  0.00     0.026 A 
ATOM     20  C   UNL     1       9.894  46.290  51.442  1.00  0.00     0.004 A 
ATOM     21  C   UNL     1       7.024  47.081  54.581  1.00  0.00     0.048 C 
ATOM     22  Cl  UNL     1      10.040  47.279  55.285  1.00  0.00    -0.084 Cl
ENDBRANCH  13  15
ENDBRANCH   4  13
ENDBRANCH   1   3
BRANCH   1  23
ATOM     23  C   UNL     1       2.614  45.084  54.730  1.00  0.00     0.118 C 
BRANCH  23  24
ATOM     24  C   UNL     1       1.202  45.472  55.171  1.00  0.00     0.042 C 
BRANCH  24  25
ATOM     25  C   UNL     1       0.941  45.156  56.639  1.00  0.00     0.117 C 
BRANCH  25  26
ATOM     26  N   UNL     1       1.661  46.058  57.516  1.00  0.00    -0.359 N 
ATOM     27  C   UNL     1       0.991  46.872  58.393  1.00  0.00     0.337 C 
ATOM     28  H   UNL     1       2.630  46.275  57.319  1.00  0.00     0.163 HD
ATOM     29  O   UNL     1      -0.215  46.873  58.587  1.00  0.00    -0.279 OA
ENDBRANCH  25  26
ENDBRANCH  24  25
ENDBRANCH  23  24
ENDBRANCH   1  23
TORSDOF 7
ENDMDL
MODEL 3
REMARK VINA RESULT:    -8.499      2.807      5.401
REMARK INTER + INTRA:         -13.107
REMARK INTER:                 -12.221
REMARK INTRA:                  -0.886
REMARK UNBOUND:                -1.130
REMARK SMILES Cc1c(Cl)cccc1Nc1nc(NCCCNC=O)nc2c1cnn2C
REMARK SMILES IDX 13 1 12 3 10 4 11 5 22 6 21 7 23 8 20 9 25 10 24 11 26 12
REMARK SMILES IDX 9 13 8 15 2 16 3 17 5 18 7 19 6 20 1 21 4 22 14 23 15 24
REMARK SMILES IDX 16 25 17 26 18 27 19 29
REMARK H PARENT 13 2 9 14 17 28
ROOT
ATOM      1  N   UNL     1       4.879  47.280  55.006  1.00  0.00    -0.354 N 
ATOM      2  H   UNL     1       5.173  47.083  55.959  1.00  0.00     0.163 HD
ENDROOT
BRANCH   1   3
ATOM      3  C   UNL     1       6.010  47.025  54.236  1.00  0.00     0.226 A 
ATOM      4  C   UNL     1       6.752  46.207  52.157  1.00  0.00     0.147 A 
ATOM      5  N   UNL     1       5.748  46.522  53.018  1.00  0.00    -0.195 NA
ATOM      6  C   UNL     1       8.058  46.451  52.599  1.00  0.00     0.082 A 
ATOM      7  C   UNL     1       8.210  46.975  53.868  1.00  0.00     0.165 A 
ATOM      8  C   UNL     1       9.377  46.317  52.117  1.00  0.00     0.149 A 
ATOM      9  N   UNL     1       7.229  47.285  54.727  1.00  0.00    -0.193 NA
ATOM     10  N   UNL     1       9.557  47.111  54.062  1.00  0.00    -0.250 N 
ATOM     11  N   UNL     1      10.298  46.721  52.998  1.00  0.00    -0.179 NA
ATOM     12  C   UNL     1      10.217  47.610  55.242  1.00  0.00     0.176 C 
BRANCH   4  13
ATOM     13  N   UNL     1       6.493  45.706  50.872  1.00  0.00    -0.339 N 
ATOM     14  H   UNL     1       6.467  46.419  50.159  1.00  0.00     0.168 HD
BRANCH  13  15
ATOM     15  C   UNL     1       6.438  44.388  50.366  1.00  0.00     0.044 A 
ATOM     16  C   UNL     1       5.351  43.540  50.707  1.00  0.00    -0.009 A 
ATOM     17  C   UNL     1       5.305  42.236  50.168  1.00  0.00     0.046 A 
ATOM     18  C   UNL     1       6.338  41.750  49.366  1.00  0.00     0.021 A 
ATOM     19  C   UNL     1       7.474  43.861  49.576  1.00  0.00     0.026 A 
ATOM     20  C   UNL     1       7.428  42.559  49.078  1.00  0.00     0.004 A 
ATOM     21  C   UNL     1       4.237  44.038  51.596  1.00  0.00     0.048 C 
ATOM     22  Cl  UNL     1       3.972  41.167  50.450  1.00  0.00    -0.084 Cl
ENDBRANCH  13  15
ENDBRANCH   4  13
ENDBRANCH   1   3
BRANCH   1  23
ATOM     23  C   UNL     1       3.678  46.603  54.554  1.00  0.00     0.118 C 
BRANCH  23  24
ATOM     24  C   UNL     1       3.447  45.324  55.361  1.00  0.00     0.042 C 
BRANCH  24  25
ATOM     25  C   UNL     1       1.973  44.948  55.452  1.00  0.00     0.117 C 
BRANCH  25  26
ATOM     26  N   UNL     1       1.634  43.893  54.517  1.00  0.00    -0.359 N 
ATOM     27  C   UNL     1       0.946  44.169  53.364  1.00  0.00     0.337 C 
ATOM     28  H   UNL     1       1.679  42.928  54.819  1.00  0.00     0.163 HD
ATOM     29  O   UNL     1       0.629  45.282  52.970  1.00  0.00    -0.279 OA
ENDBRANCH  25  26
ENDBRANCH  24  25
ENDBRANCH  23  24
ENDBRANCH   1  23
TORSDOF 7
ENDMDL
MODEL 4
REMARK VINA RESULT:    -8.444      1.442      1.614
REMARK INTER + INTRA:         -13.029
REMARK INTER:                 -11.771
REMARK INTRA:                  -1.258
REMARK UNBOUND:                -1.130
REMARK SMILES Cc1c(Cl)cccc1Nc1nc(NCCCNC=O)nc2c1cnn2C
REMARK SMILES IDX 13 1 12 3 10 4 11 5 22 6 21 7 23 8 20 9 25 10 24 11 26 12
REMARK SMILES IDX 9 13 8 15 2 16 3 17 5 18 7 19 6 20 1 21 4 22 14 23 15 24
REMARK SMILES IDX 16 25 17 26 18 27 19 29
REMARK H PARENT 13 2 9 14 17 28
ROOT
ATOM      1  N   UNL     1       2.569  43.879  53.807  1.00  0.00    -0.354 N 
ATOM      2  H   UNL     1       1.716  43.660  53.298  1.00  0.00     0.163 HD
ENDROOT
BRANCH   1   3
ATOM      3  C   UNL     1       3.559  43.896  52.829  1.00  0.00     0.226 A 
ATOM      4  C   UNL     1       5.329  45.164  51.934  1.00  0.00     0.147 A 
ATOM      5  N   UNL     1       4.328  44.998  52.839  1.00  0.00    -0.195 NA
ATOM      6  C   UNL     1       5.521  44.128  51.012  1.00  0.00     0.082 A 
ATOM      7  C   UNL     1       4.674  43.039  51.097  1.00  0.00     0.165 A 
ATOM      8  C   UNL     1       6.377  43.820  49.934  1.00  0.00     0.149 A 
ATOM      9  N   UNL     1       3.683  42.865  51.982  1.00  0.00    -0.193 NA
ATOM     10  N   UNL     1       5.057  42.184  50.100  1.00  0.00    -0.250 N 
ATOM     11  N   UNL     1       6.107  42.636  49.375  1.00  0.00    -0.179 NA
ATOM     12  C   UNL     1       4.467  40.910  49.778  1.00  0.00     0.176 C 
BRANCH   4  13
ATOM     13  N   UNL     1       6.157  46.297  51.948  1.00  0.00    -0.339 N 
ATOM     14  H   UNL     1       5.652  47.166  51.865  1.00  0.00     0.168 HD
BRANCH  13  15
ATOM     15  C   UNL     1       7.532  46.457  52.231  1.00  0.00     0.044 A 
ATOM     16  C   UNL     1       7.948  46.888  53.519  1.00  0.00    -0.009 A 
ATOM     17  C   UNL     1       9.328  47.016  53.785  1.00  0.00     0.046 A 
ATOM     18  C   UNL     1      10.279  46.791  52.788  1.00  0.00     0.021 A 
ATOM     19  C   UNL     1       8.512  46.262  51.243  1.00  0.00     0.026 A 
ATOM     20  C   UNL     1       9.870  46.423  51.514  1.00  0.00     0.004 A 
ATOM     21  C   UNL     1       6.933  47.165  54.602  1.00  0.00     0.048 C 
ATOM     22  Cl  UNL     1       9.931  47.443  55.351  1.00  0.00    -0.084 Cl
ENDBRANCH  13  15
ENDBRANCH   4  13
ENDBRANCH   1   3
BRANCH   1  23
ATOM     23  C   UNL     1       2.529  45.066  54.643  1.00  0.00     0.118 C 
BRANCH  23  24
ATOM     24  C   UNL     1       1.136  45.249  55.246  1.00  0.00     0.042 C 
BRANCH  24  25
ATOM     25  C   UNL     1       0.079  44.403  54.546  1.00  0.00     0.117 C 
BRANCH  25  26
ATOM     26  N   UNL     1      -0.741  45.203  53.657  1.00  0.00    -0.359 N 
ATOM     27  C   UNL     1      -0.466  45.272  52.316  1.00  0.00     0.337 C 
ATOM     28  H   UNL     1      -1.361  45.902  54.047  1.00  0.00     0.163 HD
ATOM     29  O   UNL     1       0.402  44.639  51.732  1.00  0.00    -0.279 OA
ENDBRANCH  25  26
ENDBRANCH  24  25
ENDBRANCH  23  24
ENDBRANCH   1  23
TORSDOF 7
ENDMDL
MODEL 5
REMARK VINA RESULT:    -8.369      3.265      5.639
REMARK INTER + INTRA:         -12.924
REMARK INTER:                 -12.102
REMARK INTRA:                  -0.822
REMARK UNBOUND:                -1.130
REMARK SMILES Cc1c(Cl)cccc1Nc1nc(NCCCNC=O)nc2c1cnn2C
REMARK SMILES IDX 13 1 12 3 10 4 11 5 22 6 21 7 23 8 20 9 25 10 24 11 26 12
REMARK SMILES IDX 9 13 8 15 2 16 3 17 5 18 7 19 6 20 1 21 4 22 14 23 15 24
REMARK SMILES IDX 16 25 17 26 18 27 19 29
REMARK H PARENT 13 2 9 14 17 28
ROOT
ATOM      1  N   UNL     1       4.360  46.649  55.324  1.00  0.00    -0.354 N 
ATOM      2  H   UNL     1       4.750  46.979  56.203  1.00  0.00     0.163 HD
ENDROOT
BRANCH   1   3
ATOM      3  C   UNL     1       5.445  46.627  54.452  1.00  0.00     0.226 A 
ATOM      4  C   UNL     1       6.138  46.001  52.291  1.00  0.00     0.147 A 
ATOM      5  N   UNL     1       5.174  46.103  53.245  1.00  0.00    -0.195 NA
ATOM      6  C   UNL     1       7.409  46.482  52.628  1.00  0.00     0.082 A 
ATOM      7  C   UNL     1       7.573  47.005  53.897  1.00  0.00     0.165 A 
ATOM      8  C   UNL     1       8.680  46.611  52.031  1.00  0.00     0.149 A 
ATOM      9  N   UNL     1       6.632  47.107  54.846  1.00  0.00    -0.193 NA
ATOM     10  N   UNL     1       8.882  47.393  53.979  1.00  0.00    -0.250 N 
ATOM     11  N   UNL     1       9.584  47.169  52.844  1.00  0.00    -0.179 NA
ATOM     12  C   UNL     1       9.539  47.990  55.115  1.00  0.00     0.176 C 
BRANCH   4  13
ATOM     13  N   UNL     1       5.864  45.480  51.017  1.00  0.00    -0.339 N 
ATOM     14  H   UNL     1       5.686  46.189  50.322  1.00  0.00     0.168 HD
BRANCH  13  15
ATOM     15  C   UNL     1       5.963  44.173  50.490  1.00  0.00     0.044 A 
ATOM     16  C   UNL     1       4.887  43.259  50.648  1.00  0.00    -0.009 A 
ATOM     17  C   UNL     1       4.999  41.968  50.089  1.00  0.00     0.046 A 
ATOM     18  C   UNL     1       6.169  41.557  49.449  1.00  0.00     0.021 A 
ATOM     19  C   UNL     1       7.135  43.722  49.861  1.00  0.00     0.026 A 
ATOM     20  C   UNL     1       7.241  42.431  49.343  1.00  0.00     0.004 A 
ATOM     21  C   UNL     1       3.624  43.675  51.363  1.00  0.00     0.048 C 
ATOM     22  Cl  UNL     1       3.703  40.821  50.150  1.00  0.00    -0.084 Cl
ENDBRANCH  13  15
ENDBRANCH   4  13
ENDBRANCH   1   3
BRANCH   1  23
ATOM     23  C   UNL     1       3.611  45.407  55.382  1.00  0.00     0.118 C 
BRANCH  23  24
ATOM     24  C   UNL     1       2.117  45.673  55.186  1.00  0.00     0.042 C 
BRANCH  24  25
ATOM     25  C   UNL     1       1.299  45.357  56.432  1.00  0.00     0.117 C 
BRANCH  25  26
ATOM     26  N   UNL     1       1.728  46.151  57.567  1.00  0.00    -0.359 N 
ATOM     27  C   UNL     1       0.816  46.817  58.345  1.00  0.00     0.337 C 
ATOM     28  H   UNL     1       2.700  46.420  57.647  1.00  0.00     0.163 HD
ATOM     29  O   UNL     1      -0.399  46.757  58.231  1.00  0.00    -0.279 OA
ENDBRANCH  25  26
ENDBRANCH  24  25
ENDBRANCH  23  24
ENDBRANCH   1  23
TORSDOF 7
ENDMDL
MODEL 6
REMARK VINA RESULT:    -8.332      1.562      2.077
REMARK INTER + INTRA:         -12.871
REMARK INTER:                 -11.424
REMARK INTRA:                  -1.447
REMARK UNBOUND:                -1.130
REMARK SMILES Cc1c(Cl)cccc1Nc1nc(NCCCNC=O)nc2c1cnn2C
REMARK SMILES IDX 13 1 12 3 10 4 11 5 22 6 21 7 23 8 20 9 25 10 24 11 26 12
REMARK SMILES IDX 9 13 8 15 2 16 3 17 5 18 7 19 6 20 1 21 4 22 14 23 15 24
REMARK SMILES IDX 16 25 17 26 18 27 19 29
REMARK H PARENT 13 2 9 14 17 28
ROOT
ATOM      1  N   UNL     1       2.232  45.878  51.829  1.00  0.00    -0.354 N 
ATOM      2  H   UNL     1       1.973  46.459  51.035  1.00  0.00     0.163 HD
ENDROOT
BRANCH   1   3
ATOM      3  C   UNL     1       3.379  45.211  51.409  1.00  0.00     0.226 A 
ATOM      4  C   UNL     1       5.644  45.496  50.836  1.00  0.00     0.147 A 
ATOM      5  N   UNL     1       4.454  46.002  51.256  1.00  0.00    -0.195 NA
ATOM      6  C   UNL     1       5.690  44.118  50.591  1.00  0.00     0.082 A 
ATOM      7  C   UNL     1       4.525  43.401  50.785  1.00  0.00     0.165 A 
ATOM      8  C   UNL     1       6.628  43.151  50.172  1.00  0.00     0.149 A 
ATOM      9  N   UNL     1       3.345  43.889  51.195  1.00  0.00    -0.193 NA
ATOM     10  N   UNL     1       4.824  42.103  50.477  1.00  0.00    -0.250 N 
ATOM     11  N   UNL     1       6.112  41.919  50.104  1.00  0.00    -0.179 NA
ATOM     12  C   UNL     1       3.929  40.974  50.516  1.00  0.00     0.176 C 
BRANCH   4  13
ATOM     13  N   UNL     1       6.783  46.304  50.697  1.00  0.00    -0.339 N 
ATOM     14  H   UNL     1       6.686  47.019  49.992  1.00  0.00     0.168 HD
BRANCH  13  15
ATOM     15  C   UNL     1       7.961  46.417  51.470  1.00  0.00     0.044 A 
ATOM     16  C   UNL     1       7.962  47.205  52.652  1.00  0.00    -0.009 A 
ATOM     17  C   UNL     1       9.143  47.281  53.421  1.00  0.00     0.046 A 
ATOM     18  C   UNL     1      10.318  46.653  53.004  1.00  0.00     0.021 A 
ATOM     19  C   UNL     1       9.164  45.817  51.065  1.00  0.00     0.026 A 
ATOM     20  C   UNL     1      10.331  45.929  51.821  1.00  0.00     0.004 A 
ATOM     21  C   UNL     1       6.709  47.915  53.104  1.00  0.00     0.048 C 
ATOM     22  Cl  UNL     1       9.212  48.138  54.924  1.00  0.00    -0.084 Cl
ENDBRANCH  13  15
ENDBRANCH   4  13
ENDBRANCH   1   3
BRANCH   1  23
ATOM     23  C   UNL     1       2.366  46.560  53.104  1.00  0.00     0.118 C 
BRANCH  23  24
ATOM     24  C   UNL     1       2.060  45.604  54.258  1.00  0.00     0.042 C 
BRANCH  24  25
ATOM     25  C   UNL     1       3.272  45.356  55.148  1.00  0.00     0.117 C 
BRANCH  25  26
ATOM     26  N   UNL     1       4.283  44.571  54.466  1.00  0.00    -0.359 N 
ATOM     27  C   UNL     1       5.616  44.776  54.710  1.00  0.00     0.337 C 
ATOM     28  H   UNL     1       4.031  44.048  53.637  1.00  0.00     0.163 HD
ATOM     29  O   UNL     1       6.081  45.541  55.542  1.00  0.00    -0.279 OA
ENDBRANCH  25  26
ENDBRANCH  24  25
ENDBRANCH  23  24
ENDBRANCH   1  23
TORSDOF 7
ENDMDL
MODEL 7
REMARK VINA RESULT:    -8.326      1.804      4.508
REMARK INTER + INTRA:         -12.864
REMARK INTER:                 -11.699
REMARK INTRA:                  -1.164
REMARK UNBOUND:                -1.130
REMARK SMILES Cc1c(Cl)cccc1Nc1nc(NCCCNC=O)nc2c1cnn2C
REMARK SMILES IDX 13 1 12 3 10 4 11 5 22 6 21 7 23 8 20 9 25 10 24 11 26 12
REMARK SMILES IDX 9 13 8 15 2 16 3 17 5 18 7 19 6 20 1 21 4 22 14 23 15 24
REMARK SMILES IDX 16 25 17 26 18 27 19 29
REMARK H PARENT 13 2 9 14 17 28
ROOT
ATOM      1  N   UNL     1       4.749  41.661  51.173  1.00  0.00    -0.354 N 
ATOM      2  H   UNL     1       5.713  41.849  50.911  1.00  0.00     0.163 HD
ENDROOT
BRANCH   1   3
ATOM      3  C   UNL     1       4.321  42.838  51.782  1.00  0.00     0.226 A 
ATOM      4  C   UNL     1       4.902  45.079  52.208  1.00  0.00     0.147 A 
ATOM      5  N   UNL     1       5.176  43.868  51.654  1.00  0.00    -0.195 NA
ATOM      6  C   UNL     1       3.689  45.196  52.896  1.00  0.00     0.082 A 
ATOM      7  C   UNL     1       2.886  44.073  52.960  1.00  0.00     0.165 A 
ATOM      8  C   UNL     1       2.968  46.181  53.603  1.00  0.00     0.149 A 
ATOM      9  N   UNL     1       3.146  42.874  52.421  1.00  0.00    -0.193 NA
ATOM     10  N   UNL     1       1.781  44.440  53.679  1.00  0.00    -0.250 N 
ATOM     11  N   UNL     1       1.802  45.732  54.081  1.00  0.00    -0.179 NA
ATOM     12  C   UNL     1       0.657  43.607  54.024  1.00  0.00     0.176 C 
BRANCH   4  13
ATOM     13  N   UNL     1       5.772  46.171  52.061  1.00  0.00    -0.339 N 
ATOM     14  H   UNL     1       5.295  47.055  51.968  1.00  0.00     0.168 HD
BRANCH  13  15
ATOM     15  C   UNL     1       7.174  46.287  52.195  1.00  0.00     0.044 A 
ATOM     16  C   UNL     1       7.736  46.737  53.419  1.00  0.00    -0.009 A 
ATOM     17  C   UNL     1       9.141  46.819  53.537  1.00  0.00     0.046 A 
ATOM     18  C   UNL     1       9.974  46.531  52.455  1.00  0.00     0.021 A 
ATOM     19  C   UNL     1       8.037  46.027  51.118  1.00  0.00     0.026 A 
ATOM     20  C   UNL     1       9.421  46.144  51.242  1.00  0.00     0.004 A 
ATOM     21  C   UNL     1       6.850  47.082  54.592  1.00  0.00     0.048 C 
ATOM     22  Cl  UNL     1       9.918  47.266  55.018  1.00  0.00    -0.084 Cl
ENDBRANCH  13  15
ENDBRANCH   4  13
ENDBRANCH   1   3
BRANCH   1  23
ATOM     23  C   UNL     1       3.879  41.182  50.114  1.00  0.00     0.118 C 
BRANCH  23  24
ATOM     24  C   UNL     1       4.644  41.093  48.792  1.00  0.00     0.042 C 
BRANCH  24  25
ATOM     25  C   UNL     1       6.133  41.369  48.959  1.00  0.00     0.117 C 
BRANCH  25  26
ATOM     26  N   UNL     1       6.529  42.587  48.279  1.00  0.00    -0.359 N 
ATOM     27  C   UNL     1       7.616  43.308  48.702  1.00  0.00     0.337 C 
ATOM     28  H   UNL     1       5.875  43.044  47.656  1.00  0.00     0.163 HD
ATOM     29  O   UNL     1       8.384  42.984  49.596  1.00  0.00    -0.279 OA
ENDBRANCH  25  26
ENDBRANCH  24  25
ENDBRANCH  23  24
ENDBRANCH   1  23
TORSDOF 7
ENDMDL
MODEL 8
REMARK VINA RESULT:    -8.314      2.439      4.990
REMARK INTER + INTRA:         -12.846
REMARK INTER:                 -11.977
REMARK INTRA:                  -0.869
REMARK UNBOUND:                -1.130
REMARK SMILES Cc1c(Cl)cccc1Nc1nc(NCCCNC=O)nc2c1cnn2C
REMARK SMILES IDX 13 1 12 3 10 4 11 5 22 6 21 7 23 8 20 9 25 10 24 11 26 12
REMARK SMILES IDX 9 13 8 15 2 16 3 17 5 18 7 19 6 20 1 21 4 22 14 23 15 24
REMARK SMILES IDX 16 25 17 26 18 27 19 29
REMARK H PARENT 13 2 9 14 17 28
ROOT
ATOM      1  N   UNL     1       4.820  41.835  50.795  1.00  0.00    -0.354 N 
ATOM      2  H   UNL     1       4.836  41.077  51.473  1.00  0.00     0.163 HD
ENDROOT
BRANCH   1   3
ATOM      3  C   UNL     1       4.457  42.954  51.539  1.00  0.00     0.226 A 
ATOM      4  C   UNL     1       5.120  45.128  52.153  1.00  0.00     0.147 A 
ATOM      5  N   UNL     1       5.331  43.972  51.468  1.00  0.00    -0.195 NA
ATOM      6  C   UNL     1       3.947  45.202  52.914  1.00  0.00     0.082 A 
ATOM      7  C   UNL     1       3.118  44.097  52.910  1.00  0.00     0.165 A 
ATOM      8  C   UNL     1       3.291  46.127  53.753  1.00  0.00     0.149 A 
ATOM      9  N   UNL     1       3.317  42.952  52.242  1.00  0.00    -0.193 NA
ATOM     10  N   UNL     1       2.063  44.413  53.720  1.00  0.00    -0.250 N 
ATOM     11  N   UNL     1       2.139  45.658  54.246  1.00  0.00    -0.179 NA
ATOM     12  C   UNL     1       0.935  43.575  54.041  1.00  0.00     0.176 C 
BRANCH   4  13
ATOM     13  N   UNL     1       6.010  46.210  52.068  1.00  0.00    -0.339 N 
ATOM     14  H   UNL     1       5.551  47.107  52.036  1.00  0.00     0.168 HD
BRANCH  13  15
ATOM     15  C   UNL     1       7.415  46.289  52.196  1.00  0.00     0.044 A 
ATOM     16  C   UNL     1       7.995  46.729  53.415  1.00  0.00    -0.009 A 
ATOM     17  C   UNL     1       9.402  46.774  53.526  1.00  0.00     0.046 A 
ATOM     18  C   UNL     1      10.222  46.460  52.442  1.00  0.00     0.021 A 
ATOM     19  C   UNL     1       8.266  46.002  51.116  1.00  0.00     0.026 A 
ATOM     20  C   UNL     1       9.654  46.083  51.233  1.00  0.00     0.004 A 
ATOM     21  C   UNL     1       7.124  47.102  54.591  1.00  0.00     0.048 C 
ATOM     22  Cl  UNL     1      10.197  47.207  55.003  1.00  0.00    -0.084 Cl
ENDBRANCH  13  15
ENDBRANCH   4  13
ENDBRANCH   1   3
BRANCH   1  23
ATOM     23  C   UNL     1       6.021  42.006  49.997  1.00  0.00     0.118 C 
BRANCH  23  24
ATOM     24  C   UNL     1       5.771  41.574  48.552  1.00  0.00     0.042 C 
BRANCH  24  25
ATOM     25  C   UNL     1       4.479  40.781  48.395  1.00  0.00     0.117 C 
BRANCH  25  26
ATOM     26  N   UNL     1       4.202  40.484  47.003  1.00  0.00    -0.359 N 
ATOM     27  C   UNL     1       3.264  39.546  46.656  1.00  0.00     0.337 C 
ATOM     28  H   UNL     1       4.859  40.778  46.291  1.00  0.00     0.163 HD
ATOM     29  O   UNL     1       2.536  38.944  47.431  1.00  0.00    -0.279 OA
ENDBRANCH  25  26
ENDBRANCH  24  25
ENDBRANCH  23  24
ENDBRANCH   1  23
TORSDOF 7
ENDMDL
MODEL 9
REMARK VINA RESULT:    -8.288      2.700      5.331
REMARK INTER + INTRA:         -12.809
REMARK INTER:                 -11.886
REMARK INTRA:                  -0.923
REMARK UNBOUND:                -1.130
REMARK SMILES Cc1c(Cl)cccc1Nc1nc(NCCCNC=O)nc2c1cnn2C
REMARK SMILES IDX 13 1 12 3 10 4 11 5 22 6 21 7 23 8 20 9 25 10 24 11 26 12
REMARK SMILES IDX 9 13 8 15 2 16 3 17 5 18 7 19 6 20 1 21 4 22 14 23 15 24
REMARK SMILES IDX 16 25 17 26 18 27 19 29
REMARK H PARENT 13 2 9 14 17 28
ROOT
ATOM      1  N   UNL     1       4.302  41.492  50.911  1.00  0.00    -0.354 N 
ATOM      2  H   UNL     1       4.228  40.780  51.633  1.00  0.00     0.163 HD
ENDROOT
BRANCH   1   3
ATOM      3  C   UNL     1       3.925  42.670  51.549  1.00  0.00     0.226 A 
ATOM      4  C   UNL     1       4.556  44.902  51.951  1.00  0.00     0.147 A 
ATOM      5  N   UNL     1       4.782  43.691  51.376  1.00  0.00    -0.195 NA
ATOM      6  C   UNL     1       3.386  45.029  52.710  1.00  0.00     0.082 A 
ATOM      7  C   UNL     1       2.576  43.915  52.816  1.00  0.00     0.165 A 
ATOM      8  C   UNL     1       2.720  46.018  53.463  1.00  0.00     0.149 A 
ATOM      9  N   UNL     1       2.790  42.716  52.258  1.00  0.00    -0.193 NA
ATOM     10  N   UNL     1       1.521  44.290  53.602  1.00  0.00    -0.250 N 
ATOM     11  N   UNL     1       1.580  45.580  54.007  1.00  0.00    -0.179 NA
ATOM     12  C   UNL     1       0.409  43.467  54.009  1.00  0.00     0.176 C 
BRANCH   4  13
ATOM     13  N   UNL     1       5.427  45.986  51.757  1.00  0.00    -0.339 N 
ATOM     14  H   UNL     1       5.039  46.716  51.180  1.00  0.00     0.168 HD
BRANCH  13  15
ATOM     15  C   UNL     1       6.662  46.323  52.356  1.00  0.00     0.044 A 
ATOM     16  C   UNL     1       7.880  46.030  51.686  1.00  0.00    -0.009 A 
ATOM     17  C   UNL     1       9.100  46.401  52.292  1.00  0.00     0.046 A 
ATOM     18  C   UNL     1       9.128  46.983  53.560  1.00  0.00     0.021 A 
ATOM     19  C   UNL     1       6.724  46.888  53.640  1.00  0.00     0.026 A 
ATOM     20  C   UNL     1       7.941  47.218  54.238  1.00  0.00     0.004 A 
ATOM     21  C   UNL     1       7.871  45.374  50.326  1.00  0.00     0.048 C 
ATOM     22  Cl  UNL     1      10.627  46.171  51.508  1.00  0.00    -0.084 Cl
ENDBRANCH  13  15
ENDBRANCH   4  13
ENDBRANCH   1   3
BRANCH   1  23
ATOM     23  C   UNL     1       5.573  41.566  50.213  1.00  0.00     0.118 C 
BRANCH  23  24
ATOM     24  C   UNL     1       5.399  41.184  48.742  1.00  0.00     0.042 C 
BRANCH  24  25
ATOM     25  C   UNL     1       4.021  40.603  48.448  1.00  0.00     0.117 C 
BRANCH  25  26
ATOM     26  N   UNL     1       3.898  40.201  47.060  1.00  0.00    -0.359 N 
ATOM     27  C   UNL     1       3.137  39.116  46.706  1.00  0.00     0.337 C 
ATOM     28  H   UNL     1       4.558  40.555  46.379  1.00  0.00     0.163 HD
ATOM     29  O   UNL     1       2.447  38.451  47.464  1.00  0.00    -0.279 OA
ENDBRANCH  25  26
ENDBRANCH  24  25
ENDBRANCH  23  24
ENDBRANCH   1  23
TORSDOF 7
ENDMDL
MODEL 10
REMARK VINA RESULT:    -8.161      3.013      5.420
REMARK INTER + INTRA:         -12.631
REMARK INTER:                 -11.876
REMARK INTRA:                  -0.755
REMARK UNBOUND:                -1.130
REMARK SMILES Cc1c(Cl)cccc1Nc1nc(NCCCNC=O)nc2c1cnn2C
REMARK SMILES IDX 13 1 12 3 10 4 11 5 22 6 21 7 23 8 20 9 25 10 24 11 26 12
REMARK SMILES IDX 9 13 8 15 2 16 3 17 5 18 7 19 6 20 1 21 4 22 14 23 15 24
REMARK SMILES IDX 16 25 17 26 18 27 19 29
REMARK H PARENT 13 2 9 14 17 28
ROOT
ATOM      1  N   UNL     1       5.953  41.373  49.245  1.00  0.00    -0.354 N 
ATOM      2  H   UNL     1       6.940  41.587  49.126  1.00  0.00     0.163 HD
ENDROOT
BRANCH   1   3
ATOM      3  C   UNL     1       5.479  42.382  50.079  1.00  0.00     0.226 A 
ATOM      4  C   UNL     1       5.921  44.550  50.882  1.00  0.00     0.147 A 
ATOM      5  N   UNL     1       6.247  43.485  50.102  1.00  0.00    -0.195 NA
ATOM      6  C   UNL     1       4.746  44.442  51.636  1.00  0.00     0.082 A 
ATOM      7  C   UNL     1       4.033  43.263  51.531  1.00  0.00     0.165 A 
ATOM      8  C   UNL     1       4.001  45.220  52.546  1.00  0.00     0.149 A 
ATOM      9  N   UNL     1       4.346  42.205  50.770  1.00  0.00    -0.193 NA
ATOM     10  N   UNL     1       2.951  43.402  52.357  1.00  0.00    -0.250 N 
ATOM     11  N   UNL     1       2.902  44.598  52.987  1.00  0.00    -0.179 NA
ATOM     12  C   UNL     1       1.914  42.430  52.596  1.00  0.00     0.176 C 
BRANCH   4  13
ATOM     13  N   UNL     1       6.697  45.719  50.897  1.00  0.00    -0.339 N 
ATOM     14  H   UNL     1       6.247  46.508  50.457  1.00  0.00     0.168 HD
BRANCH  13  15
ATOM     15  C   UNL     1       7.903  46.044  51.560  1.00  0.00     0.044 A 
ATOM     16  C   UNL     1       7.877  46.857  52.724  1.00  0.00    -0.009 A 
ATOM     17  C   UNL     1       9.092  47.145  53.384  1.00  0.00     0.046 A 
ATOM     18  C   UNL     1      10.313  46.702  52.874  1.00  0.00     0.021 A 
ATOM     19  C   UNL     1       9.149  45.633  51.058  1.00  0.00     0.026 A 
ATOM     20  C   UNL     1      10.342  45.954  51.705  1.00  0.00     0.004 A 
ATOM     21  C   UNL     1       6.568  47.369  53.276  1.00  0.00     0.048 C 
ATOM     22  Cl  UNL     1       9.148  48.047  54.861  1.00  0.00    -0.084 Cl
ENDBRANCH  13  15
ENDBRANCH   4  13
ENDBRANCH   1   3
BRANCH   1  23
ATOM     23  C   UNL     1       5.186  41.190  48.026  1.00  0.00     0.118 C 
BRANCH  23  24
ATOM     24  C   UNL     1       5.843  41.935  46.863  1.00  0.00     0.042 C 
BRANCH  24  25
ATOM     25  C   UNL     1       5.070  41.781  45.559  1.00  0.00     0.117 C 
BRANCH  25  26
ATOM     26  N   UNL     1       5.083  40.408  45.091  1.00  0.00    -0.359 N 
ATOM     27  C   UNL     1       5.508  40.100  43.824  1.00  0.00     0.337 C 
ATOM     28  H   UNL     1       4.555  39.706  45.594  1.00  0.00     0.163 HD
ATOM     29  O   UNL     1       5.977  40.889  43.017  1.00  0.00    -0.279 OA
ENDBRANCH  25  26
ENDBRANCH  24  25
ENDBRANCH  23  24
ENDBRANCH   1  23
TORSDOF 7
ENDMDL
MODEL 11
REMARK VINA RESULT:    -8.140      2.730      6.439
REMARK INTER + INTRA:         -12.601
REMARK INTER:                 -11.858
REMARK INTRA:                  -0.743
REMARK UNBOUND:                -1.130
REMARK SMILES Cc1c(Cl)cccc1Nc1nc(NCCCNC=O)nc2c1cnn2C
REMARK SMILES IDX 13 1 12 3 10 4 11 5 22 6 21 7 23 8 20 9 25 10 24 11 26 12
REMARK SMILES IDX 9 13 8 15 2 16 3 17 5 18 7 19 6 20 1 21 4 22 14 23 15 24
REMARK SMILES IDX 16 25 17 26 18 27 19 29
REMARK H PARENT 13 2 9 14 17 28
ROOT
ATOM      1  N   UNL     1       5.723  46.769  54.959  1.00  0.00    -0.354 N 
ATOM      2  H   UNL     1       5.485  47.755  54.876  1.00  0.00     0.163 HD
ENDROOT
BRANCH   1   3
ATOM      3  C   UNL     1       4.545  46.102  54.635  1.00  0.00     0.226 A 
ATOM      4  C   UNL     1       3.467  44.852  52.957  1.00  0.00     0.147 A 
ATOM      5  N   UNL     1       4.552  45.528  53.420  1.00  0.00    -0.195 NA
ATOM      6  C   UNL     1       2.362  44.776  53.813  1.00  0.00     0.082 A 
ATOM      7  C   UNL     1       2.467  45.400  55.041  1.00  0.00     0.165 A 
ATOM      8  C   UNL     1       1.067  44.217  53.816  1.00  0.00     0.149 A 
ATOM      9  N   UNL     1       3.530  46.071  55.507  1.00  0.00    -0.193 NA
ATOM     10  N   UNL     1       1.274  45.190  55.675  1.00  0.00    -0.250 N 
ATOM     11  N   UNL     1       0.397  44.459  54.948  1.00  0.00    -0.179 NA
ATOM     12  C   UNL     1       0.895  45.656  56.985  1.00  0.00     0.176 C 
BRANCH   4  13
ATOM     13  N   UNL     1       3.468  44.225  51.701  1.00  0.00    -0.339 N 
ATOM     14  H   UNL     1       2.736  44.549  51.088  1.00  0.00     0.168 HD
BRANCH  13  15
ATOM     15  C   UNL     1       4.397  43.361  51.078  1.00  0.00     0.044 A 
ATOM     16  C   UNL     1       5.554  43.895  50.451  1.00  0.00    -0.009 A 
ATOM     17  C   UNL     1       6.481  43.010  49.859  1.00  0.00     0.046 A 
ATOM     18  C   UNL     1       6.244  41.636  49.822  1.00  0.00     0.021 A 
ATOM     19  C   UNL     1       4.176  41.976  51.004  1.00  0.00     0.026 A 
ATOM     20  C   UNL     1       5.087  41.119  50.386  1.00  0.00     0.004 A 
ATOM     21  C   UNL     1       5.814  45.383  50.455  1.00  0.00     0.048 C 
ATOM     22  Cl  UNL     1       7.964  43.563  49.155  1.00  0.00    -0.084 Cl
ENDBRANCH  13  15
ENDBRANCH   4  13
ENDBRANCH   1   3
BRANCH   1  23
ATOM     23  C   UNL     1       6.889  46.328  54.216  1.00  0.00     0.118 C 
BRANCH  23  24
ATOM     24  C   UNL     1       8.103  47.191  54.561  1.00  0.00     0.042 C 
BRANCH  24  25
ATOM     25  C   UNL     1       8.766  47.789  53.326  1.00  0.00     0.117 C 
BRANCH  25  26
ATOM     26  N   UNL     1      10.032  47.144  53.035  1.00  0.00    -0.359 N 
ATOM     27  C   UNL     1      10.131  46.199  52.047  1.00  0.00     0.337 C 
ATOM     28  H   UNL     1      10.785  47.201  53.710  1.00  0.00     0.163 HD
ATOM     29  O   UNL     1       9.236  45.867  51.284  1.00  0.00    -0.279 OA
ENDBRANCH  25  26
ENDBRANCH  24  25
ENDBRANCH  23  24
ENDBRANCH   1  23
TORSDOF 7
ENDMDL
MODEL 12
REMARK VINA RESULT:    -8.077      3.614      7.389
REMARK INTER + INTRA:         -12.511
REMARK INTER:                 -11.542
REMARK INTRA:                  -0.970
REMARK UNBOUND:                -1.130
REMARK SMILES Cc1c(Cl)cccc1Nc1nc(NCCCNC=O)nc2c1cnn2C
REMARK SMILES IDX 13 1 12 3 10 4 11 5 22 6 21 7 23 8 20 9 25 10 24 11 26 12
REMARK SMILES IDX 9 13 8 15 2 16 3 17 5 18 7 19 6 20 1 21 4 22 14 23 15 24
REMARK SMILES IDX 16 25 17 26 18 27 19 29
REMARK H PARENT 13 2 9 14 17 28
ROOT
ATOM      1  N   UNL     1       7.713  45.441  50.411  1.00  0.00    -0.354 N 
ATOM      2  H   UNL     1       8.515  44.846  50.221  1.00  0.00     0.163 HD
ENDROOT
BRANCH   1   3
ATOM      3  C   UNL     1       6.667  44.549  50.631  1.00  0.00     0.226 A 
ATOM      4  C   UNL     1       5.662  42.566  49.856  1.00  0.00     0.147 A 
ATOM      5  N   UNL     1       6.635  43.513  49.776  1.00  0.00    -0.195 NA
ATOM      6  C   UNL     1       4.718  42.720  50.879  1.00  0.00     0.082 A 
ATOM      7  C   UNL     1       4.851  43.821  51.703  1.00  0.00     0.165 A 
ATOM      8  C   UNL     1       3.579  42.050  51.373  1.00  0.00     0.149 A 
ATOM      9  N   UNL     1       5.803  44.762  51.632  1.00  0.00    -0.193 NA
ATOM     10  N   UNL     1       3.820  43.748  52.599  1.00  0.00    -0.250 N 
ATOM     11  N   UNL     1       3.027  42.666  52.424  1.00  0.00    -0.179 NA
ATOM     12  C   UNL     1       3.527  44.679  53.660  1.00  0.00     0.176 C 
BRANCH   4  13
ATOM     13  N   UNL     1       5.630  41.465  48.987  1.00  0.00    -0.339 N 
ATOM     14  H   UNL     1       5.924  40.602  49.420  1.00  0.00     0.168 HD
BRANCH  13  15
ATOM     15  C   UNL     1       5.103  41.303  47.686  1.00  0.00     0.044 A 
ATOM     16  C   UNL     1       4.006  40.429  47.466  1.00  0.00    -0.009 A 
ATOM     17  C   UNL     1       3.480  40.305  46.162  1.00  0.00     0.046 A 
ATOM     18  C   UNL     1       4.062  40.973  45.083  1.00  0.00     0.021 A 
ATOM     19  C   UNL     1       5.681  41.943  46.577  1.00  0.00     0.026 A 
ATOM     20  C   UNL     1       5.169  41.784  45.289  1.00  0.00     0.004 A 
ATOM     21  C   UNL     1       3.380  39.676  48.616  1.00  0.00     0.048 C 
ATOM     22  Cl  UNL     1       2.086  39.338  45.817  1.00  0.00    -0.084 Cl
ENDBRANCH  13  15
ENDBRANCH   4  13
ENDBRANCH   1   3
BRANCH   1  23
ATOM     23  C   UNL     1       7.886  46.434  51.456  1.00  0.00     0.118 C 
BRANCH  23  24
ATOM     24  C   UNL     1       9.371  46.646  51.752  1.00  0.00     0.042 C 
BRANCH  24  25
ATOM     25  C   UNL     1       9.762  46.172  53.147  1.00  0.00     0.117 C 
BRANCH  25  26
ATOM     26  N   UNL     1      10.107  47.284  54.011  1.00  0.00    -0.359 N 
ATOM     27  C   UNL     1       9.149  47.912  54.766  1.00  0.00     0.337 C 
ATOM     28  H   UNL     1      10.990  47.761  53.881  1.00  0.00     0.163 HD
ATOM     29  O   UNL     1       7.978  47.575  54.858  1.00  0.00    -0.279 OA
ENDBRANCH  25  26
ENDBRANCH  24  25
ENDBRANCH  23  24
ENDBRANCH   1  23
TORSDOF 7
ENDMDL
MODEL 13
REMARK VINA RESULT:    -8.070      2.505      5.015
REMARK INTER + INTRA:         -12.502
REMARK INTER:                 -11.822
REMARK INTRA:                  -0.680
REMARK UNBOUND:                -1.130
REMARK SMILES Cc1c(Cl)cccc1Nc1nc(NCCCNC=O)nc2c1cnn2C
REMARK SMILES IDX 13 1 12 3 10 4 11 5 22 6 21 7 23 8 20 9 25 10 24 11 26 12
REMARK SMILES IDX 9 13 8 15 2 16 3 17 5 18 7 19 6 20 1 21 4 22 14 23 15 24
REMARK SMILES IDX 16 25 17 26 18 27 19 29
REMARK H PARENT 13 2 9 14 17 28
ROOT
ATOM      1  N   UNL     1       3.933  41.158  50.853  1.00  0.00    -0.354 N 
ATOM      2  H   UNL     1       4.725  40.976  51.464  1.00  0.00     0.163 HD
ENDROOT
BRANCH   1   3
ATOM      3  C   UNL     1       3.438  42.385  51.287  1.00  0.00     0.226 A 
ATOM      4  C   UNL     1       4.032  44.427  52.295  1.00  0.00     0.147 A 
ATOM      5  N   UNL     1       4.367  43.200  51.814  1.00  0.00    -0.195 NA
ATOM      6  C   UNL     1       2.685  44.795  52.196  1.00  0.00     0.082 A 
ATOM      7  C   UNL     1       1.818  43.878  51.633  1.00  0.00     0.165 A 
ATOM      8  C   UNL     1       1.866  45.897  52.519  1.00  0.00     0.149 A 
ATOM      9  N   UNL     1       2.135  42.665  51.159  1.00  0.00    -0.193 NA
ATOM     10  N   UNL     1       0.582  44.463  51.658  1.00  0.00    -0.250 N 
ATOM     11  N   UNL     1       0.583  45.707  52.191  1.00  0.00    -0.179 NA
ATOM     12  C   UNL     1      -0.656  43.893  51.188  1.00  0.00     0.176 C 
BRANCH   4  13
ATOM     13  N   UNL     1       4.995  45.301  52.823  1.00  0.00    -0.339 N 
ATOM     14  H   UNL     1       4.763  45.649  53.741  1.00  0.00     0.168 HD
BRANCH  13  15
ATOM     15  C   UNL     1       6.296  45.645  52.392  1.00  0.00     0.044 A 
ATOM     16  C   UNL     1       7.190  46.300  53.281  1.00  0.00    -0.009 A 
ATOM     17  C   UNL     1       8.493  46.609  52.835  1.00  0.00     0.046 A 
ATOM     18  C   UNL     1       8.890  46.342  51.524  1.00  0.00     0.021 A 
ATOM     19  C   UNL     1       6.717  45.411  51.073  1.00  0.00     0.026 A 
ATOM     20  C   UNL     1       7.999  45.752  50.640  1.00  0.00     0.004 A 
ATOM     21  C   UNL     1       6.769  46.623  54.695  1.00  0.00     0.048 C 
ATOM     22  Cl  UNL     1       9.680  47.321  53.877  1.00  0.00    -0.084 Cl
ENDBRANCH  13  15
ENDBRANCH   4  13
ENDBRANCH   1   3
BRANCH   1  23
ATOM     23  C   UNL     1       4.195  41.086  49.427  1.00  0.00     0.118 C 
BRANCH  23  24
ATOM     24  C   UNL     1       5.650  41.449  49.130  1.00  0.00     0.042 C 
BRANCH  24  25
ATOM     25  C   UNL     1       5.860  41.887  47.685  1.00  0.00     0.117 C 
BRANCH  25  26
ATOM     26  N   UNL     1       5.166  41.015  46.758  1.00  0.00    -0.359 N 
ATOM     27  C   UNL     1       4.859  41.437  45.490  1.00  0.00     0.337 C 
ATOM     28  H   UNL     1       4.688  40.194  47.109  1.00  0.00     0.163 HD
ATOM     29  O   UNL     1       5.187  42.504  44.993  1.00  0.00    -0.279 OA
ENDBRANCH  25  26
ENDBRANCH  24  25
ENDBRANCH  23  24
ENDBRANCH   1  23
TORSDOF 7
ENDMDL
MODEL 14
REMARK VINA RESULT:    -7.932      2.649      5.313
REMARK INTER + INTRA:         -12.308
REMARK INTER:                 -11.810
REMARK INTRA:                  -0.498
REMARK UNBOUND:                -1.130
REMARK SMILES Cc1c(Cl)cccc1Nc1nc(NCCCNC=O)nc2c1cnn2C
REMARK SMILES IDX 13 1 12 3 10 4 11 5 22 6 21 7 23 8 20 9 25 10 24 11 26 12
REMARK SMILES IDX 9 13 8 15 2 16 3 17 5 18 7 19 6 20 1 21 4 22 14 23 15 24
REMARK SMILES IDX 16 25 17 26 18 27 19 29
REMARK H PARENT 13 2 9 14 17 28
ROOT
ATOM      1  N   UNL     1       3.650  41.547  50.832  1.00  0.00    -0.354 N 
ATOM      2  H   UNL     1       3.312  40.698  51.278  1.00  0.00     0.163 HD
ENDROOT
BRANCH   1   3
ATOM      3  C   UNL     1       3.270  42.567  51.700  1.00  0.00     0.226 A 
ATOM      4  C   UNL     1       3.995  44.552  52.737  1.00  0.00     0.147 A 
ATOM      5  N   UNL     1       4.214  43.501  51.902  1.00  0.00    -0.195 NA
ATOM      6  C   UNL     1       2.739  44.613  53.353  1.00  0.00     0.082 A 
ATOM      7  C   UNL     1       1.844  43.600  53.069  1.00  0.00     0.165 A 
ATOM      8  C   UNL     1       2.044  45.453  54.248  1.00  0.00     0.149 A 
ATOM      9  N   UNL     1       2.050  42.558  52.252  1.00  0.00    -0.193 NA
ATOM     10  N   UNL     1       0.715  43.882  53.788  1.00  0.00    -0.250 N 
ATOM     11  N   UNL     1       0.807  45.019  54.516  1.00  0.00    -0.179 NA
ATOM     12  C   UNL     1      -0.501  43.108  53.831  1.00  0.00     0.176 C 
BRANCH   4  13
ATOM     13  N   UNL     1       4.961  45.550  52.937  1.00  0.00    -0.339 N 
ATOM     14  H   UNL     1       4.754  46.161  53.713  1.00  0.00     0.168 HD
BRANCH  13  15
ATOM     15  C   UNL     1       6.242  45.751  52.375  1.00  0.00     0.044 A 
ATOM     16  C   UNL     1       7.265  46.372  53.140  1.00  0.00    -0.009 A 
ATOM     17  C   UNL     1       8.544  46.537  52.566  1.00  0.00     0.046 A 
ATOM     18  C   UNL     1       8.795  46.163  51.246  1.00  0.00     0.021 A 
ATOM     19  C   UNL     1       6.520  45.407  51.042  1.00  0.00     0.026 A 
ATOM     20  C   UNL     1       7.781  45.607  50.480  1.00  0.00     0.004 A 
ATOM     21  C   UNL     1       7.003  46.810  54.562  1.00  0.00     0.048 C 
ATOM     22  Cl  UNL     1       9.876  47.197  53.455  1.00  0.00    -0.084 Cl
ENDBRANCH  13  15
ENDBRANCH   4  13
ENDBRANCH   1   3
BRANCH   1  23
ATOM     23  C   UNL     1       5.054  41.562  50.464  1.00  0.00     0.118 C 
BRANCH  23  24
ATOM     24  C   UNL     1       5.229  41.157  49.000  1.00  0.00     0.042 C 
BRANCH  24  25
ATOM     25  C   UNL     1       3.959  40.564  48.402  1.00  0.00     0.117 C 
BRANCH  25  26
ATOM     26  N   UNL     1       4.088  40.361  46.972  1.00  0.00    -0.359 N 
ATOM     27  C   UNL     1       3.181  39.595  46.285  1.00  0.00     0.337 C 
ATOM     28  H   UNL     1       4.968  40.569  46.517  1.00  0.00     0.163 HD
ATOM     29  O   UNL     1       2.170  39.093  46.754  1.00  0.00    -0.279 OA
ENDBRANCH  25  26
ENDBRANCH  24  25
ENDBRANCH  23  24
ENDBRANCH   1  23
TORSDOF 7
ENDMDL
MODEL 15
REMARK VINA RESULT:    -7.918      3.061      6.669
REMARK INTER + INTRA:         -12.287
REMARK INTER:                 -11.018
REMARK INTRA:                  -1.269
REMARK UNBOUND:                -1.130
REMARK SMILES Cc1c(Cl)cccc1Nc1nc(NCCCNC=O)nc2c1cnn2C
REMARK SMILES IDX 13 1 12 3 10 4 11 5 22 6 21 7 23 8 20 9 25 10 24 11 26 12
REMARK SMILES IDX 9 13 8 15 2 16 3 17 5 18 7 19 6 20 1 21 4 22 14 23 15 24
REMARK SMILES IDX 16 25 17 26 18 27 19 29
REMARK H PARENT 13 2 9 14 17 28
ROOT
ATOM      1  N   UNL     1       7.072  46.663  51.882  1.00  0.00    -0.354 N 
ATOM      2  H   UNL     1       6.649  47.570  51.702  1.00  0.00     0.163 HD
ENDROOT
BRANCH   1   3
ATOM      3  C   UNL     1       6.019  45.761  51.756  1.00  0.00     0.226 A 
ATOM      4  C   UNL     1       3.724  45.446  52.173  1.00  0.00     0.147 A 
ATOM      5  N   UNL     1       4.842  46.219  52.214  1.00  0.00    -0.195 NA
ATOM      6  C   UNL     1       3.863  44.168  51.617  1.00  0.00     0.082 A 
ATOM      7  C   UNL     1       5.120  43.804  51.174  1.00  0.00     0.165 A 
ATOM      8  C   UNL     1       3.058  43.042  51.346  1.00  0.00     0.149 A 
ATOM      9  N   UNL     1       6.230  44.555  51.213  1.00  0.00    -0.193 NA
ATOM     10  N   UNL     1       4.996  42.531  50.690  1.00  0.00    -0.250 N 
ATOM     11  N   UNL     1       3.737  42.041  50.776  1.00  0.00    -0.179 NA
ATOM     12  C   UNL     1       6.039  41.713  50.124  1.00  0.00     0.176 C 
BRANCH   4  13
ATOM     13  N   UNL     1       2.481  45.919  52.622  1.00  0.00    -0.339 N 
ATOM     14  H   UNL     1       2.052  46.582  51.995  1.00  0.00     0.168 HD
BRANCH  13  15
ATOM     15  C   UNL     1       1.647  45.515  53.689  1.00  0.00     0.044 A 
ATOM     16  C   UNL     1       0.320  45.080  53.429  1.00  0.00    -0.009 A 
ATOM     17  C   UNL     1      -0.485  44.657  54.508  1.00  0.00     0.046 A 
ATOM     18  C   UNL     1      -0.022  44.723  55.823  1.00  0.00     0.021 A 
ATOM     19  C   UNL     1       2.075  45.592  55.025  1.00  0.00     0.026 A 
ATOM     20  C   UNL     1       1.255  45.199  56.082  1.00  0.00     0.004 A 
ATOM     21  C   UNL     1      -0.209  45.029  52.015  1.00  0.00     0.048 C 
ATOM     22  Cl  UNL     1      -2.080  44.022  54.277  1.00  0.00    -0.084 Cl
ENDBRANCH  13  15
ENDBRANCH   4  13
ENDBRANCH   1   3
BRANCH   1  23
ATOM     23  C   UNL     1       8.243  46.334  51.090  1.00  0.00     0.118 C 
BRANCH  23  24
ATOM     24  C   UNL     1       9.506  46.899  51.741  1.00  0.00     0.042 C 
BRANCH  24  25
ATOM     25  C   UNL     1       9.823  46.236  53.076  1.00  0.00     0.117 C 
BRANCH  25  26
ATOM     26  N   UNL     1      10.178  47.213  54.086  1.00  0.00    -0.359 N 
ATOM     27  C   UNL     1       9.212  47.824  54.844  1.00  0.00     0.337 C 
ATOM     28  H   UNL     1      11.100  47.632  54.072  1.00  0.00     0.163 HD
ATOM     29  O   UNL     1       8.017  47.571  54.817  1.00  0.00    -0.279 OA
ENDBRANCH  25  26
ENDBRANCH  24  25
ENDBRANCH  23  24
ENDBRANCH   1  23
TORSDOF 7
ENDMDL
MODEL 16
REMARK VINA RESULT:    -7.897      2.495      3.675
REMARK INTER + INTRA:         -12.258
REMARK INTER:                 -11.056
REMARK INTRA:                  -1.202
REMARK UNBOUND:                -1.130
REMARK SMILES Cc1c(Cl)cccc1Nc1nc(NCCCNC=O)nc2c1cnn2C
REMARK SMILES IDX 13 1 12 3 10 4 11 5 22 6 21 7 23 8 20 9 25 10 24 11 26 12
REMARK SMILES IDX 9 13 8 15 2 16 3 17 5 18 7 19 6 20 1 21 4 22 14 23 15 24
REMARK SMILES IDX 16 25 17 26 18 27 19 29
REMARK H PARENT 13 2 9 14 17 28
ROOT
ATOM      1  N   UNL     1       2.651  46.111  56.207  1.00  0.00    -0.354 N 
ATOM      2  H   UNL     1       3.485  46.257  56.771  1.00  0.00     0.163 HD
ENDROOT
BRANCH   1   3
ATOM      3  C   UNL     1       3.142  45.744  54.957  1.00  0.00     0.226 A 
ATOM      4  C   UNL     1       4.725  46.286  53.301  1.00  0.00     0.147 A 
ATOM      5  N   UNL     1       4.152  46.512  54.513  1.00  0.00    -0.195 NA
ATOM      6  C   UNL     1       4.222  45.211  52.558  1.00  0.00     0.082 A 
ATOM      7  C   UNL     1       3.186  44.486  53.115  1.00  0.00     0.165 A 
ATOM      8  C   UNL     1       4.460  44.583  51.318  1.00  0.00     0.149 A 
ATOM      9  N   UNL     1       2.610  44.702  54.306  1.00  0.00    -0.193 NA
ATOM     10  N   UNL     1       2.875  43.513  52.206  1.00  0.00    -0.250 N 
ATOM     11  N   UNL     1       3.647  43.544  51.095  1.00  0.00    -0.179 NA
ATOM     12  C   UNL     1       1.848  42.509  52.329  1.00  0.00     0.176 C 
BRANCH   4  13
ATOM     13  N   UNL     1       5.798  47.062  52.835  1.00  0.00    -0.339 N 
ATOM     14  H   UNL     1       5.510  47.857  52.284  1.00  0.00     0.168 HD
BRANCH  13  15
ATOM     15  C   UNL     1       7.179  47.042  53.135  1.00  0.00     0.044 A 
ATOM     16  C   UNL     1       8.098  46.472  52.214  1.00  0.00    -0.009 A 
ATOM     17  C   UNL     1       9.475  46.488  52.525  1.00  0.00     0.046 A 
ATOM     18  C   UNL     1       9.934  46.990  53.743  1.00  0.00     0.021 A 
ATOM     19  C   UNL     1       7.669  47.518  54.362  1.00  0.00     0.026 A 
ATOM     20  C   UNL     1       9.030  47.496  54.666  1.00  0.00     0.004 A 
ATOM     21  C   UNL     1       7.617  45.898  50.903  1.00  0.00     0.048 C 
ATOM     22  Cl  UNL     1      10.676  45.903  51.423  1.00  0.00    -0.084 Cl
ENDBRANCH  13  15
ENDBRANCH   4  13
ENDBRANCH   1   3
BRANCH   1  23
ATOM     23  C   UNL     1       1.660  45.202  56.754  1.00  0.00     0.118 C 
BRANCH  23  24
ATOM     24  C   UNL     1       0.334  45.929  56.981  1.00  0.00     0.042 C 
BRANCH  24  25
ATOM     25  C   UNL     1      -0.831  45.258  56.265  1.00  0.00     0.117 C 
BRANCH  25  26
ATOM     26  N   UNL     1      -0.666  45.297  54.825  1.00  0.00    -0.359 N 
ATOM     27  C   UNL     1      -0.852  44.172  54.064  1.00  0.00     0.337 C 
ATOM     28  H   UNL     1      -0.177  46.076  54.401  1.00  0.00     0.163 HD
ATOM     29  O   UNL     1      -1.238  43.088  54.475  1.00  0.00    -0.279 OA
ENDBRANCH  25  26
ENDBRANCH  24  25
ENDBRANCH  23  24
ENDBRANCH   1  23
TORSDOF 7
ENDMDL
MODEL 17
REMARK VINA RESULT:    -7.887      3.371      6.225
REMARK INTER + INTRA:         -12.244
REMARK INTER:                 -10.896
REMARK INTRA:                  -1.347
REMARK UNBOUND:                -1.130
REMARK SMILES Cc1c(Cl)cccc1Nc1nc(NCCCNC=O)nc2c1cnn2C
REMARK SMILES IDX 13 1 12 3 10 4 11 5 22 6 21 7 23 8 20 9 25 10 24 11 26 12
REMARK SMILES IDX 9 13 8 15 2 16 3 17 5 18 7 19 6 20 1 21 4 22 14 23 15 24
REMARK SMILES IDX 16 25 17 26 18 27 19 29
REMARK H PARENT 13 2 9 14 17 28
ROOT
ATOM      1  N   UNL     1       2.779  42.386  52.767  1.00  0.00    -0.354 N 
ATOM      2  H   UNL     1       2.571  41.425  52.508  1.00  0.00     0.163 HD
ENDROOT
BRANCH   1   3
ATOM      3  C   UNL     1       3.855  42.737  51.957  1.00  0.00     0.226 A 
ATOM      4  C   UNL     1       5.141  42.063  50.104  1.00  0.00     0.147 A 
ATOM      5  N   UNL     1       4.110  41.863  50.969  1.00  0.00    -0.195 NA
ATOM      6  C   UNL     1       5.900  43.225  50.289  1.00  0.00     0.082 A 
ATOM      7  C   UNL     1       5.544  44.054  51.335  1.00  0.00     0.165 A 
ATOM      8  C   UNL     1       7.006  43.868  49.695  1.00  0.00     0.149 A 
ATOM      9  N   UNL     1       4.534  43.866  52.195  1.00  0.00    -0.193 NA
ATOM     10  N   UNL     1       6.428  45.097  51.307  1.00  0.00    -0.250 N 
ATOM     11  N   UNL     1       7.333  45.012  50.304  1.00  0.00    -0.179 NA
ATOM     12  C   UNL     1       6.471  46.221  52.209  1.00  0.00     0.176 C 
BRANCH   4  13
ATOM     13  N   UNL     1       5.404  41.173  49.051  1.00  0.00    -0.339 N 
ATOM     14  H   UNL     1       5.879  40.333  49.343  1.00  0.00     0.168 HD
BRANCH  13  15
ATOM     15  C   UNL     1       4.978  41.153  47.703  1.00  0.00     0.044 A 
ATOM     16  C   UNL     1       3.912  40.302  47.307  1.00  0.00    -0.009 A 
ATOM     17  C   UNL     1       3.488  40.319  45.961  1.00  0.00     0.046 A 
ATOM     18  C   UNL     1       4.140  41.104  45.009  1.00  0.00     0.021 A 
ATOM     19  C   UNL     1       5.629  41.913  46.717  1.00  0.00     0.026 A 
ATOM     20  C   UNL     1       5.217  41.893  45.385  1.00  0.00     0.004 A 
ATOM     21  C   UNL     1       3.213  39.424  48.317  1.00  0.00     0.048 C 
ATOM     22  Cl  UNL     1       2.137  39.388  45.407  1.00  0.00    -0.084 Cl
ENDBRANCH  13  15
ENDBRANCH   4  13
ENDBRANCH   1   3
BRANCH   1  23
ATOM     23  C   UNL     1       1.664  43.315  52.724  1.00  0.00     0.118 C 
BRANCH  23  24
ATOM     24  C   UNL     1       1.491  44.009  54.076  1.00  0.00     0.042 C 
BRANCH  24  25
ATOM     25  C   UNL     1       1.749  45.509  54.001  1.00  0.00     0.117 C 
BRANCH  25  26
ATOM     26  N   UNL     1       1.930  45.950  52.631  1.00  0.00    -0.359 N 
ATOM     27  C   UNL     1       2.717  47.035  52.340  1.00  0.00     0.337 C 
ATOM     28  H   UNL     1       1.293  45.625  51.915  1.00  0.00     0.163 HD
ATOM     29  O   UNL     1       3.386  47.669  53.142  1.00  0.00    -0.279 OA
ENDBRANCH  25  26
ENDBRANCH  24  25
ENDBRANCH  23  24
ENDBRANCH   1  23
TORSDOF 7
ENDMDL
MODEL 18
REMARK VINA RESULT:    -7.886      3.154      6.761
REMARK INTER + INTRA:         -12.243
REMARK INTER:                 -10.865
REMARK INTRA:                  -1.378
REMARK UNBOUND:                -1.130
REMARK SMILES Cc1c(Cl)cccc1Nc1nc(NCCCNC=O)nc2c1cnn2C
REMARK SMILES IDX 13 1 12 3 10 4 11 5 22 6 21 7 23 8 20 9 25 10 24 11 26 12
REMARK SMILES IDX 9 13 8 15 2 16 3 17 5 18 7 19 6 20 1 21 4 22 14 23 15 24
REMARK SMILES IDX 16 25 17 26 18 27 19 29
REMARK H PARENT 13 2 9 14 17 28
ROOT
ATOM      1  N   UNL     1       7.052  44.845  49.566  1.00  0.00    -0.354 N 
ATOM      2  H   UNL     1       6.171  45.039  49.098  1.00  0.00     0.163 HD
ENDROOT
BRANCH   1   3
ATOM      3  C   UNL     1       6.813  45.166  50.899  1.00  0.00     0.226 A 
ATOM      4  C   UNL     1       5.398  44.745  52.733  1.00  0.00     0.147 A 
ATOM      5  N   UNL     1       5.764  44.524  51.442  1.00  0.00    -0.195 NA
ATOM      6  C   UNL     1       6.175  45.654  53.460  1.00  0.00     0.082 A 
ATOM      7  C   UNL     1       7.232  46.252  52.802  1.00  0.00     0.165 A 
ATOM      8  C   UNL     1       6.221  46.198  54.761  1.00  0.00     0.149 A 
ATOM      9  N   UNL     1       7.601  46.045  51.530  1.00  0.00    -0.193 NA
ATOM     10  N   UNL     1       7.819  47.088  53.712  1.00  0.00    -0.250 N 
ATOM     11  N   UNL     1       7.222  47.069  54.926  1.00  0.00    -0.179 NA
ATOM     12  C   UNL     1       8.960  47.941  53.494  1.00  0.00     0.176 C 
BRANCH   4  13
ATOM     13  N   UNL     1       4.322  44.063  53.322  1.00  0.00    -0.339 N 
ATOM     14  H   UNL     1       4.539  43.110  53.575  1.00  0.00     0.168 HD
BRANCH  13  15
ATOM     15  C   UNL     1       3.062  44.506  53.783  1.00  0.00     0.044 A 
ATOM     16  C   UNL     1       1.987  44.669  52.869  1.00  0.00    -0.009 A 
ATOM     17  C   UNL     1       0.731  45.087  53.359  1.00  0.00     0.046 A 
ATOM     18  C   UNL     1       0.550  45.405  54.705  1.00  0.00     0.021 A 
ATOM     19  C   UNL     1       2.855  44.856  55.128  1.00  0.00     0.026 A 
ATOM     20  C   UNL     1       1.615  45.299  55.588  1.00  0.00     0.004 A 
ATOM     21  C   UNL     1       2.170  44.357  51.403  1.00  0.00     0.048 C 
ATOM     22  Cl  UNL     1      -0.660  45.221  52.335  1.00  0.00    -0.084 Cl
ENDBRANCH  13  15
ENDBRANCH   4  13
ENDBRANCH   1   3
BRANCH   1  23
ATOM     23  C   UNL     1       7.610  43.521  49.356  1.00  0.00     0.118 C 
BRANCH  23  24
ATOM     24  C   UNL     1       6.628  42.643  48.581  1.00  0.00     0.042 C 
BRANCH  24  25
ATOM     25  C   UNL     1       6.171  41.429  49.382  1.00  0.00     0.117 C 
BRANCH  25  26
ATOM     26  N   UNL     1       5.247  41.803  50.435  1.00  0.00    -0.359 N 
ATOM     27  C   UNL     1       3.993  41.253  50.498  1.00  0.00     0.337 C 
ATOM     28  H   UNL     1       5.422  42.640  50.977  1.00  0.00     0.163 HD
ATOM     29  O   UNL     1       3.560  40.375  49.768  1.00  0.00    -0.279 OA
ENDBRANCH  25  26
ENDBRANCH  24  25
ENDBRANCH  23  24
ENDBRANCH   1  23
TORSDOF 7
ENDMDL
MODEL 19
REMARK VINA RESULT:    -7.746      3.089      6.699
REMARK INTER + INTRA:         -12.046
REMARK INTER:                 -10.802
REMARK INTRA:                  -1.244
REMARK UNBOUND:                -1.130
REMARK SMILES Cc1c(Cl)cccc1Nc1nc(NCCCNC=O)nc2c1cnn2C
REMARK SMILES IDX 13 1 12 3 10 4 11 5 22 6 21 7 23 8 20 9 25 10 24 11 26 12
REMARK SMILES IDX 9 13 8 15 2 16 3 17 5 18 7 19 6 20 1 21 4 22 14 23 15 24
REMARK SMILES IDX 16 25 17 26 18 27 19 29
REMARK H PARENT 13 2 9 14 17 28
ROOT
ATOM      1  N   UNL     1       7.355  44.842  49.614  1.00  0.00    -0.354 N 
ATOM      2  H   UNL     1       6.578  45.184  49.054  1.00  0.00     0.163 HD
ENDROOT
BRANCH   1   3
ATOM      3  C   UNL     1       7.025  45.203  50.918  1.00  0.00     0.226 A 
ATOM      4  C   UNL     1       5.444  44.896  52.634  1.00  0.00     0.147 A 
ATOM      5  N   UNL     1       5.902  44.629  51.382  1.00  0.00    -0.195 NA
ATOM      6  C   UNL     1       6.208  45.778  53.408  1.00  0.00     0.082 A 
ATOM      7  C   UNL     1       7.347  46.304  52.830  1.00  0.00     0.165 A 
ATOM      8  C   UNL     1       6.178  46.345  54.699  1.00  0.00     0.149 A 
ATOM      9  N   UNL     1       7.807  46.052  51.597  1.00  0.00    -0.193 NA
ATOM     10  N   UNL     1       7.902  47.127  53.772  1.00  0.00    -0.250 N 
ATOM     11  N   UNL     1       7.208  47.165  54.933  1.00  0.00    -0.179 NA
ATOM     12  C   UNL     1       9.103  47.913  53.635  1.00  0.00     0.176 C 
BRANCH   4  13
ATOM     13  N   UNL     1       4.288  44.285  53.143  1.00  0.00    -0.339 N 
ATOM     14  H   UNL     1       4.454  43.738  53.974  1.00  0.00     0.168 HD
BRANCH  13  15
ATOM     15  C   UNL     1       2.920  44.432  52.817  1.00  0.00     0.044 A 
ATOM     16  C   UNL     1       1.962  44.630  53.846  1.00  0.00    -0.009 A 
ATOM     17  C   UNL     1       0.605  44.800  53.494  1.00  0.00     0.046 A 
ATOM     18  C   UNL     1       0.189  44.711  52.165  1.00  0.00     0.021 A 
ATOM     19  C   UNL     1       2.467  44.324  51.493  1.00  0.00     0.026 A 
ATOM     20  C   UNL     1       1.118  44.463  51.165  1.00  0.00     0.004 A 
ATOM     21  C   UNL     1       2.389  44.700  55.293  1.00  0.00     0.048 C 
ATOM     22  Cl  UNL     1      -0.619  45.141  54.671  1.00  0.00    -0.084 Cl
ENDBRANCH  13  15
ENDBRANCH   4  13
ENDBRANCH   1   3
BRANCH   1  23
ATOM     23  C   UNL     1       7.699  43.442  49.446  1.00  0.00     0.118 C 
BRANCH  23  24
ATOM     24  C   UNL     1       6.539  42.679  48.804  1.00  0.00     0.042 C 
BRANCH  24  25
ATOM     25  C   UNL     1       6.129  41.452  49.610  1.00  0.00     0.117 C 
BRANCH  25  26
ATOM     26  N   UNL     1       5.079  41.764  50.559  1.00  0.00    -0.359 N 
ATOM     27  C   UNL     1       3.844  41.176  50.462  1.00  0.00     0.337 C 
ATOM     28  H   UNL     1       5.163  42.589  51.141  1.00  0.00     0.163 HD
ATOM     29  O   UNL     1       3.527  40.309  49.662  1.00  0.00    -0.279 OA
ENDBRANCH  25  26
ENDBRANCH  24  25
ENDBRANCH  23  24
ENDBRANCH   1  23
TORSDOF 7
ENDMDL
MODEL 20
REMARK VINA RESULT:    -7.703      2.515      5.742
REMARK INTER + INTRA:         -11.985
REMARK INTER:                 -10.595
REMARK INTRA:                  -1.390
REMARK UNBOUND:                -1.130
REMARK SMILES Cc1c(Cl)cccc1Nc1nc(NCCCNC=O)nc2c1cnn2C
REMARK SMILES IDX 13 1 12 3 10 4 11 5 22 6 21 7 23 8 20 9 25 10 24 11 26 12
REMARK SMILES IDX 9 13 8 15 2 16 3 17 5 18 7 19 6 20 1 21 4 22 14 23 15 24
REMARK SMILES IDX 16 25 17 26 18 27 19 29
REMARK H PARENT 13 2 9 14 17 28
ROOT
ATOM      1  N   UNL     1       6.399  43.907  49.399  1.00  0.00    -0.354 N 
ATOM      2  H   UNL     1       5.455  44.152  49.114  1.00  0.00     0.163 HD
ENDROOT
BRANCH   1   3
ATOM      3  C   UNL     1       6.724  44.854  50.366  1.00  0.00     0.226 A 
ATOM      4  C   UNL     1       5.821  46.370  51.924  1.00  0.00     0.147 A 
ATOM      5  N   UNL     1       5.663  45.416  50.968  1.00  0.00    -0.195 NA
ATOM      6  C   UNL     1       7.137  46.717  52.253  1.00  0.00     0.082 A 
ATOM      7  C   UNL     1       8.152  46.071  51.574  1.00  0.00     0.165 A 
ATOM      8  C   UNL     1       7.809  47.591  53.134  1.00  0.00     0.149 A 
ATOM      9  N   UNL     1       8.008  45.132  50.627  1.00  0.00    -0.193 NA
ATOM     10  N   UNL     1       9.321  46.583  52.065  1.00  0.00    -0.250 N 
ATOM     11  N   UNL     1       9.140  47.514  53.030  1.00  0.00    -0.179 NA
ATOM     12  C   UNL     1      10.659  46.230  51.661  1.00  0.00     0.176 C 
BRANCH   4  13
ATOM     13  N   UNL     1       4.723  46.947  52.580  1.00  0.00    -0.339 N 
ATOM     14  H   UNL     1       4.809  47.944  52.708  1.00  0.00     0.168 HD
BRANCH  13  15
ATOM     15  C   UNL     1       3.457  46.431  52.935  1.00  0.00     0.044 A 
ATOM     16  C   UNL     1       3.223  45.967  54.257  1.00  0.00    -0.009 A 
ATOM     17  C   UNL     1       1.941  45.480  54.594  1.00  0.00     0.046 A 
ATOM     18  C   UNL     1       0.930  45.386  53.637  1.00  0.00     0.021 A 
ATOM     19  C   UNL     1       2.427  46.301  51.989  1.00  0.00     0.026 A 
ATOM     20  C   UNL     1       1.176  45.787  52.332  1.00  0.00     0.004 A 
ATOM     21  C   UNL     1       4.313  46.034  55.300  1.00  0.00     0.048 C 
ATOM     22  Cl  UNL     1       1.537  44.983  56.203  1.00  0.00    -0.084 Cl
ENDBRANCH  13  15
ENDBRANCH   4  13
ENDBRANCH   1   3
BRANCH   1  23
ATOM     23  C   UNL     1       6.606  42.530  49.812  1.00  0.00     0.118 C 
BRANCH  23  24
ATOM     24  C   UNL     1       5.393  41.673  49.448  1.00  0.00     0.042 C 
BRANCH  24  25
ATOM     25  C   UNL     1       4.651  41.159  50.675  1.00  0.00     0.117 C 
BRANCH  25  26
ATOM     26  N   UNL     1       3.331  41.749  50.786  1.00  0.00    -0.359 N 
ATOM     27  C   UNL     1       3.028  42.609  51.811  1.00  0.00     0.337 C 
ATOM     28  H   UNL     1       2.561  41.349  50.265  1.00  0.00     0.163 HD
ATOM     29  O   UNL     1       3.812  43.019  52.654  1.00  0.00    -0.279 OA
ENDBRANCH  25  26
ENDBRANCH  24  25
ENDBRANCH  23  24
ENDBRANCH   1  23
TORSDOF 7
ENDMDL
