MODEL 1
REMARK VINA RESULT:    -8.681      0.000      0.000
REMARK INTER + INTRA:         -13.458
REMARK INTER:                 -12.234
REMARK INTRA:                  -1.225
REMARK UNBOUND:                -1.225
REMARK SMILES COc1ccc(Nc2nc(NCCNC(C)=O)nc3c2cnn3C)cc1
REMARK SMILES IDX 8 1 9 2 10 3 18 4 19 5 20 6 21 7 22 8 23 9 24 10 7 11 6 13
REMARK SMILES IDX 3 14 4 15 26 16 5 17 25 18 2 19 1 20 11 21 12 23 13 24 14 25
REMARK SMILES IDX 15 26 16 28 17 29
REMARK H PARENT 7 12 11 22 14 27
ROOT
ATOM      1  C   UNL     1       7.160  46.224  52.274  1.00  0.00     0.147 A 
ATOM      2  N   UNL     1       6.067  46.437  53.054  1.00  0.00    -0.195 NA
ATOM      3  C   UNL     1       6.188  46.924  54.300  1.00  0.00     0.226 A 
ATOM      4  N   UNL     1       7.340  47.233  54.911  1.00  0.00    -0.193 NA
ATOM      5  C   UNL     1       8.410  47.020  54.132  1.00  0.00     0.165 A 
ATOM      6  C   UNL     1       8.404  46.528  52.841  1.00  0.00     0.082 A 
ATOM      7  C   UNL     1       9.767  46.488  52.477  1.00  0.00     0.149 A 
ATOM      8  N   UNL     1      10.580  46.917  53.450  1.00  0.00    -0.179 NA
ATOM      9  N   UNL     1       9.723  47.241  54.447  1.00  0.00    -0.250 N 
ATOM     10  C   UNL     1      10.242  47.765  55.684  1.00  0.00     0.176 C 
ENDROOT
BRANCH   1  11
ATOM     11  N   UNL     1       7.056  45.700  50.976  1.00  0.00    -0.339 N 
ATOM     12  H   UNL     1       7.349  46.342  50.253  1.00  0.00     0.168 HD
BRANCH  11  13
ATOM     13  C   UNL     1       6.560  44.481  50.488  1.00  0.00     0.040 A 
ATOM     14  C   UNL     1       5.704  41.988  49.436  1.00  0.00     0.119 A 
ATOM     15  C   UNL     1       6.776  42.661  48.859  1.00  0.00     0.048 A 
ATOM     16  C   UNL     1       5.066  42.557  50.537  1.00  0.00     0.048 A 
ATOM     17  C   UNL     1       7.199  43.891  49.384  1.00  0.00     0.030 A 
ATOM     18  C   UNL     1       5.492  43.785  51.058  1.00  0.00     0.030 A 
BRANCH  14  19
ATOM     19  O   UNL     1       5.190  40.789  49.028  1.00  0.00    -0.497 OA
ATOM     20  C   UNL     1       3.781  40.628  49.122  1.00  0.00     0.278 C 
ENDBRANCH  14  19
ENDBRANCH  11  13
ENDBRANCH   1  11
BRANCH   3  21
ATOM     21  N   UNL     1       4.986  47.083  54.974  1.00  0.00    -0.352 N 
ATOM     22  H   UNL     1       4.490  47.831  54.499  1.00  0.00     0.163 HD
BRANCH  21  23
ATOM     23  C   UNL     1       4.217  45.878  55.233  1.00  0.00     0.137 C 
BRANCH  23  24
ATOM     24  C   UNL     1       2.826  45.901  54.583  1.00  0.00     0.137 C 
BRANCH  24  25
ATOM     25  N   UNL     1       2.889  45.686  53.146  1.00  0.00    -0.355 N 
ATOM     26  C   UNL     1       2.987  46.754  52.280  1.00  0.00     0.216 C 
ATOM     27  H   UNL     1       3.247  44.796  52.824  1.00  0.00     0.163 HD
ATOM     28  C   UNL     1       3.207  46.359  50.844  1.00  0.00     0.114 C 
ATOM     29  O   UNL     1       2.914  47.926  52.629  1.00  0.00    -0.275 OA
ENDBRANCH  24  25
ENDBRANCH  23  24
ENDBRANCH  21  23
ENDBRANCH   3  21
TORSDOF 7
ENDMDL
MODEL 2
REMARK VINA RESULT:    -8.294      1.531      1.773
REMARK INTER + INTRA:         -12.913
REMARK INTER:                 -12.155
REMARK INTRA:                  -0.758
REMARK UNBOUND:                -1.225
REMARK SMILES COc1ccc(Nc2nc(NCCNC(C)=O)nc3c2cnn3C)cc1
REMARK SMILES IDX 8 1 9 2 10 3 18 4 19 5 20 6 21 7 22 8 23 9 24 10 7 11 6 13
REMARK SMILES IDX 3 14 4 15 26 16 5 17 25 18 2 19 1 20 11 21 12 23 13 24 14 25
REMARK SMILES IDX 15 26 16 28 17 29
REMARK H PARENT 7 12 11 22 14 27
ROOT
ATOM      1  C   UNL     1       6.653  45.884  52.308  1.00  0.00     0.147 A 
ATOM      2  N   UNL     1       5.609  46.162  53.134  1.00  0.00    -0.195 NA
ATOM      3  C   UNL     1       5.798  46.802  54.299  1.00  0.00     0.226 A 
ATOM      4  N   UNL     1       6.976  47.217  54.783  1.00  0.00    -0.193 NA
ATOM      5  C   UNL     1       7.998  46.938  53.960  1.00  0.00     0.165 A 
ATOM      6  C   UNL     1       7.922  46.291  52.742  1.00  0.00     0.082 A 
ATOM      7  C   UNL     1       9.256  46.244  52.288  1.00  0.00     0.149 A 
ATOM      8  N   UNL     1      10.118  46.812  53.139  1.00  0.00    -0.179 NA
ATOM      9  N   UNL     1       9.320  47.233  54.149  1.00  0.00    -0.250 N 
ATOM     10  C   UNL     1       9.904  47.921  55.272  1.00  0.00     0.176 C 
ENDROOT
BRANCH   1  11
ATOM     11  N   UNL     1       6.479  45.201  51.095  1.00  0.00    -0.339 N 
ATOM     12  H   UNL     1       6.887  45.673  50.300  1.00  0.00     0.168 HD
BRANCH  11  13
ATOM     13  C   UNL     1       5.789  44.023  50.765  1.00  0.00     0.040 A 
ATOM     14  C   UNL     1       4.540  41.574  50.061  1.00  0.00     0.119 A 
ATOM     15  C   UNL     1       5.780  41.908  49.525  1.00  0.00     0.048 A 
ATOM     16  C   UNL     1       3.930  42.460  50.948  1.00  0.00     0.048 A 
ATOM     17  C   UNL     1       6.396  43.117  49.879  1.00  0.00     0.030 A 
ATOM     18  C   UNL     1       4.550  43.666  51.299  1.00  0.00     0.030 A 
BRANCH  14  19
ATOM     19  O   UNL     1       3.830  40.436  49.804  1.00  0.00    -0.497 OA
ATOM     20  C   UNL     1       3.532  40.156  48.442  1.00  0.00     0.278 C 
ENDBRANCH  14  19
ENDBRANCH  11  13
ENDBRANCH   1  11
BRANCH   3  21
ATOM     21  N   UNL     1       4.640  47.010  55.034  1.00  0.00    -0.352 N 
ATOM     22  H   UNL     1       4.113  47.725  54.541  1.00  0.00     0.163 HD
BRANCH  21  23
ATOM     23  C   UNL     1       3.891  45.827  55.423  1.00  0.00     0.137 C 
BRANCH  23  24
ATOM     24  C   UNL     1       2.569  45.675  54.657  1.00  0.00     0.137 C 
BRANCH  24  25
ATOM     25  N   UNL     1       2.272  44.284  54.347  1.00  0.00    -0.355 N 
ATOM     26  C   UNL     1       1.017  43.914  53.915  1.00  0.00     0.216 C 
ATOM     27  H   UNL     1       3.048  43.693  54.077  1.00  0.00     0.163 HD
ATOM     28  C   UNL     1       0.920  42.476  53.483  1.00  0.00     0.114 C 
ATOM     29  O   UNL     1       0.057  44.673  53.872  1.00  0.00    -0.275 OA
ENDBRANCH  24  25
ENDBRANCH  23  24
ENDBRANCH  21  23
ENDBRANCH   3  21
TORSDOF 7
ENDMDL
MODEL 3
REMARK VINA RESULT:    -8.275      2.592      6.081
REMARK INTER + INTRA:         -12.886
REMARK INTER:                 -11.602
REMARK INTRA:                  -1.284
REMARK UNBOUND:                -1.225
REMARK SMILES COc1ccc(Nc2nc(NCCNC(C)=O)nc3c2cnn3C)cc1
REMARK SMILES IDX 8 1 9 2 10 3 18 4 19 5 20 6 21 7 22 8 23 9 24 10 7 11 6 13
REMARK SMILES IDX 3 14 4 15 26 16 5 17 25 18 2 19 1 20 11 21 12 23 13 24 14 25
REMARK SMILES IDX 15 26 16 28 17 29
REMARK H PARENT 7 12 11 22 14 27
ROOT
ATOM      1  C   UNL     1       5.647  45.234  51.140  1.00  0.00     0.147 A 
ATOM      2  N   UNL     1       4.493  45.675  51.708  1.00  0.00    -0.195 NA
ATOM      3  C   UNL     1       3.409  44.886  51.779  1.00  0.00     0.226 A 
ATOM      4  N   UNL     1       3.320  43.633  51.313  1.00  0.00    -0.193 NA
ATOM      5  C   UNL     1       4.464  43.208  50.756  1.00  0.00     0.165 A 
ATOM      6  C   UNL     1       5.636  43.929  50.631  1.00  0.00     0.082 A 
ATOM      7  C   UNL     1       6.521  43.044  49.978  1.00  0.00     0.149 A 
ATOM      8  N   UNL     1       5.966  41.857  49.706  1.00  0.00    -0.179 NA
ATOM      9  N   UNL     1       4.711  41.984  50.198  1.00  0.00    -0.250 N 
ATOM     10  C   UNL     1       3.796  40.875  50.098  1.00  0.00     0.176 C 
ENDROOT
BRANCH   1  11
ATOM     11  N   UNL     1       6.785  46.049  51.040  1.00  0.00    -0.339 N 
ATOM     12  H   UNL     1       6.935  46.427  50.115  1.00  0.00     0.168 HD
BRANCH  11  13
ATOM     13  C   UNL     1       7.790  46.384  51.962  1.00  0.00     0.040 A 
ATOM     14  C   UNL     1       9.711  47.041  53.945  1.00  0.00     0.119 A 
ATOM     15  C   UNL     1       8.353  47.202  54.203  1.00  0.00     0.048 A 
ATOM     16  C   UNL     1      10.105  46.549  52.701  1.00  0.00     0.048 A 
ATOM     17  C   UNL     1       7.407  46.873  53.222  1.00  0.00     0.030 A 
ATOM     18  C   UNL     1       9.156  46.221  51.725  1.00  0.00     0.030 A 
BRANCH  14  19
ATOM     19  O   UNL     1      10.735  47.321  54.804  1.00  0.00    -0.497 OA
ATOM     20  C   UNL     1      10.391  47.950  56.032  1.00  0.00     0.278 C 
ENDBRANCH  14  19
ENDBRANCH  11  13
ENDBRANCH   1  11
BRANCH   3  21
ATOM     21  N   UNL     1       2.308  45.476  52.382  1.00  0.00    -0.352 N 
ATOM     22  H   UNL     1       1.743  45.860  51.631  1.00  0.00     0.163 HD
BRANCH  21  23
ATOM     23  C   UNL     1       1.595  44.678  53.366  1.00  0.00     0.137 C 
BRANCH  23  24
ATOM     24  C   UNL     1       1.939  45.061  54.813  1.00  0.00     0.137 C 
BRANCH  24  25
ATOM     25  N   UNL     1       3.278  44.633  55.189  1.00  0.00    -0.355 N 
ATOM     26  C   UNL     1       4.313  45.541  55.253  1.00  0.00     0.216 C 
ATOM     27  H   UNL     1       3.357  43.801  55.759  1.00  0.00     0.163 HD
ATOM     28  C   UNL     1       5.590  44.975  55.812  1.00  0.00     0.114 C 
ATOM     29  O   UNL     1       4.220  46.711  54.899  1.00  0.00    -0.275 OA
ENDBRANCH  24  25
ENDBRANCH  23  24
ENDBRANCH  21  23
ENDBRANCH   3  21
TORSDOF 7
ENDMDL
MODEL 4
REMARK VINA RESULT:    -8.262      2.733      6.947
REMARK INTER + INTRA:         -12.867
REMARK INTER:                 -11.528
REMARK INTRA:                  -1.339
REMARK UNBOUND:                -1.225
REMARK SMILES COc1ccc(Nc2nc(NCCNC(C)=O)nc3c2cnn3C)cc1
REMARK SMILES IDX 8 1 9 2 10 3 18 4 19 5 20 6 21 7 22 8 23 9 24 10 7 11 6 13
REMARK SMILES IDX 3 14 4 15 26 16 5 17 25 18 2 19 1 20 11 21 12 23 13 24 14 25
REMARK SMILES IDX 15 26 16 28 17 29
REMARK H PARENT 7 12 11 22 14 27
ROOT
ATOM      1  C   UNL     1       4.375  44.869  51.897  1.00  0.00     0.147 A 
ATOM      2  N   UNL     1       4.583  43.602  51.451  1.00  0.00    -0.195 NA
ATOM      3  C   UNL     1       3.719  42.615  51.739  1.00  0.00     0.226 A 
ATOM      4  N   UNL     1       2.606  42.738  52.476  1.00  0.00    -0.193 NA
ATOM      5  C   UNL     1       2.411  43.992  52.909  1.00  0.00     0.165 A 
ATOM      6  C   UNL     1       3.228  45.081  52.673  1.00  0.00     0.082 A 
ATOM      7  C   UNL     1       2.590  46.146  53.343  1.00  0.00     0.149 A 
ATOM      8  N   UNL     1       1.461  45.775  53.958  1.00  0.00    -0.179 NA
ATOM      9  N   UNL     1       1.373  44.455  53.670  1.00  0.00    -0.250 N 
ATOM     10  C   UNL     1       0.253  43.696  54.164  1.00  0.00     0.176 C 
ENDROOT
BRANCH   1  11
ATOM     11  N   UNL     1       5.274  45.911  51.621  1.00  0.00    -0.339 N 
ATOM     12  H   UNL     1       4.998  46.491  50.842  1.00  0.00     0.168 HD
BRANCH  11  13
ATOM     13  C   UNL     1       6.515  46.258  52.179  1.00  0.00     0.040 A 
ATOM     14  C   UNL     1       8.968  46.907  53.451  1.00  0.00     0.119 A 
ATOM     15  C   UNL     1       7.794  46.826  54.193  1.00  0.00     0.048 A 
ATOM     16  C   UNL     1       8.915  46.660  52.080  1.00  0.00     0.048 A 
ATOM     17  C   UNL     1       6.584  46.501  53.562  1.00  0.00     0.030 A 
ATOM     18  C   UNL     1       7.705  46.335  51.454  1.00  0.00     0.030 A 
BRANCH  14  19
ATOM     19  O   UNL     1      10.209  47.213  53.934  1.00  0.00    -0.497 OA
ATOM     20  C   UNL     1      10.301  47.526  55.318  1.00  0.00     0.278 C 
ENDBRANCH  14  19
ENDBRANCH  11  13
ENDBRANCH   1  11
BRANCH   3  21
ATOM     21  N   UNL     1       4.067  41.377  51.218  1.00  0.00    -0.352 N 
ATOM     22  H   UNL     1       3.812  40.689  51.921  1.00  0.00     0.163 HD
BRANCH  21  23
ATOM     23  C   UNL     1       3.626  41.091  49.863  1.00  0.00     0.137 C 
BRANCH  23  24
ATOM     24  C   UNL     1       4.790  40.929  48.875  1.00  0.00     0.137 C 
BRANCH  24  25
ATOM     25  N   UNL     1       5.653  42.101  48.848  1.00  0.00    -0.355 N 
ATOM     26  C   UNL     1       6.867  42.092  49.500  1.00  0.00     0.216 C 
ATOM     27  H   UNL     1       5.552  42.734  48.066  1.00  0.00     0.163 HD
ATOM     28  C   UNL     1       7.707  43.314  49.242  1.00  0.00     0.114 C 
ATOM     29  O   UNL     1       7.249  41.180  50.223  1.00  0.00    -0.275 OA
ENDBRANCH  24  25
ENDBRANCH  23  24
ENDBRANCH  21  23
ENDBRANCH   3  21
TORSDOF 7
ENDMDL
MODEL 5
REMARK VINA RESULT:    -8.064      2.665      5.793
REMARK INTER + INTRA:         -12.588
REMARK INTER:                 -11.838
REMARK INTRA:                  -0.750
REMARK UNBOUND:                -1.225
REMARK SMILES COc1ccc(Nc2nc(NCCNC(C)=O)nc3c2cnn3C)cc1
REMARK SMILES IDX 8 1 9 2 10 3 18 4 19 5 20 6 21 7 22 8 23 9 24 10 7 11 6 13
REMARK SMILES IDX 3 14 4 15 26 16 5 17 25 18 2 19 1 20 11 21 12 23 13 24 14 25
REMARK SMILES IDX 15 26 16 28 17 29
REMARK H PARENT 7 12 11 22 14 27
ROOT
ATOM      1  C   UNL     1       6.118  42.895  49.864  1.00  0.00     0.147 A 
ATOM      2  N   UNL     1       6.992  43.936  49.818  1.00  0.00    -0.195 NA
ATOM      3  C   UNL     1       6.896  44.961  50.679  1.00  0.00     0.226 A 
ATOM      4  N   UNL     1       5.968  45.096  51.636  1.00  0.00    -0.193 NA
ATOM      5  C   UNL     1       5.112  44.064  51.673  1.00  0.00     0.165 A 
ATOM      6  C   UNL     1       5.118  42.959  50.843  1.00  0.00     0.082 A 
ATOM      7  C   UNL     1       4.024  42.186  51.286  1.00  0.00     0.149 A 
ATOM      8  N   UNL     1       3.371  42.744  52.312  1.00  0.00    -0.179 NA
ATOM      9  N   UNL     1       4.062  43.888  52.531  1.00  0.00    -0.250 N 
ATOM     10  C   UNL     1       3.652  44.769  53.594  1.00  0.00     0.176 C 
ENDROOT
BRANCH   1  11
ATOM     11  N   UNL     1       6.191  41.822  48.963  1.00  0.00    -0.339 N 
ATOM     12  H   UNL     1       6.959  41.191  49.142  1.00  0.00     0.168 HD
BRANCH  11  13
ATOM     13  C   UNL     1       5.441  41.496  47.821  1.00  0.00     0.040 A 
ATOM     14  C   UNL     1       3.796  40.814  45.612  1.00  0.00     0.119 A 
ATOM     15  C   UNL     1       3.473  40.369  46.890  1.00  0.00     0.048 A 
ATOM     16  C   UNL     1       4.934  41.600  45.441  1.00  0.00     0.048 A 
ATOM     17  C   UNL     1       4.286  40.711  47.980  1.00  0.00     0.030 A 
ATOM     18  C   UNL     1       5.743  41.941  46.533  1.00  0.00     0.030 A 
BRANCH  14  19
ATOM     19  O   UNL     1       3.096  40.556  44.467  1.00  0.00    -0.497 OA
ATOM     20  C   UNL     1       1.764  40.083  44.619  1.00  0.00     0.278 C 
ENDBRANCH  14  19
ENDBRANCH  11  13
ENDBRANCH   1  11
BRANCH   3  21
ATOM     21  N   UNL     1       7.855  45.948  50.506  1.00  0.00    -0.352 N 
ATOM     22  H   UNL     1       7.350  46.807  50.311  1.00  0.00     0.163 HD
BRANCH  21  23
ATOM     23  C   UNL     1       8.890  46.039  51.522  1.00  0.00     0.137 C 
BRANCH  23  24
ATOM     24  C   UNL     1       8.862  47.367  52.292  1.00  0.00     0.137 C 
BRANCH  24  25
ATOM     25  N   UNL     1       9.863  47.410  53.347  1.00  0.00    -0.355 N 
ATOM     26  C   UNL     1       9.493  47.633  54.656  1.00  0.00     0.216 C 
ATOM     27  H   UNL     1      10.726  46.906  53.190  1.00  0.00     0.163 HD
ATOM     28  C   UNL     1      10.620  47.485  55.643  1.00  0.00     0.114 C 
ATOM     29  O   UNL     1       8.354  47.918  55.006  1.00  0.00    -0.275 OA
ENDBRANCH  24  25
ENDBRANCH  23  24
ENDBRANCH  21  23
ENDBRANCH   3  21
TORSDOF 7
ENDMDL
MODEL 6
REMARK VINA RESULT:    -8.056      2.420      6.102
REMARK INTER + INTRA:         -12.578
REMARK INTER:                 -11.787
REMARK INTRA:                  -0.791
REMARK UNBOUND:                -1.225
REMARK SMILES COc1ccc(Nc2nc(NCCNC(C)=O)nc3c2cnn3C)cc1
REMARK SMILES IDX 8 1 9 2 10 3 18 4 19 5 20 6 21 7 22 8 23 9 24 10 7 11 6 13
REMARK SMILES IDX 3 14 4 15 26 16 5 17 25 18 2 19 1 20 11 21 12 23 13 24 14 25
REMARK SMILES IDX 15 26 16 28 17 29
REMARK H PARENT 7 12 11 22 14 27
ROOT
ATOM      1  C   UNL     1       6.111  44.499  51.398  1.00  0.00     0.147 A 
ATOM      2  N   UNL     1       5.141  44.459  52.350  1.00  0.00    -0.195 NA
ATOM      3  C   UNL     1       4.167  43.535  52.310  1.00  0.00     0.226 A 
ATOM      4  N   UNL     1       4.020  42.592  51.371  1.00  0.00    -0.193 NA
ATOM      5  C   UNL     1       4.982  42.640  50.438  1.00  0.00     0.165 A 
ATOM      6  C   UNL     1       6.030  43.539  50.380  1.00  0.00     0.082 A 
ATOM      7  C   UNL     1       6.741  43.171  49.219  1.00  0.00     0.149 A 
ATOM      8  N   UNL     1       6.199  42.125  48.584  1.00  0.00    -0.179 NA
ATOM      9  N   UNL     1       5.130  41.817  49.355  1.00  0.00    -0.250 N 
ATOM     10  C   UNL     1       4.287  40.708  48.986  1.00  0.00     0.176 C 
ENDROOT
BRANCH   1  11
ATOM     11  N   UNL     1       7.127  45.466  51.411  1.00  0.00    -0.339 N 
ATOM     12  H   UNL     1       7.474  45.704  50.493  1.00  0.00     0.168 HD
BRANCH  11  13
ATOM     13  C   UNL     1       7.797  46.117  52.460  1.00  0.00     0.040 A 
ATOM     14  C   UNL     1       9.260  47.484  54.471  1.00  0.00     0.119 A 
ATOM     15  C   UNL     1       9.886  47.094  53.291  1.00  0.00     0.048 A 
ATOM     16  C   UNL     1       7.907  47.195  54.641  1.00  0.00     0.048 A 
ATOM     17  C   UNL     1       9.159  46.422  52.298  1.00  0.00     0.030 A 
ATOM     18  C   UNL     1       7.184  46.524  53.646  1.00  0.00     0.030 A 
BRANCH  14  19
ATOM     19  O   UNL     1       9.845  48.141  55.516  1.00  0.00    -0.497 OA
ATOM     20  C   UNL     1      10.990  47.532  56.099  1.00  0.00     0.278 C 
ENDBRANCH  14  19
ENDBRANCH  11  13
ENDBRANCH   1  11
BRANCH   3  21
ATOM     21  N   UNL     1       3.250  43.624  53.347  1.00  0.00    -0.352 N 
ATOM     22  H   UNL     1       3.637  44.283  54.016  1.00  0.00     0.163 HD
BRANCH  21  23
ATOM     23  C   UNL     1       1.862  43.840  52.975  1.00  0.00     0.137 C 
BRANCH  23  24
ATOM     24  C   UNL     1       1.512  45.325  52.799  1.00  0.00     0.137 C 
BRANCH  24  25
ATOM     25  N   UNL     1       2.487  46.197  53.435  1.00  0.00    -0.355 N 
ATOM     26  C   UNL     1       3.215  47.098  52.688  1.00  0.00     0.216 C 
ATOM     27  H   UNL     1       2.349  46.413  54.414  1.00  0.00     0.163 HD
ATOM     28  C   UNL     1       4.058  48.034  53.512  1.00  0.00     0.114 C 
ATOM     29  O   UNL     1       3.187  47.153  51.465  1.00  0.00    -0.275 OA
ENDBRANCH  24  25
ENDBRANCH  23  24
ENDBRANCH  21  23
ENDBRANCH   3  21
TORSDOF 7
ENDMDL
MODEL 7
REMARK VINA RESULT:    -7.968      2.674      6.157
REMARK INTER + INTRA:         -12.453
REMARK INTER:                 -11.813
REMARK INTRA:                  -0.640
REMARK UNBOUND:                -1.225
REMARK SMILES COc1ccc(Nc2nc(NCCNC(C)=O)nc3c2cnn3C)cc1
REMARK SMILES IDX 8 1 9 2 10 3 18 4 19 5 20 6 21 7 22 8 23 9 24 10 7 11 6 13
REMARK SMILES IDX 3 14 4 15 26 16 5 17 25 18 2 19 1 20 11 21 12 23 13 24 14 25
REMARK SMILES IDX 15 26 16 28 17 29
REMARK H PARENT 7 12 11 22 14 27
ROOT
ATOM      1  C   UNL     1       2.593  43.544  53.083  1.00  0.00     0.147 A 
ATOM      2  N   UNL     1       3.399  44.339  53.837  1.00  0.00    -0.195 NA
ATOM      3  C   UNL     1       2.926  44.981  54.917  1.00  0.00     0.226 A 
ATOM      4  N   UNL     1       1.664  44.938  55.364  1.00  0.00    -0.193 NA
ATOM      5  C   UNL     1       0.879  44.150  54.614  1.00  0.00     0.165 A 
ATOM      6  C   UNL     1       1.256  43.443  53.489  1.00  0.00     0.082 A 
ATOM      7  C   UNL     1       0.075  42.790  53.076  1.00  0.00     0.149 A 
ATOM      8  N   UNL     1      -0.972  43.055  53.867  1.00  0.00    -0.179 NA
ATOM      9  N   UNL     1      -0.450  43.883  54.802  1.00  0.00    -0.250 N 
ATOM     10  C   UNL     1      -1.295  44.381  55.857  1.00  0.00     0.176 C 
ENDROOT
BRANCH   1  11
ATOM     11  N   UNL     1       3.063  42.879  51.941  1.00  0.00    -0.339 N 
ATOM     12  H   UNL     1       2.433  42.169  51.595  1.00  0.00     0.168 HD
BRANCH  11  13
ATOM     13  C   UNL     1       4.269  42.966  51.227  1.00  0.00     0.040 A 
ATOM     14  C   UNL     1       6.662  43.010  49.702  1.00  0.00     0.119 A 
ATOM     15  C   UNL     1       5.963  41.819  49.876  1.00  0.00     0.048 A 
ATOM     16  C   UNL     1       6.164  44.173  50.285  1.00  0.00     0.048 A 
ATOM     17  C   UNL     1       4.779  41.803  50.627  1.00  0.00     0.030 A 
ATOM     18  C   UNL     1       4.980  44.152  51.034  1.00  0.00     0.030 A 
BRANCH  14  19
ATOM     19  O   UNL     1       7.823  43.169  49.000  1.00  0.00    -0.497 OA
ATOM     20  C   UNL     1       8.620  44.301  49.321  1.00  0.00     0.278 C 
ENDBRANCH  14  19
ENDBRANCH  11  13
ENDBRANCH   1  11
BRANCH   3  21
ATOM     21  N   UNL     1       3.866  45.756  55.581  1.00  0.00    -0.352 N 
ATOM     22  H   UNL     1       3.670  45.655  56.573  1.00  0.00     0.163 HD
BRANCH  21  23
ATOM     23  C   UNL     1       5.254  45.579  55.189  1.00  0.00     0.137 C 
BRANCH  23  24
ATOM     24  C   UNL     1       5.854  46.826  54.524  1.00  0.00     0.137 C 
BRANCH  24  25
ATOM     25  N   UNL     1       7.086  46.527  53.810  1.00  0.00    -0.355 N 
ATOM     26  C   UNL     1       8.278  47.101  54.196  1.00  0.00     0.216 C 
ATOM     27  H   UNL     1       7.136  45.643  53.320  1.00  0.00     0.163 HD
ATOM     28  C   UNL     1       9.479  46.566  53.464  1.00  0.00     0.114 C 
ATOM     29  O   UNL     1       8.373  47.964  55.060  1.00  0.00    -0.275 OA
ENDBRANCH  24  25
ENDBRANCH  23  24
ENDBRANCH  21  23
ENDBRANCH   3  21
TORSDOF 7
ENDMDL
MODEL 8
REMARK VINA RESULT:    -7.918      2.958      7.129
REMARK INTER + INTRA:         -12.383
REMARK INTER:                 -11.603
REMARK INTRA:                  -0.780
REMARK UNBOUND:                -1.225
REMARK SMILES COc1ccc(Nc2nc(NCCNC(C)=O)nc3c2cnn3C)cc1
REMARK SMILES IDX 8 1 9 2 10 3 18 4 19 5 20 6 21 7 22 8 23 9 24 10 7 11 6 13
REMARK SMILES IDX 3 14 4 15 26 16 5 17 25 18 2 19 1 20 11 21 12 23 13 24 14 25
REMARK SMILES IDX 15 26 16 28 17 29
REMARK H PARENT 7 12 11 22 14 27
ROOT
ATOM      1  C   UNL     1       4.850  44.960  51.187  1.00  0.00     0.147 A 
ATOM      2  N   UNL     1       4.830  43.615  50.989  1.00  0.00    -0.195 NA
ATOM      3  C   UNL     1       3.719  42.896  51.217  1.00  0.00     0.226 A 
ATOM      4  N   UNL     1       2.551  43.379  51.661  1.00  0.00    -0.193 NA
ATOM      5  C   UNL     1       2.582  44.706  51.852  1.00  0.00     0.165 A 
ATOM      6  C   UNL     1       3.662  45.544  51.647  1.00  0.00     0.082 A 
ATOM      7  C   UNL     1       3.181  46.824  51.995  1.00  0.00     0.149 A 
ATOM      8  N   UNL     1       1.903  46.812  52.390  1.00  0.00    -0.179 NA
ATOM      9  N   UNL     1       1.560  45.506  52.286  1.00  0.00    -0.250 N 
ATOM     10  C   UNL     1       0.220  45.097  52.622  1.00  0.00     0.176 C 
ENDROOT
BRANCH   1  11
ATOM     11  N   UNL     1       6.005  45.727  50.971  1.00  0.00    -0.339 N 
ATOM     12  H   UNL     1       6.118  46.033  50.014  1.00  0.00     0.168 HD
BRANCH  11  13
ATOM     13  C   UNL     1       7.066  46.093  51.814  1.00  0.00     0.040 A 
ATOM     14  C   UNL     1       9.278  46.911  53.393  1.00  0.00     0.119 A 
ATOM     15  C   UNL     1       9.399  46.820  52.010  1.00  0.00     0.048 A 
ATOM     16  C   UNL     1       8.054  46.598  53.983  1.00  0.00     0.048 A 
ATOM     17  C   UNL     1       8.303  46.420  51.233  1.00  0.00     0.030 A 
ATOM     18  C   UNL     1       6.962  46.199  53.202  1.00  0.00     0.030 A 
BRANCH  14  19
ATOM     19  O   UNL     1      10.260  47.286  54.266  1.00  0.00    -0.497 OA
ATOM     20  C   UNL     1       9.851  47.991  55.431  1.00  0.00     0.278 C 
ENDBRANCH  14  19
ENDBRANCH  11  13
ENDBRANCH   1  11
BRANCH   3  21
ATOM     21  N   UNL     1       3.855  41.537  50.974  1.00  0.00    -0.352 N 
ATOM     22  H   UNL     1       2.928  41.135  51.074  1.00  0.00     0.163 HD
BRANCH  21  23
ATOM     23  C   UNL     1       4.583  41.158  49.774  1.00  0.00     0.137 C 
BRANCH  23  24
ATOM     24  C   UNL     1       3.704  40.440  48.740  1.00  0.00     0.137 C 
BRANCH  24  25
ATOM     25  N   UNL     1       4.307  40.439  47.416  1.00  0.00    -0.355 N 
ATOM     26  C   UNL     1       3.535  40.651  46.294  1.00  0.00     0.216 C 
ATOM     27  H   UNL     1       5.289  40.673  47.352  1.00  0.00     0.163 HD
ATOM     28  C   UNL     1       4.329  40.783  45.022  1.00  0.00     0.114 C 
ATOM     29  O   UNL     1       2.313  40.736  46.310  1.00  0.00    -0.275 OA
ENDBRANCH  24  25
ENDBRANCH  23  24
ENDBRANCH  21  23
ENDBRANCH   3  21
TORSDOF 7
ENDMDL
MODEL 9
REMARK VINA RESULT:    -7.915      2.864      6.340
REMARK INTER + INTRA:         -12.378
REMARK INTER:                 -11.711
REMARK INTRA:                  -0.668
REMARK UNBOUND:                -1.225
REMARK SMILES COc1ccc(Nc2nc(NCCNC(C)=O)nc3c2cnn3C)cc1
REMARK SMILES IDX 8 1 9 2 10 3 18 4 19 5 20 6 21 7 22 8 23 9 24 10 7 11 6 13
REMARK SMILES IDX 3 14 4 15 26 16 5 17 25 18 2 19 1 20 11 21 12 23 13 24 14 25
REMARK SMILES IDX 15 26 16 28 17 29
REMARK H PARENT 7 12 11 22 14 27
ROOT
ATOM      1  C   UNL     1       5.763  44.417  51.379  1.00  0.00     0.147 A 
ATOM      2  N   UNL     1       4.760  44.460  52.296  1.00  0.00    -0.195 NA
ATOM      3  C   UNL     1       3.780  43.542  52.296  1.00  0.00     0.226 A 
ATOM      4  N   UNL     1       3.659  42.527  51.431  1.00  0.00    -0.193 NA
ATOM      5  C   UNL     1       4.653  42.494  50.532  1.00  0.00     0.165 A 
ATOM      6  C   UNL     1       5.710  43.379  50.440  1.00  0.00     0.082 A 
ATOM      7  C   UNL     1       6.459  42.914  49.338  1.00  0.00     0.149 A 
ATOM      8  N   UNL     1       5.931  41.824  48.771  1.00  0.00    -0.179 NA
ATOM      9  N   UNL     1       4.832  41.585  49.525  1.00  0.00    -0.250 N 
ATOM     10  C   UNL     1       3.993  40.455  49.217  1.00  0.00     0.176 C 
ENDROOT
BRANCH   1  11
ATOM     11  N   UNL     1       6.787  45.377  51.352  1.00  0.00    -0.339 N 
ATOM     12  H   UNL     1       7.113  45.598  50.421  1.00  0.00     0.168 HD
BRANCH  11  13
ATOM     13  C   UNL     1       7.489  46.038  52.373  1.00  0.00     0.040 A 
ATOM     14  C   UNL     1       9.006  47.435  54.322  1.00  0.00     0.119 A 
ATOM     15  C   UNL     1       9.576  47.100  53.097  1.00  0.00     0.048 A 
ATOM     16  C   UNL     1       7.682  47.076  54.568  1.00  0.00     0.048 A 
ATOM     17  C   UNL     1       8.822  46.413  52.135  1.00  0.00     0.030 A 
ATOM     18  C   UNL     1       6.932  46.391  53.603  1.00  0.00     0.030 A 
BRANCH  14  19
ATOM     19  O   UNL     1       9.623  48.099  55.345  1.00  0.00    -0.497 OA
ATOM     20  C   UNL     1      10.781  47.491  55.901  1.00  0.00     0.278 C 
ENDBRANCH  14  19
ENDBRANCH  11  13
ENDBRANCH   1  11
BRANCH   3  21
ATOM     21  N   UNL     1       2.828  43.719  53.289  1.00  0.00    -0.352 N 
ATOM     22  H   UNL     1       3.250  44.328  53.985  1.00  0.00     0.163 HD
BRANCH  21  23
ATOM     23  C   UNL     1       1.491  44.087  52.854  1.00  0.00     0.137 C 
BRANCH  23  24
ATOM     24  C   UNL     1       1.039  45.453  53.389  1.00  0.00     0.137 C 
BRANCH  24  25
ATOM     25  N   UNL     1       0.486  45.360  54.732  1.00  0.00    -0.355 N 
ATOM     26  C   UNL     1       1.297  45.506  55.837  1.00  0.00     0.216 C 
ATOM     27  H   UNL     1      -0.495  45.578  54.846  1.00  0.00     0.163 HD
ATOM     28  C   UNL     1       0.549  45.546  57.142  1.00  0.00     0.114 C 
ATOM     29  O   UNL     1       2.517  45.605  55.781  1.00  0.00    -0.275 OA
ENDBRANCH  24  25
ENDBRANCH  23  24
ENDBRANCH  21  23
ENDBRANCH   3  21
TORSDOF 7
ENDMDL
MODEL 10
REMARK VINA RESULT:    -7.895      2.658      6.221
REMARK INTER + INTRA:         -12.351
REMARK INTER:                 -11.398
REMARK INTRA:                  -0.953
REMARK UNBOUND:                -1.225
REMARK SMILES COc1ccc(Nc2nc(NCCNC(C)=O)nc3c2cnn3C)cc1
REMARK SMILES IDX 8 1 9 2 10 3 18 4 19 5 20 6 21 7 22 8 23 9 24 10 7 11 6 13
REMARK SMILES IDX 3 14 4 15 26 16 5 17 25 18 2 19 1 20 11 21 12 23 13 24 14 25
REMARK SMILES IDX 15 26 16 28 17 29
REMARK H PARENT 7 12 11 22 14 27
ROOT
ATOM      1  C   UNL     1       5.844  45.036  51.138  1.00  0.00     0.147 A 
ATOM      2  N   UNL     1       4.648  45.575  51.495  1.00  0.00    -0.195 NA
ATOM      3  C   UNL     1       3.509  44.873  51.380  1.00  0.00     0.226 A 
ATOM      4  N   UNL     1       3.403  43.624  50.908  1.00  0.00    -0.193 NA
ATOM      5  C   UNL     1       4.588  43.103  50.559  1.00  0.00     0.165 A 
ATOM      6  C   UNL     1       5.818  43.727  50.637  1.00  0.00     0.082 A 
ATOM      7  C   UNL     1       6.728  42.766  50.150  1.00  0.00     0.149 A 
ATOM      8  N   UNL     1       6.136  41.622  49.788  1.00  0.00    -0.179 NA
ATOM      9  N   UNL     1       4.829  41.854  50.055  1.00  0.00    -0.250 N 
ATOM     10  C   UNL     1       3.861  40.818  49.801  1.00  0.00     0.176 C 
ENDROOT
BRANCH   1  11
ATOM     11  N   UNL     1       7.044  45.758  51.235  1.00  0.00    -0.339 N 
ATOM     12  H   UNL     1       7.535  45.850  50.357  1.00  0.00     0.168 HD
BRANCH  11  13
ATOM     13  C   UNL     1       7.722  46.318  52.329  1.00  0.00     0.040 A 
ATOM     14  C   UNL     1       9.205  47.507  54.436  1.00  0.00     0.119 A 
ATOM     15  C   UNL     1       9.831  47.177  53.239  1.00  0.00     0.048 A 
ATOM     16  C   UNL     1       7.842  47.247  54.577  1.00  0.00     0.048 A 
ATOM     17  C   UNL     1       9.094  46.593  52.198  1.00  0.00     0.030 A 
ATOM     18  C   UNL     1       7.111  46.665  53.535  1.00  0.00     0.030 A 
BRANCH  14  19
ATOM     19  O   UNL     1       9.799  48.077  55.527  1.00  0.00    -0.497 OA
ATOM     20  C   UNL     1      10.959  47.433  56.038  1.00  0.00     0.278 C 
ENDBRANCH  14  19
ENDBRANCH  11  13
ENDBRANCH   1  11
BRANCH   3  21
ATOM     21  N   UNL     1       2.371  45.557  51.781  1.00  0.00    -0.352 N 
ATOM     22  H   UNL     1       1.641  44.859  51.889  1.00  0.00     0.163 HD
BRANCH  21  23
ATOM     23  C   UNL     1       2.524  46.489  52.886  1.00  0.00     0.137 C 
BRANCH  23  24
ATOM     24  C   UNL     1       2.324  45.831  54.259  1.00  0.00     0.137 C 
BRANCH  24  25
ATOM     25  N   UNL     1       0.919  45.593  54.552  1.00  0.00    -0.355 N 
ATOM     26  C   UNL     1       0.357  44.354  54.334  1.00  0.00     0.216 C 
ATOM     27  H   UNL     1       0.484  46.181  55.251  1.00  0.00     0.163 HD
ATOM     28  C   UNL     1      -1.055  44.225  54.840  1.00  0.00     0.114 C 
ATOM     29  O   UNL     1       0.940  43.425  53.788  1.00  0.00    -0.275 OA
ENDBRANCH  24  25
ENDBRANCH  23  24
ENDBRANCH  21  23
ENDBRANCH   3  21
TORSDOF 7
ENDMDL
MODEL 11
REMARK VINA RESULT:    -7.793      3.759      7.229
REMARK INTER + INTRA:         -12.207
REMARK INTER:                 -10.680
REMARK INTRA:                  -1.527
REMARK UNBOUND:                -1.225
REMARK SMILES COc1ccc(Nc2nc(NCCNC(C)=O)nc3c2cnn3C)cc1
REMARK SMILES IDX 8 1 9 2 10 3 18 4 19 5 20 6 21 7 22 8 23 9 24 10 7 11 6 13
REMARK SMILES IDX 3 14 4 15 26 16 5 17 25 18 2 19 1 20 11 21 12 23 13 24 14 25
REMARK SMILES IDX 15 26 16 28 17 29
REMARK H PARENT 7 12 11 22 14 27
ROOT
ATOM      1  C   UNL     1       1.855  44.835  55.426  1.00  0.00     0.147 A 
ATOM      2  N   UNL     1       1.369  44.211  54.320  1.00  0.00    -0.195 NA
ATOM      3  C   UNL     1       0.047  44.115  54.102  1.00  0.00     0.226 A 
ATOM      4  N   UNL     1      -0.915  44.582  54.909  1.00  0.00    -0.193 NA
ATOM      5  C   UNL     1      -0.424  45.195  55.995  1.00  0.00     0.165 A 
ATOM      6  C   UNL     1       0.910  45.355  56.319  1.00  0.00     0.082 A 
ATOM      7  C   UNL     1       0.890  46.051  57.546  1.00  0.00     0.149 A 
ATOM      8  N   UNL     1      -0.350  46.316  57.976  1.00  0.00    -0.179 NA
ATOM      9  N   UNL     1      -1.132  45.788  57.005  1.00  0.00    -0.250 N 
ATOM     10  C   UNL     1      -2.564  45.892  57.116  1.00  0.00     0.176 C 
ENDROOT
BRANCH   1  11
ATOM     11  N   UNL     1       3.232  44.930  55.680  1.00  0.00    -0.339 N 
ATOM     12  H   UNL     1       3.500  44.602  56.597  1.00  0.00     0.168 HD
BRANCH  11  13
ATOM     13  C   UNL     1       4.296  45.456  54.929  1.00  0.00     0.040 A 
ATOM     14  C   UNL     1       6.409  46.666  53.472  1.00  0.00     0.119 A 
ATOM     15  C   UNL     1       5.314  47.422  53.876  1.00  0.00     0.048 A 
ATOM     16  C   UNL     1       6.449  45.311  53.799  1.00  0.00     0.048 A 
ATOM     17  C   UNL     1       4.273  46.822  54.600  1.00  0.00     0.030 A 
ATOM     18  C   UNL     1       5.407  44.716  54.522  1.00  0.00     0.030 A 
BRANCH  14  19
ATOM     19  O   UNL     1       7.487  47.120  52.765  1.00  0.00    -0.497 OA
ATOM     20  C   UNL     1       7.772  46.465  51.536  1.00  0.00     0.278 C 
ENDBRANCH  14  19
ENDBRANCH  11  13
ENDBRANCH   1  11
BRANCH   3  21
ATOM     21  N   UNL     1      -0.295  43.449  52.935  1.00  0.00    -0.352 N 
ATOM     22  H   UNL     1      -0.784  44.123  52.354  1.00  0.00     0.163 HD
BRANCH  21  23
ATOM     23  C   UNL     1       0.760  42.695  52.279  1.00  0.00     0.137 C 
BRANCH  23  24
ATOM     24  C   UNL     1       1.104  43.234  50.883  1.00  0.00     0.137 C 
BRANCH  24  25
ATOM     25  N   UNL     1       1.574  44.610  50.927  1.00  0.00    -0.355 N 
ATOM     26  C   UNL     1       2.900  44.890  51.177  1.00  0.00     0.216 C 
ATOM     27  H   UNL     1       1.046  45.299  50.408  1.00  0.00     0.163 HD
ATOM     28  C   UNL     1       3.256  46.345  51.028  1.00  0.00     0.114 C 
ATOM     29  O   UNL     1       3.732  44.045  51.486  1.00  0.00    -0.275 OA
ENDBRANCH  24  25
ENDBRANCH  23  24
ENDBRANCH  21  23
ENDBRANCH   3  21
TORSDOF 7
ENDMDL
MODEL 12
REMARK VINA RESULT:    -7.768      3.063      7.038
REMARK INTER + INTRA:         -12.171
REMARK INTER:                 -11.521
REMARK INTRA:                  -0.650
REMARK UNBOUND:                -1.225
REMARK SMILES COc1ccc(Nc2nc(NCCNC(C)=O)nc3c2cnn3C)cc1
REMARK SMILES IDX 8 1 9 2 10 3 18 4 19 5 20 6 21 7 22 8 23 9 24 10 7 11 6 13
REMARK SMILES IDX 3 14 4 15 26 16 5 17 25 18 2 19 1 20 11 21 12 23 13 24 14 25
REMARK SMILES IDX 15 26 16 28 17 29
REMARK H PARENT 7 12 11 22 14 27
ROOT
ATOM      1  C   UNL     1       3.162  44.052  52.845  1.00  0.00     0.147 A 
ATOM      2  N   UNL     1       3.628  45.312  53.053  1.00  0.00    -0.195 NA
ATOM      3  C   UNL     1       4.708  45.768  52.399  1.00  0.00     0.226 A 
ATOM      4  N   UNL     1       5.439  45.077  51.514  1.00  0.00    -0.193 NA
ATOM      5  C   UNL     1       4.969  43.836  51.317  1.00  0.00     0.165 A 
ATOM      6  C   UNL     1       3.870  43.264  51.929  1.00  0.00     0.082 A 
ATOM      7  C   UNL     1       3.809  41.962  51.388  1.00  0.00     0.149 A 
ATOM      8  N   UNL     1       4.783  41.717  50.504  1.00  0.00    -0.179 NA
ATOM      9  N   UNL     1       5.473  42.882  50.476  1.00  0.00    -0.250 N 
ATOM     10  C   UNL     1       6.616  43.006  49.607  1.00  0.00     0.176 C 
ENDROOT
BRANCH   1  11
ATOM     11  N   UNL     1       2.046  43.550  53.532  1.00  0.00    -0.339 N 
ATOM     12  H   UNL     1       1.751  42.636  53.217  1.00  0.00     0.168 HD
BRANCH  11  13
ATOM     13  C   UNL     1       1.221  44.103  54.525  1.00  0.00     0.040 A 
ATOM     14  C   UNL     1      -0.563  45.119  56.484  1.00  0.00     0.119 A 
ATOM     15  C   UNL     1      -1.057  44.492  55.344  1.00  0.00     0.048 A 
ATOM     16  C   UNL     1       0.817  45.233  56.644  1.00  0.00     0.048 A 
ATOM     17  C   UNL     1      -0.172  43.988  54.380  1.00  0.00     0.030 A 
ATOM     18  C   UNL     1       1.696  44.727  55.679  1.00  0.00     0.030 A 
BRANCH  14  19
ATOM     19  O   UNL     1      -1.308  45.653  57.497  1.00  0.00    -0.497 OA
ATOM     20  C   UNL     1      -1.336  47.071  57.597  1.00  0.00     0.278 C 
ENDBRANCH  14  19
ENDBRANCH  11  13
ENDBRANCH   1  11
BRANCH   3  21
ATOM     21  N   UNL     1       5.065  47.070  52.718  1.00  0.00    -0.352 N 
ATOM     22  H   UNL     1       4.375  47.672  52.278  1.00  0.00     0.163 HD
BRANCH  21  23
ATOM     23  C   UNL     1       5.346  47.346  54.117  1.00  0.00     0.137 C 
BRANCH  23  24
ATOM     24  C   UNL     1       6.467  46.467  54.690  1.00  0.00     0.137 C 
BRANCH  24  25
ATOM     25  N   UNL     1       7.666  46.503  53.866  1.00  0.00    -0.355 N 
ATOM     26  C   UNL     1       8.726  47.315  54.205  1.00  0.00     0.216 C 
ATOM     27  H   UNL     1       7.870  45.684  53.308  1.00  0.00     0.163 HD
ATOM     28  C   UNL     1       9.947  47.116  53.348  1.00  0.00     0.114 C 
ATOM     29  O   UNL     1       8.700  48.127  55.122  1.00  0.00    -0.275 OA
ENDBRANCH  24  25
ENDBRANCH  23  24
ENDBRANCH  21  23
ENDBRANCH   3  21
TORSDOF 7
ENDMDL
MODEL 13
REMARK VINA RESULT:    -7.746      2.896      6.273
REMARK INTER + INTRA:         -12.141
REMARK INTER:                 -11.417
REMARK INTRA:                  -0.724
REMARK UNBOUND:                -1.225
REMARK SMILES COc1ccc(Nc2nc(NCCNC(C)=O)nc3c2cnn3C)cc1
REMARK SMILES IDX 8 1 9 2 10 3 18 4 19 5 20 6 21 7 22 8 23 9 24 10 7 11 6 13
REMARK SMILES IDX 3 14 4 15 26 16 5 17 25 18 2 19 1 20 11 21 12 23 13 24 14 25
REMARK SMILES IDX 15 26 16 28 17 29
REMARK H PARENT 7 12 11 22 14 27
ROOT
ATOM      1  C   UNL     1       6.554  45.374  51.303  1.00  0.00     0.147 A 
ATOM      2  N   UNL     1       5.386  45.242  51.986  1.00  0.00    -0.195 NA
ATOM      3  C   UNL     1       4.544  44.228  51.732  1.00  0.00     0.226 A 
ATOM      4  N   UNL     1       4.725  43.272  50.811  1.00  0.00    -0.193 NA
ATOM      5  C   UNL     1       5.879  43.411  50.144  1.00  0.00     0.165 A 
ATOM      6  C   UNL     1       6.819  44.408  50.323  1.00  0.00     0.082 A 
ATOM      7  C   UNL     1       7.829  44.108  49.384  1.00  0.00     0.149 A 
ATOM      8  N   UNL     1       7.562  43.013  48.663  1.00  0.00    -0.179 NA
ATOM      9  N   UNL     1       6.368  42.604  49.153  1.00  0.00    -0.250 N 
ATOM     10  C   UNL     1       5.752  41.417  48.617  1.00  0.00     0.176 C 
ENDROOT
BRANCH   1  11
ATOM     11  N   UNL     1       7.439  46.436  51.542  1.00  0.00    -0.339 N 
ATOM     12  H   UNL     1       7.640  46.990  50.722  1.00  0.00     0.168 HD
BRANCH  11  13
ATOM     13  C   UNL     1       8.149  46.834  52.686  1.00  0.00     0.040 A 
ATOM     14  C   UNL     1       9.722  47.623  54.913  1.00  0.00     0.119 A 
ATOM     15  C   UNL     1      10.282  46.858  53.895  1.00  0.00     0.048 A 
ATOM     16  C   UNL     1       8.381  47.994  54.815  1.00  0.00     0.048 A 
ATOM     17  C   UNL     1       9.503  46.473  52.794  1.00  0.00     0.030 A 
ATOM     18  C   UNL     1       7.608  47.608  53.713  1.00  0.00     0.030 A 
BRANCH  14  19
ATOM     19  O   UNL     1      10.361  48.064  56.037  1.00  0.00    -0.497 OA
ATOM     20  C   UNL     1      11.468  47.295  56.491  1.00  0.00     0.278 C 
ENDBRANCH  14  19
ENDBRANCH  11  13
ENDBRANCH   1  11
BRANCH   3  21
ATOM     21  N   UNL     1       3.393  44.229  52.507  1.00  0.00    -0.352 N 
ATOM     22  H   UNL     1       2.949  45.129  52.357  1.00  0.00     0.163 HD
BRANCH  21  23
ATOM     23  C   UNL     1       2.526  43.068  52.391  1.00  0.00     0.137 C 
BRANCH  23  24
ATOM     24  C   UNL     1       1.391  43.060  53.426  1.00  0.00     0.137 C 
BRANCH  24  25
ATOM     25  N   UNL     1       1.667  43.944  54.548  1.00  0.00    -0.355 N 
ATOM     26  C   UNL     1       0.654  44.671  55.135  1.00  0.00     0.216 C 
ATOM     27  H   UNL     1       2.475  43.731  55.120  1.00  0.00     0.163 HD
ATOM     28  C   UNL     1       1.071  45.406  56.380  1.00  0.00     0.114 C 
ATOM     29  O   UNL     1      -0.491  44.719  54.703  1.00  0.00    -0.275 OA
ENDBRANCH  24  25
ENDBRANCH  23  24
ENDBRANCH  21  23
ENDBRANCH   3  21
TORSDOF 7
ENDMDL
MODEL 14
REMARK VINA RESULT:    -7.737      2.888      6.058
REMARK INTER + INTRA:         -12.128
REMARK INTER:                 -10.990
REMARK INTRA:                  -1.138
REMARK UNBOUND:                -1.225
REMARK SMILES COc1ccc(Nc2nc(NCCNC(C)=O)nc3c2cnn3C)cc1
REMARK SMILES IDX 8 1 9 2 10 3 18 4 19 5 20 6 21 7 22 8 23 9 24 10 7 11 6 13
REMARK SMILES IDX 3 14 4 15 26 16 5 17 25 18 2 19 1 20 11 21 12 23 13 24 14 25
REMARK SMILES IDX 15 26 16 28 17 29
REMARK H PARENT 7 12 11 22 14 27
ROOT
ATOM      1  C   UNL     1       2.219  43.230  53.486  1.00  0.00     0.147 A 
ATOM      2  N   UNL     1       2.853  44.184  54.220  1.00  0.00    -0.195 NA
ATOM      3  C   UNL     1       2.159  45.068  54.955  1.00  0.00     0.226 A 
ATOM      4  N   UNL     1       0.824  45.134  55.047  1.00  0.00    -0.193 NA
ATOM      5  C   UNL     1       0.211  44.188  54.321  1.00  0.00     0.165 A 
ATOM      6  C   UNL     1       0.819  43.230  53.533  1.00  0.00     0.082 A 
ATOM      7  C   UNL     1      -0.255  42.497  52.985  1.00  0.00     0.149 A 
ATOM      8  N   UNL     1      -1.451  42.944  53.384  1.00  0.00    -0.179 NA
ATOM      9  N   UNL     1      -1.136  43.974  54.205  1.00  0.00    -0.250 N 
ATOM     10  C   UNL     1      -2.191  44.713  54.850  1.00  0.00     0.176 C 
ENDROOT
BRANCH   1  11
ATOM     11  N   UNL     1       2.925  42.308  52.698  1.00  0.00    -0.339 N 
ATOM     12  H   UNL     1       2.665  41.346  52.865  1.00  0.00     0.168 HD
BRANCH  11  13
ATOM     13  C   UNL     1       3.968  42.463  51.770  1.00  0.00     0.040 A 
ATOM     14  C   UNL     1       5.995  42.676  49.795  1.00  0.00     0.119 A 
ATOM     15  C   UNL     1       5.154  41.568  49.820  1.00  0.00     0.048 A 
ATOM     16  C   UNL     1       5.819  43.675  50.752  1.00  0.00     0.048 A 
ATOM     17  C   UNL     1       4.151  41.468  50.795  1.00  0.00     0.030 A 
ATOM     18  C   UNL     1       4.815  43.571  51.723  1.00  0.00     0.030 A 
BRANCH  14  19
ATOM     19  O   UNL     1       7.008  42.901  48.907  1.00  0.00    -0.497 OA
ATOM     20  C   UNL     1       7.979  43.874  49.270  1.00  0.00     0.278 C 
ENDBRANCH  14  19
ENDBRANCH  11  13
ENDBRANCH   1  11
BRANCH   3  21
ATOM     21  N   UNL     1       2.943  45.980  55.646  1.00  0.00    -0.352 N 
ATOM     22  H   UNL     1       2.754  45.832  56.632  1.00  0.00     0.163 HD
BRANCH  21  23
ATOM     23  C   UNL     1       4.347  46.049  55.274  1.00  0.00     0.137 C 
BRANCH  23  24
ATOM     24  C   UNL     1       4.649  47.175  54.275  1.00  0.00     0.137 C 
BRANCH  24  25
ATOM     25  N   UNL     1       4.535  46.728  52.895  1.00  0.00    -0.355 N 
ATOM     26  C   UNL     1       3.395  46.987  52.166  1.00  0.00     0.216 C 
ATOM     27  H   UNL     1       5.394  46.594  52.378  1.00  0.00     0.163 HD
ATOM     28  C   UNL     1       3.498  46.606  50.714  1.00  0.00     0.114 C 
ATOM     29  O   UNL     1       2.381  47.489  52.637  1.00  0.00    -0.275 OA
ENDBRANCH  24  25
ENDBRANCH  23  24
ENDBRANCH  21  23
ENDBRANCH   3  21
TORSDOF 7
ENDMDL
MODEL 15
REMARK VINA RESULT:    -7.655      2.304      4.865
REMARK INTER + INTRA:         -12.012
REMARK INTER:                 -10.677
REMARK INTRA:                  -1.335
REMARK UNBOUND:                -1.225
REMARK SMILES COc1ccc(Nc2nc(NCCNC(C)=O)nc3c2cnn3C)cc1
REMARK SMILES IDX 8 1 9 2 10 3 18 4 19 5 20 6 21 7 22 8 23 9 24 10 7 11 6 13
REMARK SMILES IDX 3 14 4 15 26 16 5 17 25 18 2 19 1 20 11 21 12 23 13 24 14 25
REMARK SMILES IDX 15 26 16 28 17 29
REMARK H PARENT 7 12 11 22 14 27
ROOT
ATOM      1  C   UNL     1       5.703  46.206  52.113  1.00  0.00     0.147 A 
ATOM      2  N   UNL     1       6.266  45.755  50.961  1.00  0.00    -0.195 NA
ATOM      3  C   UNL     1       7.599  45.701  50.814  1.00  0.00     0.226 A 
ATOM      4  N   UNL     1       8.503  46.079  51.728  1.00  0.00    -0.193 NA
ATOM      5  C   UNL     1       7.937  46.522  52.860  1.00  0.00     0.165 A 
ATOM      6  C   UNL     1       6.584  46.617  53.122  1.00  0.00     0.082 A 
ATOM      7  C   UNL     1       6.518  47.140  54.431  1.00  0.00     0.149 A 
ATOM      8  N   UNL     1       7.725  47.362  54.966  1.00  0.00    -0.179 NA
ATOM      9  N   UNL     1       8.573  46.969  53.986  1.00  0.00    -0.250 N 
ATOM     10  C   UNL     1       9.994  47.051  54.206  1.00  0.00     0.176 C 
ENDROOT
BRANCH   1  11
ATOM     11  N   UNL     1       4.312  46.286  52.280  1.00  0.00    -0.339 N 
ATOM     12  H   UNL     1       3.987  47.202  52.554  1.00  0.00     0.168 HD
BRANCH  11  13
ATOM     13  C   UNL     1       3.295  45.320  52.202  1.00  0.00     0.040 A 
ATOM     14  C   UNL     1       1.230  43.374  52.208  1.00  0.00     0.119 A 
ATOM     15  C   UNL     1       2.029  43.552  53.333  1.00  0.00     0.048 A 
ATOM     16  C   UNL     1       1.462  44.168  51.086  1.00  0.00     0.048 A 
ATOM     17  C   UNL     1       3.045  44.518  53.328  1.00  0.00     0.030 A 
ATOM     18  C   UNL     1       2.478  45.132  51.086  1.00  0.00     0.030 A 
BRANCH  14  19
ATOM     19  O   UNL     1       0.211  42.474  52.076  1.00  0.00    -0.497 OA
ATOM     20  C   UNL     1      -1.052  42.848  52.612  1.00  0.00     0.278 C 
ENDBRANCH  14  19
ENDBRANCH  11  13
ENDBRANCH   1  11
BRANCH   3  21
ATOM     21  N   UNL     1       8.023  45.222  49.584  1.00  0.00    -0.352 N 
ATOM     22  H   UNL     1       8.796  45.815  49.297  1.00  0.00     0.163 HD
BRANCH  21  23
ATOM     23  C   UNL     1       8.252  43.790  49.483  1.00  0.00     0.137 C 
BRANCH  23  24
ATOM     24  C   UNL     1       7.047  43.027  48.915  1.00  0.00     0.137 C 
BRANCH  24  25
ATOM     25  N   UNL     1       6.031  42.777  49.926  1.00  0.00    -0.355 N 
ATOM     26  C   UNL     1       5.151  41.725  49.792  1.00  0.00     0.216 C 
ATOM     27  H   UNL     1       6.218  43.107  50.864  1.00  0.00     0.163 HD
ATOM     28  C   UNL     1       4.274  41.505  50.995  1.00  0.00     0.114 C 
ATOM     29  O   UNL     1       5.080  41.015  48.796  1.00  0.00    -0.275 OA
ENDBRANCH  24  25
ENDBRANCH  23  24
ENDBRANCH  21  23
ENDBRANCH   3  21
TORSDOF 7
ENDMDL
MODEL 16
REMARK VINA RESULT:    -7.634      3.311      6.295
REMARK INTER + INTRA:         -11.982
REMARK INTER:                 -11.268
REMARK INTRA:                  -0.714
REMARK UNBOUND:                -1.225
REMARK SMILES COc1ccc(Nc2nc(NCCNC(C)=O)nc3c2cnn3C)cc1
REMARK SMILES IDX 8 1 9 2 10 3 18 4 19 5 20 6 21 7 22 8 23 9 24 10 7 11 6 13
REMARK SMILES IDX 3 14 4 15 26 16 5 17 25 18 2 19 1 20 11 21 12 23 13 24 14 25
REMARK SMILES IDX 15 26 16 28 17 29
REMARK H PARENT 7 12 11 22 14 27
ROOT
ATOM      1  C   UNL     1       3.861  43.455  52.121  1.00  0.00     0.147 A 
ATOM      2  N   UNL     1       4.078  44.745  52.493  1.00  0.00    -0.195 NA
ATOM      3  C   UNL     1       5.104  45.449  51.988  1.00  0.00     0.226 A 
ATOM      4  N   UNL     1       6.009  44.995  51.111  1.00  0.00    -0.193 NA
ATOM      5  C   UNL     1       5.785  43.722  50.751  1.00  0.00     0.165 A 
ATOM      6  C   UNL     1       4.764  42.907  51.201  1.00  0.00     0.082 A 
ATOM      7  C   UNL     1       4.976  41.682  50.533  1.00  0.00     0.149 A 
ATOM      8  N   UNL     1       6.041  41.707  49.723  1.00  0.00    -0.179 NA
ATOM      9  N   UNL     1       6.512  42.968  49.871  1.00  0.00    -0.250 N 
ATOM     10  C   UNL     1       7.674  43.382  49.127  1.00  0.00     0.176 C 
ENDROOT
BRANCH   1  11
ATOM     11  N   UNL     1       2.806  42.696  52.650  1.00  0.00    -0.339 N 
ATOM     12  H   UNL     1       3.006  41.708  52.714  1.00  0.00     0.168 HD
BRANCH  11  13
ATOM     13  C   UNL     1       1.502  43.040  53.045  1.00  0.00     0.040 A 
ATOM     14  C   UNL     1      -1.185  43.600  53.764  1.00  0.00     0.119 A 
ATOM     15  C   UNL     1      -0.907  42.823  52.645  1.00  0.00     0.048 A 
ATOM     16  C   UNL     1      -0.123  44.091  54.523  1.00  0.00     0.048 A 
ATOM     17  C   UNL     1       0.422  42.545  52.294  1.00  0.00     0.030 A 
ATOM     18  C   UNL     1       1.202  43.810  54.170  1.00  0.00     0.030 A 
BRANCH  14  19
ATOM     19  O   UNL     1      -2.426  43.948  54.218  1.00  0.00    -0.497 OA
ATOM     20  C   UNL     1      -3.213  44.774  53.369  1.00  0.00     0.278 C 
ENDBRANCH  14  19
ENDBRANCH  11  13
ENDBRANCH   1  11
BRANCH   3  21
ATOM     21  N   UNL     1       5.197  46.748  52.464  1.00  0.00    -0.352 N 
ATOM     22  H   UNL     1       4.526  47.296  51.933  1.00  0.00     0.163 HD
BRANCH  21  23
ATOM     23  C   UNL     1       5.156  46.921  53.906  1.00  0.00     0.137 C 
BRANCH  23  24
ATOM     24  C   UNL     1       6.419  46.404  54.610  1.00  0.00     0.137 C 
BRANCH  24  25
ATOM     25  N   UNL     1       7.591  46.474  53.751  1.00  0.00    -0.355 N 
ATOM     26  C   UNL     1       8.671  47.256  54.099  1.00  0.00     0.216 C 
ATOM     27  H   UNL     1       7.769  45.686  53.142  1.00  0.00     0.163 HD
ATOM     28  C   UNL     1       9.862  47.093  53.193  1.00  0.00     0.114 C 
ATOM     29  O   UNL     1       8.684  48.016  55.060  1.00  0.00    -0.275 OA
ENDBRANCH  24  25
ENDBRANCH  23  24
ENDBRANCH  21  23
ENDBRANCH   3  21
TORSDOF 7
ENDMDL
MODEL 17
REMARK VINA RESULT:    -7.614      2.917      7.212
REMARK INTER + INTRA:         -11.955
REMARK INTER:                 -11.299
REMARK INTRA:                  -0.656
REMARK UNBOUND:                -1.225
REMARK SMILES COc1ccc(Nc2nc(NCCNC(C)=O)nc3c2cnn3C)cc1
REMARK SMILES IDX 8 1 9 2 10 3 18 4 19 5 20 6 21 7 22 8 23 9 24 10 7 11 6 13
REMARK SMILES IDX 3 14 4 15 26 16 5 17 25 18 2 19 1 20 11 21 12 23 13 24 14 25
REMARK SMILES IDX 15 26 16 28 17 29
REMARK H PARENT 7 12 11 22 14 27
ROOT
ATOM      1  C   UNL     1       3.219  44.208  52.173  1.00  0.00     0.147 A 
ATOM      2  N   UNL     1       4.054  45.261  52.377  1.00  0.00    -0.195 NA
ATOM      3  C   UNL     1       5.329  45.227  51.954  1.00  0.00     0.226 A 
ATOM      4  N   UNL     1       5.918  44.202  51.324  1.00  0.00    -0.193 NA
ATOM      5  C   UNL     1       5.085  43.170  51.128  1.00  0.00     0.165 A 
ATOM      6  C   UNL     1       3.760  43.096  51.515  1.00  0.00     0.082 A 
ATOM      7  C   UNL     1       3.343  41.818  51.086  1.00  0.00     0.149 A 
ATOM      8  N   UNL     1       4.315  41.129  50.476  1.00  0.00    -0.179 NA
ATOM      9  N   UNL     1       5.366  41.983  50.510  1.00  0.00    -0.250 N 
ATOM     10  C   UNL     1       6.619  41.585  49.922  1.00  0.00     0.176 C 
ENDROOT
BRANCH   1  11
ATOM     11  N   UNL     1       1.889  44.216  52.622  1.00  0.00    -0.339 N 
ATOM     12  H   UNL     1       1.218  43.958  51.912  1.00  0.00     0.168 HD
BRANCH  11  13
ATOM     13  C   UNL     1       1.309  44.579  53.848  1.00  0.00     0.040 A 
ATOM     14  C   UNL     1       0.006  45.225  56.285  1.00  0.00     0.119 A 
ATOM     15  C   UNL     1      -0.738  44.856  55.169  1.00  0.00     0.048 A 
ATOM     16  C   UNL     1       1.396  45.266  56.183  1.00  0.00     0.048 A 
ATOM     17  C   UNL     1      -0.090  44.534  53.967  1.00  0.00     0.030 A 
ATOM     18  C   UNL     1       2.038  44.943  54.981  1.00  0.00     0.030 A 
BRANCH  14  19
ATOM     19  O   UNL     1      -0.492  45.563  57.512  1.00  0.00    -0.497 OA
ATOM     20  C   UNL     1      -0.597  46.950  57.804  1.00  0.00     0.278 C 
ENDBRANCH  14  19
ENDBRANCH  11  13
ENDBRANCH   1  11
BRANCH   3  21
ATOM     21  N   UNL     1       6.057  46.373  52.237  1.00  0.00    -0.352 N 
ATOM     22  H   UNL     1       5.978  46.522  53.239  1.00  0.00     0.163 HD
BRANCH  21  23
ATOM     23  C   UNL     1       7.402  46.444  51.692  1.00  0.00     0.137 C 
BRANCH  23  24
ATOM     24  C   UNL     1       8.088  47.792  51.957  1.00  0.00     0.137 C 
BRANCH  24  25
ATOM     25  N   UNL     1       9.204  47.666  52.882  1.00  0.00    -0.355 N 
ATOM     26  C   UNL     1       8.982  47.536  54.236  1.00  0.00     0.216 C 
ATOM     27  H   UNL     1      10.070  47.290  52.518  1.00  0.00     0.163 HD
ATOM     28  C   UNL     1      10.225  47.253  55.035  1.00  0.00     0.114 C 
ATOM     29  O   UNL     1       7.878  47.631  54.760  1.00  0.00    -0.275 OA
ENDBRANCH  24  25
ENDBRANCH  23  24
ENDBRANCH  21  23
ENDBRANCH   3  21
TORSDOF 7
ENDMDL
MODEL 18
REMARK VINA RESULT:    -7.596      2.847      4.584
REMARK INTER + INTRA:         -11.929
REMARK INTER:                 -10.882
REMARK INTRA:                  -1.047
REMARK UNBOUND:                -1.225
REMARK SMILES COc1ccc(Nc2nc(NCCNC(C)=O)nc3c2cnn3C)cc1
REMARK SMILES IDX 8 1 9 2 10 3 18 4 19 5 20 6 21 7 22 8 23 9 24 10 7 11 6 13
REMARK SMILES IDX 3 14 4 15 26 16 5 17 25 18 2 19 1 20 11 21 12 23 13 24 14 25
REMARK SMILES IDX 15 26 16 28 17 29
REMARK H PARENT 7 12 11 22 14 27
ROOT
ATOM      1  C   UNL     1       5.301  42.288  50.076  1.00  0.00     0.147 A 
ATOM      2  N   UNL     1       4.306  41.971  50.947  1.00  0.00    -0.195 NA
ATOM      3  C   UNL     1       4.000  42.778  51.976  1.00  0.00     0.226 A 
ATOM      4  N   UNL     1       4.612  43.932  52.274  1.00  0.00    -0.193 NA
ATOM      5  C   UNL     1       5.590  44.235  51.409  1.00  0.00     0.165 A 
ATOM      6  C   UNL     1       5.987  43.486  50.318  1.00  0.00     0.082 A 
ATOM      7  C   UNL     1       7.043  44.229  49.750  1.00  0.00     0.149 A 
ATOM      8  N   UNL     1       7.304  45.360  50.417  1.00  0.00    -0.179 NA
ATOM      9  N   UNL     1       6.397  45.341  51.422  1.00  0.00    -0.250 N 
ATOM     10  C   UNL     1       6.362  46.430  52.365  1.00  0.00     0.176 C 
ENDROOT
BRANCH   1  11
ATOM     11  N   UNL     1       5.647  41.451  49.006  1.00  0.00    -0.339 N 
ATOM     12  H   UNL     1       6.540  40.992  49.120  1.00  0.00     0.168 HD
BRANCH  11  13
ATOM     13  C   UNL     1       5.021  41.181  47.778  1.00  0.00     0.040 A 
ATOM     14  C   UNL     1       3.896  40.669  45.223  1.00  0.00     0.119 A 
ATOM     15  C   UNL     1       5.009  41.495  45.346  1.00  0.00     0.048 A 
ATOM     16  C   UNL     1       3.351  40.099  46.372  1.00  0.00     0.048 A 
ATOM     17  C   UNL     1       5.565  41.742  46.610  1.00  0.00     0.030 A 
ATOM     18  C   UNL     1       3.910  40.348  47.632  1.00  0.00     0.030 A 
BRANCH  14  19
ATOM     19  O   UNL     1       3.257  40.345  44.060  1.00  0.00    -0.497 OA
ATOM     20  C   UNL     1       2.002  39.687  44.177  1.00  0.00     0.278 C 
ENDBRANCH  14  19
ENDBRANCH  11  13
ENDBRANCH   1  11
BRANCH   3  21
ATOM     21  N   UNL     1       2.966  42.319  52.778  1.00  0.00    -0.352 N 
ATOM     22  H   UNL     1       3.324  42.308  53.728  1.00  0.00     0.163 HD
BRANCH  21  23
ATOM     23  C   UNL     1       1.670  42.951  52.598  1.00  0.00     0.137 C 
BRANCH  23  24
ATOM     24  C   UNL     1       1.192  43.709  53.845  1.00  0.00     0.137 C 
BRANCH  24  25
ATOM     25  N   UNL     1       2.296  44.318  54.571  1.00  0.00    -0.355 N 
ATOM     26  C   UNL     1       2.656  45.627  54.333  1.00  0.00     0.216 C 
ATOM     27  H   UNL     1       2.522  43.935  55.480  1.00  0.00     0.163 HD
ATOM     28  C   UNL     1       3.703  46.154  55.276  1.00  0.00     0.114 C 
ATOM     29  O   UNL     1       2.173  46.318  53.444  1.00  0.00    -0.275 OA
ENDBRANCH  24  25
ENDBRANCH  23  24
ENDBRANCH  21  23
ENDBRANCH   3  21
TORSDOF 7
ENDMDL
MODEL 19
REMARK VINA RESULT:    -7.524      2.255      5.526
REMARK INTER + INTRA:         -11.828
REMARK INTER:                 -10.406
REMARK INTRA:                  -1.421
REMARK UNBOUND:                -1.225
REMARK SMILES COc1ccc(Nc2nc(NCCNC(C)=O)nc3c2cnn3C)cc1
REMARK SMILES IDX 8 1 9 2 10 3 18 4 19 5 20 6 21 7 22 8 23 9 24 10 7 11 6 13
REMARK SMILES IDX 3 14 4 15 26 16 5 17 25 18 2 19 1 20 11 21 12 23 13 24 14 25
REMARK SMILES IDX 15 26 16 28 17 29
REMARK H PARENT 7 12 11 22 14 27
ROOT
ATOM      1  C   UNL     1       5.421  45.949  51.508  1.00  0.00     0.147 A 
ATOM      2  N   UNL     1       5.454  44.902  50.642  1.00  0.00    -0.195 NA
ATOM      3  C   UNL     1       6.620  44.418  50.183  1.00  0.00     0.226 A 
ATOM      4  N   UNL     1       7.837  44.886  50.489  1.00  0.00    -0.193 NA
ATOM      5  C   UNL     1       7.792  45.918  51.344  1.00  0.00     0.165 A 
ATOM      6  C   UNL     1       6.657  46.494  51.881  1.00  0.00     0.082 A 
ATOM      7  C   UNL     1       7.147  47.531  52.703  1.00  0.00     0.149 A 
ATOM      8  N   UNL     1       8.483  47.615  52.695  1.00  0.00    -0.179 NA
ATOM      9  N   UNL     1       8.850  46.614  51.862  1.00  0.00    -0.250 N 
ATOM     10  C   UNL     1      10.249  46.381  51.609  1.00  0.00     0.176 C 
ENDROOT
BRANCH   1  11
ATOM     11  N   UNL     1       4.213  46.481  51.986  1.00  0.00    -0.339 N 
ATOM     12  H   UNL     1       3.942  47.344  51.536  1.00  0.00     0.168 HD
BRANCH  11  13
ATOM     13  C   UNL     1       3.346  46.077  53.014  1.00  0.00     0.040 A 
ATOM     14  C   UNL     1       1.710  45.301  55.199  1.00  0.00     0.119 A 
ATOM     15  C   UNL     1       3.095  45.308  55.328  1.00  0.00     0.048 A 
ATOM     16  C   UNL     1       1.146  45.684  53.983  1.00  0.00     0.048 A 
ATOM     17  C   UNL     1       3.900  45.696  54.248  1.00  0.00     0.030 A 
ATOM     18  C   UNL     1       1.954  46.072  52.907  1.00  0.00     0.030 A 
BRANCH  14  19
ATOM     19  O   UNL     1       0.811  44.946  56.165  1.00  0.00    -0.497 OA
ATOM     20  C   UNL     1       0.677  45.826  57.273  1.00  0.00     0.278 C 
ENDBRANCH  14  19
ENDBRANCH  11  13
ENDBRANCH   1  11
BRANCH   3  21
ATOM     21  N   UNL     1       6.493  43.352  49.305  1.00  0.00    -0.352 N 
ATOM     22  H   UNL     1       7.187  43.496  48.578  1.00  0.00     0.163 HD
BRANCH  21  23
ATOM     23  C   UNL     1       6.457  42.023  49.891  1.00  0.00     0.137 C 
BRANCH  23  24
ATOM     24  C   UNL     1       5.033  41.462  50.022  1.00  0.00     0.137 C 
BRANCH  24  25
ATOM     25  N   UNL     1       4.356  41.960  51.210  1.00  0.00    -0.355 N 
ATOM     26  C   UNL     1       2.998  42.196  51.196  1.00  0.00     0.216 C 
ATOM     27  H   UNL     1       4.782  41.761  52.105  1.00  0.00     0.163 HD
ATOM     28  C   UNL     1       2.425  42.550  52.542  1.00  0.00     0.114 C 
ATOM     29  O   UNL     1       2.300  42.120  50.192  1.00  0.00    -0.275 OA
ENDBRANCH  24  25
ENDBRANCH  23  24
ENDBRANCH  21  23
ENDBRANCH   3  21
TORSDOF 7
ENDMDL
