MODEL 1
REMARK VINA RESULT:    -8.369      0.000      0.000
REMARK INTER + INTRA:         -13.342
REMARK INTER:                 -11.793
REMARK INTRA:                  -1.549
REMARK UNBOUND:                -1.549
REMARK SMILES Cc1cc(Br)ccc1Nc1nc(NCCOC(C)C)nc2c1cnn2C
REMARK SMILES IDX 13 1 12 3 10 4 11 5 22 6 21 7 23 8 20 9 25 10 24 11 26 12
REMARK SMILES IDX 9 13 8 15 2 16 3 17 4 18 7 19 6 20 1 21 5 22 14 23 15 24
REMARK SMILES IDX 16 25 17 26 18 27 19 28
REMARK H PARENT 13 2 9 14
ROOT
ATOM      1  N   UNL     1       2.808  46.182  51.675  1.00  0.00    -0.352 N 
ATOM      2  H   UNL     1       3.208  47.016  52.103  1.00  0.00     0.163 HD
ENDROOT
BRANCH   1   3
ATOM      3  C   UNL     1       3.903  45.419  51.287  1.00  0.00     0.226 A 
ATOM      4  C   UNL     1       6.209  45.473  50.840  1.00  0.00     0.147 A 
ATOM      5  N   UNL     1       5.063  46.094  51.221  1.00  0.00    -0.195 NA
ATOM      6  C   UNL     1       6.126  44.110  50.541  1.00  0.00     0.082 A 
ATOM      7  C   UNL     1       4.884  43.518  50.651  1.00  0.00     0.165 A 
ATOM      8  C   UNL     1       6.981  43.064  50.136  1.00  0.00     0.149 A 
ATOM      9  N   UNL     1       3.743  44.115  51.022  1.00  0.00    -0.193 NA
ATOM     10  N   UNL     1       5.060  42.207  50.302  1.00  0.00    -0.250 N 
ATOM     11  N   UNL     1       6.342  41.898  49.988  1.00  0.00    -0.179 NA
ATOM     12  C   UNL     1       4.050  41.181  50.246  1.00  0.00     0.176 C 
BRANCH   4  13
ATOM     13  N   UNL     1       7.421  46.182  50.785  1.00  0.00    -0.339 N 
ATOM     14  H   UNL     1       7.446  46.877  50.050  1.00  0.00     0.168 HD
BRANCH  13  15
ATOM     15  C   UNL     1       8.226  46.551  51.883  1.00  0.00     0.043 A 
ATOM     16  C   UNL     1       9.556  46.117  52.057  1.00  0.00    -0.026 A 
ATOM     17  C   UNL     1      10.255  46.492  53.220  1.00  0.00     0.021 A 
ATOM     18  C   UNL     1       9.625  47.233  54.220  1.00  0.00     0.018 A 
ATOM     19  C   UNL     1       7.600  47.257  52.925  1.00  0.00     0.027 A 
ATOM     20  C   UNL     1       8.295  47.609  54.082  1.00  0.00     0.018 A 
ATOM     21  C   UNL     1      10.283  45.296  51.027  1.00  0.00     0.046 C 
ATOM     22  Br  UNL     1      10.581  47.711  55.778  1.00  0.00    -0.051 Br
ENDBRANCH  13  15
ENDBRANCH   4  13
ENDBRANCH   1   3
BRANCH   1  23
ATOM     23  C   UNL     1       1.866  45.509  52.566  1.00  0.00     0.144 C 
BRANCH  23  24
ATOM     24  C   UNL     1       2.176  45.796  54.042  1.00  0.00     0.181 C 
BRANCH  24  25
ATOM     25  O   UNL     1       3.130  44.834  54.508  1.00  0.00    -0.377 OA
BRANCH  25  26
ATOM     26  C   UNL     1       4.282  45.416  55.122  1.00  0.00     0.112 C 
ATOM     27  C   UNL     1       5.496  44.671  54.579  1.00  0.00     0.038 C 
ATOM     28  C   UNL     1       4.383  46.903  54.803  1.00  0.00     0.038 C 
ENDBRANCH  25  26
ENDBRANCH  24  25
ENDBRANCH  23  24
ENDBRANCH   1  23
TORSDOF 7
ENDMDL
MODEL 2
REMARK VINA RESULT:    -8.151      2.811      5.045
REMARK INTER + INTRA:         -13.035
REMARK INTER:                 -12.227
REMARK INTRA:                  -0.809
REMARK UNBOUND:                -1.549
REMARK SMILES Cc1cc(Br)ccc1Nc1nc(NCCOC(C)C)nc2c1cnn2C
REMARK SMILES IDX 13 1 12 3 10 4 11 5 22 6 21 7 23 8 20 9 25 10 24 11 26 12
REMARK SMILES IDX 9 13 8 15 2 16 3 17 4 18 7 19 6 20 1 21 5 22 14 23 15 24
REMARK SMILES IDX 16 25 17 26 18 27 19 28
REMARK H PARENT 13 2 9 14
ROOT
ATOM      1  N   UNL     1       6.588  42.600  49.058  1.00  0.00    -0.352 N 
ATOM      2  H   UNL     1       6.470  43.133  48.197  1.00  0.00     0.163 HD
ENDROOT
BRANCH   1   3
ATOM      3  C   UNL     1       6.126  43.440  50.065  1.00  0.00     0.226 A 
ATOM      4  C   UNL     1       6.521  45.457  51.203  1.00  0.00     0.147 A 
ATOM      5  N   UNL     1       6.852  44.556  50.241  1.00  0.00    -0.195 NA
ATOM      6  C   UNL     1       5.392  45.175  51.978  1.00  0.00     0.082 A 
ATOM      7  C   UNL     1       4.718  44.002  51.703  1.00  0.00     0.165 A 
ATOM      8  C   UNL     1       4.662  45.761  53.032  1.00  0.00     0.149 A 
ATOM      9  N   UNL     1       5.032  43.102  50.760  1.00  0.00    -0.193 NA
ATOM     10  N   UNL     1       3.675  43.951  52.586  1.00  0.00    -0.250 N 
ATOM     11  N   UNL     1       3.612  45.024  53.411  1.00  0.00    -0.179 NA
ATOM     12  C   UNL     1       2.690  42.907  52.705  1.00  0.00     0.176 C 
BRANCH   4  13
ATOM     13  N   UNL     1       7.276  46.629  51.375  1.00  0.00    -0.339 N 
ATOM     14  H   UNL     1       6.791  47.465  51.077  1.00  0.00     0.168 HD
BRANCH  13  15
ATOM     15  C   UNL     1       8.183  46.895  52.422  1.00  0.00     0.043 A 
ATOM     16  C   UNL     1       9.517  46.440  52.432  1.00  0.00    -0.026 A 
ATOM     17  C   UNL     1      10.326  46.706  53.553  1.00  0.00     0.021 A 
ATOM     18  C   UNL     1       9.801  47.358  54.669  1.00  0.00     0.018 A 
ATOM     19  C   UNL     1       7.666  47.509  53.576  1.00  0.00     0.027 A 
ATOM     20  C   UNL     1       8.470  47.753  54.689  1.00  0.00     0.018 A 
ATOM     21  C   UNL     1      10.135  45.710  51.271  1.00  0.00     0.046 C 
ATOM     22  Br  UNL     1      10.904  47.691  56.167  1.00  0.00    -0.051 Br
ENDBRANCH  13  15
ENDBRANCH   4  13
ENDBRANCH   1   3
BRANCH   1  23
ATOM     23  C   UNL     1       5.932  41.296  48.987  1.00  0.00     0.144 C 
BRANCH  23  24
ATOM     24  C   UNL     1       5.053  41.170  47.735  1.00  0.00     0.181 C 
BRANCH  24  25
ATOM     25  O   UNL     1       5.780  41.676  46.609  1.00  0.00    -0.377 OA
BRANCH  25  26
ATOM     26  C   UNL     1       5.137  41.438  45.354  1.00  0.00     0.112 C 
ATOM     27  C   UNL     1       3.702  41.025  45.664  1.00  0.00     0.038 C 
ATOM     28  C   UNL     1       5.153  42.689  44.482  1.00  0.00     0.038 C 
ENDBRANCH  25  26
ENDBRANCH  24  25
ENDBRANCH  23  24
ENDBRANCH   1  23
TORSDOF 7
ENDMDL
MODEL 3
REMARK VINA RESULT:    -8.126      2.958      5.827
REMARK INTER + INTRA:         -13.000
REMARK INTER:                 -12.425
REMARK INTRA:                  -0.576
REMARK UNBOUND:                -1.549
REMARK SMILES Cc1cc(Br)ccc1Nc1nc(NCCOC(C)C)nc2c1cnn2C
REMARK SMILES IDX 13 1 12 3 10 4 11 5 22 6 21 7 23 8 20 9 25 10 24 11 26 12
REMARK SMILES IDX 9 13 8 15 2 16 3 17 4 18 7 19 6 20 1 21 5 22 14 23 15 24
REMARK SMILES IDX 16 25 17 26 18 27 19 28
REMARK H PARENT 13 2 9 14
ROOT
ATOM      1  N   UNL     1       4.306  45.912  55.728  1.00  0.00    -0.352 N 
ATOM      2  H   UNL     1       4.046  46.895  55.787  1.00  0.00     0.163 HD
ENDROOT
BRANCH   1   3
ATOM      3  C   UNL     1       3.233  45.295  55.095  1.00  0.00     0.226 A 
ATOM      4  C   UNL     1       2.547  44.189  53.139  1.00  0.00     0.147 A 
ATOM      5  N   UNL     1       3.509  44.802  53.876  1.00  0.00    -0.195 NA
ATOM      6  C   UNL     1       1.277  44.081  53.714  1.00  0.00     0.082 A 
ATOM      7  C   UNL     1       1.110  44.617  54.975  1.00  0.00     0.165 A 
ATOM      8  C   UNL     1       0.012  43.550  53.388  1.00  0.00     0.149 A 
ATOM      9  N   UNL     1       2.047  45.228  55.714  1.00  0.00    -0.193 NA
ATOM     10  N   UNL     1      -0.198  44.397  55.308  1.00  0.00    -0.250 N 
ATOM     11  N   UNL     1      -0.895  43.736  54.353  1.00  0.00    -0.179 NA
ATOM     12  C   UNL     1      -0.860  44.788  56.526  1.00  0.00     0.176 C 
BRANCH   4  13
ATOM     13  N   UNL     1       2.844  43.664  51.870  1.00  0.00    -0.339 N 
ATOM     14  H   UNL     1       2.069  43.719  51.223  1.00  0.00     0.168 HD
BRANCH  13  15
ATOM     15  C   UNL     1       4.087  43.730  51.207  1.00  0.00     0.043 A 
ATOM     16  C   UNL     1       4.768  42.600  50.712  1.00  0.00    -0.026 A 
ATOM     17  C   UNL     1       6.034  42.765  50.119  1.00  0.00     0.021 A 
ATOM     18  C   UNL     1       6.639  44.020  50.075  1.00  0.00     0.018 A 
ATOM     19  C   UNL     1       4.737  44.976  51.192  1.00  0.00     0.027 A 
ATOM     20  C   UNL     1       6.000  45.127  50.618  1.00  0.00     0.018 A 
ATOM     21  C   UNL     1       4.180  41.216  50.752  1.00  0.00     0.046 C 
ATOM     22  Br  UNL     1       8.346  44.213  49.286  1.00  0.00    -0.051 Br
ENDBRANCH  13  15
ENDBRANCH   4  13
ENDBRANCH   1   3
BRANCH   1  23
ATOM     23  C   UNL     1       5.601  45.728  55.076  1.00  0.00     0.144 C 
BRANCH  23  24
ATOM     24  C   UNL     1       6.123  47.038  54.469  1.00  0.00     0.181 C 
BRANCH  24  25
ATOM     25  O   UNL     1       7.503  47.190  54.820  1.00  0.00    -0.377 OA
BRANCH  25  26
ATOM     26  C   UNL     1       8.405  46.901  53.749  1.00  0.00     0.112 C 
ATOM     27  C   UNL     1       7.951  47.731  52.553  1.00  0.00     0.038 C 
ATOM     28  C   UNL     1       9.839  47.253  54.127  1.00  0.00     0.038 C 
ENDBRANCH  25  26
ENDBRANCH  24  25
ENDBRANCH  23  24
ENDBRANCH   1  23
TORSDOF 7
ENDMDL
MODEL 4
REMARK VINA RESULT:    -8.088      1.380      1.942
REMARK INTER + INTRA:         -12.947
REMARK INTER:                 -12.042
REMARK INTRA:                  -0.905
REMARK UNBOUND:                -1.549
REMARK SMILES Cc1cc(Br)ccc1Nc1nc(NCCOC(C)C)nc2c1cnn2C
REMARK SMILES IDX 13 1 12 3 10 4 11 5 22 6 21 7 23 8 20 9 25 10 24 11 26 12
REMARK SMILES IDX 9 13 8 15 2 16 3 17 4 18 7 19 6 20 1 21 5 22 14 23 15 24
REMARK SMILES IDX 16 25 17 26 18 27 19 28
REMARK H PARENT 13 2 9 14
ROOT
ATOM      1  N   UNL     1       3.406  44.800  52.825  1.00  0.00    -0.352 N 
ATOM      2  H   UNL     1       2.608  44.785  52.192  1.00  0.00     0.163 HD
ENDROOT
BRANCH   1   3
ATOM      3  C   UNL     1       4.519  44.682  52.001  1.00  0.00     0.226 A 
ATOM      4  C   UNL     1       6.512  45.722  51.318  1.00  0.00     0.147 A 
ATOM      5  N   UNL     1       5.389  45.702  52.083  1.00  0.00    -0.195 NA
ATOM      6  C   UNL     1       6.724  44.632  50.468  1.00  0.00     0.082 A 
ATOM      7  C   UNL     1       5.767  43.637  50.472  1.00  0.00     0.165 A 
ATOM      8  C   UNL     1       7.686  44.191  49.537  1.00  0.00     0.149 A 
ATOM      9  N   UNL     1       4.652  43.603  51.217  1.00  0.00    -0.193 NA
ATOM     10  N   UNL     1       6.189  42.704  49.566  1.00  0.00    -0.250 N 
ATOM     11  N   UNL     1       7.371  43.016  48.981  1.00  0.00    -0.179 NA
ATOM     12  C   UNL     1       5.519  41.482  49.203  1.00  0.00     0.176 C 
BRANCH   4  13
ATOM     13  N   UNL     1       7.425  46.785  51.417  1.00  0.00    -0.339 N 
ATOM     14  H   UNL     1       7.080  47.648  51.018  1.00  0.00     0.168 HD
BRANCH  13  15
ATOM     15  C   UNL     1       8.324  47.021  52.479  1.00  0.00     0.043 A 
ATOM     16  C   UNL     1       9.657  46.564  52.488  1.00  0.00    -0.026 A 
ATOM     17  C   UNL     1      10.456  46.798  53.623  1.00  0.00     0.021 A 
ATOM     18  C   UNL     1       9.923  47.422  54.751  1.00  0.00     0.018 A 
ATOM     19  C   UNL     1       7.797  47.605  53.644  1.00  0.00     0.027 A 
ATOM     20  C   UNL     1       8.592  47.818  54.771  1.00  0.00     0.018 A 
ATOM     21  C   UNL     1      10.284  45.864  51.314  1.00  0.00     0.046 C 
ATOM     22  Br  UNL     1      11.013  47.713  56.268  1.00  0.00    -0.051 Br
ENDBRANCH  13  15
ENDBRANCH   4  13
ENDBRANCH   1   3
BRANCH   1  23
ATOM     23  C   UNL     1       3.396  45.980  53.687  1.00  0.00     0.144 C 
BRANCH  23  24
ATOM     24  C   UNL     1       3.233  45.602  55.167  1.00  0.00     0.181 C 
BRANCH  24  25
ATOM     25  O   UNL     1       2.145  44.676  55.288  1.00  0.00    -0.377 OA
BRANCH  25  26
ATOM     26  C   UNL     1       0.871  45.304  55.444  1.00  0.00     0.112 C 
ATOM     27  C   UNL     1      -0.120  44.508  54.602  1.00  0.00     0.038 C 
ATOM     28  C   UNL     1       0.438  45.313  56.906  1.00  0.00     0.038 C 
ENDBRANCH  25  26
ENDBRANCH  24  25
ENDBRANCH  23  24
ENDBRANCH   1  23
TORSDOF 7
ENDMDL
MODEL 5
REMARK VINA RESULT:    -8.020      3.009      5.595
REMARK INTER + INTRA:         -12.851
REMARK INTER:                 -11.974
REMARK INTRA:                  -0.877
REMARK UNBOUND:                -1.549
REMARK SMILES Cc1cc(Br)ccc1Nc1nc(NCCOC(C)C)nc2c1cnn2C
REMARK SMILES IDX 13 1 12 3 10 4 11 5 22 6 21 7 23 8 20 9 25 10 24 11 26 12
REMARK SMILES IDX 9 13 8 15 2 16 3 17 4 18 7 19 6 20 1 21 5 22 14 23 15 24
REMARK SMILES IDX 16 25 17 26 18 27 19 28
REMARK H PARENT 13 2 9 14
ROOT
ATOM      1  N   UNL     1       4.812  46.826  55.082  1.00  0.00    -0.352 N 
ATOM      2  H   UNL     1       5.044  47.387  55.900  1.00  0.00     0.163 HD
ENDROOT
BRANCH   1   3
ATOM      3  C   UNL     1       5.993  46.749  54.354  1.00  0.00     0.226 A 
ATOM      4  C   UNL     1       6.934  46.107  52.298  1.00  0.00     0.147 A 
ATOM      5  N   UNL     1       5.856  46.253  53.113  1.00  0.00    -0.195 NA
ATOM      6  C   UNL     1       8.173  46.511  52.804  1.00  0.00     0.082 A 
ATOM      7  C   UNL     1       8.194  47.013  54.090  1.00  0.00     0.165 A 
ATOM      8  C   UNL     1       9.516  46.578  52.379  1.00  0.00     0.149 A 
ATOM      9  N   UNL     1       7.142  47.161  54.907  1.00  0.00    -0.193 NA
ATOM     10  N   UNL     1       9.500  47.322  54.352  1.00  0.00    -0.250 N 
ATOM     11  N   UNL     1      10.334  47.072  53.315  1.00  0.00    -0.179 NA
ATOM     12  C   UNL     1      10.034  47.866  55.576  1.00  0.00     0.176 C 
BRANCH   4  13
ATOM     13  N   UNL     1       6.783  45.601  50.997  1.00  0.00    -0.339 N 
ATOM     14  H   UNL     1       7.559  45.824  50.387  1.00  0.00     0.168 HD
BRANCH  13  15
ATOM     15  C   UNL     1       6.170  44.382  50.639  1.00  0.00     0.043 A 
ATOM     16  C   UNL     1       6.695  43.498  49.674  1.00  0.00    -0.026 A 
ATOM     17  C   UNL     1       5.975  42.335  49.343  1.00  0.00     0.021 A 
ATOM     18  C   UNL     1       4.728  42.085  49.915  1.00  0.00     0.018 A 
ATOM     19  C   UNL     1       4.892  44.130  51.166  1.00  0.00     0.027 A 
ATOM     20  C   UNL     1       4.177  42.983  50.819  1.00  0.00     0.018 A 
ATOM     21  C   UNL     1       8.023  43.724  49.004  1.00  0.00     0.046 C 
ATOM     22  Br  UNL     1       3.774  40.522  49.443  1.00  0.00    -0.051 Br
ENDBRANCH  13  15
ENDBRANCH   4  13
ENDBRANCH   1   3
BRANCH   1  23
ATOM     23  C   UNL     1       4.225  45.539  55.451  1.00  0.00     0.144 C 
BRANCH  23  24
ATOM     24  C   UNL     1       2.743  45.456  55.057  1.00  0.00     0.181 C 
BRANCH  24  25
ATOM     25  O   UNL     1       2.655  45.172  53.656  1.00  0.00    -0.377 OA
BRANCH  25  26
ATOM     26  C   UNL     1       1.824  46.084  52.935  1.00  0.00     0.112 C 
ATOM     27  C   UNL     1       2.733  46.845  51.975  1.00  0.00     0.038 C 
ATOM     28  C   UNL     1       0.736  45.346  52.163  1.00  0.00     0.038 C 
ENDBRANCH  25  26
ENDBRANCH  24  25
ENDBRANCH  23  24
ENDBRANCH   1  23
TORSDOF 7
ENDMDL
MODEL 6
REMARK VINA RESULT:    -7.959      1.422      2.264
REMARK INTER + INTRA:         -12.765
REMARK INTER:                 -11.687
REMARK INTRA:                  -1.078
REMARK UNBOUND:                -1.549
REMARK SMILES Cc1cc(Br)ccc1Nc1nc(NCCOC(C)C)nc2c1cnn2C
REMARK SMILES IDX 13 1 12 3 10 4 11 5 22 6 21 7 23 8 20 9 25 10 24 11 26 12
REMARK SMILES IDX 9 13 8 15 2 16 3 17 4 18 7 19 6 20 1 21 5 22 14 23 15 24
REMARK SMILES IDX 16 25 17 26 18 27 19 28
REMARK H PARENT 13 2 9 14
ROOT
ATOM      1  N   UNL     1       3.453  44.170  53.537  1.00  0.00    -0.352 N 
ATOM      2  H   UNL     1       2.681  43.611  53.177  1.00  0.00     0.163 HD
ENDROOT
BRANCH   1   3
ATOM      3  C   UNL     1       4.405  44.160  52.525  1.00  0.00     0.226 A 
ATOM      4  C   UNL     1       6.186  45.354  51.565  1.00  0.00     0.147 A 
ATOM      5  N   UNL     1       5.220  45.228  52.512  1.00  0.00    -0.195 NA
ATOM      6  C   UNL     1       6.299  44.322  50.628  1.00  0.00     0.082 A 
ATOM      7  C   UNL     1       5.412  43.271  50.743  1.00  0.00     0.165 A 
ATOM      8  C   UNL     1       7.101  43.987  49.518  1.00  0.00     0.149 A 
ATOM      9  N   UNL     1       4.452  43.131  51.668  1.00  0.00    -0.193 NA
ATOM     10  N   UNL     1       5.715  42.410  49.723  1.00  0.00    -0.250 N 
ATOM     11  N   UNL     1       6.754  42.823  48.959  1.00  0.00    -0.179 NA
ATOM     12  C   UNL     1       5.055  41.168  49.413  1.00  0.00     0.176 C 
BRANCH   4  13
ATOM     13  N   UNL     1       7.045  46.466  51.563  1.00  0.00    -0.339 N 
ATOM     14  H   UNL     1       6.622  47.299  51.174  1.00  0.00     0.168 HD
BRANCH  13  15
ATOM     15  C   UNL     1       8.012  46.778  52.542  1.00  0.00     0.043 A 
ATOM     16  C   UNL     1       9.372  46.425  52.434  1.00  0.00    -0.026 A 
ATOM     17  C   UNL     1      10.247  46.728  53.494  1.00  0.00     0.021 A 
ATOM     18  C   UNL     1       9.769  47.317  54.665  1.00  0.00     0.018 A 
ATOM     19  C   UNL     1       7.547  47.328  53.748  1.00  0.00     0.027 A 
ATOM     20  C   UNL     1       8.418  47.610  54.801  1.00  0.00     0.018 A 
ATOM     21  C   UNL     1       9.946  45.766  51.209  1.00  0.00     0.046 C 
ATOM     22  Br  UNL     1      10.961  47.701  56.079  1.00  0.00    -0.051 Br
ENDBRANCH  13  15
ENDBRANCH   4  13
ENDBRANCH   1   3
BRANCH   1  23
ATOM     23  C   UNL     1       3.013  45.497  53.964  1.00  0.00     0.144 C 
BRANCH  23  24
ATOM     24  C   UNL     1       1.482  45.617  53.959  1.00  0.00     0.181 C 
BRANCH  24  25
ATOM     25  O   UNL     1       1.036  45.755  52.604  1.00  0.00    -0.377 OA
BRANCH  25  26
ATOM     26  C   UNL     1       0.092  44.759  52.205  1.00  0.00     0.112 C 
ATOM     27  C   UNL     1       0.779  43.896  51.152  1.00  0.00     0.038 C 
ATOM     28  C   UNL     1      -0.342  43.906  53.391  1.00  0.00     0.038 C 
ENDBRANCH  25  26
ENDBRANCH  24  25
ENDBRANCH  23  24
ENDBRANCH   1  23
TORSDOF 7
ENDMDL
MODEL 7
REMARK VINA RESULT:    -7.784      2.622      5.209
REMARK INTER + INTRA:         -12.519
REMARK INTER:                 -11.087
REMARK INTRA:                  -1.432
REMARK UNBOUND:                -1.549
REMARK SMILES Cc1cc(Br)ccc1Nc1nc(NCCOC(C)C)nc2c1cnn2C
REMARK SMILES IDX 13 1 12 3 10 4 11 5 22 6 21 7 23 8 20 9 25 10 24 11 26 12
REMARK SMILES IDX 9 13 8 15 2 16 3 17 4 18 7 19 6 20 1 21 5 22 14 23 15 24
REMARK SMILES IDX 16 25 17 26 18 27 19 28
REMARK H PARENT 13 2 9 14
ROOT
ATOM      1  N   UNL     1       3.491  41.461  50.568  1.00  0.00    -0.352 N 
ATOM      2  H   UNL     1       3.089  40.581  50.887  1.00  0.00     0.163 HD
ENDROOT
BRANCH   1   3
ATOM      3  C   UNL     1       2.747  42.447  51.206  1.00  0.00     0.226 A 
ATOM      4  C   UNL     1       2.780  44.068  52.907  1.00  0.00     0.147 A 
ATOM      5  N   UNL     1       3.396  43.092  52.189  1.00  0.00    -0.195 NA
ATOM      6  C   UNL     1       1.461  44.375  52.562  1.00  0.00     0.082 A 
ATOM      7  C   UNL     1       0.897  43.653  51.529  1.00  0.00     0.165 A 
ATOM      8  C   UNL     1       0.445  45.266  52.964  1.00  0.00     0.149 A 
ATOM      9  N   UNL     1       1.488  42.686  50.814  1.00  0.00    -0.193 NA
ATOM     10  N   UNL     1      -0.379  44.126  51.392  1.00  0.00    -0.250 N 
ATOM     11  N   UNL     1      -0.682  45.124  52.257  1.00  0.00    -0.179 NA
ATOM     12  C   UNL     1      -1.375  43.676  50.453  1.00  0.00     0.176 C 
BRANCH   4  13
ATOM     13  N   UNL     1       3.468  44.748  53.926  1.00  0.00    -0.339 N 
ATOM     14  H   UNL     1       3.436  44.272  54.818  1.00  0.00     0.168 HD
BRANCH  13  15
ATOM     15  C   UNL     1       4.649  45.504  53.777  1.00  0.00     0.043 A 
ATOM     16  C   UNL     1       4.698  46.757  53.133  1.00  0.00    -0.026 A 
ATOM     17  C   UNL     1       5.938  47.405  52.982  1.00  0.00     0.021 A 
ATOM     18  C   UNL     1       7.117  46.793  53.409  1.00  0.00     0.018 A 
ATOM     19  C   UNL     1       5.854  44.889  54.157  1.00  0.00     0.027 A 
ATOM     20  C   UNL     1       7.081  45.531  53.988  1.00  0.00     0.018 A 
ATOM     21  C   UNL     1       3.467  47.459  52.629  1.00  0.00     0.046 C 
ATOM     22  Br  UNL     1       8.771  47.677  53.182  1.00  0.00    -0.051 Br
ENDBRANCH  13  15
ENDBRANCH   4  13
ENDBRANCH   1   3
BRANCH   1  23
ATOM     23  C   UNL     1       4.932  41.520  50.805  1.00  0.00     0.144 C 
BRANCH  23  24
ATOM     24  C   UNL     1       5.727  41.447  49.494  1.00  0.00     0.181 C 
BRANCH  24  25
ATOM     25  O   UNL     1       5.998  42.780  49.045  1.00  0.00    -0.377 OA
BRANCH  25  26
ATOM     26  C   UNL     1       6.822  43.532  49.940  1.00  0.00     0.112 C 
ATOM     27  C   UNL     1       8.135  43.799  49.213  1.00  0.00     0.038 C 
ATOM     28  C   UNL     1       6.154  44.846  50.329  1.00  0.00     0.038 C 
ENDBRANCH  25  26
ENDBRANCH  24  25
ENDBRANCH  23  24
ENDBRANCH   1  23
TORSDOF 7
ENDMDL
MODEL 8
REMARK VINA RESULT:    -7.713      2.502      5.021
REMARK INTER + INTRA:         -12.418
REMARK INTER:                 -11.709
REMARK INTRA:                  -0.709
REMARK UNBOUND:                -1.549
REMARK SMILES Cc1cc(Br)ccc1Nc1nc(NCCOC(C)C)nc2c1cnn2C
REMARK SMILES IDX 13 1 12 3 10 4 11 5 22 6 21 7 23 8 20 9 25 10 24 11 26 12
REMARK SMILES IDX 9 13 8 15 2 16 3 17 4 18 7 19 6 20 1 21 5 22 14 23 15 24
REMARK SMILES IDX 16 25 17 26 18 27 19 28
REMARK H PARENT 13 2 9 14
ROOT
ATOM      1  N   UNL     1       5.053  41.782  50.637  1.00  0.00    -0.352 N 
ATOM      2  H   UNL     1       5.427  41.360  51.486  1.00  0.00     0.163 HD
ENDROOT
BRANCH   1   3
ATOM      3  C   UNL     1       4.830  43.113  50.967  1.00  0.00     0.226 A 
ATOM      4  C   UNL     1       5.830  45.232  51.149  1.00  0.00     0.147 A 
ATOM      5  N   UNL     1       5.904  43.910  50.843  1.00  0.00    -0.195 NA
ATOM      6  C   UNL     1       4.591  45.718  51.576  1.00  0.00     0.082 A 
ATOM      7  C   UNL     1       3.554  44.810  51.658  1.00  0.00     0.165 A 
ATOM      8  C   UNL     1       4.018  46.943  51.975  1.00  0.00     0.149 A 
ATOM      9  N   UNL     1       3.611  43.503  51.363  1.00  0.00    -0.193 NA
ATOM     10  N   UNL     1       2.469  45.516  52.100  1.00  0.00    -0.250 N 
ATOM     11  N   UNL     1       2.724  46.832  52.296  1.00  0.00    -0.179 NA
ATOM     12  C   UNL     1       1.148  45.003  52.359  1.00  0.00     0.176 C 
BRANCH   4  13
ATOM     13  N   UNL     1       6.954  46.063  51.006  1.00  0.00    -0.339 N 
ATOM     14  H   UNL     1       6.820  46.804  50.330  1.00  0.00     0.168 HD
BRANCH  13  15
ATOM     15  C   UNL     1       7.853  46.439  52.026  1.00  0.00     0.043 A 
ATOM     16  C   UNL     1       9.220  46.097  52.026  1.00  0.00    -0.026 A 
ATOM     17  C   UNL     1      10.021  46.468  53.122  1.00  0.00     0.021 A 
ATOM     18  C   UNL     1       9.462  47.112  54.225  1.00  0.00     0.018 A 
ATOM     19  C   UNL     1       7.305  47.047  53.168  1.00  0.00     0.027 A 
ATOM     20  C   UNL     1       8.103  47.396  54.258  1.00  0.00     0.018 A 
ATOM     21  C   UNL     1       9.878  45.381  50.878  1.00  0.00     0.046 C 
ATOM     22  Br  UNL     1      10.557  47.587  55.691  1.00  0.00    -0.051 Br
ENDBRANCH  13  15
ENDBRANCH   4  13
ENDBRANCH   1   3
BRANCH   1  23
ATOM     23  C   UNL     1       5.930  41.565  49.489  1.00  0.00     0.144 C 
BRANCH  23  24
ATOM     24  C   UNL     1       5.135  41.204  48.226  1.00  0.00     0.181 C 
BRANCH  24  25
ATOM     25  O   UNL     1       5.779  41.795  47.091  1.00  0.00    -0.377 OA
BRANCH  25  26
ATOM     26  C   UNL     1       5.233  41.378  45.838  1.00  0.00     0.112 C 
ATOM     27  C   UNL     1       3.845  40.816  46.125  1.00  0.00     0.038 C 
ATOM     28  C   UNL     1       5.142  42.547  44.862  1.00  0.00     0.038 C 
ENDBRANCH  25  26
ENDBRANCH  24  25
ENDBRANCH  23  24
ENDBRANCH   1  23
TORSDOF 7
ENDMDL
MODEL 9
REMARK VINA RESULT:    -7.710      2.720      5.493
REMARK INTER + INTRA:         -12.414
REMARK INTER:                 -11.212
REMARK INTRA:                  -1.201
REMARK UNBOUND:                -1.549
REMARK SMILES Cc1cc(Br)ccc1Nc1nc(NCCOC(C)C)nc2c1cnn2C
REMARK SMILES IDX 13 1 12 3 10 4 11 5 22 6 21 7 23 8 20 9 25 10 24 11 26 12
REMARK SMILES IDX 9 13 8 15 2 16 3 17 4 18 7 19 6 20 1 21 5 22 14 23 15 24
REMARK SMILES IDX 16 25 17 26 18 27 19 28
REMARK H PARENT 13 2 9 14
ROOT
ATOM      1  N   UNL     1       2.866  41.892  50.794  1.00  0.00    -0.352 N 
ATOM      2  H   UNL     1       2.274  41.070  50.680  1.00  0.00     0.163 HD
ENDROOT
BRANCH   1   3
ATOM      3  C   UNL     1       2.220  42.669  51.748  1.00  0.00     0.226 A 
ATOM      4  C   UNL     1       2.542  44.110  53.577  1.00  0.00     0.147 A 
ATOM      5  N   UNL     1       3.041  43.326  52.585  1.00  0.00    -0.195 NA
ATOM      6  C   UNL     1       1.150  44.210  53.670  1.00  0.00     0.082 A 
ATOM      7  C   UNL     1       0.406  43.497  52.752  1.00  0.00     0.165 A 
ATOM      8  C   UNL     1       0.191  44.868  54.466  1.00  0.00     0.149 A 
ATOM      9  N   UNL     1       0.881  42.718  51.770  1.00  0.00    -0.193 NA
ATOM     10  N   UNL     1      -0.904  43.748  53.053  1.00  0.00    -0.250 N 
ATOM     11  N   UNL     1      -1.066  44.594  54.098  1.00  0.00    -0.179 NA
ATOM     12  C   UNL     1      -2.065  43.217  52.384  1.00  0.00     0.176 C 
BRANCH   4  13
ATOM     13  N   UNL     1       3.404  44.805  54.441  1.00  0.00    -0.339 N 
ATOM     14  H   UNL     1       3.521  44.354  55.339  1.00  0.00     0.168 HD
BRANCH  13  15
ATOM     15  C   UNL     1       4.552  45.535  54.068  1.00  0.00     0.043 A 
ATOM     16  C   UNL     1       4.517  46.674  53.239  1.00  0.00    -0.026 A 
ATOM     17  C   UNL     1       5.725  47.298  52.875  1.00  0.00     0.021 A 
ATOM     18  C   UNL     1       6.949  46.763  53.276  1.00  0.00     0.018 A 
ATOM     19  C   UNL     1       5.799  44.991  54.422  1.00  0.00     0.027 A 
ATOM     20  C   UNL     1       6.992  45.605  54.041  1.00  0.00     0.018 A 
ATOM     21  C   UNL     1       3.231  47.285  52.752  1.00  0.00     0.046 C 
ATOM     22  Br  UNL     1       8.558  47.611  52.763  1.00  0.00    -0.051 Br
ENDBRANCH  13  15
ENDBRANCH   4  13
ENDBRANCH   1   3
BRANCH   1  23
ATOM     23  C   UNL     1       4.244  41.530  51.117  1.00  0.00     0.144 C 
BRANCH  23  24
ATOM     24  C   UNL     1       5.139  41.529  49.869  1.00  0.00     0.181 C 
BRANCH  24  25
ATOM     25  O   UNL     1       6.380  42.168  50.191  1.00  0.00    -0.377 OA
BRANCH  25  26
ATOM     26  C   UNL     1       6.566  43.427  49.540  1.00  0.00     0.112 C 
ATOM     27  C   UNL     1       6.022  44.496  50.482  1.00  0.00     0.038 C 
ATOM     28  C   UNL     1       8.039  43.680  49.242  1.00  0.00     0.038 C 
ENDBRANCH  25  26
ENDBRANCH  24  25
ENDBRANCH  23  24
ENDBRANCH   1  23
TORSDOF 7
ENDMDL
MODEL 10
REMARK VINA RESULT:    -7.687      3.618      6.641
REMARK INTER + INTRA:         -12.381
REMARK INTER:                 -11.427
REMARK INTRA:                  -0.954
REMARK UNBOUND:                -1.549
REMARK SMILES Cc1cc(Br)ccc1Nc1nc(NCCOC(C)C)nc2c1cnn2C
REMARK SMILES IDX 13 1 12 3 10 4 11 5 22 6 21 7 23 8 20 9 25 10 24 11 26 12
REMARK SMILES IDX 9 13 8 15 2 16 3 17 4 18 7 19 6 20 1 21 5 22 14 23 15 24
REMARK SMILES IDX 16 25 17 26 18 27 19 28
REMARK H PARENT 13 2 9 14
ROOT
ATOM      1  N   UNL     1       5.030  46.791  52.530  1.00  0.00    -0.352 N 
ATOM      2  H   UNL     1       5.840  47.141  52.020  1.00  0.00     0.163 HD
ENDROOT
BRANCH   1   3
ATOM      3  C   UNL     1       4.895  45.469  52.126  1.00  0.00     0.226 A 
ATOM      4  C   UNL     1       3.682  43.483  52.454  1.00  0.00     0.147 A 
ATOM      5  N   UNL     1       3.913  44.791  52.742  1.00  0.00    -0.195 NA
ATOM      6  C   UNL     1       4.497  42.892  51.483  1.00  0.00     0.082 A 
ATOM      7  C   UNL     1       5.469  43.686  50.910  1.00  0.00     0.165 A 
ATOM      8  C   UNL     1       4.646  41.641  50.849  1.00  0.00     0.149 A 
ATOM      9  N   UNL     1       5.712  44.976  51.185  1.00  0.00    -0.193 NA
ATOM     10  N   UNL     1       6.128  42.890  50.015  1.00  0.00    -0.250 N 
ATOM     11  N   UNL     1       5.637  41.628  49.951  1.00  0.00    -0.179 NA
ATOM     12  C   UNL     1       7.239  43.261  49.177  1.00  0.00     0.176 C 
BRANCH   4  13
ATOM     13  N   UNL     1       2.645  42.782  53.092  1.00  0.00    -0.339 N 
ATOM     14  H   UNL     1       2.941  42.310  53.936  1.00  0.00     0.168 HD
BRANCH  13  15
ATOM     15  C   UNL     1       1.289  43.167  53.153  1.00  0.00     0.043 A 
ATOM     16  C   UNL     1       0.748  43.952  54.191  1.00  0.00    -0.026 A 
ATOM     17  C   UNL     1      -0.632  44.231  54.194  1.00  0.00     0.021 A 
ATOM     18  C   UNL     1      -1.468  43.690  53.218  1.00  0.00     0.018 A 
ATOM     19  C   UNL     1       0.419  42.597  52.208  1.00  0.00     0.027 A 
ATOM     20  C   UNL     1      -0.950  42.865  52.229  1.00  0.00     0.018 A 
ATOM     21  C   UNL     1       1.592  44.544  55.287  1.00  0.00     0.046 C 
ATOM     22  Br  UNL     1      -3.320  44.068  53.252  1.00  0.00    -0.051 Br
ENDBRANCH  13  15
ENDBRANCH   4  13
ENDBRANCH   1   3
BRANCH   1  23
ATOM     23  C   UNL     1       5.166  46.989  53.972  1.00  0.00     0.144 C 
BRANCH  23  24
ATOM     24  C   UNL     1       6.546  46.545  54.479  1.00  0.00     0.181 C 
BRANCH  24  25
ATOM     25  O   UNL     1       7.511  47.541  54.118  1.00  0.00    -0.377 OA
BRANCH  25  26
ATOM     26  C   UNL     1       8.495  47.079  53.189  1.00  0.00     0.112 C 
ATOM     27  C   UNL     1       8.374  47.953  51.946  1.00  0.00     0.038 C 
ATOM     28  C   UNL     1       9.897  47.182  53.778  1.00  0.00     0.038 C 
ENDBRANCH  25  26
ENDBRANCH  24  25
ENDBRANCH  23  24
ENDBRANCH   1  23
TORSDOF 7
ENDMDL
MODEL 11
REMARK VINA RESULT:    -7.630      2.930      5.334
REMARK INTER + INTRA:         -12.301
REMARK INTER:                 -11.370
REMARK INTRA:                  -0.931
REMARK UNBOUND:                -1.549
REMARK SMILES Cc1cc(Br)ccc1Nc1nc(NCCOC(C)C)nc2c1cnn2C
REMARK SMILES IDX 13 1 12 3 10 4 11 5 22 6 21 7 23 8 20 9 25 10 24 11 26 12
REMARK SMILES IDX 9 13 8 15 2 16 3 17 4 18 7 19 6 20 1 21 5 22 14 23 15 24
REMARK SMILES IDX 16 25 17 26 18 27 19 28
REMARK H PARENT 13 2 9 14
ROOT
ATOM      1  N   UNL     1       4.809  41.236  50.389  1.00  0.00    -0.352 N 
ATOM      2  H   UNL     1       5.316  40.736  51.117  1.00  0.00     0.163 HD
ENDROOT
BRANCH   1   3
ATOM      3  C   UNL     1       4.222  42.315  51.039  1.00  0.00     0.226 A 
ATOM      4  C   UNL     1       4.429  44.608  51.506  1.00  0.00     0.147 A 
ATOM      5  N   UNL     1       4.883  43.477  50.908  1.00  0.00    -0.195 NA
ATOM      6  C   UNL     1       3.243  44.508  52.241  1.00  0.00     0.082 A 
ATOM      7  C   UNL     1       2.645  43.266  52.301  1.00  0.00     0.165 A 
ATOM      8  C   UNL     1       2.395  45.344  52.995  1.00  0.00     0.149 A 
ATOM      9  N   UNL     1       3.081  42.139  51.719  1.00  0.00    -0.193 NA
ATOM     10  N   UNL     1       1.526  43.423  53.072  1.00  0.00    -0.250 N 
ATOM     11  N   UNL     1       1.344  44.694  53.506  1.00  0.00    -0.179 NA
ATOM     12  C   UNL     1       0.575  42.405  53.439  1.00  0.00     0.176 C 
BRANCH   4  13
ATOM     13  N   UNL     1       5.118  45.823  51.355  1.00  0.00    -0.339 N 
ATOM     14  H   UNL     1       4.508  46.610  51.175  1.00  0.00     0.168 HD
BRANCH  13  15
ATOM     15  C   UNL     1       6.287  46.213  52.040  1.00  0.00     0.043 A 
ATOM     16  C   UNL     1       7.589  46.014  51.537  1.00  0.00    -0.026 A 
ATOM     17  C   UNL     1       8.695  46.384  52.326  1.00  0.00     0.021 A 
ATOM     18  C   UNL     1       8.513  46.884  53.615  1.00  0.00     0.018 A 
ATOM     19  C   UNL     1       6.132  46.676  53.358  1.00  0.00     0.027 A 
ATOM     20  C   UNL     1       7.234  47.023  54.140  1.00  0.00     0.018 A 
ATOM     21  C   UNL     1       7.853  45.456  50.166  1.00  0.00     0.046 C 
ATOM     22  Br  UNL     1      10.014  47.359  54.660  1.00  0.00    -0.051 Br
ENDBRANCH  13  15
ENDBRANCH   4  13
ENDBRANCH   1   3
BRANCH   1  23
ATOM     23  C   UNL     1       5.672  41.584  49.263  1.00  0.00     0.144 C 
BRANCH  23  24
ATOM     24  C   UNL     1       5.062  41.150  47.923  1.00  0.00     0.181 C 
BRANCH  24  25
ATOM     25  O   UNL     1       5.677  41.905  46.871  1.00  0.00    -0.377 OA
BRANCH  25  26
ATOM     26  C   UNL     1       5.281  41.494  45.561  1.00  0.00     0.112 C 
ATOM     27  C   UNL     1       3.878  40.911  45.685  1.00  0.00     0.038 C 
ATOM     28  C   UNL     1       5.284  42.670  44.591  1.00  0.00     0.038 C 
ENDBRANCH  25  26
ENDBRANCH  24  25
ENDBRANCH  23  24
ENDBRANCH   1  23
TORSDOF 7
ENDMDL
MODEL 12
REMARK VINA RESULT:    -7.556      2.874      6.184
REMARK INTER + INTRA:         -12.197
REMARK INTER:                 -10.846
REMARK INTRA:                  -1.351
REMARK UNBOUND:                -1.549
REMARK SMILES Cc1cc(Br)ccc1Nc1nc(NCCOC(C)C)nc2c1cnn2C
REMARK SMILES IDX 13 1 12 3 10 4 11 5 22 6 21 7 23 8 20 9 25 10 24 11 26 12
REMARK SMILES IDX 9 13 8 15 2 16 3 17 4 18 7 19 6 20 1 21 5 22 14 23 15 24
REMARK SMILES IDX 16 25 17 26 18 27 19 28
REMARK H PARENT 13 2 9 14
ROOT
ATOM      1  N   UNL     1       6.170  44.079  49.494  1.00  0.00    -0.352 N 
ATOM      2  H   UNL     1       5.202  43.865  49.730  1.00  0.00     0.163 HD
ENDROOT
BRANCH   1   3
ATOM      3  C   UNL     1       6.590  44.967  50.477  1.00  0.00     0.226 A 
ATOM      4  C   UNL     1       5.865  46.466  52.135  1.00  0.00     0.147 A 
ATOM      5  N   UNL     1       5.596  45.562  51.157  1.00  0.00    -0.195 NA
ATOM      6  C   UNL     1       7.211  46.727  52.408  1.00  0.00     0.082 A 
ATOM      7  C   UNL     1       8.148  46.051  51.652  1.00  0.00     0.165 A 
ATOM      8  C   UNL     1       7.976  47.523  53.285  1.00  0.00     0.149 A 
ATOM      9  N   UNL     1       7.900  45.160  50.682  1.00  0.00    -0.193 NA
ATOM     10  N   UNL     1       9.369  46.479  52.094  1.00  0.00    -0.250 N 
ATOM     11  N   UNL     1       9.293  47.379  53.104  1.00  0.00    -0.179 NA
ATOM     12  C   UNL     1      10.661  46.073  51.603  1.00  0.00     0.176 C 
BRANCH   4  13
ATOM     13  N   UNL     1       4.822  47.076  52.852  1.00  0.00    -0.339 N 
ATOM     14  H   UNL     1       4.656  48.036  52.578  1.00  0.00     0.168 HD
BRANCH  13  15
ATOM     15  C   UNL     1       3.644  46.450  53.311  1.00  0.00     0.043 A 
ATOM     16  C   UNL     1       3.598  45.605  54.437  1.00  0.00    -0.026 A 
ATOM     17  C   UNL     1       2.384  44.979  54.778  1.00  0.00     0.021 A 
ATOM     18  C   UNL     1       1.252  45.141  53.979  1.00  0.00     0.018 A 
ATOM     19  C   UNL     1       2.503  46.561  52.497  1.00  0.00     0.027 A 
ATOM     20  C   UNL     1       1.309  45.923  52.833  1.00  0.00     0.018 A 
ATOM     21  C   UNL     1       4.789  45.370  55.325  1.00  0.00     0.046 C 
ATOM     22  Br  UNL     1      -0.362  44.279  54.451  1.00  0.00    -0.051 Br
ENDBRANCH  13  15
ENDBRANCH   4  13
ENDBRANCH   1   3
BRANCH   1  23
ATOM     23  C   UNL     1       6.980  42.870  49.362  1.00  0.00     0.144 C 
BRANCH  23  24
ATOM     24  C   UNL     1       6.133  41.599  49.513  1.00  0.00     0.181 C 
BRANCH  24  25
ATOM     25  O   UNL     1       5.585  41.565  50.837  1.00  0.00    -0.377 OA
BRANCH  25  26
ATOM     26  C   UNL     1       4.181  41.299  50.872  1.00  0.00     0.112 C 
ATOM     27  C   UNL     1       3.498  42.586  51.320  1.00  0.00     0.038 C 
ATOM     28  C   UNL     1       3.667  40.873  49.501  1.00  0.00     0.038 C 
ENDBRANCH  25  26
ENDBRANCH  24  25
ENDBRANCH  23  24
ENDBRANCH   1  23
TORSDOF 7
ENDMDL
MODEL 13
REMARK VINA RESULT:    -7.466      3.444      6.466
REMARK INTER + INTRA:         -12.069
REMARK INTER:                 -11.090
REMARK INTRA:                  -0.980
REMARK UNBOUND:                -1.549
REMARK SMILES Cc1cc(Br)ccc1Nc1nc(NCCOC(C)C)nc2c1cnn2C
REMARK SMILES IDX 13 1 12 3 10 4 11 5 22 6 21 7 23 8 20 9 25 10 24 11 26 12
REMARK SMILES IDX 9 13 8 15 2 16 3 17 4 18 7 19 6 20 1 21 5 22 14 23 15 24
REMARK SMILES IDX 16 25 17 26 18 27 19 28
REMARK H PARENT 13 2 9 14
ROOT
ATOM      1  N   UNL     1       5.030  46.814  52.575  1.00  0.00    -0.352 N 
ATOM      2  H   UNL     1       5.851  47.148  52.072  1.00  0.00     0.163 HD
ENDROOT
BRANCH   1   3
ATOM      3  C   UNL     1       4.868  45.498  52.161  1.00  0.00     0.226 A 
ATOM      4  C   UNL     1       3.587  43.549  52.444  1.00  0.00     0.147 A 
ATOM      5  N   UNL     1       3.848  44.848  52.745  1.00  0.00    -0.195 NA
ATOM      6  C   UNL     1       4.411  42.937  51.495  1.00  0.00     0.082 A 
ATOM      7  C   UNL     1       5.423  43.704  50.954  1.00  0.00     0.165 A 
ATOM      8  C   UNL     1       4.540  41.685  50.860  1.00  0.00     0.149 A 
ATOM      9  N   UNL     1       5.697  44.984  51.242  1.00  0.00    -0.193 NA
ATOM     10  N   UNL     1       6.083  42.890  50.075  1.00  0.00    -0.250 N 
ATOM     11  N   UNL     1       5.557  41.645  49.991  1.00  0.00    -0.179 NA
ATOM     12  C   UNL     1       7.229  43.231  49.271  1.00  0.00     0.176 C 
BRANCH   4  13
ATOM     13  N   UNL     1       2.511  42.877  53.049  1.00  0.00    -0.339 N 
ATOM     14  H   UNL     1       2.796  42.243  53.783  1.00  0.00     0.168 HD
BRANCH  13  15
ATOM     15  C   UNL     1       1.221  43.401  53.280  1.00  0.00     0.043 A 
ATOM     16  C   UNL     1       0.271  43.612  52.261  1.00  0.00    -0.026 A 
ATOM     17  C   UNL     1      -0.967  44.198  52.587  1.00  0.00     0.021 A 
ATOM     18  C   UNL     1      -1.233  44.620  53.889  1.00  0.00     0.018 A 
ATOM     19  C   UNL     1       0.947  43.877  54.574  1.00  0.00     0.027 A 
ATOM     20  C   UNL     1      -0.276  44.471  54.884  1.00  0.00     0.018 A 
ATOM     21  C   UNL     1       0.506  43.202  50.833  1.00  0.00     0.046 C 
ATOM     22  Br  UNL     1      -2.898  45.416  54.297  1.00  0.00    -0.051 Br
ENDBRANCH  13  15
ENDBRANCH   4  13
ENDBRANCH   1   3
BRANCH   1  23
ATOM     23  C   UNL     1       5.162  47.000  54.018  1.00  0.00     0.144 C 
BRANCH  23  24
ATOM     24  C   UNL     1       6.541  46.553  54.525  1.00  0.00     0.181 C 
BRANCH  24  25
ATOM     25  O   UNL     1       7.509  47.543  54.158  1.00  0.00    -0.377 OA
BRANCH  25  26
ATOM     26  C   UNL     1       8.500  47.068  53.244  1.00  0.00     0.112 C 
ATOM     27  C   UNL     1       8.400  47.935  51.993  1.00  0.00     0.038 C 
ATOM     28  C   UNL     1       9.897  47.166  53.848  1.00  0.00     0.038 C 
ENDBRANCH  25  26
ENDBRANCH  24  25
ENDBRANCH  23  24
ENDBRANCH   1  23
TORSDOF 7
ENDMDL
MODEL 14
REMARK VINA RESULT:    -7.462      2.808      5.471
REMARK INTER + INTRA:         -12.064
REMARK INTER:                 -11.161
REMARK INTRA:                  -0.903
REMARK UNBOUND:                -1.549
REMARK SMILES Cc1cc(Br)ccc1Nc1nc(NCCOC(C)C)nc2c1cnn2C
REMARK SMILES IDX 13 1 12 3 10 4 11 5 22 6 21 7 23 8 20 9 25 10 24 11 26 12
REMARK SMILES IDX 9 13 8 15 2 16 3 17 4 18 7 19 6 20 1 21 5 22 14 23 15 24
REMARK SMILES IDX 16 25 17 26 18 27 19 28
REMARK H PARENT 13 2 9 14
ROOT
ATOM      1  N   UNL     1       4.953  41.495  50.520  1.00  0.00    -0.352 N 
ATOM      2  H   UNL     1       5.499  41.258  51.346  1.00  0.00     0.163 HD
ENDROOT
BRANCH   1   3
ATOM      3  C   UNL     1       4.236  42.630  50.877  1.00  0.00     0.226 A 
ATOM      4  C   UNL     1       4.394  44.936  51.303  1.00  0.00     0.147 A 
ATOM      5  N   UNL     1       4.966  43.756  50.947  1.00  0.00    -0.195 NA
ATOM      6  C   UNL     1       3.022  44.923  51.570  1.00  0.00     0.082 A 
ATOM      7  C   UNL     1       2.371  43.711  51.458  1.00  0.00     0.165 A 
ATOM      8  C   UNL     1       2.010  45.833  51.941  1.00  0.00     0.149 A 
ATOM      9  N   UNL     1       2.920  42.538  51.112  1.00  0.00    -0.193 NA
ATOM     10  N   UNL     1       1.063  43.955  51.774  1.00  0.00    -0.250 N 
ATOM     11  N   UNL     1       0.811  45.253  52.067  1.00  0.00    -0.179 NA
ATOM     12  C   UNL     1      -0.013  42.997  51.815  1.00  0.00     0.176 C 
BRANCH   4  13
ATOM     13  N   UNL     1       5.159  46.112  51.362  1.00  0.00    -0.339 N 
ATOM     14  H   UNL     1       4.618  46.952  51.203  1.00  0.00     0.168 HD
BRANCH  13  15
ATOM     15  C   UNL     1       6.260  46.352  52.211  1.00  0.00     0.043 A 
ATOM     16  C   UNL     1       6.137  46.801  53.541  1.00  0.00    -0.026 A 
ATOM     17  C   UNL     1       7.300  47.070  54.287  1.00  0.00     0.021 A 
ATOM     18  C   UNL     1       8.561  46.954  53.703  1.00  0.00     0.018 A 
ATOM     19  C   UNL     1       7.540  46.287  51.632  1.00  0.00     0.027 A 
ATOM     20  C   UNL     1       8.686  46.573  52.374  1.00  0.00     0.018 A 
ATOM     21  C   UNL     1       4.805  46.970  54.221  1.00  0.00     0.046 C 
ATOM     22  Br  UNL     1      10.107  47.335  54.722  1.00  0.00    -0.051 Br
ENDBRANCH  13  15
ENDBRANCH   4  13
ENDBRANCH   1   3
BRANCH   1  23
ATOM     23  C   UNL     1       5.793  41.639  49.333  1.00  0.00     0.144 C 
BRANCH  23  24
ATOM     24  C   UNL     1       5.055  41.208  48.057  1.00  0.00     0.181 C 
BRANCH  24  25
ATOM     25  O   UNL     1       5.810  41.642  46.920  1.00  0.00    -0.377 OA
BRANCH  25  26
ATOM     26  C   UNL     1       5.192  41.335  45.668  1.00  0.00     0.112 C 
ATOM     27  C   UNL     1       3.792  40.818  45.981  1.00  0.00     0.038 C 
ATOM     28  C   UNL     1       5.115  42.570  44.776  1.00  0.00     0.038 C 
ENDBRANCH  25  26
ENDBRANCH  24  25
ENDBRANCH  23  24
ENDBRANCH   1  23
TORSDOF 7
ENDMDL
MODEL 15
REMARK VINA RESULT:    -7.446      3.195      5.836
REMARK INTER + INTRA:         -12.042
REMARK INTER:                 -10.572
REMARK INTRA:                  -1.471
REMARK UNBOUND:                -1.549
REMARK SMILES Cc1cc(Br)ccc1Nc1nc(NCCOC(C)C)nc2c1cnn2C
REMARK SMILES IDX 13 1 12 3 10 4 11 5 22 6 21 7 23 8 20 9 25 10 24 11 26 12
REMARK SMILES IDX 9 13 8 15 2 16 3 17 4 18 7 19 6 20 1 21 5 22 14 23 15 24
REMARK SMILES IDX 16 25 17 26 18 27 19 28
REMARK H PARENT 13 2 9 14
ROOT
ATOM      1  N   UNL     1       1.373  43.123  52.700  1.00  0.00    -0.352 N 
ATOM      2  H   UNL     1       0.698  42.365  52.794  1.00  0.00     0.163 HD
ENDROOT
BRANCH   1   3
ATOM      3  C   UNL     1       1.236  43.871  53.863  1.00  0.00     0.226 A 
ATOM      4  C   UNL     1       2.328  45.353  55.323  1.00  0.00     0.147 A 
ATOM      5  N   UNL     1       2.320  44.590  54.199  1.00  0.00    -0.195 NA
ATOM      6  C   UNL     1       1.161  45.367  56.092  1.00  0.00     0.082 A 
ATOM      7  C   UNL     1       0.106  44.595  55.647  1.00  0.00     0.165 A 
ATOM      8  C   UNL     1       0.680  45.973  57.271  1.00  0.00     0.149 A 
ATOM      9  N   UNL     1       0.082  43.835  54.543  1.00  0.00    -0.193 NA
ATOM     10  N   UNL     1      -0.898  44.767  56.560  1.00  0.00    -0.250 N 
ATOM     11  N   UNL     1      -0.575  45.615  57.565  1.00  0.00    -0.179 NA
ATOM     12  C   UNL     1      -2.202  44.154  56.540  1.00  0.00     0.176 C 
BRANCH   4  13
ATOM     13  N   UNL     1       3.460  46.113  55.662  1.00  0.00    -0.339 N 
ATOM     14  H   UNL     1       3.740  46.005  56.628  1.00  0.00     0.168 HD
BRANCH  13  15
ATOM     15  C   UNL     1       4.560  46.396  54.826  1.00  0.00     0.043 A 
ATOM     16  C   UNL     1       5.770  45.673  54.858  1.00  0.00    -0.026 A 
ATOM     17  C   UNL     1       6.832  46.073  54.025  1.00  0.00     0.021 A 
ATOM     18  C   UNL     1       6.715  47.206  53.219  1.00  0.00     0.018 A 
ATOM     19  C   UNL     1       4.484  47.559  54.041  1.00  0.00     0.027 A 
ATOM     20  C   UNL     1       5.548  47.958  53.231  1.00  0.00     0.018 A 
ATOM     21  C   UNL     1       5.967  44.458  55.722  1.00  0.00     0.046 C 
ATOM     22  Br  UNL     1       8.160  47.730  52.120  1.00  0.00    -0.051 Br
ENDBRANCH  13  15
ENDBRANCH   4  13
ENDBRANCH   1   3
BRANCH   1  23
ATOM     23  C   UNL     1       2.721  42.624  52.438  1.00  0.00     0.144 C 
BRANCH  23  24
ATOM     24  C   UNL     1       3.289  43.183  51.125  1.00  0.00     0.181 C 
BRANCH  24  25
ATOM     25  O   UNL     1       4.718  43.078  51.161  1.00  0.00    -0.377 OA
BRANCH  25  26
ATOM     26  C   UNL     1       5.386  44.341  51.206  1.00  0.00     0.112 C 
ATOM     27  C   UNL     1       6.545  44.264  50.218  1.00  0.00     0.038 C 
ATOM     28  C   UNL     1       4.442  45.477  50.830  1.00  0.00     0.038 C 
ENDBRANCH  25  26
ENDBRANCH  24  25
ENDBRANCH  23  24
ENDBRANCH   1  23
TORSDOF 7
ENDMDL
MODEL 16
REMARK VINA RESULT:    -7.360      2.714      5.775
REMARK INTER + INTRA:         -11.920
REMARK INTER:                 -10.686
REMARK INTRA:                  -1.234
REMARK UNBOUND:                -1.549
REMARK SMILES Cc1cc(Br)ccc1Nc1nc(NCCOC(C)C)nc2c1cnn2C
REMARK SMILES IDX 13 1 12 3 10 4 11 5 22 6 21 7 23 8 20 9 25 10 24 11 26 12
REMARK SMILES IDX 9 13 8 15 2 16 3 17 4 18 7 19 6 20 1 21 5 22 14 23 15 24
REMARK SMILES IDX 16 25 17 26 18 27 19 28
REMARK H PARENT 13 2 9 14
ROOT
ATOM      1  N   UNL     1       7.881  46.280  50.749  1.00  0.00    -0.352 N 
ATOM      2  H   UNL     1       7.914  46.590  49.779  1.00  0.00     0.163 HD
ENDROOT
BRANCH   1   3
ATOM      3  C   UNL     1       6.780  45.435  50.817  1.00  0.00     0.226 A 
ATOM      4  C   UNL     1       4.499  45.307  51.365  1.00  0.00     0.147 A 
ATOM      5  N   UNL     1       5.647  46.022  51.237  1.00  0.00    -0.195 NA
ATOM      6  C   UNL     1       4.551  43.952  51.025  1.00  0.00     0.082 A 
ATOM      7  C   UNL     1       5.767  43.458  50.599  1.00  0.00     0.165 A 
ATOM      8  C   UNL     1       3.682  42.843  50.971  1.00  0.00     0.149 A 
ATOM      9  N   UNL     1       6.910  44.148  50.469  1.00  0.00    -0.193 NA
ATOM     10  N   UNL     1       5.565  42.130  50.341  1.00  0.00    -0.250 N 
ATOM     11  N   UNL     1       4.290  41.726  50.554  1.00  0.00    -0.179 NA
ATOM     12  C   UNL     1       6.543  41.176  49.884  1.00  0.00     0.176 C 
BRANCH   4  13
ATOM     13  N   UNL     1       3.313  45.928  51.792  1.00  0.00    -0.339 N 
ATOM     14  H   UNL     1       2.682  46.151  51.033  1.00  0.00     0.168 HD
BRANCH  13  15
ATOM     15  C   UNL     1       2.620  45.673  52.993  1.00  0.00     0.043 A 
ATOM     16  C   UNL     1       1.275  45.253  53.044  1.00  0.00    -0.026 A 
ATOM     17  C   UNL     1       0.654  45.084  54.296  1.00  0.00     0.021 A 
ATOM     18  C   UNL     1       1.337  45.384  55.474  1.00  0.00     0.018 A 
ATOM     19  C   UNL     1       3.271  46.012  54.192  1.00  0.00     0.027 A 
ATOM     20  C   UNL     1       2.641  45.858  55.427  1.00  0.00     0.018 A 
ATOM     21  C   UNL     1       0.476  44.937  51.809  1.00  0.00     0.046 C 
ATOM     22  Br  UNL     1       0.476  45.161  57.142  1.00  0.00    -0.051 Br
ENDBRANCH  13  15
ENDBRANCH   4  13
ENDBRANCH   1   3
BRANCH   1  23
ATOM     23  C   UNL     1       9.146  45.688  51.177  1.00  0.00     0.144 C 
BRANCH  23  24
ATOM     24  C   UNL     1       9.896  46.597  52.161  1.00  0.00     0.181 C 
BRANCH  24  25
ATOM     25  O   UNL     1       9.025  47.663  52.558  1.00  0.00    -0.377 OA
BRANCH  25  26
ATOM     26  C   UNL     1       8.838  47.758  53.972  1.00  0.00     0.112 C 
ATOM     27  C   UNL     1       7.616  46.913  54.313  1.00  0.00     0.038 C 
ATOM     28  C   UNL     1      10.063  47.249  54.724  1.00  0.00     0.038 C 
ENDBRANCH  25  26
ENDBRANCH  24  25
ENDBRANCH  23  24
ENDBRANCH   1  23
TORSDOF 7
ENDMDL
MODEL 17
REMARK VINA RESULT:    -7.330      1.618      2.513
REMARK INTER + INTRA:         -11.878
REMARK INTER:                 -10.938
REMARK INTRA:                  -0.940
REMARK UNBOUND:                -1.549
REMARK SMILES Cc1cc(Br)ccc1Nc1nc(NCCOC(C)C)nc2c1cnn2C
REMARK SMILES IDX 13 1 12 3 10 4 11 5 22 6 21 7 23 8 20 9 25 10 24 11 26 12
REMARK SMILES IDX 9 13 8 15 2 16 3 17 4 18 7 19 6 20 1 21 5 22 14 23 15 24
REMARK SMILES IDX 16 25 17 26 18 27 19 28
REMARK H PARENT 13 2 9 14
ROOT
ATOM      1  N   UNL     1       3.742  43.170  53.016  1.00  0.00    -0.352 N 
ATOM      2  H   UNL     1       4.180  42.445  53.583  1.00  0.00     0.163 HD
ENDROOT
BRANCH   1   3
ATOM      3  C   UNL     1       4.685  43.484  52.045  1.00  0.00     0.226 A 
ATOM      4  C   UNL     1       6.278  45.074  51.372  1.00  0.00     0.147 A 
ATOM      5  N   UNL     1       5.340  44.638  52.252  1.00  0.00    -0.195 NA
ATOM      6  C   UNL     1       6.537  44.262  50.263  1.00  0.00     0.082 A 
ATOM      7  C   UNL     1       5.810  43.094  50.157  1.00  0.00     0.165 A 
ATOM      8  C   UNL     1       7.379  44.257  49.133  1.00  0.00     0.149 A 
ATOM      9  N   UNL     1       4.879  42.650  51.014  1.00  0.00    -0.193 NA
ATOM     10  N   UNL     1       6.232  42.491  49.004  1.00  0.00    -0.250 N 
ATOM     11  N   UNL     1       7.202  43.181  48.357  1.00  0.00    -0.179 NA
ATOM     12  C   UNL     1       5.757  41.248  48.451  1.00  0.00     0.176 C 
BRANCH   4  13
ATOM     13  N   UNL     1       6.969  46.276  51.600  1.00  0.00    -0.339 N 
ATOM     14  H   UNL     1       6.450  47.097  51.315  1.00  0.00     0.168 HD
BRANCH  13  15
ATOM     15  C   UNL     1       7.836  46.552  52.678  1.00  0.00     0.043 A 
ATOM     16  C   UNL     1       7.395  47.022  53.932  1.00  0.00    -0.026 A 
ATOM     17  C   UNL     1       8.346  47.326  54.924  1.00  0.00     0.021 A 
ATOM     18  C   UNL     1       9.711  47.224  54.656  1.00  0.00     0.018 A 
ATOM     19  C   UNL     1       9.216  46.501  52.418  1.00  0.00     0.027 A 
ATOM     20  C   UNL     1      10.151  46.821  53.402  1.00  0.00     0.018 A 
ATOM     21  C   UNL     1       5.939  47.178  54.275  1.00  0.00     0.046 C 
ATOM     22  Br  UNL     1      10.968  47.652  56.001  1.00  0.00    -0.051 Br
ENDBRANCH  13  15
ENDBRANCH   4  13
ENDBRANCH   1   3
BRANCH   1  23
ATOM     23  C   UNL     1       2.440  42.748  52.503  1.00  0.00     0.144 C 
BRANCH  23  24
ATOM     24  C   UNL     1       1.285  43.357  53.312  1.00  0.00     0.181 C 
BRANCH  24  25
ATOM     25  O   UNL     1       0.836  44.545  52.649  1.00  0.00    -0.377 OA
BRANCH  25  26
ATOM     26  C   UNL     1       1.126  45.748  53.365  1.00  0.00     0.112 C 
ATOM     27  C   UNL     1       1.466  45.341  54.794  1.00  0.00     0.038 C 
ATOM     28  C   UNL     1       2.294  46.496  52.733  1.00  0.00     0.038 C 
ENDBRANCH  25  26
ENDBRANCH  24  25
ENDBRANCH  23  24
ENDBRANCH   1  23
TORSDOF 7
ENDMDL
MODEL 18
REMARK VINA RESULT:    -7.225      3.079      5.932
REMARK INTER + INTRA:         -11.731
REMARK INTER:                 -10.746
REMARK INTRA:                  -0.985
REMARK UNBOUND:                -1.549
REMARK SMILES Cc1cc(Br)ccc1Nc1nc(NCCOC(C)C)nc2c1cnn2C
REMARK SMILES IDX 13 1 12 3 10 4 11 5 22 6 21 7 23 8 20 9 25 10 24 11 26 12
REMARK SMILES IDX 9 13 8 15 2 16 3 17 4 18 7 19 6 20 1 21 5 22 14 23 15 24
REMARK SMILES IDX 16 25 17 26 18 27 19 28
REMARK H PARENT 13 2 9 14
ROOT
ATOM      1  N   UNL     1       1.947  42.365  52.722  1.00  0.00    -0.352 N 
ATOM      2  H   UNL     1       2.579  41.730  53.207  1.00  0.00     0.163 HD
ENDROOT
BRANCH   1   3
ATOM      3  C   UNL     1       1.596  43.316  53.672  1.00  0.00     0.226 A 
ATOM      4  C   UNL     1       2.367  45.160  54.907  1.00  0.00     0.147 A 
ATOM      5  N   UNL     1       2.570  44.188  53.980  1.00  0.00    -0.195 NA
ATOM      6  C   UNL     1       1.104  45.219  55.503  1.00  0.00     0.082 A 
ATOM      7  C   UNL     1       0.177  44.277  55.103  1.00  0.00     0.165 A 
ATOM      8  C   UNL     1       0.421  46.003  56.455  1.00  0.00     0.149 A 
ATOM      9  N   UNL     1       0.361  43.310  54.193  1.00  0.00    -0.193 NA
ATOM     10  N   UNL     1      -0.956  44.534  55.825  1.00  0.00    -0.250 N 
ATOM     11  N   UNL     1      -0.837  45.595  56.659  1.00  0.00    -0.179 NA
ATOM     12  C   UNL     1      -2.200  43.809  55.773  1.00  0.00     0.176 C 
BRANCH   4  13
ATOM     13  N   UNL     1       3.386  46.077  55.217  1.00  0.00    -0.339 N 
ATOM     14  H   UNL     1       3.547  46.177  56.210  1.00  0.00     0.168 HD
BRANCH  13  15
ATOM     15  C   UNL     1       4.561  46.306  54.470  1.00  0.00     0.043 A 
ATOM     16  C   UNL     1       4.570  46.918  53.200  1.00  0.00    -0.026 A 
ATOM     17  C   UNL     1       5.790  47.047  52.508  1.00  0.00     0.021 A 
ATOM     18  C   UNL     1       6.967  46.522  53.040  1.00  0.00     0.018 A 
ATOM     19  C   UNL     1       5.751  45.746  54.963  1.00  0.00     0.027 A 
ATOM     20  C   UNL     1       6.952  45.863  54.262  1.00  0.00     0.018 A 
ATOM     21  C   UNL     1       3.331  47.482  52.561  1.00  0.00     0.046 C 
ATOM     22  Br  UNL     1       8.589  46.695  52.085  1.00  0.00    -0.051 Br
ENDBRANCH  13  15
ENDBRANCH   4  13
ENDBRANCH   1   3
BRANCH   1  23
ATOM     23  C   UNL     1       2.543  42.899  51.500  1.00  0.00     0.144 C 
BRANCH  23  24
ATOM     24  C   UNL     1       3.758  42.074  51.052  1.00  0.00     0.181 C 
BRANCH  24  25
ATOM     25  O   UNL     1       4.929  42.895  51.138  1.00  0.00    -0.377 OA
BRANCH  25  26
ATOM     26  C   UNL     1       5.774  42.815  49.988  1.00  0.00     0.112 C 
ATOM     27  C   UNL     1       6.747  43.986  50.072  1.00  0.00     0.038 C 
ATOM     28  C   UNL     1       6.534  41.494  49.954  1.00  0.00     0.038 C 
ENDBRANCH  25  26
ENDBRANCH  24  25
ENDBRANCH  23  24
ENDBRANCH   1  23
TORSDOF 7
ENDMDL
MODEL 19
REMARK VINA RESULT:    -7.173      3.277      6.373
REMARK INTER + INTRA:         -11.657
REMARK INTER:                 -10.992
REMARK INTRA:                  -0.664
REMARK UNBOUND:                -1.549
REMARK SMILES Cc1cc(Br)ccc1Nc1nc(NCCOC(C)C)nc2c1cnn2C
REMARK SMILES IDX 13 1 12 3 10 4 11 5 22 6 21 7 23 8 20 9 25 10 24 11 26 12
REMARK SMILES IDX 9 13 8 15 2 16 3 17 4 18 7 19 6 20 1 21 5 22 14 23 15 24
REMARK SMILES IDX 16 25 17 26 18 27 19 28
REMARK H PARENT 13 2 9 14
ROOT
ATOM      1  N   UNL     1       6.870  45.970  51.811  1.00  0.00    -0.352 N 
ATOM      2  H   UNL     1       7.548  45.289  52.148  1.00  0.00     0.163 HD
ENDROOT
BRANCH   1   3
ATOM      3  C   UNL     1       5.688  45.254  51.660  1.00  0.00     0.226 A 
ATOM      4  C   UNL     1       3.361  45.317  51.976  1.00  0.00     0.147 A 
ATOM      5  N   UNL     1       4.582  45.908  52.054  1.00  0.00    -0.195 NA
ATOM      6  C   UNL     1       3.312  44.021  51.457  1.00  0.00     0.082 A 
ATOM      7  C   UNL     1       4.510  43.450  51.077  1.00  0.00     0.165 A 
ATOM      8  C   UNL     1       2.346  43.035  51.169  1.00  0.00     0.149 A 
ATOM      9  N   UNL     1       5.723  44.016  51.149  1.00  0.00    -0.193 NA
ATOM     10  N   UNL     1       4.203  42.199  50.618  1.00  0.00    -0.250 N 
ATOM     11  N   UNL     1       2.878  41.919  50.657  1.00  0.00    -0.179 NA
ATOM     12  C   UNL     1       5.123  41.207  50.122  1.00  0.00     0.176 C 
BRANCH   4  13
ATOM     13  N   UNL     1       2.206  46.010  52.377  1.00  0.00    -0.339 N 
ATOM     14  H   UNL     1       1.766  46.525  51.626  1.00  0.00     0.168 HD
BRANCH  13  15
ATOM     15  C   UNL     1       1.267  45.585  53.340  1.00  0.00     0.043 A 
ATOM     16  C   UNL     1       1.579  45.389  54.701  1.00  0.00    -0.026 A 
ATOM     17  C   UNL     1       0.586  44.903  55.572  1.00  0.00     0.021 A 
ATOM     18  C   UNL     1      -0.677  44.561  55.088  1.00  0.00     0.018 A 
ATOM     19  C   UNL     1       0.003  45.189  52.870  1.00  0.00     0.027 A 
ATOM     20  C   UNL     1      -0.970  44.692  53.737  1.00  0.00     0.018 A 
ATOM     21  C   UNL     1       2.929  45.716  55.279  1.00  0.00     0.046 C 
ATOM     22  Br  UNL     1      -1.990  43.898  56.275  1.00  0.00    -0.051 Br
ENDBRANCH  13  15
ENDBRANCH   4  13
ENDBRANCH   1   3
BRANCH   1  23
ATOM     23  C   UNL     1       6.783  47.133  52.692  1.00  0.00     0.144 C 
BRANCH  23  24
ATOM     24  C   UNL     1       7.943  48.112  52.458  1.00  0.00     0.181 C 
BRANCH  24  25
ATOM     25  O   UNL     1       8.639  48.304  53.695  1.00  0.00    -0.377 OA
BRANCH  25  26
ATOM     26  C   UNL     1       9.395  47.165  54.113  1.00  0.00     0.112 C 
ATOM     27  C   UNL     1      10.241  46.734  52.919  1.00  0.00     0.038 C 
ATOM     28  C   UNL     1      10.288  47.503  55.302  1.00  0.00     0.038 C 
ENDBRANCH  25  26
ENDBRANCH  24  25
ENDBRANCH  23  24
ENDBRANCH   1  23
TORSDOF 7
ENDMDL
MODEL 20
REMARK VINA RESULT:    -7.096      3.264      4.722
REMARK INTER + INTRA:         -11.549
REMARK INTER:                 -10.577
REMARK INTRA:                  -0.972
REMARK UNBOUND:                -1.549
REMARK SMILES Cc1cc(Br)ccc1Nc1nc(NCCOC(C)C)nc2c1cnn2C
REMARK SMILES IDX 13 1 12 3 10 4 11 5 22 6 21 7 23 8 20 9 25 10 24 11 26 12
REMARK SMILES IDX 9 13 8 15 2 16 3 17 4 18 7 19 6 20 1 21 5 22 14 23 15 24
REMARK SMILES IDX 16 25 17 26 18 27 19 28
REMARK H PARENT 13 2 9 14
ROOT
ATOM      1  N   UNL     1       1.868  45.658  56.471  1.00  0.00    -0.352 N 
ATOM      2  H   UNL     1       2.752  45.375  56.891  1.00  0.00     0.163 HD
ENDROOT
BRANCH   1   3
ATOM      3  C   UNL     1       1.954  45.248  55.146  1.00  0.00     0.226 A 
ATOM      4  C   UNL     1       2.925  45.719  53.058  1.00  0.00     0.147 A 
ATOM      5  N   UNL     1       2.762  45.998  54.378  1.00  0.00    -0.195 NA
ATOM      6  C   UNL     1       2.233  44.615  52.551  1.00  0.00     0.082 A 
ATOM      7  C   UNL     1       1.438  43.912  53.434  1.00  0.00     0.165 A 
ATOM      8  C   UNL     1       2.084  43.934  51.325  1.00  0.00     0.149 A 
ATOM      9  N   UNL     1       1.264  44.175  54.737  1.00  0.00    -0.193 NA
ATOM     10  N   UNL     1       0.870  42.902  52.707  1.00  0.00    -0.250 N 
ATOM     11  N   UNL     1       1.255  42.887  51.409  1.00  0.00    -0.179 NA
ATOM     12  C   UNL     1      -0.054  41.904  53.184  1.00  0.00     0.176 C 
BRANCH   4  13
ATOM     13  N   UNL     1       3.780  46.499  52.263  1.00  0.00    -0.339 N 
ATOM     14  H   UNL     1       3.402  47.411  52.043  1.00  0.00     0.168 HD
BRANCH  13  15
ATOM     15  C   UNL     1       5.190  46.514  52.315  1.00  0.00     0.043 A 
ATOM     16  C   UNL     1       6.010  45.726  51.483  1.00  0.00    -0.026 A 
ATOM     17  C   UNL     1       7.407  45.768  51.656  1.00  0.00     0.021 A 
ATOM     18  C   UNL     1       7.974  46.531  52.676  1.00  0.00     0.018 A 
ATOM     19  C   UNL     1       5.782  47.239  53.364  1.00  0.00     0.027 A 
ATOM     20  C   UNL     1       7.166  47.260  53.539  1.00  0.00     0.018 A 
ATOM     21  C   UNL     1       5.459  44.863  50.381  1.00  0.00     0.046 C 
ATOM     22  Br  UNL     1       9.851  46.559  52.897  1.00  0.00    -0.051 Br
ENDBRANCH  13  15
ENDBRANCH   4  13
ENDBRANCH   1   3
BRANCH   1  23
ATOM     23  C   UNL     1       0.721  45.135  57.210  1.00  0.00     0.144 C 
BRANCH  23  24
ATOM     24  C   UNL     1      -0.477  46.093  57.151  1.00  0.00     0.181 C 
BRANCH  24  25
ATOM     25  O   UNL     1      -1.655  45.381  57.549  1.00  0.00    -0.377 OA
BRANCH  25  26
ATOM     26  C   UNL     1      -1.856  44.157  56.838  1.00  0.00     0.112 C 
ATOM     27  C   UNL     1      -2.863  43.340  57.640  1.00  0.00     0.038 C 
ATOM     28  C   UNL     1      -2.384  44.418  55.432  1.00  0.00     0.038 C 
ENDBRANCH  25  26
ENDBRANCH  24  25
ENDBRANCH  23  24
ENDBRANCH   1  23
TORSDOF 7
ENDMDL
