MODEL 1
REMARK VINA RESULT:    -8.222      0.000      0.000
REMARK INTER + INTRA:         -12.386
REMARK INTER:                 -11.106
REMARK INTRA:                  -1.279
REMARK UNBOUND:                -1.279
REMARK SMILES CC(C)CCNc1nc(Nc2ccccc2)c2cnn(C)c2n1
REMARK SMILES IDX 5 1 4 2 2 3 1 4 3 5 6 6 7 8 8 9 23 10 9 11 22 12 17 13 20 14
REMARK SMILES IDX 18 15 19 16 21 17 10 18 11 20 12 21 16 22 13 23 15 24 14 25
REMARK H PARENT 6 7 10 19
ROOT
ATOM      1  C   UNL     1       2.505  46.468  53.054  1.00  0.00     0.116 C 
ENDROOT
BRANCH   1   2
ATOM      2  C   UNL     1       2.870  45.591  54.258  1.00  0.00     0.024 C 
BRANCH   2   3
ATOM      3  C   UNL     1       4.143  46.027  55.012  1.00  0.00    -0.016 C 
ATOM      4  C   UNL     1       5.253  44.996  54.784  1.00  0.00     0.007 C 
ATOM      5  C   UNL     1       4.642  47.414  54.606  1.00  0.00     0.007 C 
ENDBRANCH   2   3
ENDBRANCH   1   2
BRANCH   1   6
ATOM      6  N   UNL     1       2.347  45.653  51.861  1.00  0.00    -0.354 N 
ATOM      7  H   UNL     1       1.938  46.126  51.063  1.00  0.00     0.163 HD
BRANCH   6   8
ATOM      8  C   UNL     1       3.524  45.075  51.397  1.00  0.00     0.226 A 
ATOM      9  N   UNL     1       4.633  45.827  51.278  1.00  0.00    -0.195 NA
ATOM     10  N   UNL     1       3.431  43.773  51.100  1.00  0.00    -0.193 NA
ATOM     11  C   UNL     1       5.802  45.293  50.837  1.00  0.00     0.147 A 
ATOM     12  C   UNL     1       4.588  43.259  50.662  1.00  0.00     0.165 A 
ATOM     13  C   UNL     1       5.784  43.933  50.504  1.00  0.00     0.082 A 
ATOM     14  N   UNL     1       4.831  41.967  50.283  1.00  0.00    -0.250 N 
ATOM     15  C   UNL     1       6.676  42.954  50.018  1.00  0.00     0.149 A 
ATOM     16  N   UNL     1       6.105  41.753  49.875  1.00  0.00    -0.179 NA
ATOM     17  C   UNL     1       3.892  40.873  50.279  1.00  0.00     0.176 C 
BRANCH  11  18
ATOM     18  N   UNL     1       6.963  46.067  50.688  1.00  0.00    -0.339 N 
ATOM     19  H   UNL     1       7.134  46.371  49.741  1.00  0.00     0.168 HD
BRANCH  18  20
ATOM     20  C   UNL     1       7.979  46.426  51.592  1.00  0.00     0.040 A 
ATOM     21  C   UNL     1       7.626  47.157  52.740  1.00  0.00     0.026 A 
ATOM     22  C   UNL     1       9.320  46.057  51.446  1.00  0.00     0.026 A 
ATOM     23  C   UNL     1       8.583  47.520  53.694  1.00  0.00     0.002 A 
ATOM     24  C   UNL     1      10.281  46.419  52.397  1.00  0.00     0.002 A 
ATOM     25  C   UNL     1       9.912  47.151  53.521  1.00  0.00     0.000 A 
ENDBRANCH  18  20
ENDBRANCH  11  18
ENDBRANCH   6   8
ENDBRANCH   1   6
TORSDOF 6
ENDMDL
MODEL 2
REMARK VINA RESULT:    -8.204      2.267      5.223
REMARK INTER + INTRA:         -12.362
REMARK INTER:                 -11.660
REMARK INTRA:                  -0.702
REMARK UNBOUND:                -1.279
REMARK SMILES CC(C)CCNc1nc(Nc2ccccc2)c2cnn(C)c2n1
REMARK SMILES IDX 5 1 4 2 2 3 1 4 3 5 6 6 7 8 8 9 23 10 9 11 22 12 17 13 20 14
REMARK SMILES IDX 18 15 19 16 21 17 10 18 11 20 12 21 16 22 13 23 15 24 14 25
REMARK H PARENT 6 7 10 19
ROOT
ATOM      1  C   UNL     1       5.227  41.186  48.139  1.00  0.00     0.116 C 
ENDROOT
BRANCH   1   2
ATOM      2  C   UNL     1       5.794  41.937  46.928  1.00  0.00     0.024 C 
BRANCH   2   3
ATOM      3  C   UNL     1       5.206  41.506  45.568  1.00  0.00    -0.016 C 
ATOM      4  C   UNL     1       3.854  40.821  45.789  1.00  0.00     0.007 C 
ATOM      5  C   UNL     1       5.038  42.666  44.587  1.00  0.00     0.007 C 
ENDBRANCH   2   3
ENDBRANCH   1   2
BRANCH   1   6
ATOM      6  N   UNL     1       6.069  41.394  49.305  1.00  0.00    -0.354 N 
ATOM      7  H   UNL     1       7.060  41.493  49.113  1.00  0.00     0.163 HD
BRANCH   6   8
ATOM      8  C   UNL     1       5.721  42.496  50.080  1.00  0.00     0.226 A 
ATOM      9  N   UNL     1       6.508  43.586  50.077  1.00  0.00    -0.195 NA
ATOM     10  N   UNL     1       4.590  42.352  50.782  1.00  0.00    -0.193 NA
ATOM     11  C   UNL     1       6.193  44.684  50.815  1.00  0.00     0.147 A 
ATOM     12  C   UNL     1       4.292  43.438  51.508  1.00  0.00     0.165 A 
ATOM     13  C   UNL     1       5.022  44.609  51.580  1.00  0.00     0.082 A 
ATOM     14  N   UNL     1       3.210  43.618  52.326  1.00  0.00    -0.250 N 
ATOM     15  C   UNL     1       4.292  45.422  52.473  1.00  0.00     0.149 A 
ATOM     16  N   UNL     1       3.189  44.826  52.938  1.00  0.00    -0.179 NA
ATOM     17  C   UNL     1       2.148  42.677  52.579  1.00  0.00     0.176 C 
BRANCH  11  18
ATOM     18  N   UNL     1       7.012  45.822  50.840  1.00  0.00    -0.339 N 
ATOM     19  H   UNL     1       6.963  46.380  50.000  1.00  0.00     0.168 HD
BRANCH  18  20
ATOM     20  C   UNL     1       7.953  46.286  51.776  1.00  0.00     0.040 A 
ATOM     21  C   UNL     1       9.315  46.036  51.535  1.00  0.00     0.026 A 
ATOM     22  C   UNL     1       7.622  47.029  52.913  1.00  0.00     0.026 A 
ATOM     23  C   UNL     1      10.306  46.496  52.410  1.00  0.00     0.002 A 
ATOM     24  C   UNL     1       8.610  47.490  53.793  1.00  0.00     0.002 A 
ATOM     25  C   UNL     1       9.951  47.223  53.541  1.00  0.00     0.000 A 
ENDBRANCH  18  20
ENDBRANCH  11  18
ENDBRANCH   6   8
ENDBRANCH   1   6
TORSDOF 6
ENDMDL
MODEL 3
REMARK VINA RESULT:    -8.202      2.244      5.125
REMARK INTER + INTRA:         -12.359
REMARK INTER:                 -11.638
REMARK INTRA:                  -0.721
REMARK UNBOUND:                -1.279
REMARK SMILES CC(C)CCNc1nc(Nc2ccccc2)c2cnn(C)c2n1
REMARK SMILES IDX 5 1 4 2 2 3 1 4 3 5 6 6 7 8 8 9 23 10 9 11 22 12 17 13 20 14
REMARK SMILES IDX 18 15 19 16 21 17 10 18 11 20 12 21 16 22 13 23 15 24 14 25
REMARK H PARENT 6 7 10 19
ROOT
ATOM      1  C   UNL     1       5.317  41.206  48.178  1.00  0.00     0.116 C 
ENDROOT
BRANCH   1   2
ATOM      2  C   UNL     1       5.804  41.944  46.926  1.00  0.00     0.024 C 
BRANCH   2   3
ATOM      3  C   UNL     1       5.184  41.449  45.602  1.00  0.00    -0.016 C 
ATOM      4  C   UNL     1       3.800  40.853  45.876  1.00  0.00     0.007 C 
ATOM      5  C   UNL     1       5.070  42.543  44.541  1.00  0.00     0.007 C 
ENDBRANCH   2   3
ENDBRANCH   1   2
BRANCH   1   6
ATOM      6  N   UNL     1       6.187  41.492  49.307  1.00  0.00    -0.354 N 
ATOM      7  H   UNL     1       7.164  41.633  49.077  1.00  0.00     0.163 HD
BRANCH   6   8
ATOM      8  C   UNL     1       5.810  42.600  50.058  1.00  0.00     0.226 A 
ATOM      9  N   UNL     1       6.590  43.697  50.065  1.00  0.00    -0.195 NA
ATOM     10  N   UNL     1       4.662  42.457  50.731  1.00  0.00    -0.193 NA
ATOM     11  C   UNL     1       6.247  44.800  50.780  1.00  0.00     0.147 A 
ATOM     12  C   UNL     1       4.337  43.550  51.437  1.00  0.00     0.165 A 
ATOM     13  C   UNL     1       5.056  44.726  51.514  1.00  0.00     0.082 A 
ATOM     14  N   UNL     1       3.231  43.731  52.223  1.00  0.00    -0.250 N 
ATOM     15  C   UNL     1       4.297  45.544  52.377  1.00  0.00     0.149 A 
ATOM     16  N   UNL     1       3.185  44.946  52.819  1.00  0.00    -0.179 NA
ATOM     17  C   UNL     1       2.170  42.785  52.458  1.00  0.00     0.176 C 
BRANCH  11  18
ATOM     18  N   UNL     1       7.057  45.945  50.814  1.00  0.00    -0.339 N 
ATOM     19  H   UNL     1       6.926  46.562  50.026  1.00  0.00     0.168 HD
BRANCH  18  20
ATOM     20  C   UNL     1       8.080  46.351  51.690  1.00  0.00     0.040 A 
ATOM     21  C   UNL     1       7.730  47.111  52.819  1.00  0.00     0.026 A 
ATOM     22  C   UNL     1       9.425  46.001  51.536  1.00  0.00     0.026 A 
ATOM     23  C   UNL     1       8.693  47.522  53.747  1.00  0.00     0.002 A 
ATOM     24  C   UNL     1      10.393  46.411  52.461  1.00  0.00     0.002 A 
ATOM     25  C   UNL     1      10.027  47.171  53.566  1.00  0.00     0.000 A 
ENDBRANCH  18  20
ENDBRANCH  11  18
ENDBRANCH   6   8
ENDBRANCH   1   6
TORSDOF 6
ENDMDL
MODEL 4
REMARK VINA RESULT:    -8.118      1.985      5.096
REMARK INTER + INTRA:         -12.245
REMARK INTER:                 -11.882
REMARK INTRA:                  -0.362
REMARK UNBOUND:                -1.279
REMARK SMILES CC(C)CCNc1nc(Nc2ccccc2)c2cnn(C)c2n1
REMARK SMILES IDX 5 1 4 2 2 3 1 4 3 5 6 6 7 8 8 9 23 10 9 11 22 12 17 13 20 14
REMARK SMILES IDX 18 15 19 16 21 17 10 18 11 20 12 21 16 22 13 23 15 24 14 25
REMARK H PARENT 6 7 10 19
ROOT
ATOM      1  C   UNL     1       7.213  46.784  54.579  1.00  0.00     0.116 C 
ENDROOT
BRANCH   1   2
ATOM      2  C   UNL     1       7.744  47.458  53.308  1.00  0.00     0.024 C 
BRANCH   2   3
ATOM      3  C   UNL     1       9.281  47.569  53.230  1.00  0.00    -0.016 C 
ATOM      4  C   UNL     1       9.889  47.228  54.594  1.00  0.00     0.007 C 
ATOM      5  C   UNL     1       9.899  46.673  52.157  1.00  0.00     0.007 C 
ENDBRANCH   2   3
ENDBRANCH   1   2
BRANCH   1   6
ATOM      6  N   UNL     1       5.831  47.165  54.816  1.00  0.00    -0.354 N 
ATOM      7  H   UNL     1       5.557  48.065  54.437  1.00  0.00     0.163 HD
BRANCH   6   8
ATOM      8  C   UNL     1       4.892  46.254  54.343  1.00  0.00     0.226 A 
ATOM      9  N   UNL     1       5.115  45.610  53.183  1.00  0.00    -0.195 NA
ATOM     10  N   UNL     1       3.813  46.105  55.121  1.00  0.00    -0.193 NA
ATOM     11  C   UNL     1       4.224  44.706  52.696  1.00  0.00     0.147 A 
ATOM     12  C   UNL     1       2.940  45.215  54.629  1.00  0.00     0.165 A 
ATOM     13  C   UNL     1       3.066  44.497  53.456  1.00  0.00     0.082 A 
ATOM     14  N   UNL     1       1.747  44.831  55.181  1.00  0.00    -0.250 N 
ATOM     15  C   UNL     1       1.892  43.717  53.396  1.00  0.00     0.149 A 
ATOM     16  N   UNL     1       1.078  43.916  54.439  1.00  0.00    -0.179 NA
ATOM     17  C   UNL     1       1.174  45.297  56.418  1.00  0.00     0.176 C 
BRANCH  11  18
ATOM     18  N   UNL     1       4.431  44.040  51.479  1.00  0.00    -0.339 N 
ATOM     19  H   UNL     1       3.615  43.554  51.135  1.00  0.00     0.168 HD
BRANCH  18  20
ATOM     20  C   UNL     1       5.581  43.849  50.693  1.00  0.00     0.040 A 
ATOM     21  C   UNL     1       6.473  44.924  50.540  1.00  0.00     0.026 A 
ATOM     22  C   UNL     1       5.921  42.634  50.090  1.00  0.00     0.026 A 
ATOM     23  C   UNL     1       7.651  44.792  49.796  1.00  0.00     0.002 A 
ATOM     24  C   UNL     1       7.098  42.497  49.344  1.00  0.00     0.002 A 
ATOM     25  C   UNL     1       7.962  43.576  49.197  1.00  0.00     0.000 A 
ENDBRANCH  18  20
ENDBRANCH  11  18
ENDBRANCH   6   8
ENDBRANCH   1   6
TORSDOF 6
ENDMDL
MODEL 5
REMARK VINA RESULT:    -8.075      1.990      5.230
REMARK INTER + INTRA:         -12.187
REMARK INTER:                 -11.706
REMARK INTRA:                  -0.481
REMARK UNBOUND:                -1.279
REMARK SMILES CC(C)CCNc1nc(Nc2ccccc2)c2cnn(C)c2n1
REMARK SMILES IDX 5 1 4 2 2 3 1 4 3 5 6 6 7 8 8 9 23 10 9 11 22 12 17 13 20 14
REMARK SMILES IDX 18 15 19 16 21 17 10 18 11 20 12 21 16 22 13 23 15 24 14 25
REMARK H PARENT 6 7 10 19
ROOT
ATOM      1  C   UNL     1       7.293  46.763  54.578  1.00  0.00     0.116 C 
ENDROOT
BRANCH   1   2
ATOM      2  C   UNL     1       7.831  47.546  53.375  1.00  0.00     0.024 C 
BRANCH   2   3
ATOM      3  C   UNL     1       9.366  47.514  53.218  1.00  0.00    -0.016 C 
ATOM      4  C   UNL     1      10.010  47.140  54.557  1.00  0.00     0.007 C 
ATOM      5  C   UNL     1       9.844  46.549  52.134  1.00  0.00     0.007 C 
ENDBRANCH   2   3
ENDBRANCH   1   2
BRANCH   1   6
ATOM      6  N   UNL     1       5.926  47.158  54.871  1.00  0.00    -0.354 N 
ATOM      7  H   UNL     1       5.654  48.071  54.524  1.00  0.00     0.163 HD
BRANCH   6   8
ATOM      8  C   UNL     1       4.958  46.273  54.407  1.00  0.00     0.226 A 
ATOM      9  N   UNL     1       5.170  45.591  53.268  1.00  0.00    -0.195 NA
ATOM     10  N   UNL     1       3.863  46.188  55.173  1.00  0.00    -0.193 NA
ATOM     11  C   UNL     1       4.250  44.711  52.791  1.00  0.00     0.147 A 
ATOM     12  C   UNL     1       2.961  45.322  54.691  1.00  0.00     0.165 A 
ATOM     13  C   UNL     1       3.074  44.568  53.539  1.00  0.00     0.082 A 
ATOM     14  N   UNL     1       1.747  45.000  55.234  1.00  0.00    -0.250 N 
ATOM     15  C   UNL     1       1.870  43.835  53.481  1.00  0.00     0.149 A 
ATOM     16  N   UNL     1       1.052  44.094  54.507  1.00  0.00    -0.179 NA
ATOM     17  C   UNL     1       1.175  45.521  56.451  1.00  0.00     0.176 C 
BRANCH  11  18
ATOM     18  N   UNL     1       4.447  44.006  51.595  1.00  0.00    -0.339 N 
ATOM     19  H   UNL     1       3.638  43.482  51.291  1.00  0.00     0.168 HD
BRANCH  18  20
ATOM     20  C   UNL     1       5.582  43.820  50.786  1.00  0.00     0.040 A 
ATOM     21  C   UNL     1       5.745  42.583  50.137  1.00  0.00     0.026 A 
ATOM     22  C   UNL     1       6.539  44.809  50.544  1.00  0.00     0.026 A 
ATOM     23  C   UNL     1       6.835  42.342  49.294  1.00  0.00     0.002 A 
ATOM     24  C   UNL     1       7.632  44.573  49.701  1.00  0.00     0.002 A 
ATOM     25  C   UNL     1       7.780  43.339  49.077  1.00  0.00     0.000 A 
ENDBRANCH  18  20
ENDBRANCH  11  18
ENDBRANCH   6   8
ENDBRANCH   1   6
TORSDOF 6
ENDMDL
MODEL 6
REMARK VINA RESULT:    -8.075      2.235      5.934
REMARK INTER + INTRA:         -12.186
REMARK INTER:                 -11.459
REMARK INTRA:                  -0.728
REMARK UNBOUND:                -1.279
REMARK SMILES CC(C)CCNc1nc(Nc2ccccc2)c2cnn(C)c2n1
REMARK SMILES IDX 5 1 4 2 2 3 1 4 3 5 6 6 7 8 8 9 23 10 9 11 22 12 17 13 20 14
REMARK SMILES IDX 18 15 19 16 21 17 10 18 11 20 12 21 16 22 13 23 15 24 14 25
REMARK H PARENT 6 7 10 19
ROOT
ATOM      1  C   UNL     1       7.159  47.143  53.398  1.00  0.00     0.116 C 
ENDROOT
BRANCH   1   2
ATOM      2  C   UNL     1       8.279  47.941  52.720  1.00  0.00     0.024 C 
BRANCH   2   3
ATOM      3  C   UNL     1       9.699  47.386  52.953  1.00  0.00    -0.016 C 
ATOM      4  C   UNL     1       9.916  47.143  54.450  1.00  0.00     0.007 C 
ATOM      5  C   UNL     1       9.979  46.097  52.180  1.00  0.00     0.007 C 
ENDBRANCH   2   3
ENDBRANCH   1   2
BRANCH   1   6
ATOM      6  N   UNL     1       6.006  47.039  52.519  1.00  0.00    -0.354 N 
ATOM      7  H   UNL     1       6.031  47.634  51.698  1.00  0.00     0.163 HD
BRANCH   6   8
ATOM      8  C   UNL     1       5.753  45.755  52.049  1.00  0.00     0.226 A 
ATOM      9  N   UNL     1       4.753  45.034  52.588  1.00  0.00    -0.195 NA
ATOM     10  N   UNL     1       6.566  45.346  51.067  1.00  0.00    -0.193 NA
ATOM     11  C   UNL     1       4.472  43.779  52.147  1.00  0.00     0.147 A 
ATOM     12  C   UNL     1       6.282  44.106  50.644  1.00  0.00     0.165 A 
ATOM     13  C   UNL     1       5.283  43.280  51.120  1.00  0.00     0.082 A 
ATOM     14  N   UNL     1       6.916  43.402  49.657  1.00  0.00    -0.250 N 
ATOM     15  C   UNL     1       5.409  42.102  50.354  1.00  0.00     0.149 A 
ATOM     16  N   UNL     1       6.405  42.163  49.463  1.00  0.00    -0.179 NA
ATOM     17  C   UNL     1       8.026  43.845  48.851  1.00  0.00     0.176 C 
BRANCH  11  18
ATOM     18  N   UNL     1       3.446  43.006  52.711  1.00  0.00    -0.339 N 
ATOM     19  H   UNL     1       3.773  42.299  53.354  1.00  0.00     0.168 HD
BRANCH  18  20
ATOM     20  C   UNL     1       2.059  42.971  52.484  1.00  0.00     0.040 A 
ATOM     21  C   UNL     1       1.581  43.312  51.207  1.00  0.00     0.026 A 
ATOM     22  C   UNL     1       1.122  42.567  53.440  1.00  0.00     0.026 A 
ATOM     23  C   UNL     1       0.215  43.267  50.906  1.00  0.00     0.002 A 
ATOM     24  C   UNL     1      -0.246  42.522  53.144  1.00  0.00     0.002 A 
ATOM     25  C   UNL     1      -0.698  42.873  51.877  1.00  0.00     0.000 A 
ENDBRANCH  18  20
ENDBRANCH  11  18
ENDBRANCH   6   8
ENDBRANCH   1   6
TORSDOF 6
ENDMDL
MODEL 7
REMARK VINA RESULT:    -8.021      1.450      1.834
REMARK INTER + INTRA:         -12.114
REMARK INTER:                 -11.331
REMARK INTRA:                  -0.782
REMARK UNBOUND:                -1.279
REMARK SMILES CC(C)CCNc1nc(Nc2ccccc2)c2cnn(C)c2n1
REMARK SMILES IDX 5 1 4 2 2 3 1 4 3 5 6 6 7 8 8 9 23 10 9 11 22 12 17 13 20 14
REMARK SMILES IDX 18 15 19 16 21 17 10 18 11 20 12 21 16 22 13 23 15 24 14 25
REMARK H PARENT 6 7 10 19
ROOT
ATOM      1  C   UNL     1       1.752  44.018  52.698  1.00  0.00     0.116 C 
ENDROOT
BRANCH   1   2
ATOM      2  C   UNL     1       1.449  45.132  53.708  1.00  0.00     0.024 C 
BRANCH   2   3
ATOM      3  C   UNL     1       2.053  44.913  55.111  1.00  0.00    -0.016 C 
ATOM      4  C   UNL     1       3.139  45.962  55.370  1.00  0.00     0.007 C 
ATOM      5  C   UNL     1       1.015  44.964  56.231  1.00  0.00     0.007 C 
ENDBRANCH   2   3
ENDBRANCH   1   2
BRANCH   1   6
ATOM      6  N   UNL     1       2.986  43.336  53.050  1.00  0.00    -0.354 N 
ATOM      7  H   UNL     1       2.940  42.323  53.040  1.00  0.00     0.163 HD
BRANCH   6   8
ATOM      8  C   UNL     1       4.078  43.674  52.257  1.00  0.00     0.226 A 
ATOM      9  N   UNL     1       4.737  44.824  52.486  1.00  0.00    -0.195 NA
ATOM     10  N   UNL     1       4.375  42.783  51.303  1.00  0.00    -0.193 NA
ATOM     11  C   UNL     1       5.813  45.180  51.737  1.00  0.00     0.147 A 
ATOM     12  C   UNL     1       5.435  43.147  50.568  1.00  0.00     0.165 A 
ATOM     13  C   UNL     1       6.185  44.297  50.715  1.00  0.00     0.082 A 
ATOM     14  N   UNL     1       5.996  42.461  49.525  1.00  0.00    -0.250 N 
ATOM     15  C   UNL     1       7.167  44.206  49.706  1.00  0.00     0.149 A 
ATOM     16  N   UNL     1       7.058  43.094  48.972  1.00  0.00    -0.179 NA
ATOM     17  C   UNL     1       5.571  41.191  48.993  1.00  0.00     0.176 C 
BRANCH  11  18
ATOM     18  N   UNL     1       6.500  46.385  51.950  1.00  0.00    -0.339 N 
ATOM     19  H   UNL     1       6.065  47.186  51.516  1.00  0.00     0.168 HD
BRANCH  18  20
ATOM     20  C   UNL     1       7.724  46.674  52.577  1.00  0.00     0.040 A 
ATOM     21  C   UNL     1       7.702  47.164  53.895  1.00  0.00     0.026 A 
ATOM     22  C   UNL     1       8.974  46.457  51.989  1.00  0.00     0.026 A 
ATOM     23  C   UNL     1       8.884  47.443  54.588  1.00  0.00     0.002 A 
ATOM     24  C   UNL     1      10.161  46.736  52.678  1.00  0.00     0.002 A 
ATOM     25  C   UNL     1      10.115  47.229  53.977  1.00  0.00     0.000 A 
ENDBRANCH  18  20
ENDBRANCH  11  18
ENDBRANCH   6   8
ENDBRANCH   1   6
TORSDOF 6
ENDMDL
MODEL 8
REMARK VINA RESULT:    -7.998      2.200      5.874
REMARK INTER + INTRA:         -12.083
REMARK INTER:                 -11.314
REMARK INTRA:                  -0.768
REMARK UNBOUND:                -1.279
REMARK SMILES CC(C)CCNc1nc(Nc2ccccc2)c2cnn(C)c2n1
REMARK SMILES IDX 5 1 4 2 2 3 1 4 3 5 6 6 7 8 8 9 23 10 9 11 22 12 17 13 20 14
REMARK SMILES IDX 18 15 19 16 21 17 10 18 11 20 12 21 16 22 13 23 15 24 14 25
REMARK H PARENT 6 7 10 19
ROOT
ATOM      1  C   UNL     1       7.401  47.561  52.014  1.00  0.00     0.116 C 
ENDROOT
BRANCH   1   2
ATOM      2  C   UNL     1       8.411  47.966  53.094  1.00  0.00     0.024 C 
BRANCH   2   3
ATOM      3  C   UNL     1       9.373  46.841  53.533  1.00  0.00    -0.016 C 
ATOM      4  C   UNL     1      10.256  46.432  52.350  1.00  0.00     0.007 C 
ATOM      5  C   UNL     1      10.254  47.227  54.720  1.00  0.00     0.007 C 
ENDBRANCH   2   3
ENDBRANCH   1   2
BRANCH   1   6
ATOM      6  N   UNL     1       6.228  46.953  52.618  1.00  0.00    -0.354 N 
ATOM      7  H   UNL     1       5.377  47.501  52.564  1.00  0.00     0.163 HD
BRANCH   6   8
ATOM      8  C   UNL     1       5.904  45.698  52.112  1.00  0.00     0.226 A 
ATOM      9  N   UNL     1       4.874  45.013  52.641  1.00  0.00    -0.195 NA
ATOM     10  N   UNL     1       6.684  45.280  51.108  1.00  0.00    -0.193 NA
ATOM     11  C   UNL     1       4.524  43.789  52.165  1.00  0.00     0.147 A 
ATOM     12  C   UNL     1       6.333  44.070  50.650  1.00  0.00     0.165 A 
ATOM     13  C   UNL     1       5.297  43.282  51.112  1.00  0.00     0.082 A 
ATOM     14  N   UNL     1       6.919  43.366  49.633  1.00  0.00    -0.250 N 
ATOM     15  C   UNL     1       5.354  42.123  50.309  1.00  0.00     0.149 A 
ATOM     16  N   UNL     1       6.342  42.162  49.407  1.00  0.00    -0.179 NA
ATOM     17  C   UNL     1       8.041  43.777  48.828  1.00  0.00     0.176 C 
BRANCH  11  18
ATOM     18  N   UNL     1       3.467  43.051  52.717  1.00  0.00    -0.339 N 
ATOM     19  H   UNL     1       3.757  42.368  53.401  1.00  0.00     0.168 HD
BRANCH  18  20
ATOM     20  C   UNL     1       2.089  43.022  52.435  1.00  0.00     0.040 A 
ATOM     21  C   UNL     1       1.193  42.820  53.498  1.00  0.00     0.026 A 
ATOM     22  C   UNL     1       1.548  43.234  51.163  1.00  0.00     0.026 A 
ATOM     23  C   UNL     1      -0.191  42.810  53.292  1.00  0.00     0.002 A 
ATOM     24  C   UNL     1       0.164  43.224  50.951  1.00  0.00     0.002 A 
ATOM     25  C   UNL     1      -0.705  43.012  52.016  1.00  0.00     0.000 A 
ENDBRANCH  18  20
ENDBRANCH  11  18
ENDBRANCH   6   8
ENDBRANCH   1   6
TORSDOF 6
ENDMDL
MODEL 9
REMARK VINA RESULT:    -7.964      2.246      6.186
REMARK INTER + INTRA:         -12.037
REMARK INTER:                 -11.483
REMARK INTRA:                  -0.554
REMARK UNBOUND:                -1.279
REMARK SMILES CC(C)CCNc1nc(Nc2ccccc2)c2cnn(C)c2n1
REMARK SMILES IDX 5 1 4 2 2 3 1 4 3 5 6 6 7 8 8 9 23 10 9 11 22 12 17 13 20 14
REMARK SMILES IDX 18 15 19 16 21 17 10 18 11 20 12 21 16 22 13 23 15 24 14 25
REMARK H PARENT 6 7 10 19
ROOT
ATOM      1  C   UNL     1       7.415  46.725  52.018  1.00  0.00     0.116 C 
ENDROOT
BRANCH   1   2
ATOM      2  C   UNL     1       8.581  47.720  51.994  1.00  0.00     0.024 C 
BRANCH   2   3
ATOM      3  C   UNL     1       9.893  47.193  52.613  1.00  0.00    -0.016 C 
ATOM      4  C   UNL     1       9.642  46.770  54.064  1.00  0.00     0.007 C 
ATOM      5  C   UNL     1      10.501  46.025  51.838  1.00  0.00     0.007 C 
ENDBRANCH   2   3
ENDBRANCH   1   2
BRANCH   1   6
ATOM      6  N   UNL     1       7.410  45.920  50.809  1.00  0.00    -0.354 N 
ATOM      7  H   UNL     1       8.306  45.526  50.545  1.00  0.00     0.163 HD
BRANCH   6   8
ATOM      8  C   UNL     1       6.518  44.853  50.830  1.00  0.00     0.226 A 
ATOM      9  N   UNL     1       6.665  43.844  49.952  1.00  0.00    -0.195 NA
ATOM     10  N   UNL     1       5.559  44.942  51.760  1.00  0.00    -0.193 NA
ATOM     11  C   UNL     1       5.817  42.782  49.952  1.00  0.00     0.147 A 
ATOM     12  C   UNL     1       4.727  43.891  51.747  1.00  0.00     0.165 A 
ATOM     13  C   UNL     1       4.785  42.804  50.898  1.00  0.00     0.082 A 
ATOM     14  N   UNL     1       3.653  43.674  52.567  1.00  0.00    -0.250 N 
ATOM     15  C   UNL     1       3.696  41.997  51.288  1.00  0.00     0.149 A 
ATOM     16  N   UNL     1       2.996  42.519  52.301  1.00  0.00    -0.179 NA
ATOM     17  C   UNL     1       3.186  44.527  53.630  1.00  0.00     0.176 C 
BRANCH  11  18
ATOM     18  N   UNL     1       5.944  41.731  49.031  1.00  0.00    -0.339 N 
ATOM     19  H   UNL     1       6.715  41.108  49.225  1.00  0.00     0.168 HD
BRANCH  18  20
ATOM     20  C   UNL     1       5.257  41.432  47.841  1.00  0.00     0.040 A 
ATOM     21  C   UNL     1       5.762  41.940  46.631  1.00  0.00     0.026 A 
ATOM     22  C   UNL     1       4.125  40.614  47.778  1.00  0.00     0.026 A 
ATOM     23  C   UNL     1       5.145  41.655  45.408  1.00  0.00     0.002 A 
ATOM     24  C   UNL     1       3.503  40.328  46.556  1.00  0.00     0.002 A 
ATOM     25  C   UNL     1       4.013  40.849  45.373  1.00  0.00     0.000 A 
ENDBRANCH  18  20
ENDBRANCH  11  18
ENDBRANCH   6   8
ENDBRANCH   1   6
TORSDOF 6
ENDMDL
MODEL 10
REMARK VINA RESULT:    -7.927      1.937      2.424
REMARK INTER + INTRA:         -11.987
REMARK INTER:                 -11.340
REMARK INTRA:                  -0.647
REMARK UNBOUND:                -1.279
REMARK SMILES CC(C)CCNc1nc(Nc2ccccc2)c2cnn(C)c2n1
REMARK SMILES IDX 5 1 4 2 2 3 1 4 3 5 6 6 7 8 8 9 23 10 9 11 22 12 17 13 20 14
REMARK SMILES IDX 18 15 19 16 21 17 10 18 11 20 12 21 16 22 13 23 15 24 14 25
REMARK H PARENT 6 7 10 19
ROOT
ATOM      1  C   UNL     1       2.025  45.370  54.640  1.00  0.00     0.116 C 
ENDROOT
BRANCH   1   2
ATOM      2  C   UNL     1       0.553  45.330  55.064  1.00  0.00     0.024 C 
BRANCH   2   3
ATOM      3  C   UNL     1       0.314  44.927  56.534  1.00  0.00    -0.016 C 
ATOM      4  C   UNL     1       0.777  46.058  57.457  1.00  0.00     0.007 C 
ATOM      5  C   UNL     1      -1.144  44.582  56.838  1.00  0.00     0.007 C 
ENDBRANCH   2   3
ENDBRANCH   1   2
BRANCH   1   6
ATOM      6  N   UNL     1       2.409  44.114  54.018  1.00  0.00    -0.354 N 
ATOM      7  H   UNL     1       1.666  43.626  53.531  1.00  0.00     0.163 HD
BRANCH   6   8
ATOM      8  C   UNL     1       3.455  44.218  53.106  1.00  0.00     0.226 A 
ATOM      9  N   UNL     1       4.249  45.303  53.125  1.00  0.00    -0.195 NA
ATOM     10  N   UNL     1       3.570  43.183  52.264  1.00  0.00    -0.193 NA
ATOM     11  C   UNL     1       5.286  45.433  52.256  1.00  0.00     0.147 A 
ATOM     12  C   UNL     1       4.592  43.324  51.409  1.00  0.00     0.165 A 
ATOM     13  C   UNL     1       5.470  44.389  51.340  1.00  0.00     0.082 A 
ATOM     14  N   UNL     1       4.983  42.450  50.432  1.00  0.00    -0.250 N 
ATOM     15  C   UNL     1       6.342  44.055  50.283  1.00  0.00     0.149 A 
ATOM     16  N   UNL     1       6.052  42.878  49.719  1.00  0.00    -0.179 NA
ATOM     17  C   UNL     1       4.381  41.180  50.113  1.00  0.00     0.176 C 
BRANCH  11  18
ATOM     18  N   UNL     1       6.111  46.567  52.248  1.00  0.00    -0.339 N 
ATOM     19  H   UNL     1       5.695  47.373  51.805  1.00  0.00     0.168 HD
BRANCH  18  20
ATOM     20  C   UNL     1       7.440  46.768  52.662  1.00  0.00     0.040 A 
ATOM     21  C   UNL     1       7.677  47.136  53.998  1.00  0.00     0.026 A 
ATOM     22  C   UNL     1       8.553  46.577  51.837  1.00  0.00     0.026 A 
ATOM     23  C   UNL     1       8.976  47.322  54.483  1.00  0.00     0.002 A 
ATOM     24  C   UNL     1       9.855  46.764  52.317  1.00  0.00     0.002 A 
ATOM     25  C   UNL     1      10.065  47.136  53.639  1.00  0.00     0.000 A 
ENDBRANCH  18  20
ENDBRANCH  11  18
ENDBRANCH   6   8
ENDBRANCH   1   6
TORSDOF 6
ENDMDL
MODEL 11
REMARK VINA RESULT:    -7.924      1.968      5.257
REMARK INTER + INTRA:         -11.983
REMARK INTER:                 -11.079
REMARK INTRA:                  -0.904
REMARK UNBOUND:                -1.279
REMARK SMILES CC(C)CCNc1nc(Nc2ccccc2)c2cnn(C)c2n1
REMARK SMILES IDX 5 1 4 2 2 3 1 4 3 5 6 6 7 8 8 9 23 10 9 11 22 12 17 13 20 14
REMARK SMILES IDX 18 15 19 16 21 17 10 18 11 20 12 21 16 22 13 23 15 24 14 25
REMARK H PARENT 6 7 10 19
ROOT
ATOM      1  C   UNL     1       3.791  45.798  55.521  1.00  0.00     0.116 C 
ENDROOT
BRANCH   1   2
ATOM      2  C   UNL     1       2.328  45.628  55.095  1.00  0.00     0.024 C 
BRANCH   2   3
ATOM      3  C   UNL     1       2.129  44.907  53.745  1.00  0.00    -0.016 C 
ATOM      4  C   UNL     1       1.199  43.706  53.938  1.00  0.00     0.007 C 
ATOM      5  C   UNL     1       1.569  45.816  52.651  1.00  0.00     0.007 C 
ENDBRANCH   2   3
ENDBRANCH   1   2
BRANCH   1   6
ATOM      6  N   UNL     1       4.357  46.997  54.928  1.00  0.00    -0.354 N 
ATOM      7  H   UNL     1       4.663  47.705  55.586  1.00  0.00     0.163 HD
BRANCH   6   8
ATOM      8  C   UNL     1       5.441  46.768  54.086  1.00  0.00     0.226 A 
ATOM      9  N   UNL     1       5.254  46.127  52.919  1.00  0.00    -0.195 NA
ATOM     10  N   UNL     1       6.613  47.227  54.544  1.00  0.00    -0.193 NA
ATOM     11  C   UNL     1       6.289  45.895  52.069  1.00  0.00     0.147 A 
ATOM     12  C   UNL     1       7.626  46.989  53.700  1.00  0.00     0.165 A 
ATOM     13  C   UNL     1       7.550  46.345  52.480  1.00  0.00     0.082 A 
ATOM     14  N   UNL     1       8.941  47.331  53.864  1.00  0.00    -0.250 N 
ATOM     15  C   UNL     1       8.876  46.349  51.999  1.00  0.00     0.149 A 
ATOM     16  N   UNL     1       9.733  46.943  52.837  1.00  0.00    -0.179 NA
ATOM     17  C   UNL     1       9.521  48.031  54.982  1.00  0.00     0.176 C 
BRANCH  11  18
ATOM     18  N   UNL     1       6.115  45.210  50.857  1.00  0.00    -0.339 N 
ATOM     19  H   UNL     1       6.202  45.797  50.040  1.00  0.00     0.168 HD
BRANCH  18  20
ATOM     20  C   UNL     1       5.757  43.881  50.568  1.00  0.00     0.040 A 
ATOM     21  C   UNL     1       4.591  43.360  51.154  1.00  0.00     0.026 A 
ATOM     22  C   UNL     1       6.464  43.056  49.688  1.00  0.00     0.026 A 
ATOM     23  C   UNL     1       4.160  42.057  50.885  1.00  0.00     0.002 A 
ATOM     24  C   UNL     1       6.038  41.750  49.416  1.00  0.00     0.002 A 
ATOM     25  C   UNL     1       4.887  41.251  50.015  1.00  0.00     0.000 A 
ENDBRANCH  18  20
ENDBRANCH  11  18
ENDBRANCH   6   8
ENDBRANCH   1   6
TORSDOF 6
ENDMDL
MODEL 12
REMARK VINA RESULT:    -7.864      1.859      2.549
REMARK INTER + INTRA:         -11.901
REMARK INTER:                 -11.037
REMARK INTRA:                  -0.864
REMARK UNBOUND:                -1.279
REMARK SMILES CC(C)CCNc1nc(Nc2ccccc2)c2cnn(C)c2n1
REMARK SMILES IDX 5 1 4 2 2 3 1 4 3 5 6 6 7 8 8 9 23 10 9 11 22 12 17 13 20 14
REMARK SMILES IDX 18 15 19 16 21 17 10 18 11 20 12 21 16 22 13 23 15 24 14 25
REMARK H PARENT 6 7 10 19
ROOT
ATOM      1  C   UNL     1       1.678  45.298  53.995  1.00  0.00     0.116 C 
ENDROOT
BRANCH   1   2
ATOM      2  C   UNL     1       0.435  44.542  54.477  1.00  0.00     0.024 C 
BRANCH   2   3
ATOM      3  C   UNL     1      -0.273  43.705  53.391  1.00  0.00    -0.016 C 
ATOM      4  C   UNL     1      -0.011  44.324  52.014  1.00  0.00     0.007 C 
ATOM      5  C   UNL     1       0.157  42.238  53.382  1.00  0.00     0.007 C 
ENDBRANCH   2   3
ENDBRANCH   1   2
BRANCH   1   6
ATOM      6  N   UNL     1       2.882  44.547  54.308  1.00  0.00    -0.354 N 
ATOM      7  H   UNL     1       2.731  43.594  54.619  1.00  0.00     0.163 HD
BRANCH   6   8
ATOM      8  C   UNL     1       3.798  44.464  53.264  1.00  0.00     0.226 A 
ATOM      9  N   UNL     1       4.710  45.439  53.100  1.00  0.00    -0.195 NA
ATOM     10  N   UNL     1       3.673  43.376  52.493  1.00  0.00    -0.193 NA
ATOM     11  C   UNL     1       5.625  45.386  52.096  1.00  0.00     0.147 A 
ATOM     12  C   UNL     1       4.578  43.337  51.505  1.00  0.00     0.165 A 
ATOM     13  C   UNL     1       5.557  44.276  51.245  1.00  0.00     0.082 A 
ATOM     14  N   UNL     1       4.724  42.365  50.553  1.00  0.00    -0.250 N 
ATOM     15  C   UNL     1       6.230  43.773  50.111  1.00  0.00     0.149 A 
ATOM     16  N   UNL     1       5.728  42.611  49.678  1.00  0.00    -0.179 NA
ATOM     17  C   UNL     1       3.938  41.165  50.411  1.00  0.00     0.176 C 
BRANCH  11  18
ATOM     18  N   UNL     1       6.570  46.403  51.898  1.00  0.00    -0.339 N 
ATOM     19  H   UNL     1       6.342  47.031  51.141  1.00  0.00     0.168 HD
BRANCH  18  20
ATOM     20  C   UNL     1       7.816  46.662  52.495  1.00  0.00     0.040 A 
ATOM     21  C   UNL     1       7.838  47.150  53.813  1.00  0.00     0.026 A 
ATOM     22  C   UNL     1       9.045  46.416  51.876  1.00  0.00     0.026 A 
ATOM     23  C   UNL     1       9.044  47.400  54.478  1.00  0.00     0.002 A 
ATOM     24  C   UNL     1      10.255  46.666  52.536  1.00  0.00     0.002 A 
ATOM     25  C   UNL     1      10.253  47.158  53.836  1.00  0.00     0.000 A 
ENDBRANCH  18  20
ENDBRANCH  11  18
ENDBRANCH   6   8
ENDBRANCH   1   6
TORSDOF 6
ENDMDL
MODEL 13
REMARK VINA RESULT:    -7.853      1.637      4.601
REMARK INTER + INTRA:         -11.887
REMARK INTER:                 -11.126
REMARK INTRA:                  -0.761
REMARK UNBOUND:                -1.279
REMARK SMILES CC(C)CCNc1nc(Nc2ccccc2)c2cnn(C)c2n1
REMARK SMILES IDX 5 1 4 2 2 3 1 4 3 5 6 6 7 8 8 9 23 10 9 11 22 12 17 13 20 14
REMARK SMILES IDX 18 15 19 16 21 17 10 18 11 20 12 21 16 22 13 23 15 24 14 25
REMARK H PARENT 6 7 10 19
ROOT
ATOM      1  C   UNL     1       4.297  41.563  50.908  1.00  0.00     0.116 C 
ENDROOT
BRANCH   1   2
ATOM      2  C   UNL     1       4.490  41.145  49.446  1.00  0.00     0.024 C 
BRANCH   2   3
ATOM      3  C   UNL     1       5.902  41.406  48.881  1.00  0.00    -0.016 C 
ATOM      4  C   UNL     1       5.794  41.859  47.421  1.00  0.00     0.007 C 
ATOM      5  C   UNL     1       6.692  42.442  49.680  1.00  0.00     0.007 C 
ENDBRANCH   2   3
ENDBRANCH   1   2
BRANCH   1   6
ATOM      6  N   UNL     1       3.292  42.608  51.009  1.00  0.00    -0.354 N 
ATOM      7  H   UNL     1       2.397  42.315  51.384  1.00  0.00     0.163 HD
BRANCH   6   8
ATOM      8  C   UNL     1       3.679  43.709  51.767  1.00  0.00     0.226 A 
ATOM      9  N   UNL     1       4.648  44.523  51.311  1.00  0.00    -0.195 NA
ATOM     10  N   UNL     1       3.022  43.851  52.925  1.00  0.00    -0.193 NA
ATOM     11  C   UNL     1       5.043  45.613  52.021  1.00  0.00     0.147 A 
ATOM     12  C   UNL     1       3.424  44.926  53.618  1.00  0.00     0.165 A 
ATOM     13  C   UNL     1       4.402  45.828  53.247  1.00  0.00     0.082 A 
ATOM     14  N   UNL     1       2.954  45.355  54.829  1.00  0.00    -0.250 N 
ATOM     15  C   UNL     1       4.443  46.755  54.310  1.00  0.00     0.149 A 
ATOM     16  N   UNL     1       3.568  46.473  55.282  1.00  0.00    -0.179 NA
ATOM     17  C   UNL     1       1.916  44.745  55.622  1.00  0.00     0.176 C 
BRANCH  11  18
ATOM     18  N   UNL     1       6.065  46.462  51.570  1.00  0.00    -0.339 N 
ATOM     19  H   UNL     1       5.793  47.057  50.801  1.00  0.00     0.168 HD
BRANCH  18  20
ATOM     20  C   UNL     1       7.420  46.579  51.928  1.00  0.00     0.040 A 
ATOM     21  C   UNL     1       7.749  47.348  53.058  1.00  0.00     0.026 A 
ATOM     22  C   UNL     1       8.463  45.935  51.256  1.00  0.00     0.026 A 
ATOM     23  C   UNL     1       9.074  47.481  53.486  1.00  0.00     0.002 A 
ATOM     24  C   UNL     1       9.791  46.066  51.680  1.00  0.00     0.002 A 
ATOM     25  C   UNL     1      10.096  46.839  52.795  1.00  0.00     0.000 A 
ENDBRANCH  18  20
ENDBRANCH  11  18
ENDBRANCH   6   8
ENDBRANCH   1   6
TORSDOF 6
ENDMDL
MODEL 14
REMARK VINA RESULT:    -7.824      1.585      4.635
REMARK INTER + INTRA:         -11.847
REMARK INTER:                 -10.996
REMARK INTRA:                  -0.851
REMARK UNBOUND:                -1.279
REMARK SMILES CC(C)CCNc1nc(Nc2ccccc2)c2cnn(C)c2n1
REMARK SMILES IDX 5 1 4 2 2 3 1 4 3 5 6 6 7 8 8 9 23 10 9 11 22 12 17 13 20 14
REMARK SMILES IDX 18 15 19 16 21 17 10 18 11 20 12 21 16 22 13 23 15 24 14 25
REMARK H PARENT 6 7 10 19
ROOT
ATOM      1  C   UNL     1       4.923  41.612  50.946  1.00  0.00     0.116 C 
ENDROOT
BRANCH   1   2
ATOM      2  C   UNL     1       6.190  41.528  50.086  1.00  0.00     0.024 C 
BRANCH   2   3
ATOM      3  C   UNL     1       6.306  42.617  48.999  1.00  0.00    -0.016 C 
ATOM      4  C   UNL     1       7.658  43.326  49.127  1.00  0.00     0.007 C 
ATOM      5  C   UNL     1       6.146  42.074  47.579  1.00  0.00     0.007 C 
ENDBRANCH   2   3
ENDBRANCH   1   2
BRANCH   1   6
ATOM      6  N   UNL     1       4.151  42.793  50.597  1.00  0.00    -0.354 N 
ATOM      7  H   UNL     1       3.167  42.629  50.414  1.00  0.00     0.163 HD
BRANCH   6   8
ATOM      8  C   UNL     1       4.196  43.812  51.544  1.00  0.00     0.226 A 
ATOM      9  N   UNL     1       5.140  44.765  51.451  1.00  0.00    -0.195 NA
ATOM     10  N   UNL     1       3.256  43.736  52.494  1.00  0.00    -0.193 NA
ATOM     11  C   UNL     1       5.207  45.780  52.352  1.00  0.00     0.147 A 
ATOM     12  C   UNL     1       3.335  44.739  53.379  1.00  0.00     0.165 A 
ATOM     13  C   UNL     1       4.256  45.768  53.380  1.00  0.00     0.082 A 
ATOM     14  N   UNL     1       2.525  44.956  54.461  1.00  0.00    -0.250 N 
ATOM     15  C   UNL     1       3.914  46.543  54.509  1.00  0.00     0.149 A 
ATOM     16  N   UNL     1       2.863  46.054  55.178  1.00  0.00    -0.179 NA
ATOM     17  C   UNL     1       1.404  44.153  54.880  1.00  0.00     0.176 C 
BRANCH  11  18
ATOM     18  N   UNL     1       6.197  46.771  52.282  1.00  0.00    -0.339 N 
ATOM     19  H   UNL     1       5.913  47.598  51.777  1.00  0.00     0.168 HD
BRANCH  18  20
ATOM     20  C   UNL     1       7.538  46.797  52.706  1.00  0.00     0.040 A 
ATOM     21  C   UNL     1       8.539  46.452  51.782  1.00  0.00     0.026 A 
ATOM     22  C   UNL     1       7.945  47.194  53.984  1.00  0.00     0.026 A 
ATOM     23  C   UNL     1       9.893  46.486  52.129  1.00  0.00     0.002 A 
ATOM     24  C   UNL     1       9.300  47.228  54.336  1.00  0.00     0.002 A 
ATOM     25  C   UNL     1      10.273  46.874  53.409  1.00  0.00     0.000 A 
ENDBRANCH  18  20
ENDBRANCH  11  18
ENDBRANCH   6   8
ENDBRANCH   1   6
TORSDOF 6
ENDMDL
MODEL 15
REMARK VINA RESULT:    -7.805      2.285      6.105
REMARK INTER + INTRA:         -11.822
REMARK INTER:                 -11.170
REMARK INTRA:                  -0.651
REMARK UNBOUND:                -1.279
REMARK SMILES CC(C)CCNc1nc(Nc2ccccc2)c2cnn(C)c2n1
REMARK SMILES IDX 5 1 4 2 2 3 1 4 3 5 6 6 7 8 8 9 23 10 9 11 22 12 17 13 20 14
REMARK SMILES IDX 18 15 19 16 21 17 10 18 11 20 12 21 16 22 13 23 15 24 14 25
REMARK H PARENT 6 7 10 19
ROOT
ATOM      1  C   UNL     1       7.281  47.058  53.201  1.00  0.00     0.116 C 
ENDROOT
BRANCH   1   2
ATOM      2  C   UNL     1       8.407  47.728  52.405  1.00  0.00     0.024 C 
BRANCH   2   3
ATOM      3  C   UNL     1       9.826  47.233  52.753  1.00  0.00    -0.016 C 
ATOM      4  C   UNL     1       9.904  46.909  54.249  1.00  0.00     0.007 C 
ATOM      5  C   UNL     1      10.257  46.011  51.942  1.00  0.00     0.007 C 
ENDBRANCH   2   3
ENDBRANCH   1   2
BRANCH   1   6
ATOM      6  N   UNL     1       6.051  47.044  52.427  1.00  0.00    -0.354 N 
ATOM      7  H   UNL     1       6.127  47.411  51.485  1.00  0.00     0.163 HD
BRANCH   6   8
ATOM      8  C   UNL     1       5.464  45.789  52.299  1.00  0.00     0.226 A 
ATOM      9  N   UNL     1       4.461  45.436  53.122  1.00  0.00    -0.195 NA
ATOM     10  N   UNL     1       5.982  45.024  51.330  1.00  0.00    -0.193 NA
ATOM     11  C   UNL     1       3.859  44.222  53.019  1.00  0.00     0.147 A 
ATOM     12  C   UNL     1       5.384  43.828  51.240  1.00  0.00     0.165 A 
ATOM     13  C   UNL     1       4.348  43.363  52.026  1.00  0.00     0.082 A 
ATOM     14  N   UNL     1       5.669  42.822  50.358  1.00  0.00    -0.250 N 
ATOM     15  C   UNL     1       4.092  42.065  51.536  1.00  0.00     0.149 A 
ATOM     16  N   UNL     1       4.895  41.723  50.522  1.00  0.00    -0.179 NA
ATOM     17  C   UNL     1       6.673  42.833  49.324  1.00  0.00     0.176 C 
BRANCH  11  18
ATOM     18  N   UNL     1       2.825  43.830  53.882  1.00  0.00    -0.339 N 
ATOM     19  H   UNL     1       3.146  43.445  54.758  1.00  0.00     0.168 HD
BRANCH  18  20
ATOM     20  C   UNL     1       1.428  43.790  53.722  1.00  0.00     0.040 A 
ATOM     21  C   UNL     1       0.862  42.692  53.051  1.00  0.00     0.026 A 
ATOM     22  C   UNL     1       0.556  44.754  54.236  1.00  0.00     0.026 A 
ATOM     23  C   UNL     1      -0.522  42.574  52.885  1.00  0.00     0.002 A 
ATOM     24  C   UNL     1      -0.830  44.642  54.071  1.00  0.00     0.002 A 
ATOM     25  C   UNL     1      -1.368  43.552  53.395  1.00  0.00     0.000 A 
ENDBRANCH  18  20
ENDBRANCH  11  18
ENDBRANCH   6   8
ENDBRANCH   1   6
TORSDOF 6
ENDMDL
MODEL 16
REMARK VINA RESULT:    -7.693      1.575      4.544
REMARK INTER + INTRA:         -11.671
REMARK INTER:                 -10.906
REMARK INTRA:                  -0.765
REMARK UNBOUND:                -1.279
REMARK SMILES CC(C)CCNc1nc(Nc2ccccc2)c2cnn(C)c2n1
REMARK SMILES IDX 5 1 4 2 2 3 1 4 3 5 6 6 7 8 8 9 23 10 9 11 22 12 17 13 20 14
REMARK SMILES IDX 18 15 19 16 21 17 10 18 11 20 12 21 16 22 13 23 15 24 14 25
REMARK H PARENT 6 7 10 19
ROOT
ATOM      1  C   UNL     1       4.327  41.377  50.203  1.00  0.00     0.116 C 
ENDROOT
BRANCH   1   2
ATOM      2  C   UNL     1       5.629  41.251  49.405  1.00  0.00     0.024 C 
BRANCH   2   3
ATOM      3  C   UNL     1       5.905  42.415  48.431  1.00  0.00    -0.016 C 
ATOM      4  C   UNL     1       7.259  43.050  48.762  1.00  0.00     0.007 C 
ATOM      5  C   UNL     1       5.884  41.994  46.962  1.00  0.00     0.007 C 
ENDBRANCH   2   3
ENDBRANCH   1   2
BRANCH   1   6
ATOM      6  N   UNL     1       4.595  41.899  51.533  1.00  0.00    -0.354 N 
ATOM      7  H   UNL     1       5.529  41.726  51.887  1.00  0.00     0.163 HD
BRANCH   6   8
ATOM      8  C   UNL     1       4.385  43.267  51.669  1.00  0.00     0.226 A 
ATOM      9  N   UNL     1       5.393  44.123  51.425  1.00  0.00    -0.195 NA
ATOM     10  N   UNL     1       3.147  43.610  52.047  1.00  0.00    -0.193 NA
ATOM     11  C   UNL     1       5.220  45.466  51.538  1.00  0.00     0.147 A 
ATOM     12  C   UNL     1       2.990  44.936  52.160  1.00  0.00     0.165 A 
ATOM     13  C   UNL     1       3.949  45.903  51.933  1.00  0.00     0.082 A 
ATOM     14  N   UNL     1       1.854  45.609  52.521  1.00  0.00    -0.250 N 
ATOM     15  C   UNL     1       3.286  47.121  52.192  1.00  0.00     0.149 A 
ATOM     16  N   UNL     1       2.010  46.953  52.556  1.00  0.00    -0.179 NA
ATOM     17  C   UNL     1       0.574  45.035  52.851  1.00  0.00     0.176 C 
BRANCH  11  18
ATOM     18  N   UNL     1       6.266  46.372  51.307  1.00  0.00    -0.339 N 
ATOM     19  H   UNL     1       6.144  46.936  50.478  1.00  0.00     0.168 HD
BRANCH  18  20
ATOM     20  C   UNL     1       7.493  46.583  51.961  1.00  0.00     0.040 A 
ATOM     21  C   UNL     1       7.482  47.209  53.220  1.00  0.00     0.026 A 
ATOM     22  C   UNL     1       8.728  46.162  51.459  1.00  0.00     0.026 A 
ATOM     23  C   UNL     1       8.663  47.421  53.938  1.00  0.00     0.002 A 
ATOM     24  C   UNL     1       9.914  46.373  52.173  1.00  0.00     0.002 A 
ATOM     25  C   UNL     1       9.880  47.003  53.412  1.00  0.00     0.000 A 
ENDBRANCH  18  20
ENDBRANCH  11  18
ENDBRANCH   6   8
ENDBRANCH   1   6
TORSDOF 6
ENDMDL
MODEL 17
REMARK VINA RESULT:    -7.639      1.828      5.694
REMARK INTER + INTRA:         -11.598
REMARK INTER:                 -11.144
REMARK INTRA:                  -0.455
REMARK UNBOUND:                -1.279
REMARK SMILES CC(C)CCNc1nc(Nc2ccccc2)c2cnn(C)c2n1
REMARK SMILES IDX 5 1 4 2 2 3 1 4 3 5 6 6 7 8 8 9 23 10 9 11 22 12 17 13 20 14
REMARK SMILES IDX 18 15 19 16 21 17 10 18 11 20 12 21 16 22 13 23 15 24 14 25
REMARK H PARENT 6 7 10 19
ROOT
ATOM      1  C   UNL     1       7.274  47.061  51.899  1.00  0.00     0.116 C 
ENDROOT
BRANCH   1   2
ATOM      2  C   UNL     1       8.250  47.996  52.622  1.00  0.00     0.024 C 
BRANCH   2   3
ATOM      3  C   UNL     1       9.656  47.405  52.858  1.00  0.00    -0.016 C 
ATOM      4  C   UNL     1       9.814  47.033  54.335  1.00  0.00     0.007 C 
ATOM      5  C   UNL     1       9.952  46.183  51.988  1.00  0.00     0.007 C 
ENDBRANCH   2   3
ENDBRANCH   1   2
BRANCH   1   6
ATOM      6  N   UNL     1       6.232  46.614  52.808  1.00  0.00    -0.354 N 
ATOM      7  H   UNL     1       5.486  47.281  52.976  1.00  0.00     0.163 HD
BRANCH   6   8
ATOM      8  C   UNL     1       5.605  45.431  52.430  1.00  0.00     0.226 A 
ATOM      9  N   UNL     1       4.520  45.008  53.104  1.00  0.00    -0.195 NA
ATOM     10  N   UNL     1       6.170  44.804  51.391  1.00  0.00    -0.193 NA
ATOM     11  C   UNL     1       3.878  43.862  52.756  1.00  0.00     0.147 A 
ATOM     12  C   UNL     1       5.531  43.674  51.059  1.00  0.00     0.165 A 
ATOM     13  C   UNL     1       4.412  43.147  51.676  1.00  0.00     0.082 A 
ATOM     14  N   UNL     1       5.847  42.808  50.048  1.00  0.00    -0.250 N 
ATOM     15  C   UNL     1       4.144  41.962  50.960  1.00  0.00     0.149 A 
ATOM     16  N   UNL     1       5.015  41.742  49.968  1.00  0.00    -0.179 NA
ATOM     17  C   UNL     1       6.935  42.929  49.111  1.00  0.00     0.176 C 
BRANCH  11  18
ATOM     18  N   UNL     1       2.758  43.395  53.459  1.00  0.00    -0.339 N 
ATOM     19  H   UNL     1       2.582  42.407  53.341  1.00  0.00     0.168 HD
BRANCH  18  20
ATOM     20  C   UNL     1       1.783  44.057  54.226  1.00  0.00     0.040 A 
ATOM     21  C   UNL     1       2.204  44.823  55.327  1.00  0.00     0.026 A 
ATOM     22  C   UNL     1       0.416  44.043  53.932  1.00  0.00     0.026 A 
ATOM     23  C   UNL     1       1.289  45.532  56.113  1.00  0.00     0.002 A 
ATOM     24  C   UNL     1      -0.504  44.750  54.717  1.00  0.00     0.002 A 
ATOM     25  C   UNL     1      -0.067  45.493  55.807  1.00  0.00     0.000 A 
ENDBRANCH  18  20
ENDBRANCH  11  18
ENDBRANCH   6   8
ENDBRANCH   1   6
TORSDOF 6
ENDMDL
MODEL 18
REMARK VINA RESULT:    -7.406      1.276      5.100
REMARK INTER + INTRA:         -11.283
REMARK INTER:                 -10.363
REMARK INTRA:                  -0.920
REMARK UNBOUND:                -1.279
REMARK SMILES CC(C)CCNc1nc(Nc2ccccc2)c2cnn(C)c2n1
REMARK SMILES IDX 5 1 4 2 2 3 1 4 3 5 6 6 7 8 8 9 23 10 9 11 22 12 17 13 20 14
REMARK SMILES IDX 18 15 19 16 21 17 10 18 11 20 12 21 16 22 13 23 15 24 14 25
REMARK H PARENT 6 7 10 19
ROOT
ATOM      1  C   UNL     1       9.081  45.867  51.303  1.00  0.00     0.116 C 
ENDROOT
BRANCH   1   2
ATOM      2  C   UNL     1       9.479  46.955  52.307  1.00  0.00     0.024 C 
BRANCH   2   3
ATOM      3  C   UNL     1       9.149  46.628  53.779  1.00  0.00    -0.016 C 
ATOM      4  C   UNL     1      10.188  47.282  54.695  1.00  0.00     0.007 C 
ATOM      5  C   UNL     1       7.747  47.071  54.197  1.00  0.00     0.007 C 
ENDBRANCH   2   3
ENDBRANCH   1   2
BRANCH   1   6
ATOM      6  N   UNL     1       7.920  46.285  50.536  1.00  0.00    -0.354 N 
ATOM      7  H   UNL     1       8.036  46.268  49.529  1.00  0.00     0.163 HD
BRANCH   6   8
ATOM      8  C   UNL     1       6.763  45.557  50.797  1.00  0.00     0.226 A 
ATOM      9  N   UNL     1       5.711  46.163  51.375  1.00  0.00    -0.195 NA
ATOM     10  N   UNL     1       6.817  44.269  50.433  1.00  0.00    -0.193 NA
ATOM     11  C   UNL     1       4.563  45.484  51.636  1.00  0.00     0.147 A 
ATOM     12  C   UNL     1       5.682  43.609  50.698  1.00  0.00     0.165 A 
ATOM     13  C   UNL     1       4.543  44.128  51.284  1.00  0.00     0.082 A 
ATOM     14  N   UNL     1       5.410  42.292  50.447  1.00  0.00    -0.250 N 
ATOM     15  C   UNL     1       3.652  43.036  51.343  1.00  0.00     0.149 A 
ATOM     16  N   UNL     1       4.171  41.911  50.841  1.00  0.00    -0.179 NA
ATOM     17  C   UNL     1       6.287  41.327  49.834  1.00  0.00     0.176 C 
BRANCH  11  18
ATOM     18  N   UNL     1       3.463  46.095  52.256  1.00  0.00    -0.339 N 
ATOM     19  H   UNL     1       3.110  46.901  51.760  1.00  0.00     0.168 HD
BRANCH  18  20
ATOM     20  C   UNL     1       2.816  45.852  53.480  1.00  0.00     0.040 A 
ATOM     21  C   UNL     1       1.476  45.429  53.457  1.00  0.00     0.026 A 
ATOM     22  C   UNL     1       3.440  45.956  54.727  1.00  0.00     0.026 A 
ATOM     23  C   UNL     1       0.782  45.140  54.637  1.00  0.00     0.002 A 
ATOM     24  C   UNL     1       2.750  45.670  55.912  1.00  0.00     0.002 A 
ATOM     25  C   UNL     1       1.421  45.262  55.865  1.00  0.00     0.000 A 
ENDBRANCH  18  20
ENDBRANCH  11  18
ENDBRANCH   6   8
ENDBRANCH   1   6
TORSDOF 6
ENDMDL
MODEL 19
REMARK VINA RESULT:    -7.388      2.508      3.428
REMARK INTER + INTRA:         -11.259
REMARK INTER:                 -10.543
REMARK INTRA:                  -0.716
REMARK UNBOUND:                -1.279
REMARK SMILES CC(C)CCNc1nc(Nc2ccccc2)c2cnn(C)c2n1
REMARK SMILES IDX 5 1 4 2 2 3 1 4 3 5 6 6 7 8 8 9 23 10 9 11 22 12 17 13 20 14
REMARK SMILES IDX 18 15 19 16 21 17 10 18 11 20 12 21 16 22 13 23 15 24 14 25
REMARK H PARENT 6 7 10 19
ROOT
ATOM      1  C   UNL     1       1.434  44.850  56.073  1.00  0.00     0.116 C 
ENDROOT
BRANCH   1   2
ATOM      2  C   UNL     1       0.137  45.661  55.981  1.00  0.00     0.024 C 
BRANCH   2   3
ATOM      3  C   UNL     1      -1.102  44.851  55.544  1.00  0.00    -0.016 C 
ATOM      4  C   UNL     1      -0.687  43.798  54.512  1.00  0.00     0.007 C 
ATOM      5  C   UNL     1      -1.821  44.170  56.708  1.00  0.00     0.007 C 
ENDBRANCH   2   3
ENDBRANCH   1   2
BRANCH   1   6
ATOM      6  N   UNL     1       2.589  45.731  56.024  1.00  0.00    -0.354 N 
ATOM      7  H   UNL     1       3.242  45.634  56.793  1.00  0.00     0.163 HD
BRANCH   6   8
ATOM      8  C   UNL     1       3.349  45.622  54.864  1.00  0.00     0.226 A 
ATOM      9  N   UNL     1       4.323  46.518  54.620  1.00  0.00    -0.195 NA
ATOM     10  N   UNL     1       3.020  44.595  54.072  1.00  0.00    -0.193 NA
ATOM     11  C   UNL     1       5.091  46.436  53.502  1.00  0.00     0.147 A 
ATOM     12  C   UNL     1       3.781  44.526  52.971  1.00  0.00     0.165 A 
ATOM     13  C   UNL     1       4.805  45.385  52.621  1.00  0.00     0.082 A 
ATOM     14  N   UNL     1       3.707  43.599  51.967  1.00  0.00    -0.250 N 
ATOM     15  C   UNL     1       5.273  44.886  51.387  1.00  0.00     0.149 A 
ATOM     16  N   UNL     1       4.608  43.801  50.977  1.00  0.00    -0.179 NA
ATOM     17  C   UNL     1       2.795  42.486  51.881  1.00  0.00     0.176 C 
BRANCH  11  18
ATOM     18  N   UNL     1       6.097  47.372  53.221  1.00  0.00    -0.339 N 
ATOM     19  H   UNL     1       5.749  48.297  53.012  1.00  0.00     0.168 HD
BRANCH  18  20
ATOM     20  C   UNL     1       7.491  47.247  53.091  1.00  0.00     0.040 A 
ATOM     21  C   UNL     1       8.274  47.232  54.258  1.00  0.00     0.026 A 
ATOM     22  C   UNL     1       8.150  47.086  51.868  1.00  0.00     0.026 A 
ATOM     23  C   UNL     1       9.664  47.080  54.201  1.00  0.00     0.002 A 
ATOM     24  C   UNL     1       9.540  46.934  51.805  1.00  0.00     0.002 A 
ATOM     25  C   UNL     1      10.296  46.932  52.972  1.00  0.00     0.000 A 
ENDBRANCH  18  20
ENDBRANCH  11  18
ENDBRANCH   6   8
ENDBRANCH   1   6
TORSDOF 6
ENDMDL
MODEL 20
REMARK VINA RESULT:    -7.292      2.012      6.464
REMARK INTER + INTRA:         -11.129
REMARK INTER:                 -10.059
REMARK INTRA:                  -1.070
REMARK UNBOUND:                -1.279
REMARK SMILES CC(C)CCNc1nc(Nc2ccccc2)c2cnn(C)c2n1
REMARK SMILES IDX 5 1 4 2 2 3 1 4 3 5 6 6 7 8 8 9 23 10 9 11 22 12 17 13 20 14
REMARK SMILES IDX 18 15 19 16 21 17 10 18 11 20 12 21 16 22 13 23 15 24 14 25
REMARK H PARENT 6 7 10 19
ROOT
ATOM      1  C   UNL     1       7.844  43.706  49.394  1.00  0.00     0.116 C 
ENDROOT
BRANCH   1   2
ATOM      2  C   UNL     1       6.578  43.118  48.759  1.00  0.00     0.024 C 
BRANCH   2   3
ATOM      3  C   UNL     1       6.011  41.877  49.478  1.00  0.00    -0.016 C 
ATOM      4  C   UNL     1       7.151  41.114  50.160  1.00  0.00     0.007 C 
ATOM      5  C   UNL     1       4.934  42.215  50.509  1.00  0.00     0.007 C 
ENDBRANCH   2   3
ENDBRANCH   1   2
BRANCH   1   6
ATOM      6  N   UNL     1       7.726  45.149  49.519  1.00  0.00    -0.354 N 
ATOM      7  H   UNL     1       7.116  45.595  48.843  1.00  0.00     0.163 HD
BRANCH   6   8
ATOM      8  C   UNL     1       7.294  45.587  50.767  1.00  0.00     0.226 A 
ATOM      9  N   UNL     1       5.986  45.532  51.076  1.00  0.00    -0.195 NA
ATOM     10  N   UNL     1       8.266  46.040  51.569  1.00  0.00    -0.193 NA
ATOM     11  C   UNL     1       5.531  45.943  52.289  1.00  0.00     0.147 A 
ATOM     12  C   UNL     1       7.805  46.446  52.761  1.00  0.00     0.165 A 
ATOM     13  C   UNL     1       6.490  46.433  53.185  1.00  0.00     0.082 A 
ATOM     14  N   UNL     1       8.533  46.953  53.803  1.00  0.00    -0.250 N 
ATOM     15  C   UNL     1       6.540  46.960  54.492  1.00  0.00     0.149 A 
ATOM     16  N   UNL     1       7.779  47.285  54.877  1.00  0.00    -0.179 NA
ATOM     17  C   UNL     1       9.959  47.156  53.847  1.00  0.00     0.176 C 
BRANCH  11  18
ATOM     18  N   UNL     1       4.169  45.912  52.620  1.00  0.00    -0.339 N 
ATOM     19  H   UNL     1       3.884  46.650  53.248  1.00  0.00     0.168 HD
BRANCH  18  20
ATOM     20  C   UNL     1       3.144  44.999  52.314  1.00  0.00     0.040 A 
ATOM     21  C   UNL     1       2.787  44.045  53.283  1.00  0.00     0.026 A 
ATOM     22  C   UNL     1       2.419  45.010  51.119  1.00  0.00     0.026 A 
ATOM     23  C   UNL     1       1.756  43.127  53.055  1.00  0.00     0.002 A 
ATOM     24  C   UNL     1       1.387  44.093  50.886  1.00  0.00     0.002 A 
ATOM     25  C   UNL     1       1.057  43.151  51.854  1.00  0.00     0.000 A 
ENDBRANCH  18  20
ENDBRANCH  11  18
ENDBRANCH   6   8
ENDBRANCH   1   6
TORSDOF 6
ENDMDL
