MODEL 1
REMARK VINA RESULT:    -8.238      0.000      0.000
REMARK INTER + INTRA:         -14.087
REMARK INTER:                 -12.573
REMARK INTRA:                  -1.514
REMARK UNBOUND:                -1.514
REMARK SMILES CCOCCCNc1nc(Nc2ccccc2C#N)c2cnn(C)c2n1
REMARK SMILES IDX 6 1 5 2 4 3 3 4 2 5 1 6 7 7 8 9 9 10 26 11 10 12 25 13 20 14
REMARK SMILES IDX 23 15 21 16 22 17 24 18 11 19 12 21 13 22 17 23 14 24 16 25
REMARK SMILES IDX 15 26 18 27 19 28
REMARK H PARENT 7 8 11 20
ROOT
ATOM      1  C   UNL     1       3.783  45.674  55.578  1.00  0.00     0.118 C 
ENDROOT
BRANCH   1   2
ATOM      2  C   UNL     1       2.252  45.722  55.552  1.00  0.00     0.050 C 
BRANCH   2   3
ATOM      3  C   UNL     1       1.649  45.424  54.184  1.00  0.00     0.162 C 
BRANCH   3   4
ATOM      4  O   UNL     1       1.977  46.476  53.280  1.00  0.00    -0.382 OA
BRANCH   4   5
ATOM      5  C   UNL     1       2.078  46.009  51.937  1.00  0.00     0.156 C 
ATOM      6  C   UNL     1       1.116  44.852  51.759  1.00  0.00     0.035 C 
ENDBRANCH   4   5
ENDBRANCH   3   4
ENDBRANCH   2   3
ENDBRANCH   1   2
BRANCH   1   7
ATOM      7  N   UNL     1       4.412  46.862  55.024  1.00  0.00    -0.354 N 
ATOM      8  H   UNL     1       4.622  47.603  55.680  1.00  0.00     0.163 HD
BRANCH   7   9
ATOM      9  C   UNL     1       5.490  46.700  54.175  1.00  0.00     0.226 A 
ATOM     10  N   UNL     1       5.315  46.090  52.988  1.00  0.00    -0.195 NA
ATOM     11  N   UNL     1       6.652  47.173  54.641  1.00  0.00    -0.193 NA
ATOM     12  C   UNL     1       6.351  45.914  52.128  1.00  0.00     0.147 A 
ATOM     13  C   UNL     1       7.667  46.989  53.786  1.00  0.00     0.165 A 
ATOM     14  C   UNL     1       7.603  46.383  52.547  1.00  0.00     0.082 A 
ATOM     15  N   UNL     1       8.972  47.362  53.957  1.00  0.00    -0.250 N 
ATOM     16  C   UNL     1       8.927  46.435  52.064  1.00  0.00     0.149 A 
ATOM     17  N   UNL     1       9.770  47.026  52.917  1.00  0.00    -0.179 NA
ATOM     18  C   UNL     1       9.539  48.044  55.093  1.00  0.00     0.176 C 
BRANCH  12  19
ATOM     19  N   UNL     1       6.188  45.259  50.896  1.00  0.00    -0.338 N 
ATOM     20  H   UNL     1       6.346  45.871  50.104  1.00  0.00     0.168 HD
BRANCH  19  21
ATOM     21  C   UNL     1       5.809  43.938  50.570  1.00  0.00     0.058 A 
ATOM     22  C   UNL     1       4.610  43.368  51.023  1.00  0.00     0.027 A 
ATOM     23  C   UNL     1       6.668  43.108  49.809  1.00  0.00     0.076 A 
ATOM     24  C   UNL     1       4.264  42.046  50.725  1.00  0.00     0.002 A 
ATOM     25  C   UNL     1       6.320  41.780  49.512  1.00  0.00     0.021 A 
ATOM     26  C   UNL     1       5.117  41.251  49.970  1.00  0.00     0.002 A 
BRANCH  23  27
ATOM     27  C   UNL     1       7.922  43.602  49.320  1.00  0.00     0.101 C 
ATOM     28  N   UNL     1       8.926  44.045  48.941  1.00  0.00    -0.192 NA
ENDBRANCH  23  27
ENDBRANCH  19  21
ENDBRANCH  12  19
ENDBRANCH   7   9
ENDBRANCH   1   7
TORSDOF 9
ENDMDL
MODEL 2
REMARK VINA RESULT:    -8.015      1.710      5.403
REMARK INTER + INTRA:         -13.746
REMARK INTER:                 -12.138
REMARK INTRA:                  -1.608
REMARK UNBOUND:                -1.514
REMARK SMILES CCOCCCNc1nc(Nc2ccccc2C#N)c2cnn(C)c2n1
REMARK SMILES IDX 6 1 5 2 4 3 3 4 2 5 1 6 7 7 8 9 9 10 26 11 10 12 25 13 20 14
REMARK SMILES IDX 23 15 21 16 22 17 24 18 11 19 12 21 13 22 17 23 14 24 16 25
REMARK SMILES IDX 15 26 18 27 19 28
REMARK H PARENT 7 8 11 20
ROOT
ATOM      1  C   UNL     1       1.868  42.858  52.698  1.00  0.00     0.118 C 
ENDROOT
BRANCH   1   2
ATOM      2  C   UNL     1       0.962  44.089  52.792  1.00  0.00     0.050 C 
BRANCH   2   3
ATOM      3  C   UNL     1       1.122  44.877  54.087  1.00  0.00     0.162 C 
BRANCH   3   4
ATOM      4  O   UNL     1       2.057  45.934  53.888  1.00  0.00    -0.382 OA
BRANCH   4   5
ATOM      5  C   UNL     1       2.010  46.438  52.554  1.00  0.00     0.156 C 
ATOM      6  C   UNL     1       3.079  47.501  52.407  1.00  0.00     0.035 C 
ENDBRANCH   4   5
ENDBRANCH   3   4
ENDBRANCH   2   3
ENDBRANCH   1   2
BRANCH   1   7
ATOM      7  N   UNL     1       3.214  43.086  53.196  1.00  0.00    -0.354 N 
ATOM      8  H   UNL     1       3.575  42.393  53.840  1.00  0.00     0.163 HD
BRANCH   7   9
ATOM      9  C   UNL     1       4.205  43.411  52.289  1.00  0.00     0.226 A 
ATOM     10  N   UNL     1       4.896  44.556  52.442  1.00  0.00    -0.195 NA
ATOM     11  N   UNL     1       4.377  42.526  51.301  1.00  0.00    -0.193 NA
ATOM     12  C   UNL     1       5.877  44.907  51.571  1.00  0.00     0.147 A 
ATOM     13  C   UNL     1       5.344  42.885  50.446  1.00  0.00     0.165 A 
ATOM     14  C   UNL     1       6.116  44.028  50.506  1.00  0.00     0.082 A 
ATOM     15  N   UNL     1       5.770  42.200  49.340  1.00  0.00    -0.250 N 
ATOM     16  C   UNL     1       6.966  43.936  49.384  1.00  0.00     0.149 A 
ATOM     17  N   UNL     1       6.760  42.827  48.665  1.00  0.00    -0.179 NA
ATOM     18  C   UNL     1       5.276  40.934  48.859  1.00  0.00     0.176 C 
BRANCH  12  19
ATOM     19  N   UNL     1       6.591  46.108  51.706  1.00  0.00    -0.338 N 
ATOM     20  H   UNL     1       6.156  46.880  51.213  1.00  0.00     0.168 HD
BRANCH  19  21
ATOM     21  C   UNL     1       7.805  46.419  52.358  1.00  0.00     0.058 A 
ATOM     22  C   UNL     1       9.054  46.228  51.747  1.00  0.00     0.027 A 
ATOM     23  C   UNL     1       7.807  46.888  53.694  1.00  0.00     0.076 A 
ATOM     24  C   UNL     1      10.251  46.503  52.418  1.00  0.00     0.002 A 
ATOM     25  C   UNL     1       9.010  47.163  54.365  1.00  0.00     0.021 A 
ATOM     26  C   UNL     1      10.231  46.971  53.726  1.00  0.00     0.002 A 
BRANCH  23  27
ATOM     27  C   UNL     1       6.578  47.095  54.401  1.00  0.00     0.101 C 
ATOM     28  N   UNL     1       5.592  47.310  54.977  1.00  0.00    -0.192 NA
ENDBRANCH  23  27
ENDBRANCH  19  21
ENDBRANCH  12  19
ENDBRANCH   7   9
ENDBRANCH   1   7
TORSDOF 9
ENDMDL
MODEL 3
REMARK VINA RESULT:    -7.856      1.902      5.099
REMARK INTER + INTRA:         -13.503
REMARK INTER:                 -11.804
REMARK INTRA:                  -1.698
REMARK UNBOUND:                -1.514
REMARK SMILES CCOCCCNc1nc(Nc2ccccc2C#N)c2cnn(C)c2n1
REMARK SMILES IDX 6 1 5 2 4 3 3 4 2 5 1 6 7 7 8 9 9 10 26 11 10 12 25 13 20 14
REMARK SMILES IDX 23 15 21 16 22 17 24 18 11 19 12 21 13 22 17 23 14 24 16 25
REMARK SMILES IDX 15 26 18 27 19 28
REMARK H PARENT 7 8 11 20
ROOT
ATOM      1  C   UNL     1       1.864  44.298  53.439  1.00  0.00     0.118 C 
ENDROOT
BRANCH   1   2
ATOM      2  C   UNL     1       1.594  44.960  54.794  1.00  0.00     0.050 C 
BRANCH   2   3
ATOM      3  C   UNL     1       2.857  45.322  55.567  1.00  0.00     0.162 C 
BRANCH   3   4
ATOM      4  O   UNL     1       3.434  46.500  55.009  1.00  0.00    -0.382 OA
BRANCH   4   5
ATOM      5  C   UNL     1       4.856  46.415  54.947  1.00  0.00     0.156 C 
ATOM      6  C   UNL     1       5.266  45.001  55.303  1.00  0.00     0.035 C 
ENDBRANCH   4   5
ENDBRANCH   3   4
ENDBRANCH   2   3
ENDBRANCH   1   2
BRANCH   1   7
ATOM      7  N   UNL     1       2.491  45.185  52.473  1.00  0.00    -0.354 N 
ATOM      8  H   UNL     1       2.662  46.133  52.783  1.00  0.00     0.163 HD
BRANCH   7   9
ATOM      9  C   UNL     1       3.604  44.732  51.791  1.00  0.00     0.226 A 
ATOM     10  N   UNL     1       4.676  45.536  51.662  1.00  0.00    -0.195 NA
ATOM     11  N   UNL     1       3.496  43.495  51.293  1.00  0.00    -0.193 NA
ATOM     12  C   UNL     1       5.788  45.125  50.999  1.00  0.00     0.147 A 
ATOM     13  C   UNL     1       4.597  43.102  50.638  1.00  0.00     0.165 A 
ATOM     14  C   UNL     1       5.751  43.837  50.447  1.00  0.00     0.082 A 
ATOM     15  N   UNL     1       4.811  41.899  50.022  1.00  0.00    -0.250 N 
ATOM     16  C   UNL     1       6.588  42.985  49.697  1.00  0.00     0.149 A 
ATOM     17  N   UNL     1       6.024  41.803  49.430  1.00  0.00    -0.179 NA
ATOM     18  C   UNL     1       3.899  40.784  49.954  1.00  0.00     0.176 C 
BRANCH  12  19
ATOM     19  N   UNL     1       6.905  45.960  50.839  1.00  0.00    -0.338 N 
ATOM     20  H   UNL     1       7.020  46.281  49.885  1.00  0.00     0.168 HD
BRANCH  19  21
ATOM     21  C   UNL     1       7.901  46.391  51.742  1.00  0.00     0.058 A 
ATOM     22  C   UNL     1       7.640  47.324  52.757  1.00  0.00     0.027 A 
ATOM     23  C   UNL     1       9.235  45.933  51.619  1.00  0.00     0.076 A 
ATOM     24  C   UNL     1       8.644  47.772  53.622  1.00  0.00     0.002 A 
ATOM     25  C   UNL     1      10.242  46.384  52.488  1.00  0.00     0.021 A 
ATOM     26  C   UNL     1       9.945  47.303  53.489  1.00  0.00     0.002 A 
BRANCH  23  27
ATOM     27  C   UNL     1       9.597  44.992  50.600  1.00  0.00     0.101 C 
ATOM     28  N   UNL     1       9.907  44.201  49.808  1.00  0.00    -0.192 NA
ENDBRANCH  23  27
ENDBRANCH  19  21
ENDBRANCH  12  19
ENDBRANCH   7   9
ENDBRANCH   1   7
TORSDOF 9
ENDMDL
MODEL 4
REMARK VINA RESULT:    -7.842      1.568      5.472
REMARK INTER + INTRA:         -13.482
REMARK INTER:                 -11.996
REMARK INTRA:                  -1.486
REMARK UNBOUND:                -1.514
REMARK SMILES CCOCCCNc1nc(Nc2ccccc2C#N)c2cnn(C)c2n1
REMARK SMILES IDX 6 1 5 2 4 3 3 4 2 5 1 6 7 7 8 9 9 10 26 11 10 12 25 13 20 14
REMARK SMILES IDX 23 15 21 16 22 17 24 18 11 19 12 21 13 22 17 23 14 24 16 25
REMARK SMILES IDX 15 26 18 27 19 28
REMARK H PARENT 7 8 11 20
ROOT
ATOM      1  C   UNL     1       1.813  42.964  52.117  1.00  0.00     0.118 C 
ENDROOT
BRANCH   1   2
ATOM      2  C   UNL     1       1.242  44.229  51.468  1.00  0.00     0.050 C 
BRANCH   2   3
ATOM      3  C   UNL     1       0.628  45.209  52.461  1.00  0.00     0.162 C 
BRANCH   3   4
ATOM      4  O   UNL     1       1.634  46.108  52.925  1.00  0.00    -0.382 OA
BRANCH   4   5
ATOM      5  C   UNL     1       1.939  45.896  54.302  1.00  0.00     0.156 C 
ATOM      6  C   UNL     1       0.732  45.266  54.968  1.00  0.00     0.035 C 
ENDBRANCH   4   5
ENDBRANCH   3   4
ENDBRANCH   2   3
ENDBRANCH   1   2
BRANCH   1   7
ATOM      7  N   UNL     1       3.095  43.173  52.769  1.00  0.00    -0.354 N 
ATOM      8  H   UNL     1       3.384  42.457  53.425  1.00  0.00     0.163 HD
BRANCH   7   9
ATOM      9  C   UNL     1       4.180  43.528  51.990  1.00  0.00     0.226 A 
ATOM     10  N   UNL     1       4.817  44.689  52.228  1.00  0.00    -0.195 NA
ATOM     11  N   UNL     1       4.494  42.652  51.028  1.00  0.00    -0.193 NA
ATOM     12  C   UNL     1       5.887  45.070  51.484  1.00  0.00     0.147 A 
ATOM     13  C   UNL     1       5.548  43.041  50.298  1.00  0.00     0.165 A 
ATOM     14  C   UNL     1       6.276  44.204  50.454  1.00  0.00     0.082 A 
ATOM     15  N   UNL     1       6.122  42.373  49.250  1.00  0.00    -0.250 N 
ATOM     16  C   UNL     1       7.258  44.139  49.443  1.00  0.00     0.149 A 
ATOM     17  N   UNL     1       7.171  43.029  48.702  1.00  0.00    -0.179 NA
ATOM     18  C   UNL     1       5.723  41.098  48.710  1.00  0.00     0.176 C 
BRANCH  12  19
ATOM     19  N   UNL     1       6.548  46.289  51.706  1.00  0.00    -0.338 N 
ATOM     20  H   UNL     1       6.123  47.062  51.208  1.00  0.00     0.168 HD
BRANCH  19  21
ATOM     21  C   UNL     1       7.700  46.617  52.454  1.00  0.00     0.058 A 
ATOM     22  C   UNL     1       8.997  46.460  51.940  1.00  0.00     0.027 A 
ATOM     23  C   UNL     1       7.590  47.068  53.791  1.00  0.00     0.076 A 
ATOM     24  C   UNL     1      10.132  46.752  52.704  1.00  0.00     0.002 A 
ATOM     25  C   UNL     1       8.731  47.360  54.557  1.00  0.00     0.021 A 
ATOM     26  C   UNL     1      10.001  47.202  54.012  1.00  0.00     0.002 A 
BRANCH  23  27
ATOM     27  C   UNL     1       6.305  47.240  54.404  1.00  0.00     0.101 C 
ATOM     28  N   UNL     1       5.245  47.384  54.856  1.00  0.00    -0.192 NA
ENDBRANCH  23  27
ENDBRANCH  19  21
ENDBRANCH  12  19
ENDBRANCH   7   9
ENDBRANCH   1   7
TORSDOF 9
ENDMDL
MODEL 5
REMARK VINA RESULT:    -7.747      2.681      5.671
REMARK INTER + INTRA:         -13.337
REMARK INTER:                 -12.471
REMARK INTRA:                  -0.866
REMARK UNBOUND:                -1.514
REMARK SMILES CCOCCCNc1nc(Nc2ccccc2C#N)c2cnn(C)c2n1
REMARK SMILES IDX 6 1 5 2 4 3 3 4 2 5 1 6 7 7 8 9 9 10 26 11 10 12 25 13 20 14
REMARK SMILES IDX 23 15 21 16 22 17 24 18 11 19 12 21 13 22 17 23 14 24 16 25
REMARK SMILES IDX 15 26 18 27 19 28
REMARK H PARENT 7 8 11 20
ROOT
ATOM      1  C   UNL     1       5.776  45.303  55.407  1.00  0.00     0.118 C 
ENDROOT
BRANCH   1   2
ATOM      2  C   UNL     1       6.037  46.665  54.755  1.00  0.00     0.050 C 
BRANCH   2   3
ATOM      3  C   UNL     1       7.421  46.795  54.129  1.00  0.00     0.162 C 
BRANCH   3   4
ATOM      4  O   UNL     1       8.225  47.659  54.930  1.00  0.00    -0.382 OA
BRANCH   4   5
ATOM      5  C   UNL     1       9.614  47.500  54.648  1.00  0.00     0.156 C 
ATOM      6  C   UNL     1       9.760  47.017  53.219  1.00  0.00     0.035 C 
ENDBRANCH   4   5
ENDBRANCH   3   4
ENDBRANCH   2   3
ENDBRANCH   1   2
BRANCH   1   7
ATOM      7  N   UNL     1       4.366  44.969  55.513  1.00  0.00    -0.354 N 
ATOM      8  H   UNL     1       3.803  45.587  56.085  1.00  0.00     0.163 HD
BRANCH   7   9
ATOM      9  C   UNL     1       3.670  44.677  54.356  1.00  0.00     0.226 A 
ATOM     10  N   UNL     1       4.347  44.371  53.234  1.00  0.00    -0.195 NA
ATOM     11  N   UNL     1       2.338  44.743  54.466  1.00  0.00    -0.193 NA
ATOM     12  C   UNL     1       3.697  44.078  52.078  1.00  0.00     0.147 A 
ATOM     13  C   UNL     1       1.708  44.456  53.319  1.00  0.00     0.165 A 
ATOM     14  C   UNL     1       2.297  44.127  52.114  1.00  0.00     0.082 A 
ATOM     15  N   UNL     1       0.358  44.428  53.099  1.00  0.00    -0.250 N 
ATOM     16  C   UNL     1       1.210  43.931  51.236  1.00  0.00     0.149 A 
ATOM     17  N   UNL     1       0.024  44.115  51.826  1.00  0.00    -0.179 NA
ATOM     18  C   UNL     1      -0.684  44.691  54.060  1.00  0.00     0.176 C 
BRANCH  12  19
ATOM     19  N   UNL     1       4.390  43.778  50.894  1.00  0.00    -0.338 N 
ATOM     20  H   UNL     1       3.827  43.258  50.231  1.00  0.00     0.168 HD
BRANCH  19  21
ATOM     21  C   UNL     1       5.719  44.031  50.486  1.00  0.00     0.058 A 
ATOM     22  C   UNL     1       6.399  45.208  50.836  1.00  0.00     0.027 A 
ATOM     23  C   UNL     1       6.403  43.117  49.649  1.00  0.00     0.076 A 
ATOM     24  C   UNL     1       7.701  45.464  50.393  1.00  0.00     0.002 A 
ATOM     25  C   UNL     1       7.711  43.377  49.206  1.00  0.00     0.021 A 
ATOM     26  C   UNL     1       8.358  44.550  49.579  1.00  0.00     0.002 A 
BRANCH  23  27
ATOM     27  C   UNL     1       5.779  41.897  49.229  1.00  0.00     0.101 C 
ATOM     28  N   UNL     1       5.258  40.931  48.849  1.00  0.00    -0.192 NA
ENDBRANCH  23  27
ENDBRANCH  19  21
ENDBRANCH  12  19
ENDBRANCH   7   9
ENDBRANCH   1   7
TORSDOF 9
ENDMDL
MODEL 6
REMARK VINA RESULT:    -7.626      1.768      5.266
REMARK INTER + INTRA:         -13.152
REMARK INTER:                 -11.759
REMARK INTRA:                  -1.394
REMARK UNBOUND:                -1.514
REMARK SMILES CCOCCCNc1nc(Nc2ccccc2C#N)c2cnn(C)c2n1
REMARK SMILES IDX 6 1 5 2 4 3 3 4 2 5 1 6 7 7 8 9 9 10 26 11 10 12 25 13 20 14
REMARK SMILES IDX 23 15 21 16 22 17 24 18 11 19 12 21 13 22 17 23 14 24 16 25
REMARK SMILES IDX 15 26 18 27 19 28
REMARK H PARENT 7 8 11 20
ROOT
ATOM      1  C   UNL     1       2.549  44.913  54.358  1.00  0.00     0.118 C 
ENDROOT
BRANCH   1   2
ATOM      2  C   UNL     1       1.191  44.868  55.066  1.00  0.00     0.050 C 
BRANCH   2   3
ATOM      3  C   UNL     1       0.016  44.607  54.131  1.00  0.00     0.162 C 
BRANCH   3   4
ATOM      4  O   UNL     1       0.268  45.220  52.869  1.00  0.00    -0.382 OA
BRANCH   4   5
ATOM      5  C   UNL     1      -0.670  44.801  51.880  1.00  0.00     0.156 C 
ATOM      6  C   UNL     1      -0.076  43.632  51.122  1.00  0.00     0.035 C 
ENDBRANCH   4   5
ENDBRANCH   3   4
ENDBRANCH   2   3
ENDBRANCH   1   2
BRANCH   1   7
ATOM      7  N   UNL     1       2.772  43.796  53.455  1.00  0.00    -0.354 N 
ATOM      8  H   UNL     1       1.952  43.426  52.992  1.00  0.00     0.163 HD
BRANCH   7   9
ATOM      9  C   UNL     1       3.798  43.890  52.534  1.00  0.00     0.226 A 
ATOM     10  N   UNL     1       4.601  44.970  52.543  1.00  0.00    -0.195 NA
ATOM     11  N   UNL     1       3.887  42.862  51.682  1.00  0.00    -0.193 NA
ATOM     12  C   UNL     1       5.620  45.096  51.653  1.00  0.00     0.147 A 
ATOM     13  C   UNL     1       4.893  42.999  50.807  1.00  0.00     0.165 A 
ATOM     14  C   UNL     1       5.777  44.057  50.726  1.00  0.00     0.082 A 
ATOM     15  N   UNL     1       5.255  42.127  49.817  1.00  0.00    -0.250 N 
ATOM     16  C   UNL     1       6.621  43.724  49.646  1.00  0.00     0.149 A 
ATOM     17  N   UNL     1       6.310  42.552  49.083  1.00  0.00    -0.179 NA
ATOM     18  C   UNL     1       4.638  40.863  49.505  1.00  0.00     0.176 C 
BRANCH  12  19
ATOM     19  N   UNL     1       6.452  46.227  51.636  1.00  0.00    -0.338 N 
ATOM     20  H   UNL     1       6.077  46.980  51.071  1.00  0.00     0.168 HD
BRANCH  19  21
ATOM     21  C   UNL     1       7.712  46.483  52.220  1.00  0.00     0.058 A 
ATOM     22  C   UNL     1       8.916  46.255  51.535  1.00  0.00     0.027 A 
ATOM     23  C   UNL     1       7.810  46.932  53.559  1.00  0.00     0.076 A 
ATOM     24  C   UNL     1      10.159  46.476  52.138  1.00  0.00     0.002 A 
ATOM     25  C   UNL     1       9.059  47.152  54.163  1.00  0.00     0.021 A 
ATOM     26  C   UNL     1      10.232  46.924  53.451  1.00  0.00     0.002 A 
BRANCH  23  27
ATOM     27  C   UNL     1       6.632  47.174  54.339  1.00  0.00     0.101 C 
ATOM     28  N   UNL     1       5.656  47.386  54.932  1.00  0.00    -0.192 NA
ENDBRANCH  23  27
ENDBRANCH  19  21
ENDBRANCH  12  19
ENDBRANCH   7   9
ENDBRANCH   1   7
TORSDOF 9
ENDMDL
MODEL 7
REMARK VINA RESULT:    -7.582      2.967      6.304
REMARK INTER + INTRA:         -13.085
REMARK INTER:                 -12.018
REMARK INTRA:                  -1.068
REMARK UNBOUND:                -1.514
REMARK SMILES CCOCCCNc1nc(Nc2ccccc2C#N)c2cnn(C)c2n1
REMARK SMILES IDX 6 1 5 2 4 3 3 4 2 5 1 6 7 7 8 9 9 10 26 11 10 12 25 13 20 14
REMARK SMILES IDX 23 15 21 16 22 17 24 18 11 19 12 21 13 22 17 23 14 24 16 25
REMARK SMILES IDX 15 26 18 27 19 28
REMARK H PARENT 7 8 11 20
ROOT
ATOM      1  C   UNL     1       3.560  40.835  49.684  1.00  0.00     0.118 C 
ENDROOT
BRANCH   1   2
ATOM      2  C   UNL     1       4.281  40.852  48.333  1.00  0.00     0.050 C 
BRANCH   2   3
ATOM      3  C   UNL     1       3.532  40.122  47.224  1.00  0.00     0.162 C 
BRANCH   3   4
ATOM      4  O   UNL     1       3.801  40.752  45.974  1.00  0.00    -0.382 OA
BRANCH   4   5
ATOM      5  C   UNL     1       5.092  41.357  45.953  1.00  0.00     0.156 C 
ATOM      6  C   UNL     1       5.112  42.403  44.857  1.00  0.00     0.035 C 
ENDBRANCH   4   5
ENDBRANCH   3   4
ENDBRANCH   2   3
ENDBRANCH   1   2
BRANCH   1   7
ATOM      7  N   UNL     1       4.405  41.227  50.800  1.00  0.00    -0.354 N 
ATOM      8  H   UNL     1       5.383  40.972  50.731  1.00  0.00     0.163 HD
BRANCH   7   9
ATOM      9  C   UNL     1       4.317  42.524  51.268  1.00  0.00     0.226 A 
ATOM     10  N   UNL     1       5.213  43.441  50.856  1.00  0.00    -0.195 NA
ATOM     11  N   UNL     1       3.318  42.746  52.129  1.00  0.00    -0.193 NA
ATOM     12  C   UNL     1       5.157  44.725  51.294  1.00  0.00     0.147 A 
ATOM     13  C   UNL     1       3.275  44.015  52.558  1.00  0.00     0.165 A 
ATOM     14  C   UNL     1       4.136  45.036  52.202  1.00  0.00     0.082 A 
ATOM     15  N   UNL     1       2.377  44.566  53.431  1.00  0.00    -0.250 N 
ATOM     16  C   UNL     1       3.671  46.153  52.927  1.00  0.00     0.149 A 
ATOM     17  N   UNL     1       2.602  45.877  53.682  1.00  0.00    -0.179 NA
ATOM     18  C   UNL     1       1.272  43.901  54.075  1.00  0.00     0.176 C 
BRANCH  12  19
ATOM     19  N   UNL     1       6.097  45.687  50.891  1.00  0.00    -0.338 N 
ATOM     20  H   UNL     1       5.874  46.100  49.993  1.00  0.00     0.168 HD
BRANCH  19  21
ATOM     21  C   UNL     1       7.297  46.142  51.481  1.00  0.00     0.058 A 
ATOM     22  C   UNL     1       7.313  47.117  52.490  1.00  0.00     0.027 A 
ATOM     23  C   UNL     1       8.551  45.665  51.028  1.00  0.00     0.076 A 
ATOM     24  C   UNL     1       8.510  47.588  53.040  1.00  0.00     0.002 A 
ATOM     25  C   UNL     1       9.752  46.140  51.581  1.00  0.00     0.021 A 
ATOM     26  C   UNL     1       9.729  47.101  52.587  1.00  0.00     0.002 A 
BRANCH  23  27
ATOM     27  C   UNL     1       8.630  44.681  49.989  1.00  0.00     0.101 C 
ATOM     28  N   UNL     1       8.714  43.917  49.118  1.00  0.00    -0.192 NA
ENDBRANCH  23  27
ENDBRANCH  19  21
ENDBRANCH  12  19
ENDBRANCH   7   9
ENDBRANCH   1   7
TORSDOF 9
ENDMDL
MODEL 8
REMARK VINA RESULT:    -7.568      2.435      6.414
REMARK INTER + INTRA:         -13.063
REMARK INTER:                 -11.863
REMARK INTRA:                  -1.200
REMARK UNBOUND:                -1.514
REMARK SMILES CCOCCCNc1nc(Nc2ccccc2C#N)c2cnn(C)c2n1
REMARK SMILES IDX 6 1 5 2 4 3 3 4 2 5 1 6 7 7 8 9 9 10 26 11 10 12 25 13 20 14
REMARK SMILES IDX 23 15 21 16 22 17 24 18 11 19 12 21 13 22 17 23 14 24 16 25
REMARK SMILES IDX 15 26 18 27 19 28
REMARK H PARENT 7 8 11 20
ROOT
ATOM      1  C   UNL     1       3.779  41.262  50.444  1.00  0.00     0.118 C 
ENDROOT
BRANCH   1   2
ATOM      2  C   UNL     1       4.390  41.120  49.046  1.00  0.00     0.050 C 
BRANCH   2   3
ATOM      3  C   UNL     1       5.912  41.191  49.027  1.00  0.00     0.162 C 
BRANCH   3   4
ATOM      4  O   UNL     1       6.322  42.538  48.807  1.00  0.00    -0.382 OA
BRANCH   4   5
ATOM      5  C   UNL     1       7.540  42.839  49.484  1.00  0.00     0.156 C 
ATOM      6  C   UNL     1       8.186  44.028  48.804  1.00  0.00     0.035 C 
ENDBRANCH   4   5
ENDBRANCH   3   4
ENDBRANCH   2   3
ENDBRANCH   1   2
BRANCH   1   7
ATOM      7  N   UNL     1       4.620  41.997  51.374  1.00  0.00    -0.354 N 
ATOM      8  H   UNL     1       5.619  41.859  51.278  1.00  0.00     0.163 HD
BRANCH   7   9
ATOM      9  C   UNL     1       4.373  43.344  51.561  1.00  0.00     0.226 A 
ATOM     10  N   UNL     1       5.380  44.228  51.433  1.00  0.00    -0.195 NA
ATOM     11  N   UNL     1       3.109  43.646  51.878  1.00  0.00    -0.193 NA
ATOM     12  C   UNL     1       5.174  45.558  51.609  1.00  0.00     0.147 A 
ATOM     13  C   UNL     1       2.919  44.961  52.053  1.00  0.00     0.165 A 
ATOM     14  C   UNL     1       3.873  45.954  51.944  1.00  0.00     0.082 A 
ATOM     15  N   UNL     1       1.749  45.595  52.374  1.00  0.00    -0.250 N 
ATOM     16  C   UNL     1       3.171  47.145  52.229  1.00  0.00     0.149 A 
ATOM     17  N   UNL     1       1.878  46.936  52.496  1.00  0.00    -0.179 NA
ATOM     18  C   UNL     1       0.461  44.985  52.585  1.00  0.00     0.176 C 
BRANCH  12  19
ATOM     19  N   UNL     1       6.219  46.490  51.499  1.00  0.00    -0.338 N 
ATOM     20  H   UNL     1       6.036  47.205  50.805  1.00  0.00     0.168 HD
BRANCH  19  21
ATOM     21  C   UNL     1       7.473  46.584  52.142  1.00  0.00     0.058 A 
ATOM     22  C   UNL     1       8.679  46.321  51.474  1.00  0.00     0.027 A 
ATOM     23  C   UNL     1       7.557  46.895  53.520  1.00  0.00     0.076 A 
ATOM     24  C   UNL     1       9.913  46.380  52.132  1.00  0.00     0.002 A 
ATOM     25  C   UNL     1       8.797  46.953  54.179  1.00  0.00     0.021 A 
ATOM     26  C   UNL     1       9.973  46.695  53.483  1.00  0.00     0.002 A 
BRANCH  23  27
ATOM     27  C   UNL     1       6.374  47.161  54.286  1.00  0.00     0.101 C 
ATOM     28  N   UNL     1       5.438  47.414  54.925  1.00  0.00    -0.192 NA
ENDBRANCH  23  27
ENDBRANCH  19  21
ENDBRANCH  12  19
ENDBRANCH   7   9
ENDBRANCH   1   7
TORSDOF 9
ENDMDL
MODEL 9
REMARK VINA RESULT:    -7.566      2.001      5.075
REMARK INTER + INTRA:         -13.060
REMARK INTER:                 -11.687
REMARK INTRA:                  -1.373
REMARK UNBOUND:                -1.514
REMARK SMILES CCOCCCNc1nc(Nc2ccccc2C#N)c2cnn(C)c2n1
REMARK SMILES IDX 6 1 5 2 4 3 3 4 2 5 1 6 7 7 8 9 9 10 26 11 10 12 25 13 20 14
REMARK SMILES IDX 23 15 21 16 22 17 24 18 11 19 12 21 13 22 17 23 14 24 16 25
REMARK SMILES IDX 15 26 18 27 19 28
REMARK H PARENT 7 8 11 20
ROOT
ATOM      1  C   UNL     1       2.313  45.482  53.945  1.00  0.00     0.118 C 
ENDROOT
BRANCH   1   2
ATOM      2  C   UNL     1       1.385  45.689  52.744  1.00  0.00     0.050 C 
BRANCH   2   3
ATOM      3  C   UNL     1       0.321  44.607  52.592  1.00  0.00     0.162 C 
BRANCH   3   4
ATOM      4  O   UNL     1       0.299  43.795  53.764  1.00  0.00    -0.382 OA
BRANCH   4   5
ATOM      5  C   UNL     1       0.141  42.414  53.448  1.00  0.00     0.156 C 
ATOM      6  C   UNL     1      -0.854  42.295  52.311  1.00  0.00     0.035 C 
ENDBRANCH   4   5
ENDBRANCH   3   4
ENDBRANCH   2   3
ENDBRANCH   1   2
BRANCH   1   7
ATOM      7  N   UNL     1       3.092  44.257  53.875  1.00  0.00    -0.354 N 
ATOM      8  H   UNL     1       2.575  43.393  53.986  1.00  0.00     0.163 HD
BRANCH   7   9
ATOM      9  C   UNL     1       3.992  44.108  52.838  1.00  0.00     0.226 A 
ATOM     10  N   UNL     1       4.964  45.023  52.666  1.00  0.00    -0.195 NA
ATOM     11  N   UNL     1       3.792  43.033  52.067  1.00  0.00    -0.193 NA
ATOM     12  C   UNL     1       5.867  44.909  51.658  1.00  0.00     0.147 A 
ATOM     13  C   UNL     1       4.686  42.933  51.074  1.00  0.00     0.165 A 
ATOM     14  C   UNL     1       5.722  43.806  50.806  1.00  0.00     0.082 A 
ATOM     15  N   UNL     1       4.762  41.952  50.123  1.00  0.00    -0.250 N 
ATOM     16  C   UNL     1       6.351  43.262  49.666  1.00  0.00     0.149 A 
ATOM     17  N   UNL     1       5.772  42.134  49.240  1.00  0.00    -0.179 NA
ATOM     18  C   UNL     1       3.901  40.804  49.987  1.00  0.00     0.176 C 
BRANCH  12  19
ATOM     19  N   UNL     1       6.872  45.867  51.453  1.00  0.00    -0.338 N 
ATOM     20  H   UNL     1       6.846  46.269  50.523  1.00  0.00     0.168 HD
BRANCH  19  21
ATOM     21  C   UNL     1       7.919  46.332  52.280  1.00  0.00     0.058 A 
ATOM     22  C   UNL     1       7.688  47.174  53.379  1.00  0.00     0.027 A 
ATOM     23  C   UNL     1       9.266  46.005  51.992  1.00  0.00     0.076 A 
ATOM     24  C   UNL     1       8.737  47.658  54.168  1.00  0.00     0.002 A 
ATOM     25  C   UNL     1      10.318  46.494  52.785  1.00  0.00     0.021 A 
ATOM     26  C   UNL     1      10.051  47.319  53.873  1.00  0.00     0.002 A 
BRANCH  23  27
ATOM     27  C   UNL     1       9.596  45.165  50.878  1.00  0.00     0.101 C 
ATOM     28  N   UNL     1       9.845  44.518  49.947  1.00  0.00    -0.192 NA
ENDBRANCH  23  27
ENDBRANCH  19  21
ENDBRANCH  12  19
ENDBRANCH   7   9
ENDBRANCH   1   7
TORSDOF 9
ENDMDL
MODEL 10
REMARK VINA RESULT:    -7.498      2.795      6.686
REMARK INTER + INTRA:         -12.956
REMARK INTER:                 -11.898
REMARK INTRA:                  -1.058
REMARK UNBOUND:                -1.514
REMARK SMILES CCOCCCNc1nc(Nc2ccccc2C#N)c2cnn(C)c2n1
REMARK SMILES IDX 6 1 5 2 4 3 3 4 2 5 1 6 7 7 8 9 9 10 26 11 10 12 25 13 20 14
REMARK SMILES IDX 23 15 21 16 22 17 24 18 11 19 12 21 13 22 17 23 14 24 16 25
REMARK SMILES IDX 15 26 18 27 19 28
REMARK H PARENT 7 8 11 20
ROOT
ATOM      1  C   UNL     1       6.063  41.551  49.851  1.00  0.00     0.118 C 
ENDROOT
BRANCH   1   2
ATOM      2  C   UNL     1       5.722  41.580  48.358  1.00  0.00     0.050 C 
BRANCH   2   3
ATOM      3  C   UNL     1       4.438  40.838  48.003  1.00  0.00     0.162 C 
BRANCH   3   4
ATOM      4  O   UNL     1       4.243  40.874  46.592  1.00  0.00    -0.382 OA
BRANCH   4   5
ATOM      5  C   UNL     1       5.380  41.403  45.913  1.00  0.00     0.156 C 
ATOM      6  C   UNL     1       4.895  42.354  44.838  1.00  0.00     0.035 C 
ENDBRANCH   4   5
ENDBRANCH   3   4
ENDBRANCH   2   3
ENDBRANCH   1   2
BRANCH   1   7
ATOM      7  N   UNL     1       4.916  41.776  50.715  1.00  0.00    -0.354 N 
ATOM      8  H   UNL     1       4.875  41.216  51.557  1.00  0.00     0.163 HD
BRANCH   7   9
ATOM      9  C   UNL     1       4.573  43.077  51.028  1.00  0.00     0.226 A 
ATOM     10  N   UNL     1       5.512  44.041  50.980  1.00  0.00    -0.195 NA
ATOM     11  N   UNL     1       3.294  43.256  51.376  1.00  0.00    -0.193 NA
ATOM     12  C   UNL     1       5.212  45.330  51.281  1.00  0.00     0.147 A 
ATOM     13  C   UNL     1       3.011  44.531  51.675  1.00  0.00     0.165 A 
ATOM     14  C   UNL     1       3.889  45.597  51.656  1.00  0.00     0.082 A 
ATOM     15  N   UNL     1       1.802  45.045  52.058  1.00  0.00    -0.250 N 
ATOM     16  C   UNL     1       3.107  46.702  52.054  1.00  0.00     0.149 A 
ATOM     17  N   UNL     1       1.834  46.375  52.305  1.00  0.00    -0.179 NA
ATOM     18  C   UNL     1       0.563  44.325  52.215  1.00  0.00     0.176 C 
BRANCH  12  19
ATOM     19  N   UNL     1       6.186  46.342  51.256  1.00  0.00    -0.338 N 
ATOM     20  H   UNL     1       5.919  47.128  50.675  1.00  0.00     0.168 HD
BRANCH  19  21
ATOM     21  C   UNL     1       7.463  46.440  51.850  1.00  0.00     0.058 A 
ATOM     22  C   UNL     1       8.640  46.119  51.156  1.00  0.00     0.027 A 
ATOM     23  C   UNL     1       7.601  46.816  53.208  1.00  0.00     0.076 A 
ATOM     24  C   UNL     1       9.897  46.183  51.768  1.00  0.00     0.002 A 
ATOM     25  C   UNL     1       8.863  46.879  53.821  1.00  0.00     0.021 A 
ATOM     26  C   UNL     1      10.010  46.563  53.100  1.00  0.00     0.002 A 
BRANCH  23  27
ATOM     27  C   UNL     1       6.451  47.144  53.999  1.00  0.00     0.101 C 
ATOM     28  N   UNL     1       5.491  47.396  54.603  1.00  0.00    -0.192 NA
ENDBRANCH  23  27
ENDBRANCH  19  21
ENDBRANCH  12  19
ENDBRANCH   7   9
ENDBRANCH   1   7
TORSDOF 9
ENDMDL
MODEL 11
REMARK VINA RESULT:    -7.442      2.758      5.881
REMARK INTER + INTRA:         -12.871
REMARK INTER:                 -12.107
REMARK INTRA:                  -0.764
REMARK UNBOUND:                -1.514
REMARK SMILES CCOCCCNc1nc(Nc2ccccc2C#N)c2cnn(C)c2n1
REMARK SMILES IDX 6 1 5 2 4 3 3 4 2 5 1 6 7 7 8 9 9 10 26 11 10 12 25 13 20 14
REMARK SMILES IDX 23 15 21 16 22 17 24 18 11 19 12 21 13 22 17 23 14 24 16 25
REMARK SMILES IDX 15 26 18 27 19 28
REMARK H PARENT 7 8 11 20
ROOT
ATOM      1  C   UNL     1       5.581  45.662  55.498  1.00  0.00     0.118 C 
ENDROOT
BRANCH   1   2
ATOM      2  C   UNL     1       6.063  46.829  54.631  1.00  0.00     0.050 C 
BRANCH   2   3
ATOM      3  C   UNL     1       7.489  46.668  54.117  1.00  0.00     0.162 C 
BRANCH   3   4
ATOM      4  O   UNL     1       8.338  47.612  54.766  1.00  0.00    -0.382 OA
BRANCH   4   5
ATOM      5  C   UNL     1       9.715  47.360  54.494  1.00  0.00     0.156 C 
ATOM      6  C   UNL     1       9.839  46.878  53.064  1.00  0.00     0.035 C 
ENDBRANCH   4   5
ENDBRANCH   3   4
ENDBRANCH   2   3
ENDBRANCH   1   2
BRANCH   1   7
ATOM      7  N   UNL     1       4.143  45.651  55.711  1.00  0.00    -0.354 N 
ATOM      8  H   UNL     1       3.729  46.525  56.008  1.00  0.00     0.163 HD
BRANCH   7   9
ATOM      9  C   UNL     1       3.338  45.085  54.739  1.00  0.00     0.226 A 
ATOM     10  N   UNL     1       3.853  44.817  53.525  1.00  0.00    -0.195 NA
ATOM     11  N   UNL     1       2.073  44.866  55.113  1.00  0.00    -0.193 NA
ATOM     12  C   UNL     1       3.093  44.261  52.546  1.00  0.00     0.147 A 
ATOM     13  C   UNL     1       1.332  44.321  54.138  1.00  0.00     0.165 A 
ATOM     14  C   UNL     1       1.753  44.001  52.862  1.00  0.00     0.082 A 
ATOM     15  N   UNL     1       0.011  43.969  54.199  1.00  0.00    -0.250 N 
ATOM     16  C   UNL     1       0.604  43.473  52.237  1.00  0.00     0.149 A 
ATOM     17  N   UNL     1      -0.464  43.452  53.042  1.00  0.00    -0.179 NA
ATOM     18  C   UNL     1      -0.871  44.098  55.331  1.00  0.00     0.176 C 
BRANCH  12  19
ATOM     19  N   UNL     1       3.611  43.995  51.268  1.00  0.00    -0.338 N 
ATOM     20  H   UNL     1       2.889  43.782  50.590  1.00  0.00     0.168 HD
BRANCH  19  21
ATOM     21  C   UNL     1       4.934  43.933  50.778  1.00  0.00     0.058 A 
ATOM     22  C   UNL     1       5.798  45.038  50.809  1.00  0.00     0.027 A 
ATOM     23  C   UNL     1       5.425  42.749  50.176  1.00  0.00     0.076 A 
ATOM     24  C   UNL     1       7.094  44.974  50.285  1.00  0.00     0.002 A 
ATOM     25  C   UNL     1       6.727  42.688  49.650  1.00  0.00     0.021 A 
ATOM     26  C   UNL     1       7.559  43.801  49.706  1.00  0.00     0.002 A 
BRANCH  23  27
ATOM     27  C   UNL     1       4.606  41.577  50.086  1.00  0.00     0.101 C 
ATOM     28  N   UNL     1       3.977  40.601  50.030  1.00  0.00    -0.192 NA
ENDBRANCH  23  27
ENDBRANCH  19  21
ENDBRANCH  12  19
ENDBRANCH   7   9
ENDBRANCH   1   7
TORSDOF 9
ENDMDL
MODEL 12
REMARK VINA RESULT:    -7.344      2.117      6.627
REMARK INTER + INTRA:         -12.722
REMARK INTER:                 -11.340
REMARK INTRA:                  -1.382
REMARK UNBOUND:                -1.514
REMARK SMILES CCOCCCNc1nc(Nc2ccccc2C#N)c2cnn(C)c2n1
REMARK SMILES IDX 6 1 5 2 4 3 3 4 2 5 1 6 7 7 8 9 9 10 26 11 10 12 25 13 20 14
REMARK SMILES IDX 23 15 21 16 22 17 24 18 11 19 12 21 13 22 17 23 14 24 16 25
REMARK SMILES IDX 15 26 18 27 19 28
REMARK H PARENT 7 8 11 20
ROOT
ATOM      1  C   UNL     1       9.148  45.593  50.843  1.00  0.00     0.118 C 
ENDROOT
BRANCH   1   2
ATOM      2  C   UNL     1      10.109  46.356  51.761  1.00  0.00     0.050 C 
BRANCH   2   3
ATOM      3  C   UNL     1       9.891  46.083  53.245  1.00  0.00     0.162 C 
BRANCH   3   4
ATOM      4  O   UNL     1       8.744  46.801  53.696  1.00  0.00    -0.382 OA
BRANCH   4   5
ATOM      5  C   UNL     1       9.102  47.895  54.537  1.00  0.00     0.156 C 
ATOM      6  C   UNL     1      10.299  47.487  55.371  1.00  0.00     0.035 C 
ENDBRANCH   4   5
ENDBRANCH   3   4
ENDBRANCH   2   3
ENDBRANCH   1   2
BRANCH   1   7
ATOM      7  N   UNL     1       7.845  46.223  50.713  1.00  0.00    -0.354 N 
ATOM      8  H   UNL     1       7.713  46.814  49.902  1.00  0.00     0.163 HD
BRANCH   7   9
ATOM      9  C   UNL     1       6.717  45.442  50.881  1.00  0.00     0.226 A 
ATOM     10  N   UNL     1       5.619  45.975  51.448  1.00  0.00    -0.195 NA
ATOM     11  N   UNL     1       6.838  44.178  50.459  1.00  0.00    -0.193 NA
ATOM     12  C   UNL     1       4.493  45.238  51.629  1.00  0.00     0.147 A 
ATOM     13  C   UNL     1       5.723  43.460  50.647  1.00  0.00     0.165 A 
ATOM     14  C   UNL     1       4.542  43.901  51.212  1.00  0.00     0.082 A 
ATOM     15  N   UNL     1       5.517  42.147  50.320  1.00  0.00    -0.250 N 
ATOM     16  C   UNL     1       3.698  42.771  51.185  1.00  0.00     0.149 A 
ATOM     17  N   UNL     1       4.284  41.696  50.647  1.00  0.00    -0.179 NA
ATOM     18  C   UNL     1       6.455  41.251  49.692  1.00  0.00     0.176 C 
BRANCH  12  19
ATOM     19  N   UNL     1       3.347  45.774  52.239  1.00  0.00    -0.338 N 
ATOM     20  H   UNL     1       2.941  46.535  51.708  1.00  0.00     0.168 HD
BRANCH  19  21
ATOM     21  C   UNL     1       2.696  45.476  53.456  1.00  0.00     0.058 A 
ATOM     22  C   UNL     1       1.539  44.683  53.513  1.00  0.00     0.027 A 
ATOM     23  C   UNL     1       3.162  46.021  54.677  1.00  0.00     0.076 A 
ATOM     24  C   UNL     1       0.882  44.426  54.721  1.00  0.00     0.002 A 
ATOM     25  C   UNL     1       2.500  45.763  55.889  1.00  0.00     0.021 A 
ATOM     26  C   UNL     1       1.361  44.965  55.909  1.00  0.00     0.002 A 
BRANCH  23  27
ATOM     27  C   UNL     1       4.327  46.856  54.710  1.00  0.00     0.101 C 
ATOM     28  N   UNL     1       5.258  47.550  54.694  1.00  0.00    -0.192 NA
ENDBRANCH  23  27
ENDBRANCH  19  21
ENDBRANCH  12  19
ENDBRANCH   7   9
ENDBRANCH   1   7
TORSDOF 9
ENDMDL
MODEL 13
REMARK VINA RESULT:    -7.246      2.762      6.429
REMARK INTER + INTRA:         -12.572
REMARK INTER:                 -11.483
REMARK INTRA:                  -1.090
REMARK UNBOUND:                -1.514
REMARK SMILES CCOCCCNc1nc(Nc2ccccc2C#N)c2cnn(C)c2n1
REMARK SMILES IDX 6 1 5 2 4 3 3 4 2 5 1 6 7 7 8 9 9 10 26 11 10 12 25 13 20 14
REMARK SMILES IDX 23 15 21 16 22 17 24 18 11 19 12 21 13 22 17 23 14 24 16 25
REMARK SMILES IDX 15 26 18 27 19 28
REMARK H PARENT 7 8 11 20
ROOT
ATOM      1  C   UNL     1       3.572  41.124  49.985  1.00  0.00     0.118 C 
ENDROOT
BRANCH   1   2
ATOM      2  C   UNL     1       4.265  40.695  48.687  1.00  0.00     0.050 C 
BRANCH   2   3
ATOM      3  C   UNL     1       5.634  41.332  48.479  1.00  0.00     0.162 C 
BRANCH   3   4
ATOM      4  O   UNL     1       5.717  41.859  47.157  1.00  0.00    -0.382 OA
BRANCH   4   5
ATOM      5  C   UNL     1       4.709  41.315  46.306  1.00  0.00     0.156 C 
ATOM      6  C   UNL     1       5.226  41.330  44.882  1.00  0.00     0.035 C 
ENDBRANCH   4   5
ENDBRANCH   3   4
ENDBRANCH   2   3
ENDBRANCH   1   2
BRANCH   1   7
ATOM      7  N   UNL     1       4.494  41.563  51.019  1.00  0.00    -0.354 N 
ATOM      8  H   UNL     1       5.478  41.414  50.832  1.00  0.00     0.163 HD
BRANCH   7   9
ATOM      9  C   UNL     1       4.329  42.826  51.554  1.00  0.00     0.226 A 
ATOM     10  N   UNL     1       5.248  43.778  51.304  1.00  0.00    -0.195 NA
ATOM     11  N   UNL     1       3.236  42.980  52.310  1.00  0.00    -0.193 NA
ATOM     12  C   UNL     1       5.119  45.030  51.813  1.00  0.00     0.147 A 
ATOM     13  C   UNL     1       3.122  44.219  52.810  1.00  0.00     0.165 A 
ATOM     14  C   UNL     1       3.997  45.270  52.617  1.00  0.00     0.082 A 
ATOM     15  N   UNL     1       2.122  44.701  53.609  1.00  0.00    -0.250 N 
ATOM     16  C   UNL     1       3.433  46.333  53.354  1.00  0.00     0.149 A 
ATOM     17  N   UNL     1       2.292  45.996  53.965  1.00  0.00    -0.179 NA
ATOM     18  C   UNL     1       0.965  43.983  54.082  1.00  0.00     0.176 C 
BRANCH  12  19
ATOM     19  N   UNL     1       6.080  46.027  51.579  1.00  0.00    -0.338 N 
ATOM     20  H   UNL     1       5.681  46.871  51.184  1.00  0.00     0.168 HD
BRANCH  19  21
ATOM     21  C   UNL     1       7.481  46.049  51.754  1.00  0.00     0.058 A 
ATOM     22  C   UNL     1       8.369  45.641  50.746  1.00  0.00     0.027 A 
ATOM     23  C   UNL     1       8.049  46.436  52.992  1.00  0.00     0.076 A 
ATOM     24  C   UNL     1       9.754  45.631  50.945  1.00  0.00     0.002 A 
ATOM     25  C   UNL     1       9.439  46.424  53.190  1.00  0.00     0.021 A 
ATOM     26  C   UNL     1      10.290  46.022  52.165  1.00  0.00     0.002 A 
BRANCH  23  27
ATOM     27  C   UNL     1       7.216  46.851  54.083  1.00  0.00     0.101 C 
ATOM     28  N   UNL     1       6.503  47.178  54.939  1.00  0.00    -0.192 NA
ENDBRANCH  23  27
ENDBRANCH  19  21
ENDBRANCH  12  19
ENDBRANCH   7   9
ENDBRANCH   1   7
TORSDOF 9
ENDMDL
MODEL 14
REMARK VINA RESULT:    -7.245      2.767      6.067
REMARK INTER + INTRA:         -12.571
REMARK INTER:                 -12.014
REMARK INTRA:                  -0.557
REMARK UNBOUND:                -1.514
REMARK SMILES CCOCCCNc1nc(Nc2ccccc2C#N)c2cnn(C)c2n1
REMARK SMILES IDX 6 1 5 2 4 3 3 4 2 5 1 6 7 7 8 9 9 10 26 11 10 12 25 13 20 14
REMARK SMILES IDX 23 15 21 16 22 17 24 18 11 19 12 21 13 22 17 23 14 24 16 25
REMARK SMILES IDX 15 26 18 27 19 28
REMARK H PARENT 7 8 11 20
ROOT
ATOM      1  C   UNL     1       5.476  45.580  55.356  1.00  0.00     0.118 C 
ENDROOT
BRANCH   1   2
ATOM      2  C   UNL     1       5.983  46.813  54.601  1.00  0.00     0.050 C 
BRANCH   2   3
ATOM      3  C   UNL     1       7.432  46.701  54.140  1.00  0.00     0.162 C 
BRANCH   3   4
ATOM      4  O   UNL     1       8.237  47.621  54.873  1.00  0.00    -0.382 OA
BRANCH   4   5
ATOM      5  C   UNL     1       9.624  47.457  54.586  1.00  0.00     0.156 C 
ATOM      6  C   UNL     1       9.763  46.980  53.155  1.00  0.00     0.035 C 
ENDBRANCH   4   5
ENDBRANCH   3   4
ENDBRANCH   2   3
ENDBRANCH   1   2
BRANCH   1   7
ATOM      7  N   UNL     1       4.118  45.722  55.856  1.00  0.00    -0.354 N 
ATOM      8  H   UNL     1       3.831  46.660  56.109  1.00  0.00     0.163 HD
BRANCH   7   9
ATOM      9  C   UNL     1       3.092  45.118  55.154  1.00  0.00     0.226 A 
ATOM     10  N   UNL     1       3.344  44.572  53.950  1.00  0.00    -0.195 NA
ATOM     11  N   UNL     1       1.900  45.149  55.760  1.00  0.00    -0.193 NA
ATOM     12  C   UNL     1       2.361  43.969  53.232  1.00  0.00     0.147 A 
ATOM     13  C   UNL     1       0.937  44.555  55.041  1.00  0.00     0.165 A 
ATOM     14  C   UNL     1       1.081  43.961  53.801  1.00  0.00     0.082 A 
ATOM     15  N   UNL     1      -0.381  44.411  55.378  1.00  0.00    -0.250 N 
ATOM     16  C   UNL     1      -0.215  43.502  53.482  1.00  0.00     0.149 A 
ATOM     17  N   UNL     1      -1.113  43.774  54.435  1.00  0.00    -0.179 NA
ATOM     18  C   UNL     1      -1.021  44.859  56.589  1.00  0.00     0.176 C 
BRANCH  12  19
ATOM     19  N   UNL     1       2.603  43.414  51.965  1.00  0.00    -0.338 N 
ATOM     20  H   UNL     1       1.751  43.186  51.468  1.00  0.00     0.168 HD
BRANCH  19  21
ATOM     21  C   UNL     1       3.800  43.085  51.290  1.00  0.00     0.058 A 
ATOM     22  C   UNL     1       4.191  41.757  51.061  1.00  0.00     0.027 A 
ATOM     23  C   UNL     1       4.690  44.100  50.864  1.00  0.00     0.076 A 
ATOM     24  C   UNL     1       5.397  41.444  50.425  1.00  0.00     0.002 A 
ATOM     25  C   UNL     1       5.902  43.784  50.226  1.00  0.00     0.021 A 
ATOM     26  C   UNL     1       6.253  42.455  50.007  1.00  0.00     0.002 A 
BRANCH  23  27
ATOM     27  C   UNL     1       4.380  45.484  51.072  1.00  0.00     0.101 C 
ATOM     28  N   UNL     1       4.107  46.593  51.282  1.00  0.00    -0.192 NA
ENDBRANCH  23  27
ENDBRANCH  19  21
ENDBRANCH  12  19
ENDBRANCH   7   9
ENDBRANCH   1   7
TORSDOF 9
ENDMDL
MODEL 15
REMARK VINA RESULT:    -7.243      1.894      5.390
REMARK INTER + INTRA:         -12.567
REMARK INTER:                 -11.209
REMARK INTRA:                  -1.358
REMARK UNBOUND:                -1.514
REMARK SMILES CCOCCCNc1nc(Nc2ccccc2C#N)c2cnn(C)c2n1
REMARK SMILES IDX 6 1 5 2 4 3 3 4 2 5 1 6 7 7 8 9 9 10 26 11 10 12 25 13 20 14
REMARK SMILES IDX 23 15 21 16 22 17 24 18 11 19 12 21 13 22 17 23 14 24 16 25
REMARK SMILES IDX 15 26 18 27 19 28
REMARK H PARENT 7 8 11 20
ROOT
ATOM      1  C   UNL     1       1.353  44.998  52.876  1.00  0.00     0.118 C 
ENDROOT
BRANCH   1   2
ATOM      2  C   UNL     1       1.685  45.666  54.214  1.00  0.00     0.050 C 
BRANCH   2   3
ATOM      3  C   UNL     1       2.737  44.924  55.030  1.00  0.00     0.162 C 
BRANCH   3   4
ATOM      4  O   UNL     1       3.833  45.796  55.297  1.00  0.00    -0.382 OA
BRANCH   4   5
ATOM      5  C   UNL     1       5.020  45.073  55.614  1.00  0.00     0.156 C 
ATOM      6  C   UNL     1       5.537  44.423  54.346  1.00  0.00     0.035 C 
ENDBRANCH   4   5
ENDBRANCH   3   4
ENDBRANCH   2   3
ENDBRANCH   1   2
BRANCH   1   7
ATOM      7  N   UNL     1       2.036  45.597  51.741  1.00  0.00    -0.354 N 
ATOM      8  H   UNL     1       2.115  46.607  51.750  1.00  0.00     0.163 HD
BRANCH   7   9
ATOM      9  C   UNL     1       3.245  45.060  51.342  1.00  0.00     0.226 A 
ATOM     10  N   UNL     1       4.325  45.858  51.240  1.00  0.00    -0.195 NA
ATOM     11  N   UNL     1       3.219  43.750  51.072  1.00  0.00    -0.193 NA
ATOM     12  C   UNL     1       5.529  45.365  50.851  1.00  0.00     0.147 A 
ATOM     13  C   UNL     1       4.412  43.276  50.686  1.00  0.00     0.165 A 
ATOM     14  C   UNL     1       5.582  43.998  50.550  1.00  0.00     0.082 A 
ATOM     15  N   UNL     1       4.722  41.987  50.348  1.00  0.00    -0.250 N 
ATOM     16  C   UNL     1       6.530  43.048  50.116  1.00  0.00     0.149 A 
ATOM     17  N   UNL     1       6.015  41.820  49.986  1.00  0.00    -0.179 NA
ATOM     18  C   UNL     1       3.833  40.853  50.344  1.00  0.00     0.176 C 
BRANCH  12  19
ATOM     19  N   UNL     1       6.658  46.189  50.719  1.00  0.00    -0.338 N 
ATOM     20  H   UNL     1       6.667  46.705  49.847  1.00  0.00     0.168 HD
BRANCH  19  21
ATOM     21  C   UNL     1       7.783  46.393  51.550  1.00  0.00     0.058 A 
ATOM     22  C   UNL     1       9.052  45.887  51.231  1.00  0.00     0.027 A 
ATOM     23  C   UNL     1       7.655  47.079  52.782  1.00  0.00     0.076 A 
ATOM     24  C   UNL     1      10.149  46.062  52.081  1.00  0.00     0.002 A 
ATOM     25  C   UNL     1       8.758  47.254  53.634  1.00  0.00     0.021 A 
ATOM     26  C   UNL     1      10.004  46.746  53.282  1.00  0.00     0.002 A 
BRANCH  23  27
ATOM     27  C   UNL     1       6.392  47.616  53.196  1.00  0.00     0.101 C 
ATOM     28  N   UNL     1       5.390  48.070  53.569  1.00  0.00    -0.192 NA
ENDBRANCH  23  27
ENDBRANCH  19  21
ENDBRANCH  12  19
ENDBRANCH   7   9
ENDBRANCH   1   7
TORSDOF 9
ENDMDL
MODEL 16
REMARK VINA RESULT:    -7.238      2.238      5.837
REMARK INTER + INTRA:         -12.560
REMARK INTER:                 -11.274
REMARK INTRA:                  -1.286
REMARK UNBOUND:                -1.514
REMARK SMILES CCOCCCNc1nc(Nc2ccccc2C#N)c2cnn(C)c2n1
REMARK SMILES IDX 6 1 5 2 4 3 3 4 2 5 1 6 7 7 8 9 9 10 26 11 10 12 25 13 20 14
REMARK SMILES IDX 23 15 21 16 22 17 24 18 11 19 12 21 13 22 17 23 14 24 16 25
REMARK SMILES IDX 15 26 18 27 19 28
REMARK H PARENT 7 8 11 20
ROOT
ATOM      1  C   UNL     1       3.807  41.931  51.153  1.00  0.00     0.118 C 
ENDROOT
BRANCH   1   2
ATOM      2  C   UNL     1       4.908  41.170  50.407  1.00  0.00     0.050 C 
BRANCH   2   3
ATOM      3  C   UNL     1       6.135  42.016  50.088  1.00  0.00     0.162 C 
BRANCH   3   4
ATOM      4  O   UNL     1       6.061  42.471  48.739  1.00  0.00    -0.382 OA
BRANCH   4   5
ATOM      5  C   UNL     1       5.454  41.503  47.886  1.00  0.00     0.156 C 
ATOM      6  C   UNL     1       5.679  41.923  46.448  1.00  0.00     0.035 C 
ENDBRANCH   4   5
ENDBRANCH   3   4
ENDBRANCH   2   3
ENDBRANCH   1   2
BRANCH   1   7
ATOM      7  N   UNL     1       3.735  43.340  50.805  1.00  0.00    -0.354 N 
ATOM      8  H   UNL     1       2.931  43.624  50.259  1.00  0.00     0.163 HD
BRANCH   7   9
ATOM      9  C   UNL     1       3.951  44.275  51.799  1.00  0.00     0.226 A 
ATOM     10  N   UNL     1       4.949  45.168  51.665  1.00  0.00    -0.195 NA
ATOM     11  N   UNL     1       3.122  44.188  52.845  1.00  0.00    -0.193 NA
ATOM     12  C   UNL     1       5.190  46.102  52.621  1.00  0.00     0.147 A 
ATOM     13  C   UNL     1       3.372  45.111  53.784  1.00  0.00     0.165 A 
ATOM     14  C   UNL     1       4.362  46.074  53.750  1.00  0.00     0.082 A 
ATOM     15  N   UNL     1       2.706  45.296  54.964  1.00  0.00    -0.250 N 
ATOM     16  C   UNL     1       4.207  46.776  54.964  1.00  0.00     0.149 A 
ATOM     17  N   UNL     1       3.203  46.308  55.713  1.00  0.00    -0.179 NA
ATOM     18  C   UNL     1       1.579  44.541  55.453  1.00  0.00     0.176 C 
BRANCH  12  19
ATOM     19  N   UNL     1       6.241  47.026  52.504  1.00  0.00    -0.338 N 
ATOM     20  H   UNL     1       5.976  47.858  51.991  1.00  0.00     0.168 HD
BRANCH  19  21
ATOM     21  C   UNL     1       7.587  46.986  52.931  1.00  0.00     0.058 A 
ATOM     22  C   UNL     1       8.016  47.601  54.117  1.00  0.00     0.027 A 
ATOM     23  C   UNL     1       8.579  46.363  52.135  1.00  0.00     0.076 A 
ATOM     24  C   UNL     1       9.359  47.588  54.510  1.00  0.00     0.002 A 
ATOM     25  C   UNL     1       9.927  46.351  52.531  1.00  0.00     0.021 A 
ATOM     26  C   UNL     1      10.315  46.963  53.718  1.00  0.00     0.002 A 
BRANCH  23  27
ATOM     27  C   UNL     1       8.233  45.724  50.899  1.00  0.00     0.101 C 
ATOM     28  N   UNL     1       8.000  45.205  49.887  1.00  0.00    -0.192 NA
ENDBRANCH  23  27
ENDBRANCH  19  21
ENDBRANCH  12  19
ENDBRANCH   7   9
ENDBRANCH   1   7
TORSDOF 9
ENDMDL
MODEL 17
REMARK VINA RESULT:    -7.229      2.085      5.186
REMARK INTER + INTRA:         -12.547
REMARK INTER:                 -11.363
REMARK INTRA:                  -1.184
REMARK UNBOUND:                -1.514
REMARK SMILES CCOCCCNc1nc(Nc2ccccc2C#N)c2cnn(C)c2n1
REMARK SMILES IDX 6 1 5 2 4 3 3 4 2 5 1 6 7 7 8 9 9 10 26 11 10 12 25 13 20 14
REMARK SMILES IDX 23 15 21 16 22 17 24 18 11 19 12 21 13 22 17 23 14 24 16 25
REMARK SMILES IDX 15 26 18 27 19 28
REMARK H PARENT 7 8 11 20
ROOT
ATOM      1  C   UNL     1       1.748  43.376  53.784  1.00  0.00     0.118 C 
ENDROOT
BRANCH   1   2
ATOM      2  C   UNL     1       0.409  44.041  53.448  1.00  0.00     0.050 C 
BRANCH   2   3
ATOM      3  C   UNL     1      -0.073  45.026  54.507  1.00  0.00     0.162 C 
BRANCH   3   4
ATOM      4  O   UNL     1       0.806  44.987  55.629  1.00  0.00    -0.382 OA
BRANCH   4   5
ATOM      5  C   UNL     1       0.116  45.241  56.851  1.00  0.00     0.156 C 
ATOM      6  C   UNL     1      -1.303  44.729  56.715  1.00  0.00     0.035 C 
ENDBRANCH   4   5
ENDBRANCH   3   4
ENDBRANCH   2   3
ENDBRANCH   1   2
BRANCH   1   7
ATOM      7  N   UNL     1       2.876  44.292  53.755  1.00  0.00    -0.354 N 
ATOM      8  H   UNL     1       3.352  44.442  54.636  1.00  0.00     0.163 HD
BRANCH   7   9
ATOM      9  C   UNL     1       3.822  44.139  52.758  1.00  0.00     0.226 A 
ATOM     10  N   UNL     1       4.784  45.069  52.608  1.00  0.00    -0.195 NA
ATOM     11  N   UNL     1       3.674  43.045  52.003  1.00  0.00    -0.193 NA
ATOM     12  C   UNL     1       5.730  44.952  51.641  1.00  0.00     0.147 A 
ATOM     13  C   UNL     1       4.610  42.943  51.050  1.00  0.00     0.165 A 
ATOM     14  C   UNL     1       5.640  43.830  50.806  1.00  0.00     0.082 A 
ATOM     15  N   UNL     1       4.744  41.945  50.122  1.00  0.00    -0.250 N 
ATOM     16  C   UNL     1       6.326  43.275  49.705  1.00  0.00     0.149 A 
ATOM     17  N   UNL     1       5.786  42.128  49.279  1.00  0.00    -0.179 NA
ATOM     18  C   UNL     1       3.910  40.779  49.975  1.00  0.00     0.176 C 
BRANCH  12  19
ATOM     19  N   UNL     1       6.726  45.924  51.458  1.00  0.00    -0.338 N 
ATOM     20  H   UNL     1       6.649  46.401  50.567  1.00  0.00     0.168 HD
BRANCH  19  21
ATOM     21  C   UNL     1       7.819  46.321  52.260  1.00  0.00     0.058 A 
ATOM     22  C   UNL     1       7.661  47.135  53.392  1.00  0.00     0.027 A 
ATOM     23  C   UNL     1       9.141  45.952  51.913  1.00  0.00     0.076 A 
ATOM     24  C   UNL     1       8.756  47.553  54.156  1.00  0.00     0.002 A 
ATOM     25  C   UNL     1      10.239  46.373  52.681  1.00  0.00     0.021 A 
ATOM     26  C   UNL     1      10.045  47.173  53.803  1.00  0.00     0.002 A 
BRANCH  23  27
ATOM     27  C   UNL     1       9.397  45.136  50.762  1.00  0.00     0.101 C 
ATOM     28  N   UNL     1       9.594  44.513  49.802  1.00  0.00    -0.192 NA
ENDBRANCH  23  27
ENDBRANCH  19  21
ENDBRANCH  12  19
ENDBRANCH   7   9
ENDBRANCH   1   7
TORSDOF 9
ENDMDL
MODEL 18
REMARK VINA RESULT:    -7.213      1.813      5.091
REMARK INTER + INTRA:         -12.521
REMARK INTER:                 -10.947
REMARK INTRA:                  -1.574
REMARK UNBOUND:                -1.514
REMARK SMILES CCOCCCNc1nc(Nc2ccccc2C#N)c2cnn(C)c2n1
REMARK SMILES IDX 6 1 5 2 4 3 3 4 2 5 1 6 7 7 8 9 9 10 26 11 10 12 25 13 20 14
REMARK SMILES IDX 23 15 21 16 22 17 24 18 11 19 12 21 13 22 17 23 14 24 16 25
REMARK SMILES IDX 15 26 18 27 19 28
REMARK H PARENT 7 8 11 20
ROOT
ATOM      1  C   UNL     1       7.267  42.633  49.422  1.00  0.00     0.118 C 
ENDROOT
BRANCH   1   2
ATOM      2  C   UNL     1       6.502  41.466  50.053  1.00  0.00     0.050 C 
BRANCH   2   3
ATOM      3  C   UNL     1       4.987  41.578  49.923  1.00  0.00     0.162 C 
BRANCH   3   4
ATOM      4  O   UNL     1       4.374  41.155  51.138  1.00  0.00    -0.382 OA
BRANCH   4   5
ATOM      5  C   UNL     1       3.875  42.259  51.891  1.00  0.00     0.156 C 
ATOM      6  C   UNL     1       2.527  42.655  51.325  1.00  0.00     0.035 C 
ENDBRANCH   4   5
ENDBRANCH   3   4
ENDBRANCH   2   3
ENDBRANCH   1   2
BRANCH   1   7
ATOM      7  N   UNL     1       6.495  43.862  49.348  1.00  0.00    -0.354 N 
ATOM      8  H   UNL     1       5.505  43.757  49.160  1.00  0.00     0.163 HD
BRANCH   7   9
ATOM      9  C   UNL     1       6.661  44.805  50.344  1.00  0.00     0.226 A 
ATOM     10  N   UNL     1       5.581  45.289  50.986  1.00  0.00    -0.195 NA
ATOM     11  N   UNL     1       7.928  45.169  50.571  1.00  0.00    -0.193 NA
ATOM     12  C   UNL     1       5.706  46.216  51.971  1.00  0.00     0.147 A 
ATOM     13  C   UNL     1       8.038  46.087  51.541  1.00  0.00     0.165 A 
ATOM     14  C   UNL     1       7.005  46.649  52.266  1.00  0.00     0.082 A 
ATOM     15  N   UNL     1       9.187  46.658  52.016  1.00  0.00    -0.250 N 
ATOM     16  C   UNL     1       7.644  47.551  53.142  1.00  0.00     0.149 A 
ATOM     17  N   UNL     1       8.974  47.567  52.996  1.00  0.00    -0.179 NA
ATOM     18  C   UNL     1      10.535  46.388  51.582  1.00  0.00     0.176 C 
BRANCH  12  19
ATOM     19  N   UNL     1       4.588  46.746  52.635  1.00  0.00    -0.338 N 
ATOM     20  H   UNL     1       4.636  47.752  52.741  1.00  0.00     0.168 HD
BRANCH  19  21
ATOM     21  C   UNL     1       3.450  46.134  53.206  1.00  0.00     0.058 A 
ATOM     22  C   UNL     1       2.182  46.204  52.609  1.00  0.00     0.027 A 
ATOM     23  C   UNL     1       3.538  45.466  54.451  1.00  0.00     0.076 A 
ATOM     24  C   UNL     1       1.055  45.627  53.205  1.00  0.00     0.002 A 
ATOM     25  C   UNL     1       2.405  44.888  55.048  1.00  0.00     0.021 A 
ATOM     26  C   UNL     1       1.165  44.969  54.423  1.00  0.00     0.002 A 
BRANCH  23  27
ATOM     27  C   UNL     1       4.790  45.361  55.141  1.00  0.00     0.101 C 
ATOM     28  N   UNL     1       5.787  45.239  55.724  1.00  0.00    -0.192 NA
ENDBRANCH  23  27
ENDBRANCH  19  21
ENDBRANCH  12  19
ENDBRANCH   7   9
ENDBRANCH   1   7
TORSDOF 9
ENDMDL
MODEL 19
REMARK VINA RESULT:    -7.211      2.710      6.580
REMARK INTER + INTRA:         -12.518
REMARK INTER:                 -11.519
REMARK INTRA:                  -1.000
REMARK UNBOUND:                -1.514
REMARK SMILES CCOCCCNc1nc(Nc2ccccc2C#N)c2cnn(C)c2n1
REMARK SMILES IDX 6 1 5 2 4 3 3 4 2 5 1 6 7 7 8 9 9 10 26 11 10 12 25 13 20 14
REMARK SMILES IDX 23 15 21 16 22 17 24 18 11 19 12 21 13 22 17 23 14 24 16 25
REMARK SMILES IDX 15 26 18 27 19 28
REMARK H PARENT 7 8 11 20
ROOT
ATOM      1  C   UNL     1       5.252  47.375  53.737  1.00  0.00     0.118 C 
ENDROOT
BRANCH   1   2
ATOM      2  C   UNL     1       6.317  46.749  54.643  1.00  0.00     0.050 C 
BRANCH   2   3
ATOM      3  C   UNL     1       7.713  46.724  54.030  1.00  0.00     0.162 C 
BRANCH   3   4
ATOM      4  O   UNL     1       7.930  47.926  53.295  1.00  0.00    -0.382 OA
BRANCH   4   5
ATOM      5  C   UNL     1       8.660  47.688  52.093  1.00  0.00     0.156 C 
ATOM      6  C   UNL     1       9.827  46.778  52.416  1.00  0.00     0.035 C 
ENDBRANCH   4   5
ENDBRANCH   3   4
ENDBRANCH   2   3
ENDBRANCH   1   2
BRANCH   1   7
ATOM      7  N   UNL     1       5.274  46.865  52.376  1.00  0.00    -0.354 N 
ATOM      8  H   UNL     1       6.125  47.026  51.853  1.00  0.00     0.163 HD
BRANCH   7   9
ATOM      9  C   UNL     1       4.853  45.568  52.153  1.00  0.00     0.226 A 
ATOM     10  N   UNL     1       3.789  45.090  52.826  1.00  0.00    -0.195 NA
ATOM     11  N   UNL     1       5.581  44.883  51.264  1.00  0.00    -0.193 NA
ATOM     12  C   UNL     1       3.347  43.821  52.632  1.00  0.00     0.147 A 
ATOM     13  C   UNL     1       5.138  43.631  51.084  1.00  0.00     0.165 A 
ATOM     14  C   UNL     1       4.061  43.039  51.715  1.00  0.00     0.082 A 
ATOM     15  N   UNL     1       5.653  42.682  50.245  1.00  0.00    -0.250 N 
ATOM     16  C   UNL     1       4.024  41.731  51.188  1.00  0.00     0.149 A 
ATOM     17  N   UNL     1       4.992  41.502  50.294  1.00  0.00    -0.179 NA
ATOM     18  C   UNL     1       6.782  42.825  49.361  1.00  0.00     0.176 C 
BRANCH  12  19
ATOM     19  N   UNL     1       2.253  43.302  53.343  1.00  0.00    -0.338 N 
ATOM     20  H   UNL     1       2.063  42.332  53.117  1.00  0.00     0.168 HD
BRANCH  19  21
ATOM     21  C   UNL     1       1.361  43.889  54.267  1.00  0.00     0.058 A 
ATOM     22  C   UNL     1       1.802  44.713  55.315  1.00  0.00     0.027 A 
ATOM     23  C   UNL     1      -0.027  43.618  54.204  1.00  0.00     0.076 A 
ATOM     24  C   UNL     1       0.912  45.258  56.247  1.00  0.00     0.002 A 
ATOM     25  C   UNL     1      -0.919  44.166  55.141  1.00  0.00     0.021 A 
ATOM     26  C   UNL     1      -0.447  44.986  56.162  1.00  0.00     0.002 A 
BRANCH  23  27
ATOM     27  C   UNL     1      -0.564  42.773  53.177  1.00  0.00     0.101 C 
ATOM     28  N   UNL     1      -0.964  42.057  52.355  1.00  0.00    -0.192 NA
ENDBRANCH  23  27
ENDBRANCH  19  21
ENDBRANCH  12  19
ENDBRANCH   7   9
ENDBRANCH   1   7
TORSDOF 9
ENDMDL
MODEL 20
REMARK VINA RESULT:    -7.159      2.414      6.260
REMARK INTER + INTRA:         -12.439
REMARK INTER:                 -11.242
REMARK INTRA:                  -1.197
REMARK UNBOUND:                -1.514
REMARK SMILES CCOCCCNc1nc(Nc2ccccc2C#N)c2cnn(C)c2n1
REMARK SMILES IDX 6 1 5 2 4 3 3 4 2 5 1 6 7 7 8 9 9 10 26 11 10 12 25 13 20 14
REMARK SMILES IDX 23 15 21 16 22 17 24 18 11 19 12 21 13 22 17 23 14 24 16 25
REMARK SMILES IDX 15 26 18 27 19 28
REMARK H PARENT 7 8 11 20
ROOT
ATOM      1  C   UNL     1       4.816  47.227  53.617  1.00  0.00     0.118 C 
ENDROOT
BRANCH   1   2
ATOM      2  C   UNL     1       5.802  46.819  54.716  1.00  0.00     0.050 C 
BRANCH   2   3
ATOM      3  C   UNL     1       7.242  46.680  54.234  1.00  0.00     0.162 C 
BRANCH   3   4
ATOM      4  O   UNL     1       7.632  47.871  53.554  1.00  0.00    -0.382 OA
BRANCH   4   5
ATOM      5  C   UNL     1       8.693  47.630  52.632  1.00  0.00     0.156 C 
ATOM      6  C   UNL     1       9.888  47.109  53.403  1.00  0.00     0.035 C 
ENDBRANCH   4   5
ENDBRANCH   3   4
ENDBRANCH   2   3
ENDBRANCH   1   2
BRANCH   1   7
ATOM      7  N   UNL     1       5.159  46.704  52.305  1.00  0.00    -0.354 N 
ATOM      8  H   UNL     1       6.094  46.909  51.973  1.00  0.00     0.163 HD
BRANCH   7   9
ATOM      9  C   UNL     1       4.869  45.382  52.026  1.00  0.00     0.226 A 
ATOM     10  N   UNL     1       3.853  44.776  52.669  1.00  0.00    -0.195 NA
ATOM     11  N   UNL     1       5.667  44.808  51.119  1.00  0.00    -0.193 NA
ATOM     12  C   UNL     1       3.538  43.479  52.421  1.00  0.00     0.147 A 
ATOM     13  C   UNL     1       5.349  43.528  50.885  1.00  0.00     0.165 A 
ATOM     14  C   UNL     1       4.331  42.808  51.481  1.00  0.00     0.082 A 
ATOM     15  N   UNL     1       5.960  42.667  50.014  1.00  0.00    -0.250 N 
ATOM     16  C   UNL     1       4.426  41.525  50.903  1.00  0.00     0.149 A 
ATOM     17  N   UNL     1       5.418  41.427  50.010  1.00  0.00    -0.179 NA
ATOM     18  C   UNL     1       7.075  42.955  49.148  1.00  0.00     0.176 C 
BRANCH  12  19
ATOM     19  N   UNL     1       2.496  42.827  53.100  1.00  0.00    -0.338 N 
ATOM     20  H   UNL     1       2.817  42.034  53.642  1.00  0.00     0.168 HD
BRANCH  19  21
ATOM     21  C   UNL     1       1.101  43.051  53.129  1.00  0.00     0.058 A 
ATOM     22  C   UNL     1       0.228  42.460  52.204  1.00  0.00     0.027 A 
ATOM     23  C   UNL     1       0.532  43.939  54.074  1.00  0.00     0.076 A 
ATOM     24  C   UNL     1      -1.147  42.720  52.220  1.00  0.00     0.002 A 
ATOM     25  C   UNL     1      -0.848  44.199  54.087  1.00  0.00     0.021 A 
ATOM     26  C   UNL     1      -1.686  43.588  53.160  1.00  0.00     0.002 A 
BRANCH  23  27
ATOM     27  C   UNL     1       1.353  44.600  55.046  1.00  0.00     0.101 C 
ATOM     28  N   UNL     1       1.983  45.128  55.866  1.00  0.00    -0.192 NA
ENDBRANCH  23  27
ENDBRANCH  19  21
ENDBRANCH  12  19
ENDBRANCH   7   9
ENDBRANCH   1   7
TORSDOF 9
ENDMDL
