MODEL 1
REMARK VINA RESULT:    -8.463      0.000      0.000
REMARK INTER + INTRA:         -12.964
REMARK INTER:                 -11.926
REMARK INTRA:                  -1.038
REMARK UNBOUND:                -1.038
REMARK SMILES COc1ccc(Nc2nc(NC[C@H]3CCCO3)nc3c2cnn3C)c(OC)c1
REMARK SMILES IDX 8 1 9 2 10 3 18 4 19 5 20 6 21 7 22 8 23 9 24 10 7 11 6 13
REMARK SMILES IDX 3 14 4 15 28 16 5 17 25 18 2 19 1 20 26 21 27 22 11 23 12 25
REMARK SMILES IDX 13 26 14 27 17 28 15 29 16 30
REMARK H PARENT 7 12 11 24
ROOT
ATOM      1  C   UNL     1       3.951  43.881  52.579  1.00  0.00     0.147 A 
ATOM      2  N   UNL     1       4.465  45.137  52.643  1.00  0.00    -0.195 NA
ATOM      3  C   UNL     1       5.404  45.546  51.771  1.00  0.00     0.226 A 
ATOM      4  N   UNL     1       5.921  44.812  50.775  1.00  0.00    -0.193 NA
ATOM      5  C   UNL     1       5.407  43.574  50.728  1.00  0.00     0.165 A 
ATOM      6  C   UNL     1       4.445  43.049  51.568  1.00  0.00     0.082 A 
ATOM      7  C   UNL     1       4.254  41.733  51.098  1.00  0.00     0.149 A 
ATOM      8  N   UNL     1       5.026  41.436  50.045  1.00  0.00    -0.179 NA
ATOM      9  N   UNL     1       5.724  42.578  49.846  1.00  0.00    -0.250 N 
ATOM     10  C   UNL     1       6.691  42.641  48.779  1.00  0.00     0.176 C 
ENDROOT
BRANCH   1  11
ATOM     11  N   UNL     1       2.971  43.432  53.468  1.00  0.00    -0.336 N 
ATOM     12  H   UNL     1       3.317  43.048  54.341  1.00  0.00     0.168 HD
BRANCH  11  13
ATOM     13  C   UNL     1       1.562  43.389  53.422  1.00  0.00     0.083 A 
ATOM     14  C   UNL     1      -1.264  43.372  53.444  1.00  0.00     0.122 A 
ATOM     15  C   UNL     1      -0.562  42.691  52.453  1.00  0.00     0.049 A 
ATOM     16  C   UNL     1      -0.556  44.066  54.429  1.00  0.00     0.095 A 
ATOM     17  C   UNL     1       0.838  42.702  52.445  1.00  0.00     0.034 A 
ATOM     18  C   UNL     1       0.842  44.080  54.426  1.00  0.00     0.146 A 
BRANCH  14  19
ATOM     19  O   UNL     1      -2.625  43.440  53.563  1.00  0.00    -0.497 OA
ATOM     20  C   UNL     1      -3.136  44.171  54.671  1.00  0.00     0.278 C 
ENDBRANCH  14  19
BRANCH  18  21
ATOM     21  O   UNL     1       1.626  44.736  55.353  1.00  0.00    -0.494 OA
ATOM     22  C   UNL     1       0.953  45.333  56.455  1.00  0.00     0.278 C 
ENDBRANCH  18  21
ENDBRANCH  11  13
ENDBRANCH   1  11
BRANCH   3  23
ATOM     23  N   UNL     1       5.844  46.850  51.961  1.00  0.00    -0.351 N 
ATOM     24  H   UNL     1       6.267  47.132  51.079  1.00  0.00     0.163 HD
BRANCH  23  25
ATOM     25  C   UNL     1       6.744  47.017  53.096  1.00  0.00     0.148 C 
BRANCH  25  26
ATOM     26  C   UNL     1       8.013  47.760  52.634  1.00  0.00     0.137 C 
ATOM     27  C   UNL     1       9.118  47.741  53.681  1.00  0.00     0.036 C 
ATOM     28  O   UNL     1       8.547  47.093  51.466  1.00  0.00    -0.376 OA
ATOM     29  C   UNL     1       9.915  46.516  53.305  1.00  0.00     0.031 C 
ATOM     30  C   UNL     1       9.829  46.540  51.796  1.00  0.00     0.160 C 
ENDBRANCH  25  26
ENDBRANCH  23  25
ENDBRANCH   3  23
TORSDOF 7
ENDMDL
MODEL 2
REMARK VINA RESULT:    -8.409      1.916      7.418
REMARK INTER + INTRA:         -12.889
REMARK INTER:                 -11.983
REMARK INTRA:                  -0.905
REMARK UNBOUND:                -1.038
REMARK SMILES COc1ccc(Nc2nc(NC[C@H]3CCCO3)nc3c2cnn3C)c(OC)c1
REMARK SMILES IDX 8 1 9 2 10 3 18 4 19 5 20 6 21 7 22 8 23 9 24 10 7 11 6 13
REMARK SMILES IDX 3 14 4 15 28 16 5 17 25 18 2 19 1 20 26 21 27 22 11 23 12 25
REMARK SMILES IDX 13 26 14 27 17 28 15 29 16 30
REMARK H PARENT 7 12 11 24
ROOT
ATOM      1  C   UNL     1       6.387  45.147  51.424  1.00  0.00     0.147 A 
ATOM      2  N   UNL     1       5.333  44.872  52.237  1.00  0.00    -0.195 NA
ATOM      3  C   UNL     1       4.565  43.787  52.032  1.00  0.00     0.226 A 
ATOM      4  N   UNL     1       4.734  42.881  51.059  1.00  0.00    -0.193 NA
ATOM      5  C   UNL     1       5.775  43.167  50.263  1.00  0.00     0.165 A 
ATOM      6  C   UNL     1       6.626  44.248  50.378  1.00  0.00     0.082 A 
ATOM      7  C   UNL     1       7.539  44.087  49.315  1.00  0.00     0.149 A 
ATOM      8  N   UNL     1       7.297  42.995  48.579  1.00  0.00    -0.179 NA
ATOM      9  N   UNL     1       6.209  42.457  49.178  1.00  0.00    -0.250 N 
ATOM     10  C   UNL     1       5.633  41.247  48.647  1.00  0.00     0.176 C 
ENDROOT
BRANCH   1  11
ATOM     11  N   UNL     1       7.205  46.263  51.619  1.00  0.00    -0.336 N 
ATOM     12  H   UNL     1       7.216  46.933  50.857  1.00  0.00     0.168 HD
BRANCH  11  13
ATOM     13  C   UNL     1       8.050  46.679  52.668  1.00  0.00     0.083 A 
ATOM     14  C   UNL     1       9.639  47.580  54.825  1.00  0.00     0.122 A 
ATOM     15  C   UNL     1      10.204  46.827  53.798  1.00  0.00     0.049 A 
ATOM     16  C   UNL     1       8.276  47.886  54.779  1.00  0.00     0.095 A 
ATOM     17  C   UNL     1       9.413  46.383  52.732  1.00  0.00     0.034 A 
ATOM     18  C   UNL     1       7.482  47.444  53.716  1.00  0.00     0.146 A 
BRANCH  14  19
ATOM     19  O   UNL     1      10.299  48.073  55.918  1.00  0.00    -0.497 OA
ATOM     20  C   UNL     1      11.351  47.275  56.445  1.00  0.00     0.278 C 
ENDBRANCH  14  19
BRANCH  18  21
ATOM     21  O   UNL     1       6.132  47.694  53.583  1.00  0.00    -0.494 OA
ATOM     22  C   UNL     1       5.285  47.207  54.617  1.00  0.00     0.278 C 
ENDBRANCH  18  21
ENDBRANCH  11  13
ENDBRANCH   1  11
BRANCH   3  23
ATOM     23  N   UNL     1       3.519  43.638  52.934  1.00  0.00    -0.351 N 
ATOM     24  H   UNL     1       3.537  42.662  53.222  1.00  0.00     0.163 HD
BRANCH  23  25
ATOM     25  C   UNL     1       2.220  44.048  52.414  1.00  0.00     0.148 C 
BRANCH  25  26
ATOM     26  C   UNL     1       1.674  45.208  53.270  1.00  0.00     0.137 C 
ATOM     27  C   UNL     1       0.224  44.999  53.685  1.00  0.00     0.036 C 
ATOM     28  O   UNL     1       2.441  45.287  54.495  1.00  0.00    -0.376 OA
ATOM     29  C   UNL     1       0.354  44.310  55.021  1.00  0.00     0.031 C 
ATOM     30  C   UNL     1       1.578  44.981  55.600  1.00  0.00     0.160 C 
ENDBRANCH  25  26
ENDBRANCH  23  25
ENDBRANCH   3  23
TORSDOF 7
ENDMDL
MODEL 3
REMARK VINA RESULT:    -8.401      1.656      2.418
REMARK INTER + INTRA:         -12.877
REMARK INTER:                 -11.860
REMARK INTRA:                  -1.017
REMARK UNBOUND:                -1.038
REMARK SMILES COc1ccc(Nc2nc(NC[C@H]3CCCO3)nc3c2cnn3C)c(OC)c1
REMARK SMILES IDX 8 1 9 2 10 3 18 4 19 5 20 6 21 7 22 8 23 9 24 10 7 11 6 13
REMARK SMILES IDX 3 14 4 15 28 16 5 17 25 18 2 19 1 20 26 21 27 22 11 23 12 25
REMARK SMILES IDX 13 26 14 27 17 28 15 29 16 30
REMARK H PARENT 7 12 11 24
ROOT
ATOM      1  C   UNL     1       3.622  44.779  51.863  1.00  0.00     0.147 A 
ATOM      2  N   UNL     1       4.582  45.739  51.904  1.00  0.00    -0.195 NA
ATOM      3  C   UNL     1       5.829  45.492  51.464  1.00  0.00     0.226 A 
ATOM      4  N   UNL     1       6.261  44.332  50.948  1.00  0.00    -0.193 NA
ATOM      5  C   UNL     1       5.304  43.393  50.918  1.00  0.00     0.165 A 
ATOM      6  C   UNL     1       3.998  43.535  51.341  1.00  0.00     0.082 A 
ATOM      7  C   UNL     1       3.412  42.276  51.093  1.00  0.00     0.149 A 
ATOM      8  N   UNL     1       4.269  41.399  50.554  1.00  0.00    -0.179 NA
ATOM      9  N   UNL     1       5.418  42.108  50.465  1.00  0.00    -0.250 N 
ATOM     10  C   UNL     1       6.600  41.479  49.931  1.00  0.00     0.176 C 
ENDROOT
BRANCH   1  11
ATOM     11  N   UNL     1       2.317  45.011  52.307  1.00  0.00    -0.336 N 
ATOM     12  H   UNL     1       1.644  45.235  51.583  1.00  0.00     0.168 HD
BRANCH  11  13
ATOM     13  C   UNL     1       1.708  45.009  53.579  1.00  0.00     0.083 A 
ATOM     14  C   UNL     1       0.369  44.979  56.067  1.00  0.00     0.122 A 
ATOM     15  C   UNL     1       1.724  45.293  55.999  1.00  0.00     0.049 A 
ATOM     16  C   UNL     1      -0.324  44.679  54.891  1.00  0.00     0.095 A 
ATOM     17  C   UNL     1       2.384  45.307  54.765  1.00  0.00     0.034 A 
ATOM     18  C   UNL     1       0.331  44.691  53.656  1.00  0.00     0.146 A 
BRANCH  14  19
ATOM     19  O   UNL     1      -0.390  44.931  57.205  1.00  0.00    -0.497 OA
ATOM     20  C   UNL     1      -1.763  44.595  57.047  1.00  0.00     0.278 C 
ENDBRANCH  14  19
BRANCH  18  21
ATOM     21  O   UNL     1      -0.266  44.407  52.444  1.00  0.00    -0.494 OA
ATOM     22  C   UNL     1      -1.332  45.256  52.039  1.00  0.00     0.278 C 
ENDBRANCH  18  21
ENDBRANCH  11  13
ENDBRANCH   1  11
BRANCH   3  23
ATOM     23  N   UNL     1       6.708  46.562  51.576  1.00  0.00    -0.351 N 
ATOM     24  H   UNL     1       7.629  46.190  51.357  1.00  0.00     0.163 HD
BRANCH  23  25
ATOM     25  C   UNL     1       6.664  47.237  52.868  1.00  0.00     0.148 C 
BRANCH  25  26
ATOM     26  C   UNL     1       7.653  46.552  53.832  1.00  0.00     0.137 C 
ATOM     27  C   UNL     1       8.937  46.114  53.140  1.00  0.00     0.036 C 
ATOM     28  O   UNL     1       8.044  47.500  54.853  1.00  0.00    -0.376 OA
ATOM     29  C   UNL     1       9.846  47.302  53.337  1.00  0.00     0.031 C 
ATOM     30  C   UNL     1       9.445  47.777  54.715  1.00  0.00     0.160 C 
ENDBRANCH  25  26
ENDBRANCH  23  25
ENDBRANCH   3  23
TORSDOF 7
ENDMDL
MODEL 4
REMARK VINA RESULT:    -8.364      1.868      7.409
REMARK INTER + INTRA:         -12.826
REMARK INTER:                 -11.835
REMARK INTRA:                  -0.991
REMARK UNBOUND:                -1.038
REMARK SMILES COc1ccc(Nc2nc(NC[C@H]3CCCO3)nc3c2cnn3C)c(OC)c1
REMARK SMILES IDX 8 1 9 2 10 3 18 4 19 5 20 6 21 7 22 8 23 9 24 10 7 11 6 13
REMARK SMILES IDX 3 14 4 15 28 16 5 17 25 18 2 19 1 20 26 21 27 22 11 23 12 25
REMARK SMILES IDX 13 26 14 27 17 28 15 29 16 30
REMARK H PARENT 7 12 11 24
ROOT
ATOM      1  C   UNL     1       6.176  44.908  51.516  1.00  0.00     0.147 A 
ATOM      2  N   UNL     1       5.204  44.646  52.429  1.00  0.00    -0.195 NA
ATOM      3  C   UNL     1       4.417  43.562  52.311  1.00  0.00     0.226 A 
ATOM      4  N   UNL     1       4.488  42.645  51.337  1.00  0.00    -0.193 NA
ATOM      5  C   UNL     1       5.448  42.918  50.442  1.00  0.00     0.165 A 
ATOM      6  C   UNL     1       6.311  43.996  50.462  1.00  0.00     0.082 A 
ATOM      7  C   UNL     1       7.117  43.819  49.318  1.00  0.00     0.149 A 
ATOM      8  N   UNL     1       6.801  42.720  48.621  1.00  0.00    -0.179 NA
ATOM      9  N   UNL     1       5.774  42.194  49.328  1.00  0.00    -0.250 N 
ATOM     10  C   UNL     1       5.146  40.981  48.869  1.00  0.00     0.176 C 
ENDROOT
BRANCH   1  11
ATOM     11  N   UNL     1       7.013  46.022  51.619  1.00  0.00    -0.336 N 
ATOM     12  H   UNL     1       7.035  46.626  50.804  1.00  0.00     0.168 HD
BRANCH  11  13
ATOM     13  C   UNL     1       7.864  46.510  52.631  1.00  0.00     0.083 A 
ATOM     14  C   UNL     1       9.466  47.557  54.711  1.00  0.00     0.122 A 
ATOM     15  C   UNL     1      10.026  46.742  53.731  1.00  0.00     0.049 A 
ATOM     16  C   UNL     1       8.101  47.853  54.656  1.00  0.00     0.095 A 
ATOM     17  C   UNL     1       9.230  46.225  52.702  1.00  0.00     0.034 A 
ATOM     18  C   UNL     1       7.301  47.339  53.631  1.00  0.00     0.146 A 
BRANCH  14  19
ATOM     19  O   UNL     1      10.132  48.124  55.763  1.00  0.00    -0.497 OA
ATOM     20  C   UNL     1      11.200  47.372  56.325  1.00  0.00     0.278 C 
ENDBRANCH  14  19
BRANCH  18  21
ATOM     21  O   UNL     1       5.948  47.573  53.495  1.00  0.00    -0.494 OA
ATOM     22  C   UNL     1       5.146  47.403  54.657  1.00  0.00     0.278 C 
ENDBRANCH  18  21
ENDBRANCH  11  13
ENDBRANCH   1  11
BRANCH   3  23
ATOM     23  N   UNL     1       3.461  43.428  53.311  1.00  0.00    -0.351 N 
ATOM     24  H   UNL     1       2.830  42.693  52.996  1.00  0.00     0.163 HD
BRANCH  23  25
ATOM     25  C   UNL     1       2.765  44.665  53.642  1.00  0.00     0.148 C 
BRANCH  25  26
ATOM     26  C   UNL     1       1.244  44.433  53.546  1.00  0.00     0.137 C 
ATOM     27  C   UNL     1       0.600  45.226  52.415  1.00  0.00     0.036 C 
ATOM     28  O   UNL     1       1.000  43.037  53.254  1.00  0.00    -0.376 OA
ATOM     29  C   UNL     1       0.641  44.254  51.261  1.00  0.00     0.031 C 
ATOM     30  C   UNL     1       0.400  42.934  51.956  1.00  0.00     0.160 C 
ENDBRANCH  25  26
ENDBRANCH  23  25
ENDBRANCH   3  23
TORSDOF 7
ENDMDL
MODEL 5
REMARK VINA RESULT:    -8.360      1.114      2.134
REMARK INTER + INTRA:         -12.820
REMARK INTER:                 -12.021
REMARK INTRA:                  -0.798
REMARK UNBOUND:                -1.038
REMARK SMILES COc1ccc(Nc2nc(NC[C@H]3CCCO3)nc3c2cnn3C)c(OC)c1
REMARK SMILES IDX 8 1 9 2 10 3 18 4 19 5 20 6 21 7 22 8 23 9 24 10 7 11 6 13
REMARK SMILES IDX 3 14 4 15 28 16 5 17 25 18 2 19 1 20 26 21 27 22 11 23 12 25
REMARK SMILES IDX 13 26 14 27 17 28 15 29 16 30
REMARK H PARENT 7 12 11 24
ROOT
ATOM      1  C   UNL     1       3.651  43.866  52.678  1.00  0.00     0.147 A 
ATOM      2  N   UNL     1       4.186  45.104  52.838  1.00  0.00    -0.195 NA
ATOM      3  C   UNL     1       5.212  45.520  52.073  1.00  0.00     0.226 A 
ATOM      4  N   UNL     1       5.803  44.809  51.103  1.00  0.00    -0.193 NA
ATOM      5  C   UNL     1       5.267  43.588  50.960  1.00  0.00     0.165 A 
ATOM      6  C   UNL     1       4.219  43.058  51.685  1.00  0.00     0.082 A 
ATOM      7  C   UNL     1       4.042  41.765  51.149  1.00  0.00     0.149 A 
ATOM      8  N   UNL     1       4.903  41.487  50.162  1.00  0.00    -0.179 NA
ATOM      9  N   UNL     1       5.643  42.616  50.073  1.00  0.00    -0.250 N 
ATOM     10  C   UNL     1       6.707  42.692  49.104  1.00  0.00     0.176 C 
ENDROOT
BRANCH   1  11
ATOM     11  N   UNL     1       2.581  43.412  53.454  1.00  0.00    -0.336 N 
ATOM     12  H   UNL     1       2.407  42.413  53.414  1.00  0.00     0.168 HD
BRANCH  11  13
ATOM     13  C   UNL     1       1.655  44.051  54.304  1.00  0.00     0.083 A 
ATOM     14  C   UNL     1      -0.299  45.284  55.930  1.00  0.00     0.122 A 
ATOM     15  C   UNL     1       1.056  45.486  56.180  1.00  0.00     0.049 A 
ATOM     16  C   UNL     1      -0.684  44.465  54.866  1.00  0.00     0.095 A 
ATOM     17  C   UNL     1       2.021  44.873  55.372  1.00  0.00     0.034 A 
ATOM     18  C   UNL     1       0.276  43.850  54.056  1.00  0.00     0.146 A 
BRANCH  14  19
ATOM     19  O   UNL     1      -1.337  45.822  56.641  1.00  0.00    -0.497 OA
ATOM     20  C   UNL     1      -1.028  46.912  57.502  1.00  0.00     0.278 C 
ENDBRANCH  14  19
BRANCH  18  21
ATOM     21  O   UNL     1      -0.005  43.026  52.986  1.00  0.00    -0.494 OA
ATOM     22  C   UNL     1      -1.321  43.097  52.449  1.00  0.00     0.278 C 
ENDBRANCH  18  21
ENDBRANCH  11  13
ENDBRANCH   1  11
BRANCH   3  23
ATOM     23  N   UNL     1       5.663  46.804  52.354  1.00  0.00    -0.351 N 
ATOM     24  H   UNL     1       5.904  47.217  51.456  1.00  0.00     0.163 HD
BRANCH  23  25
ATOM     25  C   UNL     1       6.761  46.855  53.312  1.00  0.00     0.148 C 
BRANCH  25  26
ATOM     26  C   UNL     1       7.918  47.680  52.714  1.00  0.00     0.137 C 
ATOM     27  C   UNL     1       9.049  47.908  53.708  1.00  0.00     0.036 C 
ATOM     28  O   UNL     1       8.492  46.947  51.605  1.00  0.00    -0.376 OA
ATOM     29  C   UNL     1       9.974  46.747  53.435  1.00  0.00     0.031 C 
ATOM     30  C   UNL     1       9.839  46.586  51.938  1.00  0.00     0.160 C 
ENDBRANCH  25  26
ENDBRANCH  23  25
ENDBRANCH   3  23
TORSDOF 7
ENDMDL
MODEL 6
REMARK VINA RESULT:    -8.359      2.446      7.055
REMARK INTER + INTRA:         -12.818
REMARK INTER:                 -11.517
REMARK INTRA:                  -1.301
REMARK UNBOUND:                -1.038
REMARK SMILES COc1ccc(Nc2nc(NC[C@H]3CCCO3)nc3c2cnn3C)c(OC)c1
REMARK SMILES IDX 8 1 9 2 10 3 18 4 19 5 20 6 21 7 22 8 23 9 24 10 7 11 6 13
REMARK SMILES IDX 3 14 4 15 28 16 5 17 25 18 2 19 1 20 26 21 27 22 11 23 12 25
REMARK SMILES IDX 13 26 14 27 17 28 15 29 16 30
REMARK H PARENT 7 12 11 24
ROOT
ATOM      1  C   UNL     1       4.104  44.796  52.090  1.00  0.00     0.147 A 
ATOM      2  N   UNL     1       4.503  43.615  51.550  1.00  0.00    -0.195 NA
ATOM      3  C   UNL     1       3.736  42.514  51.649  1.00  0.00     0.226 A 
ATOM      4  N   UNL     1       2.541  42.443  52.252  1.00  0.00    -0.193 NA
ATOM      5  C   UNL     1       2.163  43.615  52.783  1.00  0.00     0.165 A 
ATOM      6  C   UNL     1       2.866  44.802  52.743  1.00  0.00     0.082 A 
ATOM      7  C   UNL     1       2.043  45.718  53.433  1.00  0.00     0.149 A 
ATOM      8  N   UNL     1       0.906  45.166  53.877  1.00  0.00    -0.179 NA
ATOM      9  N   UNL     1       1.011  43.880  53.471  1.00  0.00    -0.250 N 
ATOM     10  C   UNL     1      -0.045  42.950  53.784  1.00  0.00     0.176 C 
ENDROOT
BRANCH   1  11
ATOM     11  N   UNL     1       4.877  45.956  51.996  1.00  0.00    -0.336 N 
ATOM     12  H   UNL     1       4.398  46.770  51.626  1.00  0.00     0.168 HD
BRANCH  11  13
ATOM     13  C   UNL     1       6.220  46.258  52.305  1.00  0.00     0.083 A 
ATOM     14  C   UNL     1       8.871  46.886  53.053  1.00  0.00     0.122 A 
ATOM     15  C   UNL     1       8.562  46.598  51.726  1.00  0.00     0.049 A 
ATOM     16  C   UNL     1       7.856  46.862  54.013  1.00  0.00     0.095 A 
ATOM     17  C   UNL     1       7.247  46.287  51.360  1.00  0.00     0.034 A 
ATOM     18  C   UNL     1       6.541  46.551  53.652  1.00  0.00     0.146 A 
BRANCH  14  19
ATOM     19  O   UNL     1      10.110  47.204  53.539  1.00  0.00    -0.497 OA
ATOM     20  C   UNL     1      10.238  47.307  54.952  1.00  0.00     0.278 C 
ENDBRANCH  14  19
BRANCH  18  21
ATOM     21  O   UNL     1       5.475  46.501  54.526  1.00  0.00    -0.494 OA
ATOM     22  C   UNL     1       5.428  45.394  55.418  1.00  0.00     0.278 C 
ENDBRANCH  18  21
ENDBRANCH  11  13
ENDBRANCH   1  11
BRANCH   3  23
ATOM     23  N   UNL     1       4.274  41.376  51.059  1.00  0.00    -0.351 N 
ATOM     24  H   UNL     1       5.218  41.291  51.430  1.00  0.00     0.163 HD
BRANCH  23  25
ATOM     25  C   UNL     1       4.240  41.386  49.601  1.00  0.00     0.148 C 
BRANCH  25  26
ATOM     26  C   UNL     1       5.666  41.166  49.059  1.00  0.00     0.137 C 
ATOM     27  C   UNL     1       6.100  42.262  48.093  1.00  0.00     0.036 C 
ATOM     28  O   UNL     1       6.599  41.205  50.164  1.00  0.00    -0.376 OA
ATOM     29  C   UNL     1       6.790  43.252  48.999  1.00  0.00     0.031 C 
ATOM     30  C   UNL     1       7.458  42.342  50.004  1.00  0.00     0.160 C 
ENDBRANCH  25  26
ENDBRANCH  23  25
ENDBRANCH   3  23
TORSDOF 7
ENDMDL
MODEL 7
REMARK VINA RESULT:    -8.334      1.735      7.377
REMARK INTER + INTRA:         -12.783
REMARK INTER:                 -11.765
REMARK INTRA:                  -1.019
REMARK UNBOUND:                -1.038
REMARK SMILES COc1ccc(Nc2nc(NC[C@H]3CCCO3)nc3c2cnn3C)c(OC)c1
REMARK SMILES IDX 8 1 9 2 10 3 18 4 19 5 20 6 21 7 22 8 23 9 24 10 7 11 6 13
REMARK SMILES IDX 3 14 4 15 28 16 5 17 25 18 2 19 1 20 26 21 27 22 11 23 12 25
REMARK SMILES IDX 13 26 14 27 17 28 15 29 16 30
REMARK H PARENT 7 12 11 24
ROOT
ATOM      1  C   UNL     1       5.322  45.561  51.207  1.00  0.00     0.147 A 
ATOM      2  N   UNL     1       4.077  45.936  51.602  1.00  0.00    -0.195 NA
ATOM      3  C   UNL     1       3.053  45.064  51.582  1.00  0.00     0.226 A 
ATOM      4  N   UNL     1       3.124  43.781  51.200  1.00  0.00    -0.193 NA
ATOM      5  C   UNL     1       4.356  43.428  50.809  1.00  0.00     0.165 A 
ATOM      6  C   UNL     1       5.476  44.234  50.787  1.00  0.00     0.082 A 
ATOM      7  C   UNL     1       6.502  43.393  50.307  1.00  0.00     0.149 A 
ATOM      8  N   UNL     1       6.079  42.151  50.043  1.00  0.00    -0.179 NA
ATOM      9  N   UNL     1       4.763  42.204  50.353  1.00  0.00    -0.250 N 
ATOM     10  C   UNL     1       3.947  41.028  50.184  1.00  0.00     0.176 C 
ENDROOT
BRANCH   1  11
ATOM     11  N   UNL     1       6.405  46.444  51.224  1.00  0.00    -0.336 N 
ATOM     12  H   UNL     1       6.409  47.143  50.490  1.00  0.00     0.168 HD
BRANCH  11  13
ATOM     13  C   UNL     1       7.534  46.583  52.058  1.00  0.00     0.083 A 
ATOM     14  C   UNL     1       9.718  46.926  53.818  1.00  0.00     0.122 A 
ATOM     15  C   UNL     1       9.904  46.337  52.570  1.00  0.00     0.049 A 
ATOM     16  C   UNL     1       8.439  47.346  54.193  1.00  0.00     0.095 A 
ATOM     17  C   UNL     1       8.819  46.169  51.701  1.00  0.00     0.034 A 
ATOM     18  C   UNL     1       7.352  47.180  53.329  1.00  0.00     0.146 A 
BRANCH  14  19
ATOM     19  O   UNL     1      10.690  47.147  54.756  1.00  0.00    -0.497 OA
ATOM     20  C   UNL     1      10.311  47.888  55.909  1.00  0.00     0.278 C 
ENDBRANCH  14  19
BRANCH  18  21
ATOM     21  O   UNL     1       6.056  47.560  53.609  1.00  0.00    -0.494 OA
ATOM     22  C   UNL     1       5.421  46.915  54.706  1.00  0.00     0.278 C 
ENDBRANCH  18  21
ENDBRANCH  11  13
ENDBRANCH   1  11
BRANCH   3  23
ATOM     23  N   UNL     1       1.837  45.588  52.003  1.00  0.00    -0.351 N 
ATOM     24  H   UNL     1       1.637  46.365  51.377  1.00  0.00     0.163 HD
BRANCH  23  25
ATOM     25  C   UNL     1       1.808  45.974  53.409  1.00  0.00     0.148 C 
BRANCH  25  26
ATOM     26  C   UNL     1       1.551  44.724  54.274  1.00  0.00     0.137 C 
ATOM     27  C   UNL     1       1.639  45.015  55.766  1.00  0.00     0.036 C 
ATOM     28  O   UNL     1       0.204  44.253  54.029  1.00  0.00    -0.376 OA
ATOM     29  C   UNL     1       0.210  45.339  56.128  1.00  0.00     0.031 C 
ATOM     30  C   UNL     1      -0.560  44.394  55.234  1.00  0.00     0.160 C 
ENDBRANCH  25  26
ENDBRANCH  23  25
ENDBRANCH   3  23
TORSDOF 7
ENDMDL
MODEL 8
REMARK VINA RESULT:    -8.262      2.660      7.099
REMARK INTER + INTRA:         -12.682
REMARK INTER:                 -11.647
REMARK INTRA:                  -1.035
REMARK UNBOUND:                -1.038
REMARK SMILES COc1ccc(Nc2nc(NC[C@H]3CCCO3)nc3c2cnn3C)c(OC)c1
REMARK SMILES IDX 8 1 9 2 10 3 18 4 19 5 20 6 21 7 22 8 23 9 24 10 7 11 6 13
REMARK SMILES IDX 3 14 4 15 28 16 5 17 25 18 2 19 1 20 26 21 27 22 11 23 12 25
REMARK SMILES IDX 13 26 14 27 17 28 15 29 16 30
REMARK H PARENT 7 12 11 24
ROOT
ATOM      1  C   UNL     1       6.892  46.179  52.340  1.00  0.00     0.147 A 
ATOM      2  N   UNL     1       5.801  46.368  53.128  1.00  0.00    -0.195 NA
ATOM      3  C   UNL     1       5.918  46.907  54.355  1.00  0.00     0.226 A 
ATOM      4  N   UNL     1       7.060  47.313  54.926  1.00  0.00    -0.193 NA
ATOM      5  C   UNL     1       8.128  47.116  54.139  1.00  0.00     0.165 A 
ATOM      6  C   UNL     1       8.127  46.573  52.870  1.00  0.00     0.082 A 
ATOM      7  C   UNL     1       9.483  46.591  52.482  1.00  0.00     0.149 A 
ATOM      8  N   UNL     1      10.289  47.102  53.421  1.00  0.00    -0.179 NA
ATOM      9  N   UNL     1       9.434  47.408  54.424  1.00  0.00    -0.250 N 
ATOM     10  C   UNL     1       9.947  47.983  55.642  1.00  0.00     0.176 C 
ENDROOT
BRANCH   1  11
ATOM     11  N   UNL     1       6.799  45.627  51.059  1.00  0.00    -0.336 N 
ATOM     12  H   UNL     1       7.133  46.218  50.306  1.00  0.00     0.168 HD
BRANCH  11  13
ATOM     13  C   UNL     1       6.324  44.396  50.563  1.00  0.00     0.083 A 
ATOM     14  C   UNL     1       5.471  41.931  49.474  1.00  0.00     0.122 A 
ATOM     15  C   UNL     1       4.758  42.530  50.510  1.00  0.00     0.049 A 
ATOM     16  C   UNL     1       6.614  42.562  48.978  1.00  0.00     0.095 A 
ATOM     17  C   UNL     1       5.184  43.751  51.047  1.00  0.00     0.034 A 
ATOM     18  C   UNL     1       7.044  43.782  49.510  1.00  0.00     0.146 A 
BRANCH  14  19
ATOM     19  O   UNL     1       5.162  40.746  48.865  1.00  0.00    -0.497 OA
ATOM     20  C   UNL     1       3.783  40.406  48.786  1.00  0.00     0.278 C 
ENDBRANCH  14  19
BRANCH  18  21
ATOM     21  O   UNL     1       8.158  44.477  49.088  1.00  0.00    -0.494 OA
ATOM     22  C   UNL     1       9.399  44.129  49.690  1.00  0.00     0.278 C 
ENDBRANCH  18  21
ENDBRANCH  11  13
ENDBRANCH   1  11
BRANCH   3  23
ATOM     23  N   UNL     1       4.722  47.032  55.050  1.00  0.00    -0.351 N 
ATOM     24  H   UNL     1       4.941  47.566  55.888  1.00  0.00     0.163 HD
BRANCH  23  25
ATOM     25  C   UNL     1       4.068  45.762  55.345  1.00  0.00     0.148 C 
BRANCH  25  26
ATOM     26  C   UNL     1       2.565  45.878  55.022  1.00  0.00     0.137 C 
ATOM     27  C   UNL     1       2.300  46.105  53.539  1.00  0.00     0.036 C 
ATOM     28  O   UNL     1       1.914  44.632  55.366  1.00  0.00    -0.376 OA
ATOM     29  C   UNL     1       2.122  44.702  53.013  1.00  0.00     0.031 C 
ATOM     30  C   UNL     1       1.418  44.024  54.165  1.00  0.00     0.160 C 
ENDBRANCH  25  26
ENDBRANCH  23  25
ENDBRANCH   3  23
TORSDOF 7
ENDMDL
MODEL 9
REMARK VINA RESULT:    -8.229      1.832      2.278
REMARK INTER + INTRA:         -12.634
REMARK INTER:                 -11.758
REMARK INTRA:                  -0.876
REMARK UNBOUND:                -1.038
REMARK SMILES COc1ccc(Nc2nc(NC[C@H]3CCCO3)nc3c2cnn3C)c(OC)c1
REMARK SMILES IDX 8 1 9 2 10 3 18 4 19 5 20 6 21 7 22 8 23 9 24 10 7 11 6 13
REMARK SMILES IDX 3 14 4 15 28 16 5 17 25 18 2 19 1 20 26 21 27 22 11 23 12 25
REMARK SMILES IDX 13 26 14 27 17 28 15 29 16 30
REMARK H PARENT 7 12 11 24
ROOT
ATOM      1  C   UNL     1       3.985  45.367  51.760  1.00  0.00     0.147 A 
ATOM      2  N   UNL     1       5.091  46.153  51.699  1.00  0.00    -0.195 NA
ATOM      3  C   UNL     1       6.262  45.668  51.249  1.00  0.00     0.226 A 
ATOM      4  N   UNL     1       6.476  44.418  50.816  1.00  0.00    -0.193 NA
ATOM      5  C   UNL     1       5.377  43.653  50.886  1.00  0.00     0.165 A 
ATOM      6  C   UNL     1       4.130  44.043  51.330  1.00  0.00     0.082 A 
ATOM      7  C   UNL     1       3.335  42.885  51.198  1.00  0.00     0.149 A 
ATOM      8  N   UNL     1       4.013  41.838  50.710  1.00  0.00    -0.179 NA
ATOM      9  N   UNL     1       5.260  42.336  50.535  1.00  0.00    -0.250 N 
ATOM     10  C   UNL     1       6.299  41.479  50.023  1.00  0.00     0.176 C 
ENDROOT
BRANCH   1  11
ATOM     11  N   UNL     1       2.755  45.848  52.217  1.00  0.00    -0.336 N 
ATOM     12  H   UNL     1       2.341  46.587  51.659  1.00  0.00     0.168 HD
BRANCH  11  13
ATOM     13  C   UNL     1       1.935  45.529  53.319  1.00  0.00     0.083 A 
ATOM     14  C   UNL     1       0.395  44.919  55.609  1.00  0.00     0.122 A 
ATOM     15  C   UNL     1      -0.134  44.735  54.334  1.00  0.00     0.049 A 
ATOM     16  C   UNL     1       1.696  45.410  55.746  1.00  0.00     0.095 A 
ATOM     17  C   UNL     1       0.632  45.038  53.202  1.00  0.00     0.034 A 
ATOM     18  C   UNL     1       2.465  45.715  54.618  1.00  0.00     0.146 A 
BRANCH  14  19
ATOM     19  O   UNL     1      -0.246  44.662  56.790  1.00  0.00    -0.497 OA
ATOM     20  C   UNL     1      -1.665  44.568  56.743  1.00  0.00     0.278 C 
ENDBRANCH  14  19
BRANCH  18  21
ATOM     21  O   UNL     1       3.755  46.204  54.653  1.00  0.00    -0.494 OA
ATOM     22  C   UNL     1       4.719  45.423  55.347  1.00  0.00     0.278 C 
ENDBRANCH  18  21
ENDBRANCH  11  13
ENDBRANCH   1  11
BRANCH   3  23
ATOM     23  N   UNL     1       7.309  46.581  51.252  1.00  0.00    -0.351 N 
ATOM     24  H   UNL     1       8.159  46.030  51.155  1.00  0.00     0.163 HD
BRANCH  23  25
ATOM     25  C   UNL     1       7.334  47.456  52.418  1.00  0.00     0.148 C 
BRANCH  25  26
ATOM     26  C   UNL     1       7.901  46.680  53.623  1.00  0.00     0.137 C 
ATOM     27  C   UNL     1       9.296  46.126  53.360  1.00  0.00     0.036 C 
ATOM     28  O   UNL     1       8.028  47.584  54.746  1.00  0.00    -0.376 OA
ATOM     29  C   UNL     1      10.194  47.224  53.873  1.00  0.00     0.031 C 
ATOM     30  C   UNL     1       9.418  47.730  55.067  1.00  0.00     0.160 C 
ENDBRANCH  25  26
ENDBRANCH  23  25
ENDBRANCH   3  23
TORSDOF 7
ENDMDL
MODEL 10
REMARK VINA RESULT:    -8.214      2.653      6.416
REMARK INTER + INTRA:         -12.614
REMARK INTER:                 -11.596
REMARK INTRA:                  -1.018
REMARK UNBOUND:                -1.038
REMARK SMILES COc1ccc(Nc2nc(NC[C@H]3CCCO3)nc3c2cnn3C)c(OC)c1
REMARK SMILES IDX 8 1 9 2 10 3 18 4 19 5 20 6 21 7 22 8 23 9 24 10 7 11 6 13
REMARK SMILES IDX 3 14 4 15 28 16 5 17 25 18 2 19 1 20 26 21 27 22 11 23 12 25
REMARK SMILES IDX 13 26 14 27 17 28 15 29 16 30
REMARK H PARENT 7 12 11 24
ROOT
ATOM      1  C   UNL     1       2.694  43.606  52.972  1.00  0.00     0.147 A 
ATOM      2  N   UNL     1       3.433  44.413  53.778  1.00  0.00    -0.195 NA
ATOM      3  C   UNL     1       2.886  45.004  54.855  1.00  0.00     0.226 A 
ATOM      4  N   UNL     1       1.614  44.875  55.258  1.00  0.00    -0.193 NA
ATOM      5  C   UNL     1       0.897  44.079  54.451  1.00  0.00     0.165 A 
ATOM      6  C   UNL     1       1.351  43.425  53.324  1.00  0.00     0.082 A 
ATOM      7  C   UNL     1       0.222  42.726  52.847  1.00  0.00     0.149 A 
ATOM      8  N   UNL     1      -0.866  42.914  53.604  1.00  0.00    -0.179 NA
ATOM      9  N   UNL     1      -0.425  43.750  54.572  1.00  0.00    -0.250 N 
ATOM     10  C   UNL     1      -1.340  44.198  55.592  1.00  0.00     0.176 C 
ENDROOT
BRANCH   1  11
ATOM     11  N   UNL     1       3.239  42.974  51.851  1.00  0.00    -0.336 N 
ATOM     12  H   UNL     1       2.682  42.222  51.461  1.00  0.00     0.168 HD
BRANCH  11  13
ATOM     13  C   UNL     1       4.431  43.150  51.118  1.00  0.00     0.083 A 
ATOM     14  C   UNL     1       6.817  43.372  49.620  1.00  0.00     0.122 A 
ATOM     15  C   UNL     1       6.310  44.473  50.306  1.00  0.00     0.049 A 
ATOM     16  C   UNL     1       6.134  42.154  49.680  1.00  0.00     0.095 A 
ATOM     17  C   UNL     1       5.127  44.359  51.047  1.00  0.00     0.034 A 
ATOM     18  C   UNL     1       4.953  42.035  50.419  1.00  0.00     0.146 A 
BRANCH  14  19
ATOM     19  O   UNL     1       7.958  43.351  48.864  1.00  0.00    -0.497 OA
ATOM     20  C   UNL     1       8.990  44.255  49.236  1.00  0.00     0.278 C 
ENDBRANCH  14  19
BRANCH  18  21
ATOM     21  O   UNL     1       4.209  40.879  50.536  1.00  0.00    -0.494 OA
ATOM     22  C   UNL     1       3.574  40.401  49.357  1.00  0.00     0.278 C 
ENDBRANCH  18  21
ENDBRANCH  11  13
ENDBRANCH   1  11
BRANCH   3  23
ATOM     23  N   UNL     1       3.756  45.809  55.581  1.00  0.00    -0.351 N 
ATOM     24  H   UNL     1       3.451  46.766  55.417  1.00  0.00     0.163 HD
BRANCH  23  25
ATOM     25  C   UNL     1       5.164  45.603  55.264  1.00  0.00     0.148 C 
BRANCH  25  26
ATOM     26  C   UNL     1       5.799  46.952  54.871  1.00  0.00     0.137 C 
ATOM     27  C   UNL     1       7.285  46.832  54.562  1.00  0.00     0.036 C 
ATOM     28  O   UNL     1       5.168  47.431  53.660  1.00  0.00    -0.376 OA
ATOM     29  C   UNL     1       7.299  46.596  53.072  1.00  0.00     0.031 C 
ATOM     30  C   UNL     1       6.144  47.453  52.609  1.00  0.00     0.160 C 
ENDBRANCH  25  26
ENDBRANCH  23  25
ENDBRANCH   3  23
TORSDOF 7
ENDMDL
MODEL 11
REMARK VINA RESULT:    -8.082      1.048      1.120
REMARK INTER + INTRA:         -12.428
REMARK INTER:                 -11.297
REMARK INTRA:                  -1.131
REMARK UNBOUND:                -1.038
REMARK SMILES COc1ccc(Nc2nc(NC[C@H]3CCCO3)nc3c2cnn3C)c(OC)c1
REMARK SMILES IDX 8 1 9 2 10 3 18 4 19 5 20 6 21 7 22 8 23 9 24 10 7 11 6 13
REMARK SMILES IDX 3 14 4 15 28 16 5 17 25 18 2 19 1 20 26 21 27 22 11 23 12 25
REMARK SMILES IDX 13 26 14 27 17 28 15 29 16 30
REMARK H PARENT 7 12 11 24
ROOT
ATOM      1  C   UNL     1       3.754  44.320  53.420  1.00  0.00     0.147 A 
ATOM      2  N   UNL     1       4.421  45.446  53.785  1.00  0.00    -0.195 NA
ATOM      3  C   UNL     1       5.501  45.864  53.100  1.00  0.00     0.226 A 
ATOM      4  N   UNL     1       6.025  45.263  52.022  1.00  0.00    -0.193 NA
ATOM      5  C   UNL     1       5.358  44.152  51.677  1.00  0.00     0.165 A 
ATOM      6  C   UNL     1       4.244  43.631  52.304  1.00  0.00     0.082 A 
ATOM      7  C   UNL     1       3.933  42.475  51.559  1.00  0.00     0.149 A 
ATOM      8  N   UNL     1       4.774  42.269  50.537  1.00  0.00    -0.179 NA
ATOM      9  N   UNL     1       5.638  43.306  50.639  1.00  0.00    -0.250 N 
ATOM     10  C   UNL     1       6.721  43.421  49.695  1.00  0.00     0.176 C 
ENDROOT
BRANCH   1  11
ATOM     11  N   UNL     1       2.625  43.868  54.109  1.00  0.00    -0.336 N 
ATOM     12  H   UNL     1       2.815  43.325  54.945  1.00  0.00     0.168 HD
BRANCH  11  13
ATOM     13  C   UNL     1       1.237  43.996  53.895  1.00  0.00     0.083 A 
ATOM     14  C   UNL     1      -1.552  44.322  53.583  1.00  0.00     0.122 A 
ATOM     15  C   UNL     1      -0.820  43.581  52.658  1.00  0.00     0.049 A 
ATOM     16  C   UNL     1      -0.893  44.904  54.669  1.00  0.00     0.095 A 
ATOM     17  C   UNL     1       0.562  43.423  52.816  1.00  0.00     0.034 A 
ATOM     18  C   UNL     1       0.487  44.749  54.831  1.00  0.00     0.146 A 
BRANCH  14  19
ATOM     19  O   UNL     1      -2.901  44.551  53.543  1.00  0.00    -0.497 OA
ATOM     20  C   UNL     1      -3.639  44.236  54.717  1.00  0.00     0.278 C 
ENDBRANCH  14  19
BRANCH  18  21
ATOM     21  O   UNL     1       1.225  45.285  55.866  1.00  0.00    -0.494 OA
ATOM     22  C   UNL     1       0.545  45.494  57.098  1.00  0.00     0.278 C 
ENDBRANCH  18  21
ENDBRANCH  11  13
ENDBRANCH   1  11
BRANCH   3  23
ATOM     23  N   UNL     1       6.088  47.023  53.592  1.00  0.00    -0.351 N 
ATOM     24  H   UNL     1       6.279  47.605  52.779  1.00  0.00     0.163 HD
BRANCH  23  25
ATOM     25  C   UNL     1       7.272  46.791  54.411  1.00  0.00     0.148 C 
BRANCH  25  26
ATOM     26  C   UNL     1       8.415  47.700  53.919  1.00  0.00     0.137 C 
ATOM     27  C   UNL     1       9.719  46.941  53.711  1.00  0.00     0.036 C 
ATOM     28  O   UNL     1       8.055  48.250  52.629  1.00  0.00    -0.376 OA
ATOM     29  C   UNL     1       9.649  46.545  52.257  1.00  0.00     0.031 C 
ATOM     30  C   UNL     1       8.962  47.742  51.641  1.00  0.00     0.160 C 
ENDBRANCH  25  26
ENDBRANCH  23  25
ENDBRANCH   3  23
TORSDOF 7
ENDMDL
MODEL 12
REMARK VINA RESULT:    -7.901      1.540      7.941
REMARK INTER + INTRA:         -12.173
REMARK INTER:                 -11.010
REMARK INTRA:                  -1.164
REMARK UNBOUND:                -1.038
REMARK SMILES COc1ccc(Nc2nc(NC[C@H]3CCCO3)nc3c2cnn3C)c(OC)c1
REMARK SMILES IDX 8 1 9 2 10 3 18 4 19 5 20 6 21 7 22 8 23 9 24 10 7 11 6 13
REMARK SMILES IDX 3 14 4 15 28 16 5 17 25 18 2 19 1 20 26 21 27 22 11 23 12 25
REMARK SMILES IDX 13 26 14 27 17 28 15 29 16 30
REMARK H PARENT 7 12 11 24
ROOT
ATOM      1  C   UNL     1       5.502  45.219  52.071  1.00  0.00     0.147 A 
ATOM      2  N   UNL     1       4.514  45.220  53.004  1.00  0.00    -0.195 NA
ATOM      3  C   UNL     1       3.605  44.229  53.051  1.00  0.00     0.226 A 
ATOM      4  N   UNL     1       3.563  43.167  52.234  1.00  0.00    -0.193 NA
ATOM      5  C   UNL     1       4.540  43.182  51.317  1.00  0.00     0.165 A 
ATOM      6  C   UNL     1       5.521  44.143  51.176  1.00  0.00     0.082 A 
ATOM      7  C   UNL     1       6.293  43.696  50.082  1.00  0.00     0.149 A 
ATOM      8  N   UNL     1       5.846  42.544  49.565  1.00  0.00    -0.179 NA
ATOM      9  N   UNL     1       4.771  42.259  50.335  1.00  0.00    -0.250 N 
ATOM     10  C   UNL     1       4.003  41.069  50.067  1.00  0.00     0.176 C 
ENDROOT
BRANCH   1  11
ATOM     11  N   UNL     1       6.462  46.232  52.005  1.00  0.00    -0.336 N 
ATOM     12  H   UNL     1       6.389  46.850  51.204  1.00  0.00     0.168 HD
BRANCH  11  13
ATOM     13  C   UNL     1       7.550  46.597  52.825  1.00  0.00     0.083 A 
ATOM     14  C   UNL     1       9.812  47.279  54.375  1.00  0.00     0.122 A 
ATOM     15  C   UNL     1       8.528  47.488  54.871  1.00  0.00     0.049 A 
ATOM     16  C   UNL     1       9.972  46.728  53.101  1.00  0.00     0.095 A 
ATOM     17  C   UNL     1       7.410  47.149  54.100  1.00  0.00     0.034 A 
ATOM     18  C   UNL     1       8.858  46.388  52.326  1.00  0.00     0.146 A 
BRANCH  14  19
ATOM     19  O   UNL     1      10.982  47.566  55.024  1.00  0.00    -0.497 OA
ATOM     20  C   UNL     1      10.932  47.611  56.445  1.00  0.00     0.278 C 
ENDBRANCH  14  19
BRANCH  18  21
ATOM     21  O   UNL     1       8.915  45.842  51.061  1.00  0.00    -0.494 OA
ATOM     22  C   UNL     1      10.021  44.995  50.776  1.00  0.00     0.278 C 
ENDBRANCH  18  21
ENDBRANCH  11  13
ENDBRANCH   1  11
BRANCH   3  23
ATOM     23  N   UNL     1       2.649  44.365  54.049  1.00  0.00    -0.351 N 
ATOM     24  H   UNL     1       2.248  43.438  54.179  1.00  0.00     0.163 HD
BRANCH  23  25
ATOM     25  C   UNL     1       1.641  45.382  53.775  1.00  0.00     0.148 C 
BRANCH  25  26
ATOM     26  C   UNL     1       0.246  44.725  53.766  1.00  0.00     0.137 C 
ATOM     27  C   UNL     1      -0.465  44.877  52.428  1.00  0.00     0.036 C 
ATOM     28  O   UNL     1       0.397  43.303  53.987  1.00  0.00    -0.376 OA
ATOM     29  C   UNL     1      -0.065  43.622  51.692  1.00  0.00     0.031 C 
ATOM     30  C   UNL     1      -0.028  42.605  52.809  1.00  0.00     0.160 C 
ENDBRANCH  25  26
ENDBRANCH  23  25
ENDBRANCH   3  23
TORSDOF 7
ENDMDL
MODEL 13
REMARK VINA RESULT:    -7.850      2.413      5.188
REMARK INTER + INTRA:         -12.101
REMARK INTER:                 -10.948
REMARK INTRA:                  -1.153
REMARK UNBOUND:                -1.038
REMARK SMILES COc1ccc(Nc2nc(NC[C@H]3CCCO3)nc3c2cnn3C)c(OC)c1
REMARK SMILES IDX 8 1 9 2 10 3 18 4 19 5 20 6 21 7 22 8 23 9 24 10 7 11 6 13
REMARK SMILES IDX 3 14 4 15 28 16 5 17 25 18 2 19 1 20 26 21 27 22 11 23 12 25
REMARK SMILES IDX 13 26 14 27 17 28 15 29 16 30
REMARK H PARENT 7 12 11 24
ROOT
ATOM      1  C   UNL     1       5.856  45.639  50.993  1.00  0.00     0.147 A 
ATOM      2  N   UNL     1       6.088  44.600  50.150  1.00  0.00    -0.195 NA
ATOM      3  C   UNL     1       7.342  44.222  49.844  1.00  0.00     0.226 A 
ATOM      4  N   UNL     1       8.465  44.786  50.312  1.00  0.00    -0.193 NA
ATOM      5  C   UNL     1       8.221  45.813  51.138  1.00  0.00     0.165 A 
ATOM      6  C   UNL     1       6.981  46.285  51.520  1.00  0.00     0.082 A 
ATOM      7  C   UNL     1       7.269  47.357  52.390  1.00  0.00     0.149 A 
ATOM      8  N   UNL     1       8.583  47.557  52.556  1.00  0.00    -0.179 NA
ATOM      9  N   UNL     1       9.139  46.603  51.774  1.00  0.00    -0.250 N 
ATOM     10  C   UNL     1      10.574  46.509  51.682  1.00  0.00     0.176 C 
ENDROOT
BRANCH   1  11
ATOM     11  N   UNL     1       4.563  46.048  51.333  1.00  0.00    -0.336 N 
ATOM     12  H   UNL     1       4.358  47.027  51.166  1.00  0.00     0.168 HD
BRANCH  11  13
ATOM     13  C   UNL     1       3.445  45.383  51.877  1.00  0.00     0.083 A 
ATOM     14  C   UNL     1       1.261  44.063  53.090  1.00  0.00     0.122 A 
ATOM     15  C   UNL     1       1.310  44.221  51.708  1.00  0.00     0.049 A 
ATOM     16  C   UNL     1       2.304  44.563  53.874  1.00  0.00     0.095 A 
ATOM     17  C   UNL     1       2.393  44.877  51.110  1.00  0.00     0.034 A 
ATOM     18  C   UNL     1       3.389  45.219  53.282  1.00  0.00     0.146 A 
BRANCH  14  19
ATOM     19  O   UNL     1       0.264  43.444  53.794  1.00  0.00    -0.497 OA
ATOM     20  C   UNL     1      -0.172  42.179  53.312  1.00  0.00     0.278 C 
ENDBRANCH  14  19
BRANCH  18  21
ATOM     21  O   UNL     1       4.462  45.747  53.970  1.00  0.00    -0.494 OA
ATOM     22  C   UNL     1       5.242  44.839  54.738  1.00  0.00     0.278 C 
ENDBRANCH  18  21
ENDBRANCH  11  13
ENDBRANCH   1  11
BRANCH   3  23
ATOM     23  N   UNL     1       7.428  43.152  48.963  1.00  0.00    -0.351 N 
ATOM     24  H   UNL     1       8.069  43.446  48.229  1.00  0.00     0.163 HD
BRANCH  23  25
ATOM     25  C   UNL     1       6.143  42.701  48.443  1.00  0.00     0.148 C 
BRANCH  25  26
ATOM     26  C   UNL     1       5.820  41.310  49.023  1.00  0.00     0.137 C 
ATOM     27  C   UNL     1       5.497  41.356  50.511  1.00  0.00     0.036 C 
ATOM     28  O   UNL     1       4.639  40.791  48.366  1.00  0.00    -0.376 OA
ATOM     29  C   UNL     1       3.996  41.512  50.523  1.00  0.00     0.031 C 
ATOM     30  C   UNL     1       3.586  40.675  49.333  1.00  0.00     0.160 C 
ENDBRANCH  25  26
ENDBRANCH  23  25
ENDBRANCH   3  23
TORSDOF 7
ENDMDL
MODEL 14
REMARK VINA RESULT:    -7.825      2.227      7.173
REMARK INTER + INTRA:         -12.065
REMARK INTER:                 -11.009
REMARK INTRA:                  -1.056
REMARK UNBOUND:                -1.038
REMARK SMILES COc1ccc(Nc2nc(NC[C@H]3CCCO3)nc3c2cnn3C)c(OC)c1
REMARK SMILES IDX 8 1 9 2 10 3 18 4 19 5 20 6 21 7 22 8 23 9 24 10 7 11 6 13
REMARK SMILES IDX 3 14 4 15 28 16 5 17 25 18 2 19 1 20 26 21 27 22 11 23 12 25
REMARK SMILES IDX 13 26 14 27 17 28 15 29 16 30
REMARK H PARENT 7 12 11 24
ROOT
ATOM      1  C   UNL     1       5.764  44.707  51.143  1.00  0.00     0.147 A 
ATOM      2  N   UNL     1       4.574  45.240  51.526  1.00  0.00    -0.195 NA
ATOM      3  C   UNL     1       3.427  44.555  51.372  1.00  0.00     0.226 A 
ATOM      4  N   UNL     1       3.313  43.323  50.856  1.00  0.00    -0.193 NA
ATOM      5  C   UNL     1       4.494  42.812  50.479  1.00  0.00     0.165 A 
ATOM      6  C   UNL     1       5.728  43.422  50.589  1.00  0.00     0.082 A 
ATOM      7  C   UNL     1       6.633  42.475  50.063  1.00  0.00     0.149 A 
ATOM      8  N   UNL     1       6.032  41.352  49.650  1.00  0.00    -0.179 NA
ATOM      9  N   UNL     1       4.726  41.589  49.911  1.00  0.00    -0.250 N 
ATOM     10  C   UNL     1       3.744  40.586  49.584  1.00  0.00     0.176 C 
ENDROOT
BRANCH   1  11
ATOM     11  N   UNL     1       6.971  45.393  51.299  1.00  0.00    -0.336 N 
ATOM     12  H   UNL     1       7.568  45.416  50.479  1.00  0.00     0.168 HD
BRANCH  11  13
ATOM     13  C   UNL     1       7.568  46.081  52.376  1.00  0.00     0.083 A 
ATOM     14  C   UNL     1       8.882  47.449  54.470  1.00  0.00     0.122 A 
ATOM     15  C   UNL     1       7.527  47.142  54.569  1.00  0.00     0.049 A 
ATOM     16  C   UNL     1       9.586  47.074  53.323  1.00  0.00     0.095 A 
ATOM     17  C   UNL     1       6.879  46.464  53.529  1.00  0.00     0.034 A 
ATOM     18  C   UNL     1       8.944  46.397  52.282  1.00  0.00     0.146 A 
BRANCH  14  19
ATOM     19  O   UNL     1       9.628  48.104  55.411  1.00  0.00    -0.497 OA
ATOM     20  C   UNL     1      10.808  47.451  55.862  1.00  0.00     0.278 C 
ENDBRANCH  14  19
BRANCH  18  21
ATOM     21  O   UNL     1       9.554  45.988  51.113  1.00  0.00    -0.494 OA
ATOM     22  C   UNL     1      10.684  45.135  51.243  1.00  0.00     0.278 C 
ENDBRANCH  18  21
ENDBRANCH  11  13
ENDBRANCH   1  11
BRANCH   3  23
ATOM     23  N   UNL     1       2.288  45.227  51.798  1.00  0.00    -0.351 N 
ATOM     24  H   UNL     1       2.580  46.185  51.978  1.00  0.00     0.163 HD
BRANCH  23  25
ATOM     25  C   UNL     1       1.626  44.614  52.944  1.00  0.00     0.148 C 
BRANCH  25  26
ATOM     26  C   UNL     1       1.648  45.600  54.129  1.00  0.00     0.137 C 
ATOM     27  C   UNL     1       2.246  44.987  55.389  1.00  0.00     0.036 C 
ATOM     28  O   UNL     1       2.490  46.726  53.786  1.00  0.00    -0.376 OA
ATOM     29  C   UNL     1       3.704  45.360  55.284  1.00  0.00     0.031 C 
ATOM     30  C   UNL     1       3.630  46.732  54.655  1.00  0.00     0.160 C 
ENDBRANCH  25  26
ENDBRANCH  23  25
ENDBRANCH   3  23
TORSDOF 7
ENDMDL
MODEL 15
REMARK VINA RESULT:    -7.818      2.818      7.610
REMARK INTER + INTRA:         -12.056
REMARK INTER:                 -10.968
REMARK INTRA:                  -1.087
REMARK UNBOUND:                -1.038
REMARK SMILES COc1ccc(Nc2nc(NC[C@H]3CCCO3)nc3c2cnn3C)c(OC)c1
REMARK SMILES IDX 8 1 9 2 10 3 18 4 19 5 20 6 21 7 22 8 23 9 24 10 7 11 6 13
REMARK SMILES IDX 3 14 4 15 28 16 5 17 25 18 2 19 1 20 26 21 27 22 11 23 12 25
REMARK SMILES IDX 13 26 14 27 17 28 15 29 16 30
REMARK H PARENT 7 12 11 24
ROOT
ATOM      1  C   UNL     1       4.383  44.817  51.966  1.00  0.00     0.147 A 
ATOM      2  N   UNL     1       4.446  43.564  51.444  1.00  0.00    -0.195 NA
ATOM      3  C   UNL     1       3.489  42.656  51.704  1.00  0.00     0.226 A 
ATOM      4  N   UNL     1       2.403  42.860  52.464  1.00  0.00    -0.193 NA
ATOM      5  C   UNL     1       2.357  44.098  52.976  1.00  0.00     0.165 A 
ATOM      6  C   UNL     1       3.280  45.106  52.777  1.00  0.00     0.082 A 
ATOM      7  C   UNL     1       2.772  46.194  53.518  1.00  0.00     0.149 A 
ATOM      8  N   UNL     1       1.620  45.911  54.140  1.00  0.00    -0.179 NA
ATOM      9  N   UNL     1       1.396  44.622  53.795  1.00  0.00    -0.250 N 
ATOM     10  C   UNL     1       0.224  43.948  54.297  1.00  0.00     0.176 C 
ENDROOT
BRANCH   1  11
ATOM     11  N   UNL     1       5.361  45.781  51.706  1.00  0.00    -0.336 N 
ATOM     12  H   UNL     1       5.221  46.327  50.862  1.00  0.00     0.168 HD
BRANCH  11  13
ATOM     13  C   UNL     1       6.539  46.177  52.373  1.00  0.00     0.083 A 
ATOM     14  C   UNL     1       8.971  46.933  53.598  1.00  0.00     0.122 A 
ATOM     15  C   UNL     1       7.773  47.003  54.305  1.00  0.00     0.049 A 
ATOM     16  C   UNL     1       8.959  46.485  52.275  1.00  0.00     0.095 A 
ATOM     17  C   UNL     1       6.570  46.627  53.694  1.00  0.00     0.034 A 
ATOM     18  C   UNL     1       7.761  46.109  51.660  1.00  0.00     0.146 A 
BRANCH  14  19
ATOM     19  O   UNL     1      10.208  47.268  54.078  1.00  0.00    -0.497 OA
ATOM     20  C   UNL     1      10.308  47.518  55.474  1.00  0.00     0.278 C 
ENDBRANCH  14  19
BRANCH  18  21
ATOM     21  O   UNL     1       7.649  45.657  50.361  1.00  0.00    -0.494 OA
ATOM     22  C   UNL     1       8.751  44.924  49.839  1.00  0.00     0.278 C 
ENDBRANCH  18  21
ENDBRANCH  11  13
ENDBRANCH   1  11
BRANCH   3  23
ATOM     23  N   UNL     1       3.688  41.416  51.112  1.00  0.00    -0.351 N 
ATOM     24  H   UNL     1       4.571  41.069  51.482  1.00  0.00     0.163 HD
BRANCH  23  25
ATOM     25  C   UNL     1       3.657  41.437  49.655  1.00  0.00     0.148 C 
BRANCH  25  26
ATOM     26  C   UNL     1       4.987  40.881  49.110  1.00  0.00     0.137 C 
ATOM     27  C   UNL     1       5.505  41.667  47.912  1.00  0.00     0.036 C 
ATOM     28  O   UNL     1       5.999  40.994  50.139  1.00  0.00    -0.376 OA
ATOM     29  C   UNL     1       6.404  42.697  48.551  1.00  0.00     0.031 C 
ATOM     30  C   UNL     1       7.003  41.918  49.699  1.00  0.00     0.160 C 
ENDBRANCH  25  26
ENDBRANCH  23  25
ENDBRANCH   3  23
TORSDOF 7
ENDMDL
MODEL 16
REMARK VINA RESULT:    -7.778      2.618      6.337
REMARK INTER + INTRA:         -12.000
REMARK INTER:                 -11.565
REMARK INTRA:                  -0.435
REMARK UNBOUND:                -1.038
REMARK SMILES COc1ccc(Nc2nc(NC[C@H]3CCCO3)nc3c2cnn3C)c(OC)c1
REMARK SMILES IDX 8 1 9 2 10 3 18 4 19 5 20 6 21 7 22 8 23 9 24 10 7 11 6 13
REMARK SMILES IDX 3 14 4 15 28 16 5 17 25 18 2 19 1 20 26 21 27 22 11 23 12 25
REMARK SMILES IDX 13 26 14 27 17 28 15 29 16 30
REMARK H PARENT 7 12 11 24
ROOT
ATOM      1  C   UNL     1       6.645  45.896  52.229  1.00  0.00     0.147 A 
ATOM      2  N   UNL     1       5.693  46.257  53.128  1.00  0.00    -0.195 NA
ATOM      3  C   UNL     1       6.024  46.861  54.283  1.00  0.00     0.226 A 
ATOM      4  N   UNL     1       7.268  47.175  54.674  1.00  0.00    -0.193 NA
ATOM      5  C   UNL     1       8.197  46.809  53.779  1.00  0.00     0.165 A 
ATOM      6  C   UNL     1       7.972  46.185  52.568  1.00  0.00     0.082 A 
ATOM      7  C   UNL     1       9.260  46.026  52.014  1.00  0.00     0.149 A 
ATOM      8  N   UNL     1      10.230  46.507  52.801  1.00  0.00    -0.179 NA
ATOM      9  N   UNL     1       9.551  46.973  53.875  1.00  0.00    -0.250 N 
ATOM     10  C   UNL     1      10.276  47.568  54.969  1.00  0.00     0.176 C 
ENDROOT
BRANCH   1  11
ATOM     11  N   UNL     1       6.327  45.274  51.019  1.00  0.00    -0.336 N 
ATOM     12  H   UNL     1       6.516  45.820  50.185  1.00  0.00     0.168 HD
BRANCH  11  13
ATOM     13  C   UNL     1       5.781  44.017  50.685  1.00  0.00     0.083 A 
ATOM     14  C   UNL     1       4.572  41.537  50.076  1.00  0.00     0.122 A 
ATOM     15  C   UNL     1       5.904  41.773  49.744  1.00  0.00     0.049 A 
ATOM     16  C   UNL     1       3.838  42.540  50.714  1.00  0.00     0.095 A 
ATOM     17  C   UNL     1       6.499  43.003  50.047  1.00  0.00     0.034 A 
ATOM     18  C   UNL     1       4.428  43.771  51.019  1.00  0.00     0.146 A 
BRANCH  14  19
ATOM     19  O   UNL     1       3.876  40.383  49.837  1.00  0.00    -0.497 OA
ATOM     20  C   UNL     1       3.494  40.132  48.490  1.00  0.00     0.278 C 
ENDBRANCH  14  19
BRANCH  18  21
ATOM     21  O   UNL     1       3.786  44.820  51.644  1.00  0.00    -0.494 OA
ATOM     22  C   UNL     1       2.717  45.433  50.934  1.00  0.00     0.278 C 
ENDBRANCH  18  21
ENDBRANCH  11  13
ENDBRANCH   1  11
BRANCH   3  23
ATOM     23  N   UNL     1       4.949  47.164  55.110  1.00  0.00    -0.351 N 
ATOM     24  H   UNL     1       5.160  46.737  56.009  1.00  0.00     0.163 HD
BRANCH  23  25
ATOM     25  C   UNL     1       3.654  46.755  54.580  1.00  0.00     0.148 C 
BRANCH  25  26
ATOM     26  C   UNL     1       3.163  45.510  55.345  1.00  0.00     0.137 C 
ATOM     27  C   UNL     1       1.878  45.768  56.121  1.00  0.00     0.036 C 
ATOM     28  O   UNL     1       2.861  44.463  54.392  1.00  0.00    -0.376 OA
ATOM     29  C   UNL     1       0.807  45.365  55.137  1.00  0.00     0.031 C 
ATOM     30  C   UNL     1       1.453  44.192  54.436  1.00  0.00     0.160 C 
ENDBRANCH  25  26
ENDBRANCH  23  25
ENDBRANCH   3  23
TORSDOF 7
ENDMDL
MODEL 17
REMARK VINA RESULT:    -7.736      2.907      7.988
REMARK INTER + INTRA:         -11.941
REMARK INTER:                 -10.890
REMARK INTRA:                  -1.050
REMARK UNBOUND:                -1.038
REMARK SMILES COc1ccc(Nc2nc(NC[C@H]3CCCO3)nc3c2cnn3C)c(OC)c1
REMARK SMILES IDX 8 1 9 2 10 3 18 4 19 5 20 6 21 7 22 8 23 9 24 10 7 11 6 13
REMARK SMILES IDX 3 14 4 15 28 16 5 17 25 18 2 19 1 20 26 21 27 22 11 23 12 25
REMARK SMILES IDX 13 26 14 27 17 28 15 29 16 30
REMARK H PARENT 7 12 11 24
ROOT
ATOM      1  C   UNL     1       4.453  44.669  51.750  1.00  0.00     0.147 A 
ATOM      2  N   UNL     1       4.536  43.427  51.205  1.00  0.00    -0.195 NA
ATOM      3  C   UNL     1       3.595  42.498  51.451  1.00  0.00     0.226 A 
ATOM      4  N   UNL     1       2.508  42.669  52.217  1.00  0.00    -0.193 NA
ATOM      5  C   UNL     1       2.442  43.897  52.751  1.00  0.00     0.165 A 
ATOM      6  C   UNL     1       3.347  44.924  52.569  1.00  0.00     0.082 A 
ATOM      7  C   UNL     1       2.823  45.989  53.331  1.00  0.00     0.149 A 
ATOM      8  N   UNL     1       1.677  45.675  53.950  1.00  0.00    -0.179 NA
ATOM      9  N   UNL     1       1.474  44.389  53.582  1.00  0.00    -0.250 N 
ATOM     10  C   UNL     1       0.315  43.686  54.075  1.00  0.00     0.176 C 
ENDROOT
BRANCH   1  11
ATOM     11  N   UNL     1       5.413  45.654  51.505  1.00  0.00    -0.336 N 
ATOM     12  H   UNL     1       5.248  46.229  50.686  1.00  0.00     0.168 HD
BRANCH  11  13
ATOM     13  C   UNL     1       6.602  46.039  52.160  1.00  0.00     0.083 A 
ATOM     14  C   UNL     1       9.050  46.783  53.358  1.00  0.00     0.122 A 
ATOM     15  C   UNL     1       7.876  46.766  54.105  1.00  0.00     0.049 A 
ATOM     16  C   UNL     1       9.007  46.428  52.007  1.00  0.00     0.095 A 
ATOM     17  C   UNL     1       6.665  46.397  53.508  1.00  0.00     0.034 A 
ATOM     18  C   UNL     1       7.799  46.059  51.406  1.00  0.00     0.146 A 
BRANCH  14  19
ATOM     19  O   UNL     1      10.293  47.123  53.819  1.00  0.00    -0.497 OA
ATOM     20  C   UNL     1      10.402  47.421  55.206  1.00  0.00     0.278 C 
ENDBRANCH  14  19
BRANCH  18  21
ATOM     21  O   UNL     1       7.656  45.695  50.083  1.00  0.00    -0.494 OA
ATOM     22  C   UNL     1       8.254  44.466  49.687  1.00  0.00     0.278 C 
ENDBRANCH  18  21
ENDBRANCH  11  13
ENDBRANCH   1  11
BRANCH   3  23
ATOM     23  N   UNL     1       3.814  41.272  50.836  1.00  0.00    -0.351 N 
ATOM     24  H   UNL     1       4.821  41.125  50.858  1.00  0.00     0.163 HD
BRANCH  23  25
ATOM     25  C   UNL     1       3.258  41.170  49.492  1.00  0.00     0.148 C 
BRANCH  25  26
ATOM     26  C   UNL     1       4.251  40.412  48.588  1.00  0.00     0.137 C 
ATOM     27  C   UNL     1       3.641  40.018  47.249  1.00  0.00     0.036 C 
ATOM     28  O   UNL     1       5.368  41.283  48.287  1.00  0.00    -0.376 OA
ATOM     29  C   UNL     1       4.000  41.185  46.362  1.00  0.00     0.031 C 
ATOM     30  C   UNL     1       5.369  41.561  46.880  1.00  0.00     0.160 C 
ENDBRANCH  25  26
ENDBRANCH  23  25
ENDBRANCH   3  23
TORSDOF 7
ENDMDL
MODEL 18
REMARK VINA RESULT:    -7.664      2.945      7.517
REMARK INTER + INTRA:         -11.839
REMARK INTER:                 -10.555
REMARK INTRA:                  -1.285
REMARK UNBOUND:                -1.038
REMARK SMILES COc1ccc(Nc2nc(NC[C@H]3CCCO3)nc3c2cnn3C)c(OC)c1
REMARK SMILES IDX 8 1 9 2 10 3 18 4 19 5 20 6 21 7 22 8 23 9 24 10 7 11 6 13
REMARK SMILES IDX 3 14 4 15 28 16 5 17 25 18 2 19 1 20 26 21 27 22 11 23 12 25
REMARK SMILES IDX 13 26 14 27 17 28 15 29 16 30
REMARK H PARENT 7 12 11 24
ROOT
ATOM      1  C   UNL     1       2.224  45.420  55.390  1.00  0.00     0.147 A 
ATOM      2  N   UNL     1       2.029  44.640  54.295  1.00  0.00    -0.195 NA
ATOM      3  C   UNL     1       0.842  44.047  54.070  1.00  0.00     0.226 A 
ATOM      4  N   UNL     1      -0.245  44.151  54.848  1.00  0.00    -0.193 NA
ATOM      5  C   UNL     1      -0.036  44.920  55.925  1.00  0.00     0.165 A 
ATOM      6  C   UNL     1       1.135  45.573  56.256  1.00  0.00     0.082 A 
ATOM      7  C   UNL     1       0.833  46.240  57.462  1.00  0.00     0.149 A 
ATOM      8  N   UNL     1      -0.425  46.035  57.872  1.00  0.00    -0.179 NA
ATOM      9  N   UNL     1      -0.929  45.219  56.917  1.00  0.00    -0.250 N 
ATOM     10  C   UNL     1      -2.291  44.760  57.023  1.00  0.00     0.176 C 
ENDROOT
BRANCH   1  11
ATOM     11  N   UNL     1       3.444  46.053  55.645  1.00  0.00    -0.336 N 
ATOM     12  H   UNL     1       3.484  46.591  56.503  1.00  0.00     0.168 HD
BRANCH  11  13
ATOM     13  C   UNL     1       4.670  46.117  54.951  1.00  0.00     0.083 A 
ATOM     14  C   UNL     1       7.071  46.333  53.476  1.00  0.00     0.122 A 
ATOM     15  C   UNL     1       6.975  45.441  54.542  1.00  0.00     0.049 A 
ATOM     16  C   UNL     1       5.966  47.121  53.142  1.00  0.00     0.095 A 
ATOM     17  C   UNL     1       5.784  45.338  55.270  1.00  0.00     0.034 A 
ATOM     18  C   UNL     1       4.774  47.021  53.867  1.00  0.00     0.146 A 
BRANCH  14  19
ATOM     19  O   UNL     1       8.172  46.529  52.688  1.00  0.00    -0.497 OA
ATOM     20  C   UNL     1       8.299  47.804  52.070  1.00  0.00     0.278 C 
ENDBRANCH  14  19
BRANCH  18  21
ATOM     21  O   UNL     1       3.634  47.755  53.614  1.00  0.00    -0.494 OA
ATOM     22  C   UNL     1       3.021  47.573  52.344  1.00  0.00     0.278 C 
ENDBRANCH  18  21
ENDBRANCH  11  13
ENDBRANCH   1  11
BRANCH   3  23
ATOM     23  N   UNL     1       0.790  43.271  52.919  1.00  0.00    -0.351 N 
ATOM     24  H   UNL     1      -0.043  42.693  53.010  1.00  0.00     0.163 HD
BRANCH  23  25
ATOM     25  C   UNL     1       1.996  42.489  52.671  1.00  0.00     0.148 C 
BRANCH  25  26
ATOM     26  C   UNL     1       2.539  42.825  51.268  1.00  0.00     0.137 C 
ATOM     27  C   UNL     1       3.160  44.214  51.198  1.00  0.00     0.036 C 
ATOM     28  O   UNL     1       3.594  41.890  50.938  1.00  0.00    -0.376 OA
ATOM     29  C   UNL     1       4.614  43.946  51.501  1.00  0.00     0.031 C 
ATOM     30  C   UNL     1       4.831  42.608  50.832  1.00  0.00     0.160 C 
ENDBRANCH  25  26
ENDBRANCH  23  25
ENDBRANCH   3  23
TORSDOF 7
ENDMDL
MODEL 19
REMARK VINA RESULT:    -7.650      2.850      5.848
REMARK INTER + INTRA:         -11.819
REMARK INTER:                 -10.988
REMARK INTRA:                  -0.831
REMARK UNBOUND:                -1.038
REMARK SMILES COc1ccc(Nc2nc(NC[C@H]3CCCO3)nc3c2cnn3C)c(OC)c1
REMARK SMILES IDX 8 1 9 2 10 3 18 4 19 5 20 6 21 7 22 8 23 9 24 10 7 11 6 13
REMARK SMILES IDX 3 14 4 15 28 16 5 17 25 18 2 19 1 20 26 21 27 22 11 23 12 25
REMARK SMILES IDX 13 26 14 27 17 28 15 29 16 30
REMARK H PARENT 7 12 11 24
ROOT
ATOM      1  C   UNL     1       4.185  43.172  52.111  1.00  0.00     0.147 A 
ATOM      2  N   UNL     1       4.985  44.269  52.139  1.00  0.00    -0.195 NA
ATOM      3  C   UNL     1       4.606  45.387  52.786  1.00  0.00     0.226 A 
ATOM      4  N   UNL     1       3.458  45.551  53.457  1.00  0.00    -0.193 NA
ATOM      5  C   UNL     1       2.677  44.462  53.417  1.00  0.00     0.165 A 
ATOM      6  C   UNL     1       2.962  43.267  52.786  1.00  0.00     0.082 A 
ATOM      7  C   UNL     1       1.835  42.459  53.046  1.00  0.00     0.149 A 
ATOM      8  N   UNL     1       0.905  43.080  53.781  1.00  0.00    -0.179 NA
ATOM      9  N   UNL     1       1.444  44.304  53.987  1.00  0.00    -0.250 N 
ATOM     10  C   UNL     1       0.709  45.283  54.748  1.00  0.00     0.176 C 
ENDROOT
BRANCH   1  11
ATOM     11  N   UNL     1       4.557  41.996  51.453  1.00  0.00    -0.336 N 
ATOM     12  H   UNL     1       4.903  41.253  52.051  1.00  0.00     0.168 HD
BRANCH  11  13
ATOM     13  C   UNL     1       4.564  41.600  50.100  1.00  0.00     0.083 A 
ATOM     14  C   UNL     1       4.693  40.874  47.372  1.00  0.00     0.122 A 
ATOM     15  C   UNL     1       3.602  40.497  48.151  1.00  0.00     0.049 A 
ATOM     16  C   UNL     1       5.725  41.615  47.953  1.00  0.00     0.095 A 
ATOM     17  C   UNL     1       3.542  40.858  49.502  1.00  0.00     0.034 A 
ATOM     18  C   UNL     1       5.670  41.979  49.302  1.00  0.00     0.146 A 
BRANCH  14  19
ATOM     19  O   UNL     1       4.872  40.586  46.046  1.00  0.00    -0.497 OA
ATOM     20  C   UNL     1       5.078  41.689  45.173  1.00  0.00     0.278 C 
ENDBRANCH  14  19
BRANCH  18  21
ATOM     21  O   UNL     1       6.638  42.706  49.963  1.00  0.00    -0.494 OA
ATOM     22  C   UNL     1       7.549  43.444  49.157  1.00  0.00     0.278 C 
ENDBRANCH  18  21
ENDBRANCH  11  13
ENDBRANCH   1  11
BRANCH   3  23
ATOM     23  N   UNL     1       5.519  46.432  52.722  1.00  0.00    -0.351 N 
ATOM     24  H   UNL     1       5.415  46.836  51.793  1.00  0.00     0.163 HD
BRANCH  23  25
ATOM     25  C   UNL     1       6.893  46.044  53.018  1.00  0.00     0.148 C 
BRANCH  25  26
ATOM     26  C   UNL     1       7.857  46.944  52.219  1.00  0.00     0.137 C 
ATOM     27  C   UNL     1       8.677  47.864  53.114  1.00  0.00     0.036 C 
ATOM     28  O   UNL     1       8.807  46.106  51.518  1.00  0.00    -0.376 OA
ATOM     29  C   UNL     1       9.926  47.058  53.370  1.00  0.00     0.031 C 
ATOM     30  C   UNL     1      10.118  46.352  52.047  1.00  0.00     0.160 C 
ENDBRANCH  25  26
ENDBRANCH  23  25
ENDBRANCH   3  23
TORSDOF 7
ENDMDL
MODEL 20
REMARK VINA RESULT:    -7.560      2.516      7.992
REMARK INTER + INTRA:         -11.691
REMARK INTER:                 -10.698
REMARK INTRA:                  -0.994
REMARK UNBOUND:                -1.038
REMARK SMILES COc1ccc(Nc2nc(NC[C@H]3CCCO3)nc3c2cnn3C)c(OC)c1
REMARK SMILES IDX 8 1 9 2 10 3 18 4 19 5 20 6 21 7 22 8 23 9 24 10 7 11 6 13
REMARK SMILES IDX 3 14 4 15 28 16 5 17 25 18 2 19 1 20 26 21 27 22 11 23 12 25
REMARK SMILES IDX 13 26 14 27 17 28 15 29 16 30
REMARK H PARENT 7 12 11 24
ROOT
ATOM      1  C   UNL     1       2.960  45.590  52.998  1.00  0.00     0.147 A 
ATOM      2  N   UNL     1       2.765  45.859  54.316  1.00  0.00    -0.195 NA
ATOM      3  C   UNL     1       1.899  45.137  55.049  1.00  0.00     0.226 A 
ATOM      4  N   UNL     1       1.163  44.108  54.603  1.00  0.00    -0.193 NA
ATOM      5  C   UNL     1       1.364  43.858  53.302  1.00  0.00     0.165 A 
ATOM      6  C   UNL     1       2.222  44.532  52.456  1.00  0.00     0.082 A 
ATOM      7  C   UNL     1       2.066  43.884  51.212  1.00  0.00     0.149 A 
ATOM      8  N   UNL     1       1.183  42.878  51.255  1.00  0.00    -0.179 NA
ATOM      9  N   UNL     1       0.766  42.890  52.542  1.00  0.00    -0.250 N 
ATOM     10  C   UNL     1      -0.221  41.934  52.976  1.00  0.00     0.176 C 
ENDROOT
BRANCH   1  11
ATOM     11  N   UNL     1       3.858  46.321  52.215  1.00  0.00    -0.336 N 
ATOM     12  H   UNL     1       3.503  47.197  51.847  1.00  0.00     0.168 HD
BRANCH  11  13
ATOM     13  C   UNL     1       5.190  46.105  51.804  1.00  0.00     0.083 A 
ATOM     14  C   UNL     1       7.898  45.759  51.077  1.00  0.00     0.122 A 
ATOM     15  C   UNL     1       6.888  45.125  50.358  1.00  0.00     0.049 A 
ATOM     16  C   UNL     1       7.559  46.569  52.164  1.00  0.00     0.095 A 
ATOM     17  C   UNL     1       5.548  45.298  50.722  1.00  0.00     0.034 A 
ATOM     18  C   UNL     1       6.222  46.746  52.531  1.00  0.00     0.146 A 
BRANCH  14  19
ATOM     19  O   UNL     1       9.241  45.672  50.825  1.00  0.00    -0.497 OA
ATOM     20  C   UNL     1      10.113  46.237  51.796  1.00  0.00     0.278 C 
ENDBRANCH  14  19
BRANCH  18  21
ATOM     21  O   UNL     1       5.790  47.523  53.587  1.00  0.00    -0.494 OA
ATOM     22  C   UNL     1       6.051  47.030  54.895  1.00  0.00     0.278 C 
ENDBRANCH  18  21
ENDBRANCH  11  13
ENDBRANCH   1  11
BRANCH   3  23
ATOM     23  N   UNL     1       1.794  45.530  56.377  1.00  0.00    -0.351 N 
ATOM     24  H   UNL     1       2.624  45.168  56.842  1.00  0.00     0.163 HD
BRANCH  23  25
ATOM     25  C   UNL     1       0.557  45.113  57.027  1.00  0.00     0.148 C 
BRANCH  25  26
ATOM     26  C   UNL     1      -0.527  46.183  56.791  1.00  0.00     0.137 C 
ATOM     27  C   UNL     1      -1.729  45.642  56.029  1.00  0.00     0.036 C 
ATOM     28  O   UNL     1      -1.026  46.635  58.072  1.00  0.00    -0.376 OA
ATOM     29  C   UNL     1      -2.657  45.204  57.135  1.00  0.00     0.031 C 
ATOM     30  C   UNL     1      -2.405  46.257  58.189  1.00  0.00     0.160 C 
ENDBRANCH  25  26
ENDBRANCH  23  25
ENDBRANCH   3  23
TORSDOF 7
ENDMDL
