MODEL 1
REMARK VINA RESULT:    -8.595      0.000      0.000
REMARK INTER + INTRA:         -13.262
REMARK INTER:                 -12.112
REMARK INTRA:                  -1.150
REMARK UNBOUND:                -1.150
REMARK SMILES CC(C)OCCNc1nc(Nc2ccccc2Cl)c2cnn(C)c2n1
REMARK SMILES IDX 6 1 5 2 4 3 2 4 1 5 3 6 7 7 8 9 9 10 25 11 10 12 24 13 19 14
REMARK SMILES IDX 22 15 20 16 21 17 23 18 11 19 12 21 13 22 17 23 14 24 16 25
REMARK SMILES IDX 15 26 18 27
REMARK H PARENT 7 8 11 20
ROOT
ATOM      1  C   UNL     1       4.076  45.703  55.303  1.00  0.00     0.144 C 
ENDROOT
BRANCH   1   2
ATOM      2  C   UNL     1       2.649  45.689  54.740  1.00  0.00     0.181 C 
BRANCH   2   3
ATOM      3  O   UNL     1       2.644  44.951  53.513  1.00  0.00    -0.377 OA
BRANCH   3   4
ATOM      4  C   UNL     1       1.874  45.576  52.482  1.00  0.00     0.112 C 
ATOM      5  C   UNL     1       2.762  46.449  51.601  1.00  0.00     0.038 C 
ATOM      6  C   UNL     1       1.247  44.459  51.656  1.00  0.00     0.038 C 
ENDBRANCH   3   4
ENDBRANCH   2   3
ENDBRANCH   1   2
BRANCH   1   7
ATOM      7  N   UNL     1       4.791  46.926  54.963  1.00  0.00    -0.352 N 
ATOM      8  H   UNL     1       5.071  47.484  55.763  1.00  0.00     0.163 HD
BRANCH   7   9
ATOM      9  C   UNL     1       5.951  46.750  54.218  1.00  0.00     0.226 A 
ATOM     10  N   UNL     1       5.753  46.219  52.997  1.00  0.00    -0.195 NA
ATOM     11  N   UNL     1       7.135  47.100  54.733  1.00  0.00    -0.193 NA
ATOM     12  C   UNL     1       6.808  45.961  52.181  1.00  0.00     0.147 A 
ATOM     13  C   UNL     1       8.155  46.886  53.891  1.00  0.00     0.165 A 
ATOM     14  C   UNL     1       8.077  46.340  52.625  1.00  0.00     0.082 A 
ATOM     15  N   UNL     1       9.477  47.171  54.099  1.00  0.00    -0.250 N 
ATOM     16  C   UNL     1       9.403  46.382  52.146  1.00  0.00     0.149 A 
ATOM     17  N   UNL     1      10.269  46.869  53.044  1.00  0.00    -0.179 NA
ATOM     18  C   UNL     1      10.062  47.753  55.282  1.00  0.00     0.176 C 
BRANCH  12  19
ATOM     19  N   UNL     1       6.513  45.413  50.931  1.00  0.00    -0.338 N 
ATOM     20  H   UNL     1       6.133  46.135  50.323  1.00  0.00     0.168 HD
BRANCH  19  21
ATOM     21  C   UNL     1       6.071  44.124  50.555  1.00  0.00     0.058 A 
ATOM     22  C   UNL     1       4.904  43.546  51.071  1.00  0.00     0.027 A 
ATOM     23  C   UNL     1       6.842  43.352  49.660  1.00  0.00     0.064 A 
ATOM     24  C   UNL     1       4.518  42.249  50.712  1.00  0.00     0.002 A 
ATOM     25  C   UNL     1       6.459  42.056  49.300  1.00  0.00     0.023 A 
ATOM     26  C   UNL     1       5.297  41.504  49.830  1.00  0.00     0.002 A 
ATOM     27  Cl  UNL     1       8.294  43.990  48.963  1.00  0.00    -0.082 Cl
ENDBRANCH  19  21
ENDBRANCH  12  19
ENDBRANCH   7   9
ENDBRANCH   1   7
TORSDOF 7
ENDMDL
MODEL 2
REMARK VINA RESULT:    -8.305      2.765      5.872
REMARK INTER + INTRA:         -12.853
REMARK INTER:                 -12.252
REMARK INTRA:                  -0.601
REMARK UNBOUND:                -1.150
REMARK SMILES CC(C)OCCNc1nc(Nc2ccccc2Cl)c2cnn(C)c2n1
REMARK SMILES IDX 6 1 5 2 4 3 2 4 1 5 3 6 7 7 8 9 9 10 25 11 10 12 24 13 19 14
REMARK SMILES IDX 22 15 20 16 21 17 23 18 11 19 12 21 13 22 17 23 14 24 16 25
REMARK SMILES IDX 15 26 18 27
REMARK H PARENT 7 8 11 20
ROOT
ATOM      1  C   UNL     1       5.887  45.643  55.007  1.00  0.00     0.144 C 
ENDROOT
BRANCH   1   2
ATOM      2  C   UNL     1       6.200  47.062  54.518  1.00  0.00     0.181 C 
BRANCH   2   3
ATOM      3  O   UNL     1       7.551  47.382  54.865  1.00  0.00    -0.377 OA
BRANCH   3   4
ATOM      4  C   UNL     1       8.488  47.090  53.824  1.00  0.00     0.112 C 
ATOM      5  C   UNL     1       8.313  48.057  52.657  1.00  0.00     0.038 C 
ATOM      6  C   UNL     1       9.881  47.235  54.424  1.00  0.00     0.038 C 
ENDBRANCH   3   4
ENDBRANCH   2   3
ENDBRANCH   1   2
BRANCH   1   7
ATOM      7  N   UNL     1       4.498  45.497  55.423  1.00  0.00    -0.352 N 
ATOM      8  H   UNL     1       4.028  46.372  55.629  1.00  0.00     0.163 HD
BRANCH   7   9
ATOM      9  C   UNL     1       3.670  44.845  54.516  1.00  0.00     0.226 A 
ATOM     10  N   UNL     1       4.305  44.355  53.436  1.00  0.00    -0.195 NA
ATOM     11  N   UNL     1       2.358  44.751  54.758  1.00  0.00    -0.193 NA
ATOM     12  C   UNL     1       3.607  43.727  52.454  1.00  0.00     0.147 A 
ATOM     13  C   UNL     1       1.697  44.082  53.803  1.00  0.00     0.165 A 
ATOM     14  C   UNL     1       2.236  43.545  52.651  1.00  0.00     0.082 A 
ATOM     15  N   UNL     1       0.362  43.782  53.772  1.00  0.00    -0.250 N 
ATOM     16  C   UNL     1       1.147  42.907  52.021  1.00  0.00     0.149 A 
ATOM     17  N   UNL     1      -0.005  43.063  52.686  1.00  0.00    -0.179 NA
ATOM     18  C   UNL     1      -0.628  44.134  54.758  1.00  0.00     0.176 C 
BRANCH  12  19
ATOM     19  N   UNL     1       4.345  43.245  51.370  1.00  0.00    -0.338 N 
ATOM     20  H   UNL     1       4.232  42.236  51.302  1.00  0.00     0.168 HD
BRANCH  19  21
ATOM     21  C   UNL     1       5.567  43.675  50.806  1.00  0.00     0.058 A 
ATOM     22  C   UNL     1       6.099  44.950  51.040  1.00  0.00     0.027 A 
ATOM     23  C   UNL     1       6.277  42.821  49.935  1.00  0.00     0.064 A 
ATOM     24  C   UNL     1       7.290  45.361  50.430  1.00  0.00     0.002 A 
ATOM     25  C   UNL     1       7.466  43.230  49.324  1.00  0.00     0.023 A 
ATOM     26  C   UNL     1       7.971  44.503  49.570  1.00  0.00     0.002 A 
ATOM     27  Cl  UNL     1       5.700  41.223  49.597  1.00  0.00    -0.082 Cl
ENDBRANCH  19  21
ENDBRANCH  12  19
ENDBRANCH   7   9
ENDBRANCH   1   7
TORSDOF 7
ENDMDL
MODEL 3
REMARK VINA RESULT:    -8.274      2.394      5.471
REMARK INTER + INTRA:         -12.810
REMARK INTER:                 -11.789
REMARK INTRA:                  -1.020
REMARK UNBOUND:                -1.150
REMARK SMILES CC(C)OCCNc1nc(Nc2ccccc2Cl)c2cnn(C)c2n1
REMARK SMILES IDX 6 1 5 2 4 3 2 4 1 5 3 6 7 7 8 9 9 10 25 11 10 12 24 13 19 14
REMARK SMILES IDX 22 15 20 16 21 17 23 18 11 19 12 21 13 22 17 23 14 24 16 25
REMARK SMILES IDX 15 26 18 27
REMARK H PARENT 7 8 11 20
ROOT
ATOM      1  C   UNL     1       1.621  43.235  52.546  1.00  0.00     0.144 C 
ENDROOT
BRANCH   1   2
ATOM      2  C   UNL     1       0.810  44.234  53.380  1.00  0.00     0.181 C 
BRANCH   2   3
ATOM      3  O   UNL     1       1.188  44.102  54.754  1.00  0.00    -0.377 OA
BRANCH   3   4
ATOM      4  C   UNL     1       1.319  45.357  55.428  1.00  0.00     0.112 C 
ATOM      5  C   UNL     1       0.723  45.280  56.830  1.00  0.00     0.038 C 
ATOM      6  C   UNL     1       2.809  45.669  55.504  1.00  0.00     0.038 C 
ENDBRANCH   3   4
ENDBRANCH   2   3
ENDBRANCH   1   2
BRANCH   1   7
ATOM      7  N   UNL     1       2.966  43.040  53.072  1.00  0.00    -0.352 N 
ATOM      8  H   UNL     1       3.166  42.091  53.370  1.00  0.00     0.163 HD
BRANCH   7   9
ATOM      9  C   UNL     1       3.999  43.373  52.204  1.00  0.00     0.226 A 
ATOM     10  N   UNL     1       4.585  44.556  52.465  1.00  0.00    -0.195 NA
ATOM     11  N   UNL     1       4.330  42.542  51.209  1.00  0.00    -0.193 NA
ATOM     12  C   UNL     1       5.585  45.018  51.670  1.00  0.00     0.147 A 
ATOM     13  C   UNL     1       5.353  42.993  50.470  1.00  0.00     0.165 A 
ATOM     14  C   UNL     1       6.024  44.188  50.635  1.00  0.00     0.082 A 
ATOM     15  N   UNL     1       5.952  42.366  49.412  1.00  0.00    -0.250 N 
ATOM     16  C   UNL     1       7.034  44.159  49.651  1.00  0.00     0.149 A 
ATOM     17  N   UNL     1       6.987  43.062  48.886  1.00  0.00    -0.179 NA
ATOM     18  C   UNL     1       5.601  41.085  48.852  1.00  0.00     0.176 C 
BRANCH  12  19
ATOM     19  N   UNL     1       6.141  46.252  52.016  1.00  0.00    -0.338 N 
ATOM     20  H   UNL     1       5.782  46.974  51.394  1.00  0.00     0.168 HD
BRANCH  19  21
ATOM     21  C   UNL     1       7.407  46.593  52.540  1.00  0.00     0.058 A 
ATOM     22  C   UNL     1       8.569  46.614  51.757  1.00  0.00     0.027 A 
ATOM     23  C   UNL     1       7.541  46.887  53.915  1.00  0.00     0.064 A 
ATOM     24  C   UNL     1       9.816  46.913  52.319  1.00  0.00     0.002 A 
ATOM     25  C   UNL     1       8.786  47.184  54.477  1.00  0.00     0.023 A 
ATOM     26  C   UNL     1       9.925  47.194  53.678  1.00  0.00     0.002 A 
ATOM     27  Cl  UNL     1       6.158  46.897  54.957  1.00  0.00    -0.082 Cl
ENDBRANCH  19  21
ENDBRANCH  12  19
ENDBRANCH   7   9
ENDBRANCH   1   7
TORSDOF 7
ENDMDL
MODEL 4
REMARK VINA RESULT:    -8.253      2.063      5.257
REMARK INTER + INTRA:         -12.780
REMARK INTER:                 -11.353
REMARK INTRA:                  -1.427
REMARK UNBOUND:                -1.150
REMARK SMILES CC(C)OCCNc1nc(Nc2ccccc2Cl)c2cnn(C)c2n1
REMARK SMILES IDX 6 1 5 2 4 3 2 4 1 5 3 6 7 7 8 9 9 10 25 11 10 12 24 13 19 14
REMARK SMILES IDX 22 15 20 16 21 17 23 18 11 19 12 21 13 22 17 23 14 24 16 25
REMARK SMILES IDX 15 26 18 27
REMARK H PARENT 7 8 11 20
ROOT
ATOM      1  C   UNL     1       1.937  44.904  53.082  1.00  0.00     0.144 C 
ENDROOT
BRANCH   1   2
ATOM      2  C   UNL     1       2.846  44.554  54.266  1.00  0.00     0.181 C 
BRANCH   2   3
ATOM      3  O   UNL     1       3.004  45.717  55.086  1.00  0.00    -0.377 OA
BRANCH   3   4
ATOM      4  C   UNL     1       4.373  46.064  55.317  1.00  0.00     0.112 C 
ATOM      5  C   UNL     1       5.300  44.962  54.814  1.00  0.00     0.038 C 
ATOM      6  C   UNL     1       4.637  47.361  54.561  1.00  0.00     0.038 C 
ENDBRANCH   3   4
ENDBRANCH   2   3
ENDBRANCH   1   2
BRANCH   1   7
ATOM      7  N   UNL     1       2.647  45.635  52.040  1.00  0.00    -0.352 N 
ATOM      8  H   UNL     1       3.041  46.519  52.342  1.00  0.00     0.163 HD
BRANCH   7   9
ATOM      9  C   UNL     1       3.701  44.951  51.446  1.00  0.00     0.226 A 
ATOM     10  N   UNL     1       4.828  45.675  51.314  1.00  0.00    -0.195 NA
ATOM     11  N   UNL     1       3.540  43.681  51.058  1.00  0.00    -0.193 NA
ATOM     12  C   UNL     1       5.923  45.138  50.716  1.00  0.00     0.147 A 
ATOM     13  C   UNL     1       4.649  43.155  50.520  1.00  0.00     0.165 A 
ATOM     14  C   UNL     1       5.855  43.798  50.324  1.00  0.00     0.082 A 
ATOM     15  N   UNL     1       4.824  41.877  50.063  1.00  0.00    -0.250 N 
ATOM     16  C   UNL     1       6.697  42.804  49.784  1.00  0.00     0.149 A 
ATOM     17  N   UNL     1       6.073  41.633  49.603  1.00  0.00    -0.179 NA
ATOM     18  C   UNL     1       3.844  40.819  50.052  1.00  0.00     0.176 C 
BRANCH  12  19
ATOM     19  N   UNL     1       7.052  45.956  50.624  1.00  0.00    -0.338 N 
ATOM     20  H   UNL     1       7.490  45.832  49.714  1.00  0.00     0.168 HD
BRANCH  19  21
ATOM     21  C   UNL     1       7.980  46.381  51.600  1.00  0.00     0.058 A 
ATOM     22  C   UNL     1       7.650  47.294  52.609  1.00  0.00     0.027 A 
ATOM     23  C   UNL     1       9.311  45.913  51.553  1.00  0.00     0.064 A 
ATOM     24  C   UNL     1       8.606  47.728  53.535  1.00  0.00     0.002 A 
ATOM     25  C   UNL     1      10.268  46.346  52.475  1.00  0.00     0.023 A 
ATOM     26  C   UNL     1       9.915  47.257  53.466  1.00  0.00     0.002 A 
ATOM     27  Cl  UNL     1       9.807  44.772  50.347  1.00  0.00    -0.082 Cl
ENDBRANCH  19  21
ENDBRANCH  12  19
ENDBRANCH   7   9
ENDBRANCH   1   7
TORSDOF 7
ENDMDL
MODEL 5
REMARK VINA RESULT:    -8.153      2.567      5.520
REMARK INTER + INTRA:         -12.639
REMARK INTER:                 -11.847
REMARK INTRA:                  -0.793
REMARK UNBOUND:                -1.150
REMARK SMILES CC(C)OCCNc1nc(Nc2ccccc2Cl)c2cnn(C)c2n1
REMARK SMILES IDX 6 1 5 2 4 3 2 4 1 5 3 6 7 7 8 9 9 10 25 11 10 12 24 13 19 14
REMARK SMILES IDX 22 15 20 16 21 17 23 18 11 19 12 21 13 22 17 23 14 24 16 25
REMARK SMILES IDX 15 26 18 27
REMARK H PARENT 7 8 11 20
ROOT
ATOM      1  C   UNL     1       2.348  44.661  53.684  1.00  0.00     0.144 C 
ENDROOT
BRANCH   1   2
ATOM      2  C   UNL     1       1.453  44.357  54.892  1.00  0.00     0.181 C 
BRANCH   2   3
ATOM      3  O   UNL     1       1.262  45.563  55.640  1.00  0.00    -0.377 OA
BRANCH   3   4
ATOM      4  C   UNL     1       0.650  45.347  56.914  1.00  0.00     0.112 C 
ATOM      5  C   UNL     1       0.986  46.486  57.873  1.00  0.00     0.038 C 
ATOM      6  C   UNL     1      -0.855  45.282  56.681  1.00  0.00     0.038 C 
ENDBRANCH   3   4
ENDBRANCH   2   3
ENDBRANCH   1   2
BRANCH   1   7
ATOM      7  N   UNL     1       2.969  43.459  53.142  1.00  0.00    -0.352 N 
ATOM      8  H   UNL     1       2.331  42.844  52.648  1.00  0.00     0.163 HD
BRANCH   7   9
ATOM      9  C   UNL     1       4.019  43.678  52.259  1.00  0.00     0.226 A 
ATOM     10  N   UNL     1       4.680  44.834  52.457  1.00  0.00    -0.195 NA
ATOM     11  N   UNL     1       4.295  42.774  51.312  1.00  0.00    -0.193 NA
ATOM     12  C   UNL     1       5.706  45.187  51.639  1.00  0.00     0.147 A 
ATOM     13  C   UNL     1       5.344  43.119  50.551  1.00  0.00     0.165 A 
ATOM     14  C   UNL     1       6.089  44.276  50.652  1.00  0.00     0.082 A 
ATOM     15  N   UNL     1       5.900  42.398  49.529  1.00  0.00    -0.250 N 
ATOM     16  C   UNL     1       7.094  44.130  49.672  1.00  0.00     0.149 A 
ATOM     17  N   UNL     1       6.976  42.997  48.969  1.00  0.00    -0.179 NA
ATOM     18  C   UNL     1       5.467  41.113  49.040  1.00  0.00     0.176 C 
BRANCH  12  19
ATOM     19  N   UNL     1       6.339  46.401  51.918  1.00  0.00    -0.338 N 
ATOM     20  H   UNL     1       6.103  47.082  51.199  1.00  0.00     0.168 HD
BRANCH  19  21
ATOM     21  C   UNL     1       7.581  46.689  52.526  1.00  0.00     0.058 A 
ATOM     22  C   UNL     1       8.794  46.639  51.827  1.00  0.00     0.027 A 
ATOM     23  C   UNL     1       7.633  46.999  53.902  1.00  0.00     0.064 A 
ATOM     24  C   UNL     1      10.012  46.887  52.471  1.00  0.00     0.002 A 
ATOM     25  C   UNL     1       8.848  47.246  54.547  1.00  0.00     0.023 A 
ATOM     26  C   UNL     1      10.039  47.187  53.831  1.00  0.00     0.002 A 
ATOM     27  Cl  UNL     1       6.182  47.095  54.844  1.00  0.00    -0.082 Cl
ENDBRANCH  19  21
ENDBRANCH  12  19
ENDBRANCH   7   9
ENDBRANCH   1   7
TORSDOF 7
ENDMDL
MODEL 6
REMARK VINA RESULT:    -8.057      2.661      5.845
REMARK INTER + INTRA:         -12.504
REMARK INTER:                 -11.619
REMARK INTRA:                  -0.885
REMARK UNBOUND:                -1.150
REMARK SMILES CC(C)OCCNc1nc(Nc2ccccc2Cl)c2cnn(C)c2n1
REMARK SMILES IDX 6 1 5 2 4 3 2 4 1 5 3 6 7 7 8 9 9 10 25 11 10 12 24 13 19 14
REMARK SMILES IDX 22 15 20 16 21 17 23 18 11 19 12 21 13 22 17 23 14 24 16 25
REMARK SMILES IDX 15 26 18 27
REMARK H PARENT 7 8 11 20
ROOT
ATOM      1  C   UNL     1       6.069  45.617  54.843  1.00  0.00     0.144 C 
ENDROOT
BRANCH   1   2
ATOM      2  C   UNL     1       6.214  47.126  54.614  1.00  0.00     0.181 C 
BRANCH   2   3
ATOM      3  O   UNL     1       7.578  47.498  54.836  1.00  0.00    -0.377 OA
BRANCH   3   4
ATOM      4  C   UNL     1       8.451  47.110  53.772  1.00  0.00     0.112 C 
ATOM      5  C   UNL     1       8.259  48.016  52.560  1.00  0.00     0.038 C 
ATOM      6  C   UNL     1       9.877  47.229  54.299  1.00  0.00     0.038 C 
ENDBRANCH   3   4
ENDBRANCH   2   3
ENDBRANCH   1   2
BRANCH   1   7
ATOM      7  N   UNL     1       4.942  45.296  55.708  1.00  0.00    -0.352 N 
ATOM      8  H   UNL     1       4.725  46.010  56.396  1.00  0.00     0.163 HD
BRANCH   7   9
ATOM      9  C   UNL     1       3.742  45.046  55.054  1.00  0.00     0.226 A 
ATOM     10  N   UNL     1       3.874  44.709  53.757  1.00  0.00    -0.195 NA
ATOM     11  N   UNL     1       2.584  45.152  55.717  1.00  0.00    -0.193 NA
ATOM     12  C   UNL     1       2.776  44.474  52.993  1.00  0.00     0.147 A 
ATOM     13  C   UNL     1       1.518  44.864  54.957  1.00  0.00     0.165 A 
ATOM     14  C   UNL     1       1.529  44.518  53.621  1.00  0.00     0.082 A 
ATOM     15  N   UNL     1       0.206  44.842  55.343  1.00  0.00    -0.250 N 
ATOM     16  C   UNL     1       0.175  44.267  53.315  1.00  0.00     0.149 A 
ATOM     17  N   UNL     1      -0.643  44.481  54.353  1.00  0.00    -0.179 NA
ATOM     18  C   UNL     1      -0.317  45.138  56.654  1.00  0.00     0.176 C 
BRANCH  12  19
ATOM     19  N   UNL     1       3.004  44.126  51.659  1.00  0.00    -0.338 N 
ATOM     20  H   UNL     1       2.115  43.985  51.187  1.00  0.00     0.168 HD
BRANCH  19  21
ATOM     21  C   UNL     1       4.045  43.391  51.050  1.00  0.00     0.058 A 
ATOM     22  C   UNL     1       3.995  41.999  50.893  1.00  0.00     0.027 A 
ATOM     23  C   UNL     1       5.211  44.055  50.612  1.00  0.00     0.064 A 
ATOM     24  C   UNL     1       5.064  41.296  50.326  1.00  0.00     0.002 A 
ATOM     25  C   UNL     1       6.280  43.355  50.046  1.00  0.00     0.023 A 
ATOM     26  C   UNL     1       6.206  41.972  49.905  1.00  0.00     0.002 A 
ATOM     27  Cl  UNL     1       5.356  45.776  50.754  1.00  0.00    -0.082 Cl
ENDBRANCH  19  21
ENDBRANCH  12  19
ENDBRANCH   7   9
ENDBRANCH   1   7
TORSDOF 7
ENDMDL
MODEL 7
REMARK VINA RESULT:    -8.051      2.456      5.342
REMARK INTER + INTRA:         -12.495
REMARK INTER:                 -11.483
REMARK INTRA:                  -1.012
REMARK UNBOUND:                -1.150
REMARK SMILES CC(C)OCCNc1nc(Nc2ccccc2Cl)c2cnn(C)c2n1
REMARK SMILES IDX 6 1 5 2 4 3 2 4 1 5 3 6 7 7 8 9 9 10 25 11 10 12 24 13 19 14
REMARK SMILES IDX 22 15 20 16 21 17 23 18 11 19 12 21 13 22 17 23 14 24 16 25
REMARK SMILES IDX 15 26 18 27
REMARK H PARENT 7 8 11 20
ROOT
ATOM      1  C   UNL     1       2.724  44.653  54.098  1.00  0.00     0.144 C 
ENDROOT
BRANCH   1   2
ATOM      2  C   UNL     1       1.218  44.935  54.168  1.00  0.00     0.181 C 
BRANCH   2   3
ATOM      3  O   UNL     1       0.611  44.502  52.946  1.00  0.00    -0.377 OA
BRANCH   3   4
ATOM      4  C   UNL     1      -0.578  43.733  53.147  1.00  0.00     0.112 C 
ATOM      5  C   UNL     1      -0.344  42.273  52.773  1.00  0.00     0.038 C 
ATOM      6  C   UNL     1      -0.939  43.848  54.624  1.00  0.00     0.038 C 
ENDBRANCH   3   4
ENDBRANCH   2   3
ENDBRANCH   1   2
BRANCH   1   7
ATOM      7  N   UNL     1       3.033  43.509  53.250  1.00  0.00    -0.352 N 
ATOM      8  H   UNL     1       2.250  43.173  52.698  1.00  0.00     0.163 HD
BRANCH   7   9
ATOM      9  C   UNL     1       4.062  43.706  52.336  1.00  0.00     0.226 A 
ATOM     10  N   UNL     1       4.749  44.849  52.510  1.00  0.00    -0.195 NA
ATOM     11  N   UNL     1       4.293  42.794  51.384  1.00  0.00    -0.193 NA
ATOM     12  C   UNL     1       5.757  45.181  51.663  1.00  0.00     0.147 A 
ATOM     13  C   UNL     1       5.326  43.116  50.593  1.00  0.00     0.165 A 
ATOM     14  C   UNL     1       6.096  44.260  50.668  1.00  0.00     0.082 A 
ATOM     15  N   UNL     1       5.839  42.382  49.558  1.00  0.00    -0.250 N 
ATOM     16  C   UNL     1       7.069  44.091  49.661  1.00  0.00     0.149 A 
ATOM     17  N   UNL     1       6.910  42.959  48.965  1.00  0.00    -0.179 NA
ATOM     18  C   UNL     1       5.368  41.104  49.086  1.00  0.00     0.176 C 
BRANCH  12  19
ATOM     19  N   UNL     1       6.421  46.383  51.919  1.00  0.00    -0.338 N 
ATOM     20  H   UNL     1       6.189  47.062  51.197  1.00  0.00     0.168 HD
BRANCH  19  21
ATOM     21  C   UNL     1       7.679  46.650  52.505  1.00  0.00     0.058 A 
ATOM     22  C   UNL     1       8.880  46.564  51.789  1.00  0.00     0.027 A 
ATOM     23  C   UNL     1       7.759  46.977  53.876  1.00  0.00     0.064 A 
ATOM     24  C   UNL     1      10.112  46.791  52.411  1.00  0.00     0.002 A 
ATOM     25  C   UNL     1       8.989  47.204  54.500  1.00  0.00     0.023 A 
ATOM     26  C   UNL     1      10.167  47.108  53.766  1.00  0.00     0.002 A 
ATOM     27  Cl  UNL     1       6.325  47.118  54.838  1.00  0.00    -0.082 Cl
ENDBRANCH  19  21
ENDBRANCH  12  19
ENDBRANCH   7   9
ENDBRANCH   1   7
TORSDOF 7
ENDMDL
MODEL 8
REMARK VINA RESULT:    -7.979      3.252      6.715
REMARK INTER + INTRA:         -12.393
REMARK INTER:                 -11.598
REMARK INTRA:                  -0.795
REMARK UNBOUND:                -1.150
REMARK SMILES CC(C)OCCNc1nc(Nc2ccccc2Cl)c2cnn(C)c2n1
REMARK SMILES IDX 6 1 5 2 4 3 2 4 1 5 3 6 7 7 8 9 9 10 25 11 10 12 24 13 19 14
REMARK SMILES IDX 22 15 20 16 21 17 23 18 11 19 12 21 13 22 17 23 14 24 16 25
REMARK SMILES IDX 15 26 18 27
REMARK H PARENT 7 8 11 20
ROOT
ATOM      1  C   UNL     1       6.008  41.925  49.295  1.00  0.00     0.144 C 
ENDROOT
BRANCH   1   2
ATOM      2  C   UNL     1       5.403  41.244  48.061  1.00  0.00     0.181 C 
BRANCH   2   3
ATOM      3  O   UNL     1       5.804  41.966  46.892  1.00  0.00    -0.377 OA
BRANCH   3   4
ATOM      4  C   UNL     1       5.250  41.438  45.684  1.00  0.00     0.112 C 
ATOM      5  C   UNL     1       3.882  40.816  45.945  1.00  0.00     0.038 C 
ATOM      6  C   UNL     1       5.123  42.600  44.706  1.00  0.00     0.038 C 
ENDBRANCH   3   4
ENDBRANCH   2   3
ENDBRANCH   1   2
BRANCH   1   7
ATOM      7  N   UNL     1       5.308  41.566  50.522  1.00  0.00    -0.352 N 
ATOM      8  H   UNL     1       5.875  41.063  51.196  1.00  0.00     0.163 HD
BRANCH   7   9
ATOM      9  C   UNL     1       4.762  42.631  51.229  1.00  0.00     0.226 A 
ATOM     10  N   UNL     1       5.474  43.771  51.155  1.00  0.00    -0.195 NA
ATOM     11  N   UNL     1       3.622  42.467  51.910  1.00  0.00    -0.193 NA
ATOM     12  C   UNL     1       5.071  44.878  51.831  1.00  0.00     0.147 A 
ATOM     13  C   UNL     1       3.215  43.585  52.525  1.00  0.00     0.165 A 
ATOM     14  C   UNL     1       3.863  44.805  52.529  1.00  0.00     0.082 A 
ATOM     15  N   UNL     1       2.077  43.759  53.264  1.00  0.00    -0.250 N 
ATOM     16  C   UNL     1       3.006  45.651  53.263  1.00  0.00     0.149 A 
ATOM     17  N   UNL     1       1.923  45.019  53.734  1.00  0.00    -0.179 NA
ATOM     18  C   UNL     1       1.072  42.767  53.553  1.00  0.00     0.176 C 
BRANCH  12  19
ATOM     19  N   UNL     1       5.865  46.019  51.695  1.00  0.00    -0.338 N 
ATOM     20  H   UNL     1       5.642  46.487  50.819  1.00  0.00     0.168 HD
BRANCH  19  21
ATOM     21  C   UNL     1       7.184  46.295  52.118  1.00  0.00     0.058 A 
ATOM     22  C   UNL     1       8.292  46.160  51.271  1.00  0.00     0.027 A 
ATOM     23  C   UNL     1       7.427  46.683  53.453  1.00  0.00     0.064 A 
ATOM     24  C   UNL     1       9.591  46.399  51.734  1.00  0.00     0.002 A 
ATOM     25  C   UNL     1       8.723  46.921  53.918  1.00  0.00     0.023 A 
ATOM     26  C   UNL     1       9.807  46.776  53.058  1.00  0.00     0.002 A 
ATOM     27  Cl  UNL     1       6.116  46.887  54.568  1.00  0.00    -0.082 Cl
ENDBRANCH  19  21
ENDBRANCH  12  19
ENDBRANCH   7   9
ENDBRANCH   1   7
TORSDOF 7
ENDMDL
MODEL 9
REMARK VINA RESULT:    -7.962      2.893      6.414
REMARK INTER + INTRA:         -12.370
REMARK INTER:                 -11.561
REMARK INTRA:                  -0.809
REMARK UNBOUND:                -1.150
REMARK SMILES CC(C)OCCNc1nc(Nc2ccccc2Cl)c2cnn(C)c2n1
REMARK SMILES IDX 6 1 5 2 4 3 2 4 1 5 3 6 7 7 8 9 9 10 25 11 10 12 24 13 19 14
REMARK SMILES IDX 22 15 20 16 21 17 23 18 11 19 12 21 13 22 17 23 14 24 16 25
REMARK SMILES IDX 15 26 18 27
REMARK H PARENT 7 8 11 20
ROOT
ATOM      1  C   UNL     1       5.848  41.810  49.440  1.00  0.00     0.144 C 
ENDROOT
BRANCH   1   2
ATOM      2  C   UNL     1       5.298  41.169  48.161  1.00  0.00     0.181 C 
BRANCH   2   3
ATOM      3  O   UNL     1       5.767  41.914  47.032  1.00  0.00    -0.377 OA
BRANCH   3   4
ATOM      4  C   UNL     1       5.275  41.420  45.783  1.00  0.00     0.112 C 
ATOM      5  C   UNL     1       3.884  40.816  45.954  1.00  0.00     0.038 C 
ATOM      6  C   UNL     1       5.220  42.605  44.826  1.00  0.00     0.038 C 
ENDBRANCH   3   4
ENDBRANCH   2   3
ENDBRANCH   1   2
BRANCH   1   7
ATOM      7  N   UNL     1       4.953  41.628  50.576  1.00  0.00    -0.352 N 
ATOM      8  H   UNL     1       5.312  41.013  51.299  1.00  0.00     0.163 HD
BRANCH   7   9
ATOM      9  C   UNL     1       4.590  42.794  51.240  1.00  0.00     0.226 A 
ATOM     10  N   UNL     1       5.413  43.837  51.024  1.00  0.00    -0.195 NA
ATOM     11  N   UNL     1       3.501  42.809  52.018  1.00  0.00    -0.193 NA
ATOM     12  C   UNL     1       5.193  45.026  51.642  1.00  0.00     0.147 A 
ATOM     13  C   UNL     1       3.274  44.006  52.576  1.00  0.00     0.165 A 
ATOM     14  C   UNL     1       4.048  45.140  52.436  1.00  0.00     0.082 A 
ATOM     15  N   UNL     1       2.229  44.359  53.386  1.00  0.00    -0.250 N 
ATOM     16  C   UNL     1       3.356  46.127  53.168  1.00  0.00     0.149 A 
ATOM     17  N   UNL     1       2.255  45.657  53.768  1.00  0.00    -0.179 NA
ATOM     18  C   UNL     1       1.150  43.511  53.827  1.00  0.00     0.176 C 
BRANCH  12  19
ATOM     19  N   UNL     1       6.093  46.056  51.358  1.00  0.00    -0.338 N 
ATOM     20  H   UNL     1       6.051  46.282  50.367  1.00  0.00     0.168 HD
BRANCH  19  21
ATOM     21  C   UNL     1       7.348  46.381  51.918  1.00  0.00     0.058 A 
ATOM     22  C   UNL     1       7.483  47.215  53.036  1.00  0.00     0.027 A 
ATOM     23  C   UNL     1       8.530  45.894  51.321  1.00  0.00     0.064 A 
ATOM     24  C   UNL     1       8.745  47.553  53.539  1.00  0.00     0.002 A 
ATOM     25  C   UNL     1       9.791  46.231  51.821  1.00  0.00     0.023 A 
ATOM     26  C   UNL     1       9.898  47.064  52.930  1.00  0.00     0.002 A 
ATOM     27  Cl  UNL     1       8.459  44.847  49.943  1.00  0.00    -0.082 Cl
ENDBRANCH  19  21
ENDBRANCH  12  19
ENDBRANCH   7   9
ENDBRANCH   1   7
TORSDOF 7
ENDMDL
MODEL 10
REMARK VINA RESULT:    -7.835      3.027      6.142
REMARK INTER + INTRA:         -12.190
REMARK INTER:                 -11.186
REMARK INTRA:                  -1.004
REMARK UNBOUND:                -1.150
REMARK SMILES CC(C)OCCNc1nc(Nc2ccccc2Cl)c2cnn(C)c2n1
REMARK SMILES IDX 6 1 5 2 4 3 2 4 1 5 3 6 7 7 8 9 9 10 25 11 10 12 24 13 19 14
REMARK SMILES IDX 22 15 20 16 21 17 23 18 11 19 12 21 13 22 17 23 14 24 16 25
REMARK SMILES IDX 15 26 18 27
REMARK H PARENT 7 8 11 20
ROOT
ATOM      1  C   UNL     1       5.177  47.019  53.905  1.00  0.00     0.144 C 
ENDROOT
BRANCH   1   2
ATOM      2  C   UNL     1       6.525  46.518  54.438  1.00  0.00     0.181 C 
BRANCH   2   3
ATOM      3  O   UNL     1       7.534  47.482  54.122  1.00  0.00    -0.377 OA
BRANCH   3   4
ATOM      4  C   UNL     1       8.553  46.971  53.258  1.00  0.00     0.112 C 
ATOM      5  C   UNL     1       8.515  47.676  51.905  1.00  0.00     0.038 C 
ATOM      6  C   UNL     1       9.889  47.225  53.947  1.00  0.00     0.038 C 
ENDBRANCH   3   4
ENDBRANCH   2   3
ENDBRANCH   1   2
BRANCH   1   7
ATOM      7  N   UNL     1       5.029  46.785  52.475  1.00  0.00    -0.352 N 
ATOM      8  H   UNL     1       5.786  47.155  51.909  1.00  0.00     0.163 HD
BRANCH   7   9
ATOM      9  C   UNL     1       4.911  45.453  52.098  1.00  0.00     0.226 A 
ATOM     10  N   UNL     1       3.935  44.779  52.734  1.00  0.00    -0.195 NA
ATOM     11  N   UNL     1       5.735  44.944  51.174  1.00  0.00    -0.193 NA
ATOM     12  C   UNL     1       3.738  43.458  52.485  1.00  0.00     0.147 A 
ATOM     13  C   UNL     1       5.487  43.655  50.906  1.00  0.00     0.165 A 
ATOM     14  C   UNL     1       4.525  42.861  51.498  1.00  0.00     0.082 A 
ATOM     15  N   UNL     1       6.121  42.861  49.989  1.00  0.00    -0.250 N 
ATOM     16  C   UNL     1       4.639  41.622  50.833  1.00  0.00     0.149 A 
ATOM     17  N   UNL     1       5.623  41.605  49.925  1.00  0.00    -0.179 NA
ATOM     18  C   UNL     1       7.207  43.240  49.120  1.00  0.00     0.176 C 
BRANCH  12  19
ATOM     19  N   UNL     1       2.701  42.837  53.186  1.00  0.00    -0.338 N 
ATOM     20  H   UNL     1       2.912  41.848  53.301  1.00  0.00     0.168 HD
BRANCH  19  21
ATOM     21  C   UNL     1       1.310  43.084  53.210  1.00  0.00     0.058 A 
ATOM     22  C   UNL     1       0.437  42.582  52.236  1.00  0.00     0.027 A 
ATOM     23  C   UNL     1       0.760  43.900  54.221  1.00  0.00     0.064 A 
ATOM     24  C   UNL     1      -0.930  42.882  52.264  1.00  0.00     0.002 A 
ATOM     25  C   UNL     1      -0.605  44.202  54.251  1.00  0.00     0.023 A 
ATOM     26  C   UNL     1      -1.450  43.694  53.269  1.00  0.00     0.002 A 
ATOM     27  Cl  UNL     1       1.761  44.554  55.474  1.00  0.00    -0.082 Cl
ENDBRANCH  19  21
ENDBRANCH  12  19
ENDBRANCH   7   9
ENDBRANCH   1   7
TORSDOF 7
ENDMDL
MODEL 11
REMARK VINA RESULT:    -7.800      1.942      5.067
REMARK INTER + INTRA:         -12.141
REMARK INTER:                 -11.050
REMARK INTRA:                  -1.091
REMARK UNBOUND:                -1.150
REMARK SMILES CC(C)OCCNc1nc(Nc2ccccc2Cl)c2cnn(C)c2n1
REMARK SMILES IDX 6 1 5 2 4 3 2 4 1 5 3 6 7 7 8 9 9 10 25 11 10 12 24 13 19 14
REMARK SMILES IDX 22 15 20 16 21 17 23 18 11 19 12 21 13 22 17 23 14 24 16 25
REMARK SMILES IDX 15 26 18 27
REMARK H PARENT 7 8 11 20
ROOT
ATOM      1  C   UNL     1       2.931  45.410  54.112  1.00  0.00     0.144 C 
ENDROOT
BRANCH   1   2
ATOM      2  C   UNL     1       1.436  45.680  53.905  1.00  0.00     0.181 C 
BRANCH   2   3
ATOM      3  O   UNL     1       1.166  45.735  52.500  1.00  0.00    -0.377 OA
BRANCH   3   4
ATOM      4  C   UNL     1       0.051  44.931  52.107  1.00  0.00     0.112 C 
ATOM      5  C   UNL     1       0.506  43.780  51.214  1.00  0.00     0.038 C 
ATOM      6  C   UNL     1      -0.581  44.389  53.384  1.00  0.00     0.038 C 
ENDBRANCH   3   4
ENDBRANCH   2   3
ENDBRANCH   1   2
BRANCH   1   7
ATOM      7  N   UNL     1       3.299  44.047  53.751  1.00  0.00    -0.352 N 
ATOM      8  H   UNL     1       2.512  43.436  53.560  1.00  0.00     0.163 HD
BRANCH   7   9
ATOM      9  C   UNL     1       4.128  43.929  52.642  1.00  0.00     0.226 A 
ATOM     10  N   UNL     1       5.014  44.932  52.499  1.00  0.00    -0.195 NA
ATOM     11  N   UNL     1       4.001  42.879  51.821  1.00  0.00    -0.193 NA
ATOM     12  C   UNL     1       5.859  44.957  51.436  1.00  0.00     0.147 A 
ATOM     13  C   UNL     1       4.879  42.897  50.810  1.00  0.00     0.165 A 
ATOM     14  C   UNL     1       5.823  43.873  50.556  1.00  0.00     0.082 A 
ATOM     15  N   UNL     1       5.034  41.957  49.828  1.00  0.00    -0.250 N 
ATOM     16  C   UNL     1       6.519  43.398  49.424  1.00  0.00     0.149 A 
ATOM     17  N   UNL     1       6.033  42.240  48.960  1.00  0.00    -0.179 NA
ATOM     18  C   UNL     1       4.272  40.744  49.663  1.00  0.00     0.176 C 
BRANCH  12  19
ATOM     19  N   UNL     1       6.748  46.032  51.368  1.00  0.00    -0.338 N 
ATOM     20  H   UNL     1       6.917  46.274  50.394  1.00  0.00     0.168 HD
BRANCH  19  21
ATOM     21  C   UNL     1       7.830  46.404  52.196  1.00  0.00     0.058 A 
ATOM     22  C   UNL     1       7.664  47.174  53.355  1.00  0.00     0.027 A 
ATOM     23  C   UNL     1       9.145  46.033  51.842  1.00  0.00     0.064 A 
ATOM     24  C   UNL     1       8.763  47.562  54.130  1.00  0.00     0.002 A 
ATOM     25  C   UNL     1      10.244  46.420  52.614  1.00  0.00     0.023 A 
ATOM     26  C   UNL     1      10.052  47.189  53.758  1.00  0.00     0.002 A 
ATOM     27  Cl  UNL     1       9.444  45.070  50.433  1.00  0.00    -0.082 Cl
ENDBRANCH  19  21
ENDBRANCH  12  19
ENDBRANCH   7   9
ENDBRANCH   1   7
TORSDOF 7
ENDMDL
MODEL 12
REMARK VINA RESULT:    -7.758      2.270      5.559
REMARK INTER + INTRA:         -12.082
REMARK INTER:                 -10.960
REMARK INTRA:                  -1.122
REMARK UNBOUND:                -1.150
REMARK SMILES CC(C)OCCNc1nc(Nc2ccccc2Cl)c2cnn(C)c2n1
REMARK SMILES IDX 6 1 5 2 4 3 2 4 1 5 3 6 7 7 8 9 9 10 25 11 10 12 24 13 19 14
REMARK SMILES IDX 22 15 20 16 21 17 23 18 11 19 12 21 13 22 17 23 14 24 16 25
REMARK SMILES IDX 15 26 18 27
REMARK H PARENT 7 8 11 20
ROOT
ATOM      1  C   UNL     1       2.716  42.283  50.902  1.00  0.00     0.144 C 
ENDROOT
BRANCH   1   2
ATOM      2  C   UNL     1       4.075  41.608  51.128  1.00  0.00     0.181 C 
BRANCH   2   3
ATOM      3  O   UNL     1       4.543  41.084  49.881  1.00  0.00    -0.377 OA
BRANCH   3   4
ATOM      4  C   UNL     1       5.636  41.825  49.331  1.00  0.00     0.112 C 
ATOM      5  C   UNL     1       6.957  41.374  49.947  1.00  0.00     0.038 C 
ATOM      6  C   UNL     1       5.640  41.566  47.829  1.00  0.00     0.038 C 
ENDBRANCH   3   4
ENDBRANCH   2   3
ENDBRANCH   1   2
BRANCH   1   7
ATOM      7  N   UNL     1       2.849  43.703  50.603  1.00  0.00    -0.352 N 
ATOM      8  H   UNL     1       1.990  44.149  50.295  1.00  0.00     0.163 HD
BRANCH   7   9
ATOM      9  C   UNL     1       3.312  44.492  51.650  1.00  0.00     0.226 A 
ATOM     10  N   UNL     1       4.362  45.273  51.336  1.00  0.00    -0.195 NA
ATOM     11  N   UNL     1       2.718  44.428  52.847  1.00  0.00    -0.193 NA
ATOM     12  C   UNL     1       4.935  46.066  52.278  1.00  0.00     0.147 A 
ATOM     13  C   UNL     1       3.265  45.258  53.746  1.00  0.00     0.165 A 
ATOM     14  C   UNL     1       4.345  46.094  53.544  1.00  0.00     0.082 A 
ATOM     15  N   UNL     1       2.868  45.458  55.040  1.00  0.00    -0.250 N 
ATOM     16  C   UNL     1       4.485  46.783  54.767  1.00  0.00     0.149 A 
ATOM     17  N   UNL     1       3.602  46.388  55.693  1.00  0.00    -0.179 NA
ATOM     18  C   UNL     1       1.778  44.806  55.722  1.00  0.00     0.176 C 
BRANCH  12  19
ATOM     19  N   UNL     1       6.017  46.847  51.866  1.00  0.00    -0.338 N 
ATOM     20  H   UNL     1       5.876  47.144  50.903  1.00  0.00     0.168 HD
BRANCH  19  21
ATOM     21  C   UNL     1       7.387  46.799  52.206  1.00  0.00     0.058 A 
ATOM     22  C   UNL     1       7.922  47.510  53.289  1.00  0.00     0.027 A 
ATOM     23  C   UNL     1       8.281  46.047  51.414  1.00  0.00     0.064 A 
ATOM     24  C   UNL     1       9.292  47.476  53.572  1.00  0.00     0.002 A 
ATOM     25  C   UNL     1       9.650  46.013  51.694  1.00  0.00     0.023 A 
ATOM     26  C   UNL     1      10.156  46.731  52.773  1.00  0.00     0.002 A 
ATOM     27  Cl  UNL     1       7.707  45.128  50.062  1.00  0.00    -0.082 Cl
ENDBRANCH  19  21
ENDBRANCH  12  19
ENDBRANCH   7   9
ENDBRANCH   1   7
TORSDOF 7
ENDMDL
MODEL 13
REMARK VINA RESULT:    -7.754      3.086      6.365
REMARK INTER + INTRA:         -12.077
REMARK INTER:                 -11.389
REMARK INTRA:                  -0.688
REMARK UNBOUND:                -1.150
REMARK SMILES CC(C)OCCNc1nc(Nc2ccccc2Cl)c2cnn(C)c2n1
REMARK SMILES IDX 6 1 5 2 4 3 2 4 1 5 3 6 7 7 8 9 9 10 25 11 10 12 24 13 19 14
REMARK SMILES IDX 22 15 20 16 21 17 23 18 11 19 12 21 13 22 17 23 14 24 16 25
REMARK SMILES IDX 15 26 18 27
REMARK H PARENT 7 8 11 20
ROOT
ATOM      1  C   UNL     1       5.256  47.121  54.079  1.00  0.00     0.144 C 
ENDROOT
BRANCH   1   2
ATOM      2  C   UNL     1       6.698  46.809  54.496  1.00  0.00     0.181 C 
BRANCH   2   3
ATOM      3  O   UNL     1       7.587  47.642  53.744  1.00  0.00    -0.377 OA
BRANCH   3   4
ATOM      4  C   UNL     1       8.592  46.907  53.041  1.00  0.00     0.112 C 
ATOM      5  C   UNL     1       8.760  47.444  51.623  1.00  0.00     0.038 C 
ATOM      6  C   UNL     1       9.891  47.068  53.822  1.00  0.00     0.038 C 
ENDBRANCH   3   4
ENDBRANCH   2   3
ENDBRANCH   1   2
BRANCH   1   7
ATOM      7  N   UNL     1       5.031  46.891  52.657  1.00  0.00    -0.352 N 
ATOM      8  H   UNL     1       5.783  47.215  52.056  1.00  0.00     0.163 HD
BRANCH   7   9
ATOM      9  C   UNL     1       4.822  45.566  52.294  1.00  0.00     0.226 A 
ATOM     10  N   UNL     1       3.791  44.972  52.923  1.00  0.00    -0.195 NA
ATOM     11  N   UNL     1       5.620  44.987  51.388  1.00  0.00    -0.193 NA
ATOM     12  C   UNL     1       3.501  43.667  52.687  1.00  0.00     0.147 A 
ATOM     13  C   UNL     1       5.283  43.716  51.131  1.00  0.00     0.165 A 
ATOM     14  C   UNL     1       4.257  43.002  51.718  1.00  0.00     0.082 A 
ATOM     15  N   UNL     1       5.870  42.867  50.234  1.00  0.00    -0.250 N 
ATOM     16  C   UNL     1       4.290  41.749  51.069  1.00  0.00     0.149 A 
ATOM     17  N   UNL     1       5.282  41.649  50.176  1.00  0.00    -0.179 NA
ATOM     18  C   UNL     1       6.992  43.155  49.376  1.00  0.00     0.176 C 
BRANCH  12  19
ATOM     19  N   UNL     1       2.413  43.131  53.379  1.00  0.00    -0.338 N 
ATOM     20  H   UNL     1       2.120  42.263  52.936  1.00  0.00     0.168 HD
BRANCH  19  21
ATOM     21  C   UNL     1       1.349  43.751  54.072  1.00  0.00     0.058 A 
ATOM     22  C   UNL     1       1.557  44.654  55.123  1.00  0.00     0.027 A 
ATOM     23  C   UNL     1       0.015  43.434  53.739  1.00  0.00     0.064 A 
ATOM     24  C   UNL     1       0.481  45.217  55.818  1.00  0.00     0.002 A 
ATOM     25  C   UNL     1      -1.062  43.994  54.433  1.00  0.00     0.023 A 
ATOM     26  C   UNL     1      -0.828  44.885  55.476  1.00  0.00     0.002 A 
ATOM     27  Cl  UNL     1      -0.338  42.337  52.445  1.00  0.00    -0.082 Cl
ENDBRANCH  19  21
ENDBRANCH  12  19
ENDBRANCH   7   9
ENDBRANCH   1   7
TORSDOF 7
ENDMDL
MODEL 14
REMARK VINA RESULT:    -7.598      2.226      5.335
REMARK INTER + INTRA:         -11.857
REMARK INTER:                 -11.121
REMARK INTRA:                  -0.736
REMARK UNBOUND:                -1.150
REMARK SMILES CC(C)OCCNc1nc(Nc2ccccc2Cl)c2cnn(C)c2n1
REMARK SMILES IDX 6 1 5 2 4 3 2 4 1 5 3 6 7 7 8 9 9 10 25 11 10 12 24 13 19 14
REMARK SMILES IDX 22 15 20 16 21 17 23 18 11 19 12 21 13 22 17 23 14 24 16 25
REMARK SMILES IDX 15 26 18 27
REMARK H PARENT 7 8 11 20
ROOT
ATOM      1  C   UNL     1       3.120  45.744  54.066  1.00  0.00     0.144 C 
ENDROOT
BRANCH   1   2
ATOM      2  C   UNL     1       2.431  45.007  55.220  1.00  0.00     0.181 C 
BRANCH   2   3
ATOM      3  O   UNL     1       1.326  45.794  55.677  1.00  0.00    -0.377 OA
BRANCH   3   4
ATOM      4  C   UNL     1       0.776  45.332  56.914  1.00  0.00     0.112 C 
ATOM      5  C   UNL     1       0.812  46.438  57.965  1.00  0.00     0.038 C 
ATOM      6  C   UNL     1      -0.664  44.917  56.635  1.00  0.00     0.038 C 
ENDBRANCH   3   4
ENDBRANCH   2   3
ENDBRANCH   1   2
BRANCH   1   7
ATOM      7  N   UNL     1       2.694  45.250  52.763  1.00  0.00    -0.352 N 
ATOM      8  H   UNL     1       2.239  45.945  52.179  1.00  0.00     0.163 HD
BRANCH   7   9
ATOM      9  C   UNL     1       3.703  44.715  51.970  1.00  0.00     0.226 A 
ATOM     10  N   UNL     1       4.772  45.518  51.813  1.00  0.00    -0.195 NA
ATOM     11  N   UNL     1       3.558  43.497  51.436  1.00  0.00    -0.193 NA
ATOM     12  C   UNL     1       5.813  45.131  51.031  1.00  0.00     0.147 A 
ATOM     13  C   UNL     1       4.619  43.114  50.713  1.00  0.00     0.165 A 
ATOM     14  C   UNL     1       5.762  43.851  50.474  1.00  0.00     0.082 A 
ATOM     15  N   UNL     1       4.799  41.918  50.073  1.00  0.00    -0.250 N 
ATOM     16  C   UNL     1       6.581  42.987  49.716  1.00  0.00     0.149 A 
ATOM     17  N   UNL     1       5.996  41.813  49.449  1.00  0.00    -0.179 NA
ATOM     18  C   UNL     1       3.876  40.812  50.028  1.00  0.00     0.176 C 
BRANCH  12  19
ATOM     19  N   UNL     1       6.883  46.022  50.926  1.00  0.00    -0.338 N 
ATOM     20  H   UNL     1       7.240  46.016  49.973  1.00  0.00     0.168 HD
BRANCH  19  21
ATOM     21  C   UNL     1       7.875  46.406  51.856  1.00  0.00     0.058 A 
ATOM     22  C   UNL     1       7.603  47.232  52.953  1.00  0.00     0.027 A 
ATOM     23  C   UNL     1       9.210  45.987  51.670  1.00  0.00     0.064 A 
ATOM     24  C   UNL     1       8.618  47.629  53.831  1.00  0.00     0.002 A 
ATOM     25  C   UNL     1      10.226  46.383  52.544  1.00  0.00     0.023 A 
ATOM     26  C   UNL     1       9.930  47.208  53.625  1.00  0.00     0.002 A 
ATOM     27  Cl  UNL     1       9.638  44.953  50.347  1.00  0.00    -0.082 Cl
ENDBRANCH  19  21
ENDBRANCH  12  19
ENDBRANCH   7   9
ENDBRANCH   1   7
TORSDOF 7
ENDMDL
MODEL 15
REMARK VINA RESULT:    -7.587      2.750      6.486
REMARK INTER + INTRA:         -11.841
REMARK INTER:                 -10.770
REMARK INTRA:                  -1.071
REMARK UNBOUND:                -1.150
REMARK SMILES CC(C)OCCNc1nc(Nc2ccccc2Cl)c2cnn(C)c2n1
REMARK SMILES IDX 6 1 5 2 4 3 2 4 1 5 3 6 7 7 8 9 9 10 25 11 10 12 24 13 19 14
REMARK SMILES IDX 22 15 20 16 21 17 23 18 11 19 12 21 13 22 17 23 14 24 16 25
REMARK SMILES IDX 15 26 18 27
REMARK H PARENT 7 8 11 20
ROOT
ATOM      1  C   UNL     1       8.887  45.772  51.207  1.00  0.00     0.144 C 
ENDROOT
BRANCH   1   2
ATOM      2  C   UNL     1       9.710  46.807  51.982  1.00  0.00     0.181 C 
BRANCH   2   3
ATOM      3  O   UNL     1       8.825  47.801  52.509  1.00  0.00    -0.377 OA
BRANCH   3   4
ATOM      4  C   UNL     1       8.732  47.776  53.936  1.00  0.00     0.112 C 
ATOM      5  C   UNL     1       7.554  46.915  54.384  1.00  0.00     0.038 C 
ATOM      6  C   UNL     1      10.040  47.193  54.458  1.00  0.00     0.038 C 
ENDBRANCH   3   4
ENDBRANCH   2   3
ENDBRANCH   1   2
BRANCH   1   7
ATOM      7  N   UNL     1       7.600  46.303  50.774  1.00  0.00    -0.352 N 
ATOM      8  H   UNL     1       7.563  46.565  49.794  1.00  0.00     0.163 HD
BRANCH   7   9
ATOM      9  C   UNL     1       6.513  45.458  50.966  1.00  0.00     0.226 A 
ATOM     10  N   UNL     1       5.469  46.028  51.595  1.00  0.00    -0.195 NA
ATOM     11  N   UNL     1       6.568  44.191  50.537  1.00  0.00    -0.193 NA
ATOM     12  C   UNL     1       4.357  45.302  51.877  1.00  0.00     0.147 A 
ATOM     13  C   UNL     1       5.440  43.509  50.779  1.00  0.00     0.165 A 
ATOM     14  C   UNL     1       4.313  43.982  51.421  1.00  0.00     0.082 A 
ATOM     15  N   UNL     1       5.163  42.214  50.434  1.00  0.00    -0.250 N 
ATOM     16  C   UNL     1       3.405  42.904  51.370  1.00  0.00     0.149 A 
ATOM     17  N   UNL     1       3.920  41.814  50.787  1.00  0.00    -0.179 NA
ATOM     18  C   UNL     1       6.035  41.296  49.744  1.00  0.00     0.176 C 
BRANCH  12  19
ATOM     19  N   UNL     1       3.319  45.973  52.528  1.00  0.00    -0.338 N 
ATOM     20  H   UNL     1       3.608  46.925  52.739  1.00  0.00     0.168 HD
BRANCH  19  21
ATOM     21  C   UNL     1       2.326  45.515  53.422  1.00  0.00     0.058 A 
ATOM     22  C   UNL     1       1.001  45.285  53.028  1.00  0.00     0.027 A 
ATOM     23  C   UNL     1       2.646  45.314  54.783  1.00  0.00     0.064 A 
ATOM     24  C   UNL     1       0.032  44.874  53.950  1.00  0.00     0.002 A 
ATOM     25  C   UNL     1       1.679  44.904  55.705  1.00  0.00     0.023 A 
ATOM     26  C   UNL     1       0.369  44.687  55.288  1.00  0.00     0.002 A 
ATOM     27  Cl  UNL     1       4.261  45.562  55.358  1.00  0.00    -0.082 Cl
ENDBRANCH  19  21
ENDBRANCH  12  19
ENDBRANCH   7   9
ENDBRANCH   1   7
TORSDOF 7
ENDMDL
MODEL 16
REMARK VINA RESULT:    -7.580      3.011      5.754
REMARK INTER + INTRA:         -11.831
REMARK INTER:                 -10.820
REMARK INTRA:                  -1.011
REMARK UNBOUND:                -1.150
REMARK SMILES CC(C)OCCNc1nc(Nc2ccccc2Cl)c2cnn(C)c2n1
REMARK SMILES IDX 6 1 5 2 4 3 2 4 1 5 3 6 7 7 8 9 9 10 25 11 10 12 24 13 19 14
REMARK SMILES IDX 22 15 20 16 21 17 23 18 11 19 12 21 13 22 17 23 14 24 16 25
REMARK SMILES IDX 15 26 18 27
REMARK H PARENT 7 8 11 20
ROOT
ATOM      1  C   UNL     1       8.695  45.915  51.265  1.00  0.00     0.144 C 
ENDROOT
BRANCH   1   2
ATOM      2  C   UNL     1       8.636  47.424  51.530  1.00  0.00     0.181 C 
BRANCH   2   3
ATOM      3  O   UNL     1       7.753  47.665  52.631  1.00  0.00    -0.377 OA
BRANCH   3   4
ATOM      4  C   UNL     1       8.092  46.917  53.802  1.00  0.00     0.112 C 
ATOM      5  C   UNL     1       9.202  47.614  54.583  1.00  0.00     0.038 C 
ATOM      6  C   UNL     1       6.830  46.821  54.651  1.00  0.00     0.038 C 
ENDBRANCH   3   4
ENDBRANCH   2   3
ENDBRANCH   1   2
BRANCH   1   7
ATOM      7  N   UNL     1       7.880  45.523  50.123  1.00  0.00    -0.352 N 
ATOM      8  H   UNL     1       8.401  45.103  49.360  1.00  0.00     0.163 HD
BRANCH   7   9
ATOM      9  C   UNL     1       6.858  44.623  50.403  1.00  0.00     0.226 A 
ATOM     10  N   UNL     1       6.812  43.560  49.579  1.00  0.00    -0.195 NA
ATOM     11  N   UNL     1       6.021  44.858  51.420  1.00  0.00    -0.193 NA
ATOM     12  C   UNL     1       5.838  42.623  49.720  1.00  0.00     0.147 A 
ATOM     13  C   UNL     1       5.102  43.894  51.574  1.00  0.00     0.165 A 
ATOM     14  C   UNL     1       4.951  42.768  50.790  1.00  0.00     0.082 A 
ATOM     15  N   UNL     1       4.134  43.817  52.538  1.00  0.00    -0.250 N 
ATOM     16  C   UNL     1       3.892  42.061  51.396  1.00  0.00     0.149 A 
ATOM     17  N   UNL     1       3.373  42.701  52.451  1.00  0.00    -0.179 NA
ATOM     18  C   UNL     1       3.885  44.766  53.593  1.00  0.00     0.176 C 
BRANCH  12  19
ATOM     19  N   UNL     1       5.867  41.550  48.826  1.00  0.00    -0.338 N 
ATOM     20  H   UNL     1       6.780  41.101  48.862  1.00  0.00     0.168 HD
BRANCH  19  21
ATOM     21  C   UNL     1       5.236  41.357  47.577  1.00  0.00     0.058 A 
ATOM     22  C   UNL     1       5.695  41.957  46.397  1.00  0.00     0.027 A 
ATOM     23  C   UNL     1       4.069  40.566  47.496  1.00  0.00     0.064 A 
ATOM     24  C   UNL     1       5.019  41.780  45.184  1.00  0.00     0.002 A 
ATOM     25  C   UNL     1       3.392  40.389  46.286  1.00  0.00     0.023 A 
ATOM     26  C   UNL     1       3.867  41.000  45.129  1.00  0.00     0.002 A 
ATOM     27  Cl  UNL     1       3.436  39.776  48.902  1.00  0.00    -0.082 Cl
ENDBRANCH  19  21
ENDBRANCH  12  19
ENDBRANCH   7   9
ENDBRANCH   1   7
TORSDOF 7
ENDMDL
MODEL 17
REMARK VINA RESULT:    -7.483      2.037      2.653
REMARK INTER + INTRA:         -11.694
REMARK INTER:                 -10.888
REMARK INTRA:                  -0.806
REMARK UNBOUND:                -1.150
REMARK SMILES CC(C)OCCNc1nc(Nc2ccccc2Cl)c2cnn(C)c2n1
REMARK SMILES IDX 6 1 5 2 4 3 2 4 1 5 3 6 7 7 8 9 9 10 25 11 10 12 24 13 19 14
REMARK SMILES IDX 22 15 20 16 21 17 23 18 11 19 12 21 13 22 17 23 14 24 16 25
REMARK SMILES IDX 15 26 18 27
REMARK H PARENT 7 8 11 20
ROOT
ATOM      1  C   UNL     1       3.250  45.413  55.286  1.00  0.00     0.144 C 
ENDROOT
BRANCH   1   2
ATOM      2  C   UNL     1       1.759  45.749  55.410  1.00  0.00     0.181 C 
BRANCH   2   3
ATOM      3  O   UNL     1       1.453  45.989  56.788  1.00  0.00    -0.377 OA
BRANCH   3   4
ATOM      4  C   UNL     1       0.102  45.668  57.131  1.00  0.00     0.112 C 
ATOM      5  C   UNL     1      -0.637  46.907  57.628  1.00  0.00     0.038 C 
ATOM      6  C   UNL     1      -0.562  45.129  55.869  1.00  0.00     0.038 C 
ENDBRANCH   3   4
ENDBRANCH   2   3
ENDBRANCH   1   2
BRANCH   1   7
ATOM      7  N   UNL     1       4.085  46.608  55.272  1.00  0.00    -0.352 N 
ATOM      8  H   UNL     1       4.473  46.859  56.176  1.00  0.00     0.163 HD
BRANCH   7   9
ATOM      9  C   UNL     1       5.175  46.563  54.410  1.00  0.00     0.226 A 
ATOM     10  N   UNL     1       4.918  45.990  53.219  1.00  0.00    -0.195 NA
ATOM     11  N   UNL     1       6.354  47.062  54.797  1.00  0.00    -0.193 NA
ATOM     12  C   UNL     1       5.906  45.849  52.298  1.00  0.00     0.147 A 
ATOM     13  C   UNL     1       7.299  46.961  53.853  1.00  0.00     0.165 A 
ATOM     14  C   UNL     1       7.158  46.388  52.604  1.00  0.00     0.082 A 
ATOM     15  N   UNL     1       8.591  47.408  53.920  1.00  0.00    -0.250 N 
ATOM     16  C   UNL     1       8.412  46.584  51.988  1.00  0.00     0.149 A 
ATOM     17  N   UNL     1       9.299  47.187  52.789  1.00  0.00    -0.179 NA
ATOM     18  C   UNL     1       9.219  48.077  55.032  1.00  0.00     0.176 C 
BRANCH  12  19
ATOM     19  N   UNL     1       5.553  45.249  51.087  1.00  0.00    -0.338 N 
ATOM     20  H   UNL     1       4.670  45.634  50.760  1.00  0.00     0.168 HD
BRANCH  19  21
ATOM     21  C   UNL     1       5.771  43.944  50.593  1.00  0.00     0.058 A 
ATOM     22  C   UNL     1       6.868  43.616  49.785  1.00  0.00     0.027 A 
ATOM     23  C   UNL     1       4.840  42.921  50.875  1.00  0.00     0.064 A 
ATOM     24  C   UNL     1       7.031  42.322  49.275  1.00  0.00     0.002 A 
ATOM     25  C   UNL     1       5.000  41.629  50.366  1.00  0.00     0.023 A 
ATOM     26  C   UNL     1       6.096  41.331  49.562  1.00  0.00     0.002 A 
ATOM     27  Cl  UNL     1       3.460  43.232  51.876  1.00  0.00    -0.082 Cl
ENDBRANCH  19  21
ENDBRANCH  12  19
ENDBRANCH   7   9
ENDBRANCH   1   7
TORSDOF 7
ENDMDL
MODEL 18
REMARK VINA RESULT:    -7.464      2.377      4.663
REMARK INTER + INTRA:         -11.669
REMARK INTER:                 -10.172
REMARK INTRA:                  -1.497
REMARK UNBOUND:                -1.150
REMARK SMILES CC(C)OCCNc1nc(Nc2ccccc2Cl)c2cnn(C)c2n1
REMARK SMILES IDX 6 1 5 2 4 3 2 4 1 5 3 6 7 7 8 9 9 10 25 11 10 12 24 13 19 14
REMARK SMILES IDX 22 15 20 16 21 17 23 18 11 19 12 21 13 22 17 23 14 24 16 25
REMARK SMILES IDX 15 26 18 27
REMARK H PARENT 7 8 11 20
ROOT
ATOM      1  C   UNL     1       7.669  43.519  49.557  1.00  0.00     0.144 C 
ENDROOT
BRANCH   1   2
ATOM      2  C   UNL     1       6.495  42.668  49.059  1.00  0.00     0.181 C 
BRANCH   2   3
ATOM      3  O   UNL     1       5.972  41.913  50.157  1.00  0.00    -0.377 OA
BRANCH   3   4
ATOM      4  C   UNL     1       4.556  42.043  50.309  1.00  0.00     0.112 C 
ATOM      5  C   UNL     1       3.832  40.892  49.618  1.00  0.00     0.038 C 
ATOM      6  C   UNL     1       4.265  42.026  51.805  1.00  0.00     0.038 C 
ENDBRANCH   3   4
ENDBRANCH   2   3
ENDBRANCH   1   2
BRANCH   1   7
ATOM      7  N   UNL     1       7.366  44.944  49.533  1.00  0.00    -0.352 N 
ATOM      8  H   UNL     1       6.576  45.195  48.949  1.00  0.00     0.163 HD
BRANCH   7   9
ATOM      9  C   UNL     1       7.098  45.516  50.771  1.00  0.00     0.226 A 
ATOM     10  N   UNL     1       5.789  45.673  51.040  1.00  0.00    -0.195 NA
ATOM     11  N   UNL     1       8.107  45.863  51.579  1.00  0.00    -0.193 NA
ATOM     12  C   UNL     1       5.391  46.254  52.201  1.00  0.00     0.147 A 
ATOM     13  C   UNL     1       7.690  46.385  52.741  1.00  0.00     0.165 A 
ATOM     14  C   UNL     1       6.381  46.603  53.123  1.00  0.00     0.082 A 
ATOM     15  N   UNL     1       8.464  46.801  53.790  1.00  0.00    -0.250 N 
ATOM     16  C   UNL     1       6.481  47.111  54.435  1.00  0.00     0.149 A 
ATOM     17  N   UNL     1       7.748  47.255  54.844  1.00  0.00    -0.179 NA
ATOM     18  C   UNL     1       9.904  46.777  53.866  1.00  0.00     0.176 C 
BRANCH  12  19
ATOM     19  N   UNL     1       4.013  46.374  52.402  1.00  0.00    -0.338 N 
ATOM     20  H   UNL     1       3.830  47.114  53.076  1.00  0.00     0.168 HD
BRANCH  19  21
ATOM     21  C   UNL     1       2.980  45.411  52.384  1.00  0.00     0.058 A 
ATOM     22  C   UNL     1       2.290  45.065  51.215  1.00  0.00     0.027 A 
ATOM     23  C   UNL     1       2.579  44.790  53.587  1.00  0.00     0.064 A 
ATOM     24  C   UNL     1       1.240  44.139  51.240  1.00  0.00     0.002 A 
ATOM     25  C   UNL     1       1.530  43.866  53.614  1.00  0.00     0.023 A 
ATOM     26  C   UNL     1       0.858  43.543  52.439  1.00  0.00     0.002 A 
ATOM     27  Cl  UNL     1       3.383  45.147  55.079  1.00  0.00    -0.082 Cl
ENDBRANCH  19  21
ENDBRANCH  12  19
ENDBRANCH   7   9
ENDBRANCH   1   7
TORSDOF 7
ENDMDL
MODEL 19
REMARK VINA RESULT:    -7.378      3.522      7.317
REMARK INTER + INTRA:         -11.547
REMARK INTER:                 -10.206
REMARK INTRA:                  -1.341
REMARK UNBOUND:                -1.150
REMARK SMILES CC(C)OCCNc1nc(Nc2ccccc2Cl)c2cnn(C)c2n1
REMARK SMILES IDX 6 1 5 2 4 3 2 4 1 5 3 6 7 7 8 9 9 10 25 11 10 12 24 13 19 14
REMARK SMILES IDX 22 15 20 16 21 17 23 18 11 19 12 21 13 22 17 23 14 24 16 25
REMARK SMILES IDX 15 26 18 27
REMARK H PARENT 7 8 11 20
ROOT
ATOM      1  C   UNL     1       4.648  41.452  50.953  1.00  0.00     0.144 C 
ENDROOT
BRANCH   1   2
ATOM      2  C   UNL     1       5.719  41.451  49.855  1.00  0.00     0.181 C 
BRANCH   2   3
ATOM      3  O   UNL     1       5.862  42.782  49.348  1.00  0.00    -0.377 OA
BRANCH   3   4
ATOM      4  C   UNL     1       6.781  43.578  50.101  1.00  0.00     0.112 C 
ATOM      5  C   UNL     1       8.021  43.898  49.271  1.00  0.00     0.038 C 
ATOM      6  C   UNL     1       6.053  44.863  50.478  1.00  0.00     0.038 C 
ENDBRANCH   3   4
ENDBRANCH   2   3
ENDBRANCH   1   2
BRANCH   1   7
ATOM      7  N   UNL     1       3.301  41.559  50.409  1.00  0.00    -0.352 N 
ATOM      8  H   UNL     1       2.780  40.688  50.404  1.00  0.00     0.163 HD
BRANCH   7   9
ATOM      9  C   UNL     1       2.472  42.473  51.049  1.00  0.00     0.226 A 
ATOM     10  N   UNL     1       3.048  43.124  52.076  1.00  0.00    -0.195 NA
ATOM     11  N   UNL     1       1.212  42.641  50.629  1.00  0.00    -0.193 NA
ATOM     12  C   UNL     1       2.337  44.018  52.810  1.00  0.00     0.147 A 
ATOM     13  C   UNL     1       0.545  43.566  51.333  1.00  0.00     0.165 A 
ATOM     14  C   UNL     1       1.026  44.287  52.407  1.00  0.00     0.082 A 
ATOM     15  N   UNL     1      -0.738  43.996  51.132  1.00  0.00    -0.250 N 
ATOM     16  C   UNL     1      -0.035  45.152  52.749  1.00  0.00     0.149 A 
ATOM     17  N   UNL     1      -1.123  44.969  51.990  1.00  0.00    -0.179 NA
ATOM     18  C   UNL     1      -1.658  43.534  50.123  1.00  0.00     0.176 C 
BRANCH  12  19
ATOM     19  N   UNL     1       3.014  44.651  53.855  1.00  0.00    -0.338 N 
ATOM     20  H   UNL     1       2.341  45.064  54.497  1.00  0.00     0.168 HD
BRANCH  19  21
ATOM     21  C   UNL     1       4.255  45.324  53.892  1.00  0.00     0.058 A 
ATOM     22  C   UNL     1       5.380  44.799  54.542  1.00  0.00     0.027 A 
ATOM     23  C   UNL     1       4.382  46.597  53.294  1.00  0.00     0.064 A 
ATOM     24  C   UNL     1       6.583  45.512  54.597  1.00  0.00     0.002 A 
ATOM     25  C   UNL     1       5.582  47.311  53.349  1.00  0.00     0.023 A 
ATOM     26  C   UNL     1       6.683  46.768  54.005  1.00  0.00     0.002 A 
ATOM     27  Cl  UNL     1       3.048  47.319  52.458  1.00  0.00    -0.082 Cl
ENDBRANCH  19  21
ENDBRANCH  12  19
ENDBRANCH   7   9
ENDBRANCH   1   7
TORSDOF 7
ENDMDL
