MODEL 1
REMARK VINA RESULT:    -9.354      0.000      0.000
REMARK INTER + INTRA:         -13.290
REMARK INTER:                 -12.634
REMARK INTRA:                  -0.656
REMARK UNBOUND:                -0.656
REMARK SMILES c1ccc(CNc2nc(NC[C@H]3CCCO3)c3ccccc3n2)nc1
REMARK SMILES IDX 7 1 8 2 9 3 17 4 18 5 19 6 20 7 21 8 22 9 23 10 6 11 5 13
REMARK SMILES IDX 4 14 1 15 2 16 25 17 3 18 24 19 10 20 11 22 12 23 13 24
REMARK SMILES IDX 16 25 14 26 15 27
REMARK H PARENT 6 12 10 21
ROOT
ATOM      1  C   UNL     1       5.029  44.987  52.548  1.00  0.00     0.225 A 
ATOM      2  N   UNL     1       4.009  44.241  52.984  1.00  0.00    -0.195 NA
ATOM      3  C   UNL     1       3.720  43.113  52.312  1.00  0.00     0.139 A 
ATOM      4  C   UNL     1       4.478  42.693  51.206  1.00  0.00     0.043 A 
ATOM      5  C   UNL     1       4.268  41.496  50.474  1.00  0.00     0.014 A 
ATOM      6  C   UNL     1       5.071  41.175  49.382  1.00  0.00     0.001 A 
ATOM      7  C   UNL     1       6.091  42.041  49.012  1.00  0.00     0.002 A 
ATOM      8  C   UNL     1       6.302  43.215  49.741  1.00  0.00     0.029 A 
ATOM      9  C   UNL     1       5.515  43.554  50.835  1.00  0.00     0.078 A 
ATOM     10  N   UNL     1       5.782  44.688  51.489  1.00  0.00    -0.213 NA
ENDROOT
BRANCH   1  11
ATOM     11  N   UNL     1       5.366  46.162  53.207  1.00  0.00    -0.348 N 
ATOM     12  H   UNL     1       5.828  45.872  54.064  1.00  0.00     0.164 HD
BRANCH  11  13
ATOM     13  C   UNL     1       6.167  47.063  52.396  1.00  0.00     0.172 C 
BRANCH  13  14
ATOM     14  C   UNL     1       7.597  47.084  52.906  1.00  0.00     0.060 A 
ATOM     15  C   UNL     1      10.176  47.174  53.848  1.00  0.00     0.020 A 
ATOM     16  C   UNL     1       9.944  46.727  52.553  1.00  0.00     0.004 A 
ATOM     17  C   UNL     1       9.087  47.562  54.610  1.00  0.00     0.111 A 
ATOM     18  C   UNL     1       8.640  46.681  52.071  1.00  0.00     0.026 A 
ATOM     19  N   UNL     1       7.809  47.530  54.171  1.00  0.00    -0.259 NA
ENDBRANCH  13  14
ENDBRANCH  11  13
ENDBRANCH   1  11
BRANCH   3  20
ATOM     20  N   UNL     1       2.648  42.310  52.760  1.00  0.00    -0.367 N 
ATOM     21  H   UNL     1       2.712  41.390  52.325  1.00  0.00     0.162 HD
BRANCH  20  22
ATOM     22  C   UNL     1       1.314  42.870  52.523  1.00  0.00     0.146 C 
BRANCH  22  23
ATOM     23  C   UNL     1       0.605  43.060  53.871  1.00  0.00     0.137 C 
ATOM     24  C   UNL     1       0.741  44.468  54.426  1.00  0.00     0.036 C 
ATOM     25  O   UNL     1      -0.816  42.826  53.726  1.00  0.00    -0.376 OA
ATOM     26  C   UNL     1      -0.480  44.564  55.305  1.00  0.00     0.031 C 
ATOM     27  C   UNL     1      -1.516  43.820  54.489  1.00  0.00     0.160 C 
ENDBRANCH  22  23
ENDBRANCH  20  22
ENDBRANCH   3  20
TORSDOF 6
ENDMDL
MODEL 2
REMARK VINA RESULT:    -9.350      2.099      6.648
REMARK INTER + INTRA:         -13.286
REMARK INTER:                 -12.423
REMARK INTRA:                  -0.863
REMARK UNBOUND:                -0.656
REMARK SMILES c1ccc(CNc2nc(NC[C@H]3CCCO3)c3ccccc3n2)nc1
REMARK SMILES IDX 7 1 8 2 9 3 17 4 18 5 19 6 20 7 21 8 22 9 23 10 6 11 5 13
REMARK SMILES IDX 4 14 1 15 2 16 25 17 3 18 24 19 10 20 11 22 12 23 13 24
REMARK SMILES IDX 16 25 14 26 15 27
REMARK H PARENT 6 12 10 21
ROOT
ATOM      1  C   UNL     1       5.472  46.860  54.017  1.00  0.00     0.225 A 
ATOM      2  N   UNL     1       5.405  46.394  52.767  1.00  0.00    -0.195 NA
ATOM      3  C   UNL     1       6.554  46.262  52.080  1.00  0.00     0.139 A 
ATOM      4  C   UNL     1       7.800  46.564  52.653  1.00  0.00     0.043 A 
ATOM      5  C   UNL     1       9.057  46.409  52.013  1.00  0.00     0.014 A 
ATOM      6  C   UNL     1      10.239  46.750  52.667  1.00  0.00     0.001 A 
ATOM      7  C   UNL     1      10.180  47.244  53.963  1.00  0.00     0.002 A 
ATOM      8  C   UNL     1       8.941  47.387  54.594  1.00  0.00     0.029 A 
ATOM      9  C   UNL     1       7.749  47.052  53.962  1.00  0.00     0.078 A 
ATOM     10  N   UNL     1       6.604  47.207  54.632  1.00  0.00    -0.213 NA
ENDROOT
BRANCH   1  11
ATOM     11  N   UNL     1       4.314  47.017  54.766  1.00  0.00    -0.348 N 
ATOM     12  H   UNL     1       3.594  47.285  54.103  1.00  0.00     0.164 HD
BRANCH  11  13
ATOM     13  C   UNL     1       3.971  45.837  55.543  1.00  0.00     0.172 C 
BRANCH  13  14
ATOM     14  C   UNL     1       2.691  45.221  55.009  1.00  0.00     0.060 A 
ATOM     15  C   UNL     1       0.383  44.130  53.992  1.00  0.00     0.020 A 
ATOM     16  C   UNL     1       0.336  44.799  55.208  1.00  0.00     0.004 A 
ATOM     17  C   UNL     1       1.602  44.048  53.338  1.00  0.00     0.111 A 
ATOM     18  C   UNL     1       1.501  45.355  55.727  1.00  0.00     0.026 A 
ATOM     19  N   UNL     1       2.751  44.577  53.814  1.00  0.00    -0.259 NA
ENDBRANCH  13  14
ENDBRANCH  11  13
ENDBRANCH   1  11
BRANCH   3  20
ATOM     20  N   UNL     1       6.503  45.766  50.758  1.00  0.00    -0.367 N 
ATOM     21  H   UNL     1       6.570  46.545  50.104  1.00  0.00     0.162 HD
BRANCH  20  22
ATOM     22  C   UNL     1       5.316  44.966  50.443  1.00  0.00     0.146 C 
BRANCH  22  23
ATOM     23  C   UNL     1       5.642  43.481  50.654  1.00  0.00     0.137 C 
ATOM     24  C   UNL     1       4.412  42.627  50.912  1.00  0.00     0.036 C 
ATOM     25  O   UNL     1       6.266  42.932  49.469  1.00  0.00    -0.376 OA
ATOM     26  C   UNL     1       4.884  41.272  50.450  1.00  0.00     0.031 C 
ATOM     27  C   UNL     1       5.720  41.624  49.238  1.00  0.00     0.160 C 
ENDBRANCH  22  23
ENDBRANCH  20  22
ENDBRANCH   3  20
TORSDOF 6
ENDMDL
MODEL 3
REMARK VINA RESULT:    -9.300      2.464      6.951
REMARK INTER + INTRA:         -13.218
REMARK INTER:                 -12.290
REMARK INTRA:                  -0.928
REMARK UNBOUND:                -0.656
REMARK SMILES c1ccc(CNc2nc(NC[C@H]3CCCO3)c3ccccc3n2)nc1
REMARK SMILES IDX 7 1 8 2 9 3 17 4 18 5 19 6 20 7 21 8 22 9 23 10 6 11 5 13
REMARK SMILES IDX 4 14 1 15 2 16 25 17 3 18 24 19 10 20 11 22 12 23 13 24
REMARK SMILES IDX 16 25 14 26 15 27
REMARK H PARENT 6 12 10 21
ROOT
ATOM      1  C   UNL     1       3.765  43.873  52.535  1.00  0.00     0.225 A 
ATOM      2  N   UNL     1       4.264  45.102  52.694  1.00  0.00    -0.195 NA
ATOM      3  C   UNL     1       5.353  45.438  51.980  1.00  0.00     0.139 A 
ATOM      4  C   UNL     1       5.942  44.552  51.064  1.00  0.00     0.043 A 
ATOM      5  C   UNL     1       7.061  44.845  50.241  1.00  0.00     0.014 A 
ATOM      6  C   UNL     1       7.577  43.888  49.369  1.00  0.00     0.001 A 
ATOM      7  C   UNL     1       6.983  42.636  49.306  1.00  0.00     0.002 A 
ATOM      8  C   UNL     1       5.876  42.353  50.111  1.00  0.00     0.029 A 
ATOM      9  C   UNL     1       5.341  43.292  50.986  1.00  0.00     0.078 A 
ATOM     10  N   UNL     1       4.275  42.953  51.716  1.00  0.00    -0.213 NA
ENDROOT
BRANCH   1  11
ATOM     11  N   UNL     1       2.643  43.478  53.251  1.00  0.00    -0.348 N 
ATOM     12  H   UNL     1       2.946  43.407  54.218  1.00  0.00     0.164 HD
BRANCH  11  13
ATOM     13  C   UNL     1       1.506  44.364  53.067  1.00  0.00     0.172 C 
BRANCH  13  14
ATOM     14  C   UNL     1       0.798  44.579  54.393  1.00  0.00     0.060 A 
ATOM     15  C   UNL     1      -0.523  44.996  56.765  1.00  0.00     0.020 A 
ATOM     16  C   UNL     1       0.839  45.260  56.695  1.00  0.00     0.004 A 
ATOM     17  C   UNL     1      -1.160  44.536  55.625  1.00  0.00     0.111 A 
ATOM     18  C   UNL     1       1.512  45.052  55.495  1.00  0.00     0.026 A 
ATOM     19  N   UNL     1      -0.535  44.325  54.445  1.00  0.00    -0.259 NA
ENDBRANCH  13  14
ENDBRANCH  11  13
ENDBRANCH   1  11
BRANCH   3  20
ATOM     20  N   UNL     1       5.892  46.735  52.131  1.00  0.00    -0.367 N 
ATOM     21  H   UNL     1       6.751  46.807  51.587  1.00  0.00     0.162 HD
BRANCH  20  22
ATOM     22  C   UNL     1       6.157  47.137  53.516  1.00  0.00     0.146 C 
BRANCH  22  23
ATOM     23  C   UNL     1       7.591  46.734  53.888  1.00  0.00     0.137 C 
ATOM     24  C   UNL     1       8.599  47.020  52.789  1.00  0.00     0.036 C 
ATOM     25  O   UNL     1       8.038  47.485  55.042  1.00  0.00    -0.376 OA
ATOM     26  C   UNL     1       9.876  47.157  53.579  1.00  0.00     0.031 C 
ATOM     27  C   UNL     1       9.402  47.877  54.822  1.00  0.00     0.160 C 
ENDBRANCH  22  23
ENDBRANCH  20  22
ENDBRANCH   3  20
TORSDOF 6
ENDMDL
MODEL 4
REMARK VINA RESULT:    -9.161      1.178      1.493
REMARK INTER + INTRA:         -13.030
REMARK INTER:                 -12.353
REMARK INTRA:                  -0.677
REMARK UNBOUND:                -0.656
REMARK SMILES c1ccc(CNc2nc(NC[C@H]3CCCO3)c3ccccc3n2)nc1
REMARK SMILES IDX 7 1 8 2 9 3 17 4 18 5 19 6 20 7 21 8 22 9 23 10 6 11 5 13
REMARK SMILES IDX 4 14 1 15 2 16 25 17 3 18 24 19 10 20 11 22 12 23 13 24
REMARK SMILES IDX 16 25 14 26 15 27
REMARK H PARENT 6 12 10 21
ROOT
ATOM      1  C   UNL     1       5.059  45.066  52.547  1.00  0.00     0.225 A 
ATOM      2  N   UNL     1       4.079  44.270  52.983  1.00  0.00    -0.195 NA
ATOM      3  C   UNL     1       3.846  43.128  52.312  1.00  0.00     0.139 A 
ATOM      4  C   UNL     1       4.622  42.747  51.205  1.00  0.00     0.043 A 
ATOM      5  C   UNL     1       4.472  41.541  50.474  1.00  0.00     0.014 A 
ATOM      6  C   UNL     1       5.288  41.261  49.380  1.00  0.00     0.001 A 
ATOM      7  C   UNL     1       6.263  42.177  49.009  1.00  0.00     0.002 A 
ATOM      8  C   UNL     1       6.415  43.360  49.737  1.00  0.00     0.029 A 
ATOM      9  C   UNL     1       5.614  43.660  50.833  1.00  0.00     0.078 A 
ATOM     10  N   UNL     1       5.824  44.806  51.486  1.00  0.00    -0.213 NA
ENDROOT
BRANCH   1  11
ATOM     11  N   UNL     1       5.336  46.257  53.205  1.00  0.00    -0.348 N 
ATOM     12  H   UNL     1       5.747  45.988  54.094  1.00  0.00     0.164 HD
BRANCH  11  13
ATOM     13  C   UNL     1       6.176  47.156  52.431  1.00  0.00     0.172 C 
BRANCH  13  14
ATOM     14  C   UNL     1       7.584  47.163  52.996  1.00  0.00     0.060 A 
ATOM     15  C   UNL     1      10.125  47.228  54.040  1.00  0.00     0.020 A 
ATOM     16  C   UNL     1       9.944  46.816  52.726  1.00  0.00     0.004 A 
ATOM     17  C   UNL     1       9.007  47.596  54.769  1.00  0.00     0.111 A 
ATOM     18  C   UNL     1       8.660  46.783  52.192  1.00  0.00     0.026 A 
ATOM     19  N   UNL     1       7.747  47.576  54.280  1.00  0.00    -0.259 NA
ENDBRANCH  13  14
ENDBRANCH  11  13
ENDBRANCH   1  11
BRANCH   3  20
ATOM     20  N   UNL     1       2.817  42.272  52.762  1.00  0.00    -0.367 N 
ATOM     21  H   UNL     1       2.618  41.579  52.042  1.00  0.00     0.162 HD
BRANCH  20  22
ATOM     22  C   UNL     1       1.573  42.948  53.145  1.00  0.00     0.146 C 
BRANCH  22  23
ATOM     23  C   UNL     1       0.595  42.902  51.963  1.00  0.00     0.137 C 
ATOM     24  C   UNL     1      -0.753  42.300  52.322  1.00  0.00     0.036 C 
ATOM     25  O   UNL     1       0.318  44.242  51.490  1.00  0.00    -0.376 OA
ATOM     26  C   UNL     1      -1.651  42.934  51.291  1.00  0.00     0.031 C 
ATOM     27  C   UNL     1      -1.084  44.334  51.196  1.00  0.00     0.160 C 
ENDBRANCH  22  23
ENDBRANCH  20  22
ENDBRANCH   3  20
TORSDOF 6
ENDMDL
MODEL 5
REMARK VINA RESULT:    -9.009      0.950      1.058
REMARK INTER + INTRA:         -12.824
REMARK INTER:                 -12.137
REMARK INTRA:                  -0.687
REMARK UNBOUND:                -0.656
REMARK SMILES c1ccc(CNc2nc(NC[C@H]3CCCO3)c3ccccc3n2)nc1
REMARK SMILES IDX 7 1 8 2 9 3 17 4 18 5 19 6 20 7 21 8 22 9 23 10 6 11 5 13
REMARK SMILES IDX 4 14 1 15 2 16 25 17 3 18 24 19 10 20 11 22 12 23 13 24
REMARK SMILES IDX 16 25 14 26 15 27
REMARK H PARENT 6 12 10 21
ROOT
ATOM      1  C   UNL     1       5.315  45.502  51.703  1.00  0.00     0.225 A 
ATOM      2  N   UNL     1       4.323  44.995  52.439  1.00  0.00    -0.195 NA
ATOM      3  C   UNL     1       3.903  43.749  52.160  1.00  0.00     0.139 A 
ATOM      4  C   UNL     1       4.500  42.973  51.153  1.00  0.00     0.043 A 
ATOM      5  C   UNL     1       4.148  41.637  50.828  1.00  0.00     0.014 A 
ATOM      6  C   UNL     1       4.796  40.956  49.801  1.00  0.00     0.001 A 
ATOM      7  C   UNL     1       5.803  41.596  49.091  1.00  0.00     0.002 A 
ATOM      8  C   UNL     1       6.154  42.909  49.419  1.00  0.00     0.029 A 
ATOM      9  C   UNL     1       5.523  43.608  50.442  1.00  0.00     0.078 A 
ATOM     10  N   UNL     1       5.919  44.856  50.705  1.00  0.00    -0.213 NA
ENDROOT
BRANCH   1  11
ATOM     11  N   UNL     1       5.783  46.786  51.951  1.00  0.00    -0.348 N 
ATOM     12  H   UNL     1       5.081  47.412  51.568  1.00  0.00     0.164 HD
BRANCH  11  13
ATOM     13  C   UNL     1       6.067  47.030  53.355  1.00  0.00     0.172 C 
BRANCH  13  14
ATOM     14  C   UNL     1       7.568  47.065  53.580  1.00  0.00     0.060 A 
ATOM     15  C   UNL     1      10.280  47.183  54.006  1.00  0.00     0.020 A 
ATOM     16  C   UNL     1       9.806  46.696  52.795  1.00  0.00     0.004 A 
ATOM     17  C   UNL     1       9.355  47.597  54.950  1.00  0.00     0.111 A 
ATOM     18  C   UNL     1       8.434  46.636  52.573  1.00  0.00     0.026 A 
ATOM     19  N   UNL     1       8.017  47.552  54.766  1.00  0.00    -0.259 NA
ENDBRANCH  13  14
ENDBRANCH  11  13
ENDBRANCH   1  11
BRANCH   3  20
ATOM     20  N   UNL     1       2.857  43.194  52.931  1.00  0.00    -0.367 N 
ATOM     21  H   UNL     1       2.568  42.309  52.517  1.00  0.00     0.162 HD
BRANCH  20  22
ATOM     22  C   UNL     1       1.686  44.060  53.099  1.00  0.00     0.146 C 
BRANCH  22  23
ATOM     23  C   UNL     1       1.251  44.033  54.570  1.00  0.00     0.137 C 
ATOM     24  C   UNL     1       1.897  45.125  55.407  1.00  0.00     0.036 C 
ATOM     25  O   UNL     1      -0.177  44.246  54.675  1.00  0.00    -0.376 OA
ATOM     26  C   UNL     1       0.892  45.288  56.519  1.00  0.00     0.031 C 
ATOM     27  C   UNL     1      -0.421  45.125  55.784  1.00  0.00     0.160 C 
ENDBRANCH  22  23
ENDBRANCH  20  22
ENDBRANCH   3  20
TORSDOF 6
ENDMDL
MODEL 6
REMARK VINA RESULT:    -8.994      2.431      7.200
REMARK INTER + INTRA:         -12.805
REMARK INTER:                 -11.937
REMARK INTRA:                  -0.868
REMARK UNBOUND:                -0.656
REMARK SMILES c1ccc(CNc2nc(NC[C@H]3CCCO3)c3ccccc3n2)nc1
REMARK SMILES IDX 7 1 8 2 9 3 17 4 18 5 19 6 20 7 21 8 22 9 23 10 6 11 5 13
REMARK SMILES IDX 4 14 1 15 2 16 25 17 3 18 24 19 10 20 11 22 12 23 13 24
REMARK SMILES IDX 16 25 14 26 15 27
REMARK H PARENT 6 12 10 21
ROOT
ATOM      1  C   UNL     1       3.517  43.946  52.922  1.00  0.00     0.225 A 
ATOM      2  N   UNL     1       4.158  45.113  52.810  1.00  0.00    -0.195 NA
ATOM      3  C   UNL     1       5.167  45.197  51.926  1.00  0.00     0.139 A 
ATOM      4  C   UNL     1       5.529  44.113  51.109  1.00  0.00     0.043 A 
ATOM      5  C   UNL     1       6.548  44.134  50.121  1.00  0.00     0.014 A 
ATOM      6  C   UNL     1       6.837  42.998  49.368  1.00  0.00     0.001 A 
ATOM      7  C   UNL     1       6.113  41.835  49.589  1.00  0.00     0.002 A 
ATOM      8  C   UNL     1       5.104  41.820  50.556  1.00  0.00     0.029 A 
ATOM      9  C   UNL     1       4.796  42.941  51.317  1.00  0.00     0.078 A 
ATOM     10  N   UNL     1       3.811  42.854  52.216  1.00  0.00    -0.213 NA
ENDROOT
BRANCH   1  11
ATOM     11  N   UNL     1       2.469  43.809  53.823  1.00  0.00    -0.348 N 
ATOM     12  H   UNL     1       2.885  43.438  54.672  1.00  0.00     0.164 HD
BRANCH  11  13
ATOM     13  C   UNL     1       1.732  45.044  54.035  1.00  0.00     0.172 C 
BRANCH  13  14
ATOM     14  C   UNL     1       0.305  44.884  53.542  1.00  0.00     0.060 A 
ATOM     15  C   UNL     1      -2.277  44.651  52.632  1.00  0.00     0.020 A 
ATOM     16  C   UNL     1      -1.962  44.180  53.900  1.00  0.00     0.004 A 
ATOM     17  C   UNL     1      -1.268  45.227  51.879  1.00  0.00     0.111 A 
ATOM     18  C   UNL     1      -0.656  44.298  54.367  1.00  0.00     0.026 A 
ATOM     19  N   UNL     1       0.009  45.356  52.303  1.00  0.00    -0.259 NA
ENDBRANCH  13  14
ENDBRANCH  11  13
ENDBRANCH   1  11
BRANCH   3  20
ATOM     20  N   UNL     1       5.854  46.423  51.791  1.00  0.00    -0.367 N 
ATOM     21  H   UNL     1       6.711  46.272  51.260  1.00  0.00     0.162 HD
BRANCH  20  22
ATOM     22  C   UNL     1       6.174  47.096  53.054  1.00  0.00     0.146 C 
BRANCH  22  23
ATOM     23  C   UNL     1       7.557  46.630  53.531  1.00  0.00     0.137 C 
ATOM     24  C   UNL     1       8.654  46.858  52.505  1.00  0.00     0.036 C 
ATOM     25  O   UNL     1       7.955  47.371  54.709  1.00  0.00    -0.376 OA
ATOM     26  C   UNL     1       9.876  46.944  53.383  1.00  0.00     0.031 C 
ATOM     27  C   UNL     1       9.348  47.698  54.585  1.00  0.00     0.160 C 
ENDBRANCH  22  23
ENDBRANCH  20  22
ENDBRANCH   3  20
TORSDOF 6
ENDMDL
MODEL 7
REMARK VINA RESULT:    -8.985      1.852      5.125
REMARK INTER + INTRA:         -12.793
REMARK INTER:                 -11.968
REMARK INTRA:                  -0.825
REMARK UNBOUND:                -0.656
REMARK SMILES c1ccc(CNc2nc(NC[C@H]3CCCO3)c3ccccc3n2)nc1
REMARK SMILES IDX 7 1 8 2 9 3 17 4 18 5 19 6 20 7 21 8 22 9 23 10 6 11 5 13
REMARK SMILES IDX 4 14 1 15 2 16 25 17 3 18 24 19 10 20 11 22 12 23 13 24
REMARK SMILES IDX 16 25 14 26 15 27
REMARK H PARENT 6 12 10 21
ROOT
ATOM      1  C   UNL     1       4.038  45.639  54.443  1.00  0.00     0.225 A 
ATOM      2  N   UNL     1       3.987  44.843  53.370  1.00  0.00    -0.195 NA
ATOM      3  C   UNL     1       2.842  44.180  53.131  1.00  0.00     0.139 A 
ATOM      4  C   UNL     1       1.711  44.332  53.950  1.00  0.00     0.043 A 
ATOM      5  C   UNL     1       0.456  43.705  53.741  1.00  0.00     0.014 A 
ATOM      6  C   UNL     1      -0.604  43.914  54.622  1.00  0.00     0.001 A 
ATOM      7  C   UNL     1      -0.423  44.750  55.714  1.00  0.00     0.002 A 
ATOM      8  C   UNL     1       0.812  45.374  55.913  1.00  0.00     0.029 A 
ATOM      9  C   UNL     1       1.883  45.182  55.047  1.00  0.00     0.078 A 
ATOM     10  N   UNL     1       3.030  45.820  55.296  1.00  0.00    -0.213 NA
ENDROOT
BRANCH   1  11
ATOM     11  N   UNL     1       5.199  46.344  54.733  1.00  0.00    -0.348 N 
ATOM     12  H   UNL     1       5.870  45.649  55.045  1.00  0.00     0.164 HD
BRANCH  11  13
ATOM     13  C   UNL     1       5.675  47.146  53.619  1.00  0.00     0.172 C 
BRANCH  13  14
ATOM     14  C   UNL     1       7.191  47.097  53.557  1.00  0.00     0.060 A 
ATOM     15  C   UNL     1       9.937  47.061  53.469  1.00  0.00     0.020 A 
ATOM     16  C   UNL     1       9.219  46.682  52.342  1.00  0.00     0.004 A 
ATOM     17  C   UNL     1       9.229  47.449  54.595  1.00  0.00     0.111 A 
ATOM     18  C   UNL     1       7.828  46.701  52.381  1.00  0.00     0.026 A 
ATOM     19  N   UNL     1       7.880  47.478  54.665  1.00  0.00    -0.259 NA
ENDBRANCH  13  14
ENDBRANCH  11  13
ENDBRANCH   1  11
BRANCH   3  20
ATOM     20  N   UNL     1       2.768  43.337  52.000  1.00  0.00    -0.367 N 
ATOM     21  H   UNL     1       1.839  42.920  51.952  1.00  0.00     0.162 HD
BRANCH  20  22
ATOM     22  C   UNL     1       3.781  42.279  51.949  1.00  0.00     0.146 C 
BRANCH  22  23
ATOM     23  C   UNL     1       4.557  42.393  50.630  1.00  0.00     0.137 C 
ATOM     24  C   UNL     1       5.653  43.444  50.668  1.00  0.00     0.036 C 
ATOM     25  O   UNL     1       5.218  41.141  50.328  1.00  0.00    -0.376 OA
ATOM     26  C   UNL     1       6.599  42.931  49.612  1.00  0.00     0.031 C 
ATOM     27  C   UNL     1       6.531  41.434  49.826  1.00  0.00     0.160 C 
ENDBRANCH  22  23
ENDBRANCH  20  22
ENDBRANCH   3  20
TORSDOF 6
ENDMDL
MODEL 8
REMARK VINA RESULT:    -8.932      2.011      5.198
REMARK INTER + INTRA:         -12.722
REMARK INTER:                 -11.846
REMARK INTRA:                  -0.876
REMARK UNBOUND:                -0.656
REMARK SMILES c1ccc(CNc2nc(NC[C@H]3CCCO3)c3ccccc3n2)nc1
REMARK SMILES IDX 7 1 8 2 9 3 17 4 18 5 19 6 20 7 21 8 22 9 23 10 6 11 5 13
REMARK SMILES IDX 4 14 1 15 2 16 25 17 3 18 24 19 10 20 11 22 12 23 13 24
REMARK SMILES IDX 16 25 14 26 15 27
REMARK H PARENT 6 12 10 21
ROOT
ATOM      1  C   UNL     1       4.647  45.312  54.607  1.00  0.00     0.225 A 
ATOM      2  N   UNL     1       4.516  44.676  53.438  1.00  0.00    -0.195 NA
ATOM      3  C   UNL     1       3.292  44.239  53.091  1.00  0.00     0.139 A 
ATOM      4  C   UNL     1       2.167  44.465  53.901  1.00  0.00     0.043 A 
ATOM      5  C   UNL     1       0.839  44.078  53.586  1.00  0.00     0.014 A 
ATOM      6  C   UNL     1      -0.210  44.340  54.465  1.00  0.00     0.001 A 
ATOM      7  C   UNL     1       0.054  44.992  55.661  1.00  0.00     0.002 A 
ATOM      8  C   UNL     1       1.362  45.381  55.965  1.00  0.00     0.029 A 
ATOM      9  C   UNL     1       2.424  45.132  55.102  1.00  0.00     0.078 A 
ATOM     10  N   UNL     1       3.645  45.542  55.456  1.00  0.00    -0.213 NA
ENDROOT
BRANCH   1  11
ATOM     11  N   UNL     1       5.890  45.780  55.010  1.00  0.00    -0.348 N 
ATOM     12  H   UNL     1       6.547  45.038  54.790  1.00  0.00     0.164 HD
BRANCH  11  13
ATOM     13  C   UNL     1       6.242  47.057  54.412  1.00  0.00     0.172 C 
BRANCH  13  14
ATOM     14  C   UNL     1       7.535  46.922  53.628  1.00  0.00     0.060 A 
ATOM     15  C   UNL     1       9.859  46.624  52.194  1.00  0.00     0.020 A 
ATOM     16  C   UNL     1       9.925  47.103  53.496  1.00  0.00     0.004 A 
ATOM     17  C   UNL     1       8.614  46.310  51.675  1.00  0.00     0.111 A 
ATOM     18  C   UNL     1       8.751  47.254  54.227  1.00  0.00     0.026 A 
ATOM     19  N   UNL     1       7.456  46.445  52.359  1.00  0.00    -0.259 NA
ENDBRANCH  13  14
ENDBRANCH  11  13
ENDBRANCH   1  11
BRANCH   3  20
ATOM     20  N   UNL     1       3.134  43.569  51.858  1.00  0.00    -0.367 N 
ATOM     21  H   UNL     1       2.142  43.403  51.691  1.00  0.00     0.162 HD
BRANCH  20  22
ATOM     22  C   UNL     1       3.866  42.305  51.742  1.00  0.00     0.146 C 
BRANCH  22  23
ATOM     23  C   UNL     1       4.693  42.323  50.449  1.00  0.00     0.137 C 
ATOM     24  C   UNL     1       5.695  43.464  50.393  1.00  0.00     0.036 C 
ATOM     25  O   UNL     1       5.471  41.107  50.335  1.00  0.00    -0.376 OA
ATOM     26  C   UNL     1       6.730  42.911  49.448  1.00  0.00     0.031 C 
ATOM     27  C   UNL     1       6.777  41.452  49.849  1.00  0.00     0.160 C 
ENDBRANCH  22  23
ENDBRANCH  20  22
ENDBRANCH   3  20
TORSDOF 6
ENDMDL
MODEL 9
REMARK VINA RESULT:    -8.834      2.172      6.068
REMARK INTER + INTRA:         -12.589
REMARK INTER:                 -11.552
REMARK INTRA:                  -1.036
REMARK UNBOUND:                -0.656
REMARK SMILES c1ccc(CNc2nc(NC[C@H]3CCCO3)c3ccccc3n2)nc1
REMARK SMILES IDX 7 1 8 2 9 3 17 4 18 5 19 6 20 7 21 8 22 9 23 10 6 11 5 13
REMARK SMILES IDX 4 14 1 15 2 16 25 17 3 18 24 19 10 20 11 22 12 23 13 24
REMARK SMILES IDX 16 25 14 26 15 27
REMARK H PARENT 6 12 10 21
ROOT
ATOM      1  C   UNL     1       7.000  45.274  50.843  1.00  0.00     0.225 A 
ATOM      2  N   UNL     1       5.976  45.586  51.642  1.00  0.00    -0.195 NA
ATOM      3  C   UNL     1       6.247  46.217  52.798  1.00  0.00     0.139 A 
ATOM      4  C   UNL     1       7.556  46.579  53.157  1.00  0.00     0.043 A 
ATOM      5  C   UNL     1       7.920  47.285  54.332  1.00  0.00     0.014 A 
ATOM      6  C   UNL     1       9.253  47.588  54.601  1.00  0.00     0.001 A 
ATOM      7  C   UNL     1      10.234  47.194  53.701  1.00  0.00     0.002 A 
ATOM      8  C   UNL     1       9.872  46.507  52.539  1.00  0.00     0.029 A 
ATOM      9  C   UNL     1       8.548  46.196  52.248  1.00  0.00     0.078 A 
ATOM     10  N   UNL     1       8.278  45.546  51.114  1.00  0.00    -0.213 NA
ENDROOT
BRANCH   1  11
ATOM     11  N   UNL     1       6.772  44.621  49.639  1.00  0.00    -0.348 N 
ATOM     12  H   UNL     1       7.268  45.160  48.937  1.00  0.00     0.164 HD
BRANCH  11  13
ATOM     13  C   UNL     1       7.155  43.219  49.667  1.00  0.00     0.172 C 
BRANCH  13  14
ATOM     14  C   UNL     1       5.915  42.344  49.674  1.00  0.00     0.060 A 
ATOM     15  C   UNL     1       3.658  40.778  49.634  1.00  0.00     0.020 A 
ATOM     16  C   UNL     1       3.897  41.592  50.733  1.00  0.00     0.004 A 
ATOM     17  C   UNL     1       4.575  40.797  48.595  1.00  0.00     0.111 A 
ATOM     18  C   UNL     1       5.037  42.389  50.758  1.00  0.00     0.026 A 
ATOM     19  N   UNL     1       5.691  41.559  48.589  1.00  0.00    -0.259 NA
ENDBRANCH  13  14
ENDBRANCH  11  13
ENDBRANCH   1  11
BRANCH   3  20
ATOM     20  N   UNL     1       5.177  46.558  53.655  1.00  0.00    -0.367 N 
ATOM     21  H   UNL     1       4.778  45.707  54.049  1.00  0.00     0.162 HD
BRANCH  20  22
ATOM     22  C   UNL     1       4.114  47.351  53.031  1.00  0.00     0.146 C 
BRANCH  22  23
ATOM     23  C   UNL     1       2.850  46.488  52.913  1.00  0.00     0.137 C 
ATOM     24  C   UNL     1       2.616  45.955  51.510  1.00  0.00     0.036 C 
ATOM     25  O   UNL     1       2.957  45.325  53.767  1.00  0.00    -0.376 OA
ATOM     26  C   UNL     1       1.795  44.722  51.789  1.00  0.00     0.031 C 
ATOM     27  C   UNL     1       2.440  44.192  53.052  1.00  0.00     0.160 C 
ENDBRANCH  22  23
ENDBRANCH  20  22
ENDBRANCH   3  20
TORSDOF 6
ENDMDL
MODEL 10
REMARK VINA RESULT:    -8.743      2.880      6.638
REMARK INTER + INTRA:         -12.465
REMARK INTER:                 -11.411
REMARK INTRA:                  -1.054
REMARK UNBOUND:                -0.656
REMARK SMILES c1ccc(CNc2nc(NC[C@H]3CCCO3)c3ccccc3n2)nc1
REMARK SMILES IDX 7 1 8 2 9 3 17 4 18 5 19 6 20 7 21 8 22 9 23 10 6 11 5 13
REMARK SMILES IDX 4 14 1 15 2 16 25 17 3 18 24 19 10 20 11 22 12 23 13 24
REMARK SMILES IDX 16 25 14 26 15 27
REMARK H PARENT 6 12 10 21
ROOT
ATOM      1  C   UNL     1       7.058  43.891  49.707  1.00  0.00     0.225 A 
ATOM      2  N   UNL     1       5.868  44.345  50.111  1.00  0.00    -0.195 NA
ATOM      3  C   UNL     1       5.845  45.405  50.938  1.00  0.00     0.139 A 
ATOM      4  C   UNL     1       7.022  46.052  51.348  1.00  0.00     0.043 A 
ATOM      5  C   UNL     1       7.080  47.200  52.180  1.00  0.00     0.014 A 
ATOM      6  C   UNL     1       8.304  47.762  52.539  1.00  0.00     0.001 A 
ATOM      7  C   UNL     1       9.478  47.187  52.072  1.00  0.00     0.002 A 
ATOM      8  C   UNL     1       9.417  46.061  51.245  1.00  0.00     0.029 A 
ATOM      9  C   UNL     1       8.208  45.486  50.872  1.00  0.00     0.078 A 
ATOM     10  N   UNL     1       8.228  44.417  50.071  1.00  0.00    -0.213 NA
ENDROOT
BRANCH   1  11
ATOM     11  N   UNL     1       7.135  42.798  48.854  1.00  0.00    -0.348 N 
ATOM     12  H   UNL     1       8.095  42.472  48.913  1.00  0.00     0.164 HD
BRANCH  11  13
ATOM     13  C   UNL     1       6.157  41.766  49.157  1.00  0.00     0.172 C 
BRANCH  13  14
ATOM     14  C   UNL     1       5.338  41.451  47.918  1.00  0.00     0.060 A 
ATOM     15  C   UNL     1       3.853  40.827  45.693  1.00  0.00     0.020 A 
ATOM     16  C   UNL     1       4.990  41.612  45.549  1.00  0.00     0.004 A 
ATOM     17  C   UNL     1       3.519  40.386  46.962  1.00  0.00     0.111 A 
ATOM     18  C   UNL     1       5.746  41.929  46.673  1.00  0.00     0.026 A 
ATOM     19  N   UNL     1       4.233  40.676  48.073  1.00  0.00    -0.259 NA
ENDBRANCH  13  14
ENDBRANCH  11  13
ENDBRANCH   1  11
BRANCH   3  20
ATOM     20  N   UNL     1       4.596  45.902  51.371  1.00  0.00    -0.367 N 
ATOM     21  H   UNL     1       4.748  46.674  52.020  1.00  0.00     0.162 HD
BRANCH  20  22
ATOM     22  C   UNL     1       3.717  44.909  51.995  1.00  0.00     0.146 C 
BRANCH  22  23
ATOM     23  C   UNL     1       3.782  45.070  53.519  1.00  0.00     0.137 C 
ATOM     24  C   UNL     1       5.064  44.526  54.127  1.00  0.00     0.036 C 
ATOM     25  O   UNL     1       3.736  46.472  53.877  1.00  0.00    -0.376 OA
ATOM     26  C   UNL     1       5.166  45.338  55.393  1.00  0.00     0.031 C 
ATOM     27  C   UNL     1       4.678  46.696  54.937  1.00  0.00     0.160 C 
ENDBRANCH  22  23
ENDBRANCH  20  22
ENDBRANCH   3  20
TORSDOF 6
ENDMDL
MODEL 11
REMARK VINA RESULT:    -8.671      2.683      7.174
REMARK INTER + INTRA:         -12.368
REMARK INTER:                 -11.633
REMARK INTRA:                  -0.735
REMARK UNBOUND:                -0.656
REMARK SMILES c1ccc(CNc2nc(NC[C@H]3CCCO3)c3ccccc3n2)nc1
REMARK SMILES IDX 7 1 8 2 9 3 17 4 18 5 19 6 20 7 21 8 22 9 23 10 6 11 5 13
REMARK SMILES IDX 4 14 1 15 2 16 25 17 3 18 24 19 10 20 11 22 12 23 13 24
REMARK SMILES IDX 16 25 14 26 15 27
REMARK H PARENT 6 12 10 21
ROOT
ATOM      1  C   UNL     1       4.774  45.920  51.905  1.00  0.00     0.225 A 
ATOM      2  N   UNL     1       5.819  46.741  52.048  1.00  0.00    -0.195 NA
ATOM      3  C   UNL     1       6.970  46.411  51.436  1.00  0.00     0.139 A 
ATOM      4  C   UNL     1       7.081  45.262  50.636  1.00  0.00     0.043 A 
ATOM      5  C   UNL     1       8.242  44.869  49.921  1.00  0.00     0.014 A 
ATOM      6  C   UNL     1       8.254  43.701  49.162  1.00  0.00     0.001 A 
ATOM      7  C   UNL     1       7.109  42.917  49.105  1.00  0.00     0.002 A 
ATOM      8  C   UNL     1       5.964  43.312  49.802  1.00  0.00     0.029 A 
ATOM      9  C   UNL     1       5.929  44.474  50.565  1.00  0.00     0.078 A 
ATOM     10  N   UNL     1       4.795  44.791  51.196  1.00  0.00    -0.213 NA
ENDROOT
BRANCH   1  11
ATOM     11  N   UNL     1       3.565  46.217  52.520  1.00  0.00    -0.348 N 
ATOM     12  H   UNL     1       2.846  45.908  51.872  1.00  0.00     0.164 HD
BRANCH  11  13
ATOM     13  C   UNL     1       3.437  45.631  53.843  1.00  0.00     0.172 C 
BRANCH  13  14
ATOM     14  C   UNL     1       2.207  44.743  53.899  1.00  0.00     0.060 A 
ATOM     15  C   UNL     1      -0.020  43.134  53.941  1.00  0.00     0.020 A 
ATOM     16  C   UNL     1       0.005  44.275  54.733  1.00  0.00     0.004 A 
ATOM     17  C   UNL     1       1.087  42.859  53.155  1.00  0.00     0.111 A 
ATOM     18  C   UNL     1       1.130  45.094  54.713  1.00  0.00     0.026 A 
ATOM     19  N   UNL     1       2.194  43.634  53.113  1.00  0.00    -0.259 NA
ENDBRANCH  13  14
ENDBRANCH  11  13
ENDBRANCH   1  11
BRANCH   3  20
ATOM     20  N   UNL     1       8.083  47.269  51.572  1.00  0.00    -0.367 N 
ATOM     21  H   UNL     1       8.933  46.709  51.638  1.00  0.00     0.162 HD
BRANCH  20  22
ATOM     22  C   UNL     1       8.018  48.192  52.710  1.00  0.00     0.146 C 
BRANCH  22  23
ATOM     23  C   UNL     1       8.617  47.506  53.945  1.00  0.00     0.137 C 
ATOM     24  C   UNL     1      10.058  47.067  53.749  1.00  0.00     0.036 C 
ATOM     25  O   UNL     1       8.628  48.418  55.068  1.00  0.00    -0.376 OA
ATOM     26  C   UNL     1      10.564  47.051  55.169  1.00  0.00     0.031 C 
ATOM     27  C   UNL     1       9.874  48.259  55.764  1.00  0.00     0.160 C 
ENDBRANCH  22  23
ENDBRANCH  20  22
ENDBRANCH   3  20
TORSDOF 6
ENDMDL
MODEL 12
REMARK VINA RESULT:    -8.537      2.330      6.373
REMARK INTER + INTRA:         -12.188
REMARK INTER:                 -11.330
REMARK INTRA:                  -0.858
REMARK UNBOUND:                -0.656
REMARK SMILES c1ccc(CNc2nc(NC[C@H]3CCCO3)c3ccccc3n2)nc1
REMARK SMILES IDX 7 1 8 2 9 3 17 4 18 5 19 6 20 7 21 8 22 9 23 10 6 11 5 13
REMARK SMILES IDX 4 14 1 15 2 16 25 17 3 18 24 19 10 20 11 22 12 23 13 24
REMARK SMILES IDX 16 25 14 26 15 27
REMARK H PARENT 6 12 10 21
ROOT
ATOM      1  C   UNL     1       7.150  44.176  49.889  1.00  0.00     0.225 A 
ATOM      2  N   UNL     1       5.992  44.683  50.319  1.00  0.00    -0.195 NA
ATOM      3  C   UNL     1       6.035  45.692  51.207  1.00  0.00     0.139 A 
ATOM      4  C   UNL     1       7.250  46.235  51.654  1.00  0.00     0.043 A 
ATOM      5  C   UNL     1       7.381  47.327  52.550  1.00  0.00     0.014 A 
ATOM      6  C   UNL     1       8.638  47.785  52.941  1.00  0.00     0.001 A 
ATOM      7  C   UNL     1       9.773  47.163  52.440  1.00  0.00     0.002 A 
ATOM      8  C   UNL     1       9.641  46.094  51.549  1.00  0.00     0.029 A 
ATOM      9  C   UNL     1       8.398  45.622  51.143  1.00  0.00     0.078 A 
ATOM     10  N   UNL     1       8.351  44.602  50.281  1.00  0.00    -0.213 NA
ENDROOT
BRANCH   1  11
ATOM     11  N   UNL     1       7.158  43.132  48.973  1.00  0.00    -0.348 N 
ATOM     12  H   UNL     1       8.136  42.899  48.832  1.00  0.00     0.164 HD
BRANCH  11  13
ATOM     13  C   UNL     1       6.350  41.998  49.391  1.00  0.00     0.172 C 
BRANCH  13  14
ATOM     14  C   UNL     1       5.466  41.544  48.244  1.00  0.00     0.060 A 
ATOM     15  C   UNL     1       3.867  40.667  46.189  1.00  0.00     0.020 A 
ATOM     16  C   UNL     1       4.959  41.475  45.899  1.00  0.00     0.004 A 
ATOM     17  C   UNL     1       3.635  40.332  47.513  1.00  0.00     0.111 A 
ATOM     18  C   UNL     1       5.773  41.920  46.936  1.00  0.00     0.026 A 
ATOM     19  N   UNL     1       4.406  40.748  48.542  1.00  0.00    -0.259 NA
ENDBRANCH  13  14
ENDBRANCH  11  13
ENDBRANCH   1  11
BRANCH   3  20
ATOM     20  N   UNL     1       4.820  46.243  51.670  1.00  0.00    -0.367 N 
ATOM     21  H   UNL     1       4.610  45.866  52.593  1.00  0.00     0.162 HD
BRANCH  20  22
ATOM     22  C   UNL     1       3.669  46.036  50.785  1.00  0.00     0.146 C 
BRANCH  22  23
ATOM     23  C   UNL     1       2.539  45.371  51.582  1.00  0.00     0.137 C 
ATOM     24  C   UNL     1       3.025  44.266  52.504  1.00  0.00     0.036 C 
ATOM     25  O   UNL     1       1.889  46.343  52.436  1.00  0.00    -0.376 OA
ATOM     26  C   UNL     1       1.943  44.252  53.554  1.00  0.00     0.031 C 
ATOM     27  C   UNL     1       1.632  45.725  53.706  1.00  0.00     0.160 C 
ENDBRANCH  22  23
ENDBRANCH  20  22
ENDBRANCH   3  20
TORSDOF 6
ENDMDL
MODEL 13
REMARK VINA RESULT:    -8.506      2.852      7.617
REMARK INTER + INTRA:         -12.145
REMARK INTER:                 -11.444
REMARK INTRA:                  -0.701
REMARK UNBOUND:                -0.656
REMARK SMILES c1ccc(CNc2nc(NC[C@H]3CCCO3)c3ccccc3n2)nc1
REMARK SMILES IDX 7 1 8 2 9 3 17 4 18 5 19 6 20 7 21 8 22 9 23 10 6 11 5 13
REMARK SMILES IDX 4 14 1 15 2 16 25 17 3 18 24 19 10 20 11 22 12 23 13 24
REMARK SMILES IDX 16 25 14 26 15 27
REMARK H PARENT 6 12 10 21
ROOT
ATOM      1  C   UNL     1       5.784  43.607  50.460  1.00  0.00     0.225 A 
ATOM      2  N   UNL     1       6.325  44.776  50.816  1.00  0.00    -0.195 NA
ATOM      3  C   UNL     1       5.665  45.530  51.713  1.00  0.00     0.139 A 
ATOM      4  C   UNL     1       4.460  45.105  52.296  1.00  0.00     0.043 A 
ATOM      5  C   UNL     1       3.729  45.818  53.281  1.00  0.00     0.014 A 
ATOM      6  C   UNL     1       2.534  45.313  53.790  1.00  0.00     0.001 A 
ATOM      7  C   UNL     1       2.061  44.093  53.326  1.00  0.00     0.002 A 
ATOM      8  C   UNL     1       2.789  43.388  52.364  1.00  0.00     0.029 A 
ATOM      9  C   UNL     1       3.984  43.871  51.843  1.00  0.00     0.078 A 
ATOM     10  N   UNL     1       4.629  43.137  50.933  1.00  0.00    -0.213 NA
ENDROOT
BRANCH   1  11
ATOM     11  N   UNL     1       6.426  42.794  49.536  1.00  0.00    -0.348 N 
ATOM     12  H   UNL     1       7.403  42.783  49.813  1.00  0.00     0.164 HD
BRANCH  11  13
ATOM     13  C   UNL     1       5.841  41.467  49.438  1.00  0.00     0.172 C 
BRANCH  13  14
ATOM     14  C   UNL     1       5.202  41.284  48.073  1.00  0.00     0.060 A 
ATOM     15  C   UNL     1       4.040  40.896  45.613  1.00  0.00     0.020 A 
ATOM     16  C   UNL     1       5.197  41.661  45.703  1.00  0.00     0.004 A 
ATOM     17  C   UNL     1       3.524  40.354  46.779  1.00  0.00     0.111 A 
ATOM     18  C   UNL     1       5.790  41.858  46.946  1.00  0.00     0.026 A 
ATOM     19  N   UNL     1       4.076  40.527  48.000  1.00  0.00    -0.259 NA
ENDBRANCH  13  14
ENDBRANCH  11  13
ENDBRANCH   1  11
BRANCH   3  20
ATOM     20  N   UNL     1       6.224  46.766  52.105  1.00  0.00    -0.367 N 
ATOM     21  H   UNL     1       5.742  47.522  51.620  1.00  0.00     0.162 HD
BRANCH  20  22
ATOM     22  C   UNL     1       7.669  46.890  51.885  1.00  0.00     0.146 C 
BRANCH  22  23
ATOM     23  C   UNL     1       8.399  46.657  53.214  1.00  0.00     0.137 C 
ATOM     24  C   UNL     1       9.903  46.841  53.113  1.00  0.00     0.036 C 
ATOM     25  O   UNL     1       7.948  47.610  54.207  1.00  0.00    -0.376 OA
ATOM     26  C   UNL     1      10.260  47.194  54.535  1.00  0.00     0.031 C 
ATOM     27  C   UNL     1       9.092  48.063  54.947  1.00  0.00     0.160 C 
ENDBRANCH  22  23
ENDBRANCH  20  22
ENDBRANCH   3  20
TORSDOF 6
ENDMDL
MODEL 14
REMARK VINA RESULT:    -8.468      2.543      6.942
REMARK INTER + INTRA:         -12.094
REMARK INTER:                 -11.158
REMARK INTRA:                  -0.936
REMARK UNBOUND:                -0.656
REMARK SMILES c1ccc(CNc2nc(NC[C@H]3CCCO3)c3ccccc3n2)nc1
REMARK SMILES IDX 7 1 8 2 9 3 17 4 18 5 19 6 20 7 21 8 22 9 23 10 6 11 5 13
REMARK SMILES IDX 4 14 1 15 2 16 25 17 3 18 24 19 10 20 11 22 12 23 13 24
REMARK SMILES IDX 16 25 14 26 15 27
REMARK H PARENT 6 12 10 21
ROOT
ATOM      1  C   UNL     1       2.413  44.137  53.009  1.00  0.00     0.225 A 
ATOM      2  N   UNL     1       3.397  44.766  53.658  1.00  0.00    -0.195 NA
ATOM      3  C   UNL     1       3.110  45.330  54.844  1.00  0.00     0.139 A 
ATOM      4  C   UNL     1       1.832  45.241  55.419  1.00  0.00     0.043 A 
ATOM      5  C   UNL     1       1.462  45.766  56.684  1.00  0.00     0.014 A 
ATOM      6  C   UNL     1       0.159  45.633  57.161  1.00  0.00     0.001 A 
ATOM      7  C   UNL     1      -0.783  44.973  56.385  1.00  0.00     0.002 A 
ATOM      8  C   UNL     1      -0.414  44.447  55.143  1.00  0.00     0.029 A 
ATOM      9  C   UNL     1       0.880  44.566  54.648  1.00  0.00     0.078 A 
ATOM     10  N   UNL     1       1.162  44.030  53.458  1.00  0.00    -0.213 NA
ENDROOT
BRANCH   1  11
ATOM     11  N   UNL     1       2.658  43.541  51.779  1.00  0.00    -0.348 N 
ATOM     12  H   UNL     1       3.060  44.269  51.197  1.00  0.00     0.164 HD
BRANCH  11  13
ATOM     13  C   UNL     1       3.492  42.354  51.875  1.00  0.00     0.172 C 
BRANCH  13  14
ATOM     14  C   UNL     1       4.700  42.496  50.965  1.00  0.00     0.060 A 
ATOM     15  C   UNL     1       6.907  42.706  49.342  1.00  0.00     0.020 A 
ATOM     16  C   UNL     1       6.470  43.826  50.039  1.00  0.00     0.004 A 
ATOM     17  C   UNL     1       6.206  41.522  49.504  1.00  0.00     0.111 A 
ATOM     18  C   UNL     1       5.354  43.724  50.864  1.00  0.00     0.026 A 
ATOM     19  N   UNL     1       5.119  41.391  50.297  1.00  0.00    -0.259 NA
ENDBRANCH  13  14
ENDBRANCH  11  13
ENDBRANCH   1  11
BRANCH   3  20
ATOM     20  N   UNL     1       4.139  45.996  55.547  1.00  0.00    -0.367 N 
ATOM     21  H   UNL     1       3.737  46.488  56.345  1.00  0.00     0.162 HD
BRANCH  20  22
ATOM     22  C   UNL     1       4.930  46.934  54.745  1.00  0.00     0.146 C 
BRANCH  22  23
ATOM     23  C   UNL     1       6.353  46.381  54.588  1.00  0.00     0.137 C 
ATOM     24  C   UNL     1       6.744  46.132  53.141  1.00  0.00     0.036 C 
ATOM     25  O   UNL     1       7.318  47.329  55.102  1.00  0.00    -0.376 OA
ATOM     26  C   UNL     1       8.246  46.236  53.212  1.00  0.00     0.031 C 
ATOM     27  C   UNL     1       8.437  47.364  54.204  1.00  0.00     0.160 C 
ENDBRANCH  22  23
ENDBRANCH  20  22
ENDBRANCH   3  20
TORSDOF 6
ENDMDL
MODEL 15
REMARK VINA RESULT:    -8.421      2.568      3.278
REMARK INTER + INTRA:         -12.030
REMARK INTER:                 -10.971
REMARK INTRA:                  -1.059
REMARK UNBOUND:                -0.656
REMARK SMILES c1ccc(CNc2nc(NC[C@H]3CCCO3)c3ccccc3n2)nc1
REMARK SMILES IDX 7 1 8 2 9 3 17 4 18 5 19 6 20 7 21 8 22 9 23 10 6 11 5 13
REMARK SMILES IDX 4 14 1 15 2 16 25 17 3 18 24 19 10 20 11 22 12 23 13 24
REMARK SMILES IDX 16 25 14 26 15 27
REMARK H PARENT 6 12 10 21
ROOT
ATOM      1  C   UNL     1       6.861  45.370  50.714  1.00  0.00     0.225 A 
ATOM      2  N   UNL     1       5.786  45.996  51.200  1.00  0.00    -0.195 NA
ATOM      3  C   UNL     1       4.645  45.294  51.315  1.00  0.00     0.139 A 
ATOM      4  C   UNL     1       4.573  43.933  50.974  1.00  0.00     0.043 A 
ATOM      5  C   UNL     1       3.424  43.112  51.108  1.00  0.00     0.014 A 
ATOM      6  C   UNL     1       3.454  41.772  50.729  1.00  0.00     0.001 A 
ATOM      7  C   UNL     1       4.628  41.237  50.218  1.00  0.00     0.002 A 
ATOM      8  C   UNL     1       5.762  42.046  50.095  1.00  0.00     0.029 A 
ATOM      9  C   UNL     1       5.756  43.385  50.469  1.00  0.00     0.078 A 
ATOM     10  N   UNL     1       6.881  44.092  50.332  1.00  0.00    -0.213 NA
ENDROOT
BRANCH   1  11
ATOM     11  N   UNL     1       8.063  46.053  50.575  1.00  0.00    -0.348 N 
ATOM     12  H   UNL     1       8.278  46.028  49.583  1.00  0.00     0.164 HD
BRANCH  11  13
ATOM     13  C   UNL     1       8.023  47.398  51.123  1.00  0.00     0.172 C 
BRANCH  13  14
ATOM     14  C   UNL     1       8.696  47.422  52.483  1.00  0.00     0.060 A 
ATOM     15  C   UNL     1       9.914  47.524  54.944  1.00  0.00     0.020 A 
ATOM     16  C   UNL     1      10.433  46.685  53.966  1.00  0.00     0.004 A 
ATOM     17  C   UNL     1       8.799  48.282  54.629  1.00  0.00     0.111 A 
ATOM     18  C   UNL     1       9.822  46.631  52.717  1.00  0.00     0.026 A 
ATOM     19  N   UNL     1       8.182  48.253  53.427  1.00  0.00    -0.259 NA
ENDBRANCH  13  14
ENDBRANCH  11  13
ENDBRANCH   1  11
BRANCH   3  20
ATOM     20  N   UNL     1       3.499  45.938  51.831  1.00  0.00    -0.367 N 
ATOM     21  H   UNL     1       2.838  46.106  51.073  1.00  0.00     0.162 HD
BRANCH  20  22
ATOM     22  C   UNL     1       3.761  47.195  52.538  1.00  0.00     0.146 C 
BRANCH  22  23
ATOM     23  C   UNL     1       3.907  46.905  54.037  1.00  0.00     0.137 C 
ATOM     24  C   UNL     1       3.210  45.627  54.472  1.00  0.00     0.036 C 
ATOM     25  O   UNL     1       5.302  46.733  54.380  1.00  0.00    -0.376 OA
ATOM     26  C   UNL     1       3.998  45.257  55.703  1.00  0.00     0.031 C 
ATOM     27  C   UNL     1       5.408  45.636  55.301  1.00  0.00     0.160 C 
ENDBRANCH  22  23
ENDBRANCH  20  22
ENDBRANCH   3  20
TORSDOF 6
ENDMDL
MODEL 16
REMARK VINA RESULT:    -8.395      1.950      2.902
REMARK INTER + INTRA:         -11.995
REMARK INTER:                 -11.156
REMARK INTRA:                  -0.839
REMARK UNBOUND:                -0.656
REMARK SMILES c1ccc(CNc2nc(NC[C@H]3CCCO3)c3ccccc3n2)nc1
REMARK SMILES IDX 7 1 8 2 9 3 17 4 18 5 19 6 20 7 21 8 22 9 23 10 6 11 5 13
REMARK SMILES IDX 4 14 1 15 2 16 25 17 3 18 24 19 10 20 11 22 12 23 13 24
REMARK SMILES IDX 16 25 14 26 15 27
REMARK H PARENT 6 12 10 21
ROOT
ATOM      1  C   UNL     1       4.755  45.073  54.310  1.00  0.00     0.225 A 
ATOM      2  N   UNL     1       3.586  45.556  54.741  1.00  0.00    -0.195 NA
ATOM      3  C   UNL     1       2.466  45.146  54.121  1.00  0.00     0.139 A 
ATOM      4  C   UNL     1       2.498  44.211  53.074  1.00  0.00     0.043 A 
ATOM      5  C   UNL     1       1.362  43.693  52.400  1.00  0.00     0.014 A 
ATOM      6  C   UNL     1       1.502  42.773  51.363  1.00  0.00     0.001 A 
ATOM      7  C   UNL     1       2.774  42.359  50.991  1.00  0.00     0.002 A 
ATOM      8  C   UNL     1       3.891  42.863  51.662  1.00  0.00     0.029 A 
ATOM      9  C   UNL     1       3.775  43.780  52.702  1.00  0.00     0.078 A 
ATOM     10  N   UNL     1       4.888  44.210  53.303  1.00  0.00    -0.213 NA
ENDROOT
BRANCH   1  11
ATOM     11  N   UNL     1       5.940  45.468  54.918  1.00  0.00    -0.348 N 
ATOM     12  H   UNL     1       6.629  44.773  54.649  1.00  0.00     0.164 HD
BRANCH  11  13
ATOM     13  C   UNL     1       6.330  46.827  54.581  1.00  0.00     0.172 C 
BRANCH  13  14
ATOM     14  C   UNL     1       7.584  46.807  53.725  1.00  0.00     0.060 A 
ATOM     15  C   UNL     1       9.838  46.719  52.157  1.00  0.00     0.020 A 
ATOM     16  C   UNL     1       9.954  47.101  53.488  1.00  0.00     0.004 A 
ATOM     17  C   UNL     1       8.581  46.392  51.679  1.00  0.00     0.111 A 
ATOM     18  C   UNL     1       8.816  47.145  54.287  1.00  0.00     0.026 A 
ATOM     19  N   UNL     1       7.456  46.424  52.428  1.00  0.00    -0.259 NA
ENDBRANCH  13  14
ENDBRANCH  11  13
ENDBRANCH   1  11
BRANCH   3  20
ATOM     20  N   UNL     1       1.221  45.643  54.565  1.00  0.00    -0.367 N 
ATOM     21  H   UNL     1       1.228  46.661  54.515  1.00  0.00     0.162 HD
BRANCH  20  22
ATOM     22  C   UNL     1       0.834  45.224  55.916  1.00  0.00     0.146 C 
BRANCH  22  23
ATOM     23  C   UNL     1      -0.698  45.194  56.010  1.00  0.00     0.137 C 
ATOM     24  C   UNL     1      -1.342  44.251  55.009  1.00  0.00     0.036 C 
ATOM     25  O   UNL     1      -1.110  44.727  57.317  1.00  0.00    -0.376 OA
ATOM     26  C   UNL     1      -2.644  43.925  55.696  1.00  0.00     0.031 C 
ATOM     27  C   UNL     1      -2.222  43.836  57.146  1.00  0.00     0.160 C 
ENDBRANCH  22  23
ENDBRANCH  20  22
ENDBRANCH   3  20
TORSDOF 6
ENDMDL
MODEL 17
REMARK VINA RESULT:    -8.344      3.468      7.612
REMARK INTER + INTRA:         -11.926
REMARK INTER:                 -11.245
REMARK INTRA:                  -0.682
REMARK UNBOUND:                -0.656
REMARK SMILES c1ccc(CNc2nc(NC[C@H]3CCCO3)c3ccccc3n2)nc1
REMARK SMILES IDX 7 1 8 2 9 3 17 4 18 5 19 6 20 7 21 8 22 9 23 10 6 11 5 13
REMARK SMILES IDX 4 14 1 15 2 16 25 17 3 18 24 19 10 20 11 22 12 23 13 24
REMARK SMILES IDX 16 25 14 26 15 27
REMARK H PARENT 6 12 10 21
ROOT
ATOM      1  C   UNL     1       3.188  45.492  55.331  1.00  0.00     0.225 A 
ATOM      2  N   UNL     1       4.476  45.781  55.126  1.00  0.00    -0.195 NA
ATOM      3  C   UNL     1       5.076  45.256  54.043  1.00  0.00     0.139 A 
ATOM      4  C   UNL     1       4.378  44.456  53.123  1.00  0.00     0.043 A 
ATOM      5  C   UNL     1       4.924  43.904  51.935  1.00  0.00     0.014 A 
ATOM      6  C   UNL     1       4.148  43.112  51.092  1.00  0.00     0.001 A 
ATOM      7  C   UNL     1       2.823  42.866  51.422  1.00  0.00     0.002 A 
ATOM      8  C   UNL     1       2.285  43.418  52.588  1.00  0.00     0.029 A 
ATOM      9  C   UNL     1       3.039  44.214  53.443  1.00  0.00     0.078 A 
ATOM     10  N   UNL     1       2.454  44.715  54.534  1.00  0.00    -0.213 NA
ENDROOT
BRANCH   1  11
ATOM     11  N   UNL     1       2.525  46.008  56.437  1.00  0.00    -0.348 N 
ATOM     12  H   UNL     1       2.581  47.017  56.342  1.00  0.00     0.164 HD
BRANCH  11  13
ATOM     13  C   UNL     1       1.164  45.516  56.568  1.00  0.00     0.172 C 
BRANCH  13  14
ATOM     14  C   UNL     1       0.374  46.423  57.495  1.00  0.00     0.060 A 
ATOM     15  C   UNL     1      -1.037  48.033  59.218  1.00  0.00     0.020 A 
ATOM     16  C   UNL     1      -1.660  47.559  58.071  1.00  0.00     0.004 A 
ATOM     17  C   UNL     1       0.279  47.664  59.446  1.00  0.00     0.111 A 
ATOM     18  C   UNL     1      -0.951  46.742  57.196  1.00  0.00     0.026 A 
ATOM     19  N   UNL     1       0.995  46.872  58.617  1.00  0.00    -0.259 NA
ENDBRANCH  13  14
ENDBRANCH  11  13
ENDBRANCH   1  11
BRANCH   3  20
ATOM     20  N   UNL     1       6.436  45.554  53.807  1.00  0.00    -0.367 N 
ATOM     21  H   UNL     1       6.997  44.719  53.971  1.00  0.00     0.162 HD
BRANCH  20  22
ATOM     22  C   UNL     1       6.973  46.665  54.599  1.00  0.00     0.146 C 
BRANCH  22  23
ATOM     23  C   UNL     1       8.209  47.234  53.889  1.00  0.00     0.137 C 
ATOM     24  C   UNL     1       9.184  46.163  53.430  1.00  0.00     0.036 C 
ATOM     25  O   UNL     1       7.814  47.950  52.694  1.00  0.00    -0.376 OA
ATOM     26  C   UNL     1       9.882  46.859  52.289  1.00  0.00     0.031 C 
ATOM     27  C   UNL     1       8.748  47.632  51.650  1.00  0.00     0.160 C 
ENDBRANCH  22  23
ENDBRANCH  20  22
ENDBRANCH   3  20
TORSDOF 6
ENDMDL
MODEL 18
REMARK VINA RESULT:    -8.238      2.979      6.975
REMARK INTER + INTRA:         -11.784
REMARK INTER:                 -10.892
REMARK INTRA:                  -0.892
REMARK UNBOUND:                -0.656
REMARK SMILES c1ccc(CNc2nc(NC[C@H]3CCCO3)c3ccccc3n2)nc1
REMARK SMILES IDX 7 1 8 2 9 3 17 4 18 5 19 6 20 7 21 8 22 9 23 10 6 11 5 13
REMARK SMILES IDX 4 14 1 15 2 16 25 17 3 18 24 19 10 20 11 22 12 23 13 24
REMARK SMILES IDX 16 25 14 26 15 27
REMARK H PARENT 6 12 10 21
ROOT
ATOM      1  C   UNL     1       3.811  42.502  51.829  1.00  0.00     0.225 A 
ATOM      2  N   UNL     1       4.054  41.615  50.859  1.00  0.00    -0.195 NA
ATOM      3  C   UNL     1       5.064  41.870  50.009  1.00  0.00     0.139 A 
ATOM      4  C   UNL     1       5.875  43.009  50.141  1.00  0.00     0.043 A 
ATOM      5  C   UNL     1       6.986  43.326  49.317  1.00  0.00     0.014 A 
ATOM      6  C   UNL     1       7.722  44.491  49.525  1.00  0.00     0.001 A 
ATOM      7  C   UNL     1       7.361  45.346  50.557  1.00  0.00     0.002 A 
ATOM      8  C   UNL     1       6.272  45.027  51.373  1.00  0.00     0.029 A 
ATOM      9  C   UNL     1       5.524  43.870  51.186  1.00  0.00     0.078 A 
ATOM     10  N   UNL     1       4.504  43.627  52.012  1.00  0.00    -0.213 NA
ENDROOT
BRANCH   1  11
ATOM     11  N   UNL     1       2.778  42.284  52.730  1.00  0.00    -0.348 N 
ATOM     12  H   UNL     1       3.169  42.476  53.647  1.00  0.00     0.164 HD
BRANCH  11  13
ATOM     13  C   UNL     1       1.588  43.066  52.437  1.00  0.00     0.172 C 
BRANCH  13  14
ATOM     14  C   UNL     1       1.117  43.780  53.691  1.00  0.00     0.060 A 
ATOM     15  C   UNL     1       0.306  45.047  55.990  1.00  0.00     0.020 A 
ATOM     16  C   UNL     1      -0.637  44.388  55.212  1.00  0.00     0.004 A 
ATOM     17  C   UNL     1       1.626  45.031  55.570  1.00  0.00     0.111 A 
ATOM     18  C   UNL     1      -0.232  43.743  54.048  1.00  0.00     0.026 A 
ATOM     19  N   UNL     1       2.052  44.414  54.445  1.00  0.00    -0.259 NA
ENDBRANCH  13  14
ENDBRANCH  11  13
ENDBRANCH   1  11
BRANCH   3  20
ATOM     20  N   UNL     1       5.339  40.942  48.980  1.00  0.00    -0.367 N 
ATOM     21  H   UNL     1       5.967  41.369  48.301  1.00  0.00     0.162 HD
BRANCH  20  22
ATOM     22  C   UNL     1       4.157  40.418  48.288  1.00  0.00     0.146 C 
BRANCH  22  23
ATOM     23  C   UNL     1       4.037  41.099  46.918  1.00  0.00     0.137 C 
ATOM     24  C   UNL     1       5.364  41.612  46.385  1.00  0.00     0.036 C 
ATOM     25  O   UNL     1       3.550  40.158  45.932  1.00  0.00    -0.376 OA
ATOM     26  C   UNL     1       5.110  41.615  44.898  1.00  0.00     0.031 C 
ATOM     27  C   UNL     1       4.286  40.359  44.716  1.00  0.00     0.160 C 
ENDBRANCH  22  23
ENDBRANCH  20  22
ENDBRANCH   3  20
TORSDOF 6
ENDMDL
MODEL 19
REMARK VINA RESULT:    -8.106      2.563      3.809
REMARK INTER + INTRA:         -11.605
REMARK INTER:                 -10.965
REMARK INTRA:                  -0.640
REMARK UNBOUND:                -0.656
REMARK SMILES c1ccc(CNc2nc(NC[C@H]3CCCO3)c3ccccc3n2)nc1
REMARK SMILES IDX 7 1 8 2 9 3 17 4 18 5 19 6 20 7 21 8 22 9 23 10 6 11 5 13
REMARK SMILES IDX 4 14 1 15 2 16 25 17 3 18 24 19 10 20 11 22 12 23 13 24
REMARK SMILES IDX 16 25 14 26 15 27
REMARK H PARENT 6 12 10 21
ROOT
ATOM      1  C   UNL     1       4.139  46.115  53.886  1.00  0.00     0.225 A 
ATOM      2  N   UNL     1       3.405  45.955  54.991  1.00  0.00    -0.195 NA
ATOM      3  C   UNL     1       2.392  45.072  54.954  1.00  0.00     0.139 A 
ATOM      4  C   UNL     1       2.118  44.305  53.809  1.00  0.00     0.043 A 
ATOM      5  C   UNL     1       1.100  43.322  53.704  1.00  0.00     0.014 A 
ATOM      6  C   UNL     1       0.902  42.621  52.517  1.00  0.00     0.001 A 
ATOM      7  C   UNL     1       1.718  42.889  51.426  1.00  0.00     0.002 A 
ATOM      8  C   UNL     1       2.727  43.851  51.535  1.00  0.00     0.029 A 
ATOM      9  C   UNL     1       2.944  44.562  52.711  1.00  0.00     0.078 A 
ATOM     10  N   UNL     1       3.933  45.458  52.743  1.00  0.00    -0.213 NA
ENDROOT
BRANCH   1  11
ATOM     11  N   UNL     1       5.195  47.017  53.874  1.00  0.00    -0.348 N 
ATOM     12  H   UNL     1       4.818  47.885  54.242  1.00  0.00     0.164 HD
BRANCH  11  13
ATOM     13  C   UNL     1       6.361  46.541  54.599  1.00  0.00     0.172 C 
BRANCH  13  14
ATOM     14  C   UNL     1       7.593  46.638  53.718  1.00  0.00     0.060 A 
ATOM     15  C   UNL     1       9.812  46.761  52.102  1.00  0.00     0.020 A 
ATOM     16  C   UNL     1       9.921  47.148  53.432  1.00  0.00     0.004 A 
ATOM     17  C   UNL     1       8.580  46.322  51.649  1.00  0.00     0.111 A 
ATOM     18  C   UNL     1       8.801  47.085  54.255  1.00  0.00     0.026 A 
ATOM     19  N   UNL     1       7.473  46.249  52.421  1.00  0.00    -0.259 NA
ENDBRANCH  13  14
ENDBRANCH  11  13
ENDBRANCH   1  11
BRANCH   3  20
ATOM     20  N   UNL     1       1.608  44.887  56.114  1.00  0.00    -0.367 N 
ATOM     21  H   UNL     1       1.364  43.901  56.200  1.00  0.00     0.162 HD
BRANCH  20  22
ATOM     22  C   UNL     1       0.388  45.698  56.173  1.00  0.00     0.146 C 
BRANCH  22  23
ATOM     23  C   UNL     1       0.096  46.055  57.637  1.00  0.00     0.137 C 
ATOM     24  C   UNL     1       1.244  46.779  58.319  1.00  0.00     0.036 C 
ATOM     25  O   UNL     1      -1.041  46.947  57.717  1.00  0.00    -0.376 OA
ATOM     26  C   UNL     1       0.520  47.538  59.403  1.00  0.00     0.031 C 
ATOM     27  C   UNL     1      -0.754  47.954  58.700  1.00  0.00     0.160 C 
ENDBRANCH  22  23
ENDBRANCH  20  22
ENDBRANCH   3  20
TORSDOF 6
ENDMDL
