MODEL 1
REMARK VINA RESULT:    -8.257      0.000      0.000
REMARK INTER + INTRA:         -12.086
REMARK INTER:                 -11.153
REMARK INTRA:                  -0.933
REMARK UNBOUND:                -0.933
REMARK SMILES COCCNc1nc(Nc2ccccc2F)c2cnn(C)c2n1
REMARK SMILES IDX 5 1 4 3 3 4 2 5 1 6 6 7 7 8 23 9 8 10 22 11 17 12 20 13
REMARK SMILES IDX 18 14 19 15 21 16 9 17 10 19 11 20 15 21 12 22 14 23 13 24
REMARK SMILES IDX 16 25
REMARK H PARENT 5 2 9 18
ROOT
ATOM      1  N   UNL     1       2.793  44.234  54.172  1.00  0.00    -0.352 N 
ATOM      2  H   UNL     1       3.308  44.034  55.027  1.00  0.00     0.163 HD
ENDROOT
BRANCH   1   3
ATOM      3  C   UNL     1       2.035  45.478  54.251  1.00  0.00     0.144 C 
BRANCH   3   4
ATOM      4  C   UNL     1       0.622  45.250  53.700  1.00  0.00     0.181 C 
BRANCH   4   5
ATOM      5  O   UNL     1       0.569  45.699  52.339  1.00  0.00    -0.383 OA
ATOM      6  C   UNL     1       0.371  44.617  51.441  1.00  0.00     0.194 C 
ENDBRANCH   4   5
ENDBRANCH   3   4
ENDBRANCH   1   3
BRANCH   1   7
ATOM      7  C   UNL     1       3.726  44.199  53.144  1.00  0.00     0.226 A 
ATOM      8  N   UNL     1       4.535  45.274  53.082  1.00  0.00    -0.195 NA
ATOM      9  N   UNL     1       3.759  43.143  52.316  1.00  0.00    -0.193 NA
ATOM     10  C   UNL     1       5.506  45.342  52.137  1.00  0.00     0.147 A 
ATOM     11  C   UNL     1       4.711  43.250  51.377  1.00  0.00     0.165 A 
ATOM     12  C   UNL     1       5.599  44.295  51.220  1.00  0.00     0.082 A 
ATOM     13  N   UNL     1       5.000  42.358  50.380  1.00  0.00    -0.250 N 
ATOM     14  C   UNL     1       6.358  43.942  50.085  1.00  0.00     0.149 A 
ATOM     15  N   UNL     1       5.999  42.763  49.561  1.00  0.00    -0.179 NA
ATOM     16  C   UNL     1       4.353  41.094  50.136  1.00  0.00     0.176 C 
BRANCH  10  17
ATOM     17  N   UNL     1       6.299  46.504  52.127  1.00  0.00    -0.337 N 
ATOM     18  H   UNL     1       5.688  47.245  52.466  1.00  0.00     0.168 HD
BRANCH  17  19
ATOM     19  C   UNL     1       7.593  46.649  52.678  1.00  0.00     0.076 A 
ATOM     20  C   UNL     1       8.691  46.555  51.811  1.00  0.00     0.029 A 
ATOM     21  C   UNL     1       7.842  47.005  54.012  1.00  0.00     0.146 A 
ATOM     22  C   UNL     1       9.995  46.747  52.278  1.00  0.00     0.002 A 
ATOM     23  C   UNL     1       9.138  47.198  54.485  1.00  0.00     0.041 A 
ATOM     24  C   UNL     1      10.220  47.063  53.617  1.00  0.00     0.003 A 
ATOM     25  F   UNL     1       6.827  47.187  54.870  1.00  0.00    -0.205 F 
ENDBRANCH  17  19
ENDBRANCH  10  17
ENDBRANCH   1   7
TORSDOF 6
ENDMDL
MODEL 2
REMARK VINA RESULT:    -8.208      1.116      1.507
REMARK INTER + INTRA:         -12.020
REMARK INTER:                 -11.268
REMARK INTRA:                  -0.752
REMARK UNBOUND:                -0.933
REMARK SMILES COCCNc1nc(Nc2ccccc2F)c2cnn(C)c2n1
REMARK SMILES IDX 5 1 4 3 3 4 2 5 1 6 6 7 7 8 23 9 8 10 22 11 17 12 20 13
REMARK SMILES IDX 18 14 19 15 21 16 9 17 10 19 11 20 15 21 12 22 14 23 13 24
REMARK SMILES IDX 16 25
REMARK H PARENT 5 2 9 18
ROOT
ATOM      1  N   UNL     1       2.596  44.213  53.927  1.00  0.00    -0.352 N 
ATOM      2  H   UNL     1       3.066  44.225  54.829  1.00  0.00     0.163 HD
ENDROOT
BRANCH   1   3
ATOM      3  C   UNL     1       1.631  45.298  53.782  1.00  0.00     0.144 C 
BRANCH   3   4
ATOM      4  C   UNL     1       0.581  45.198  54.894  1.00  0.00     0.181 C 
BRANCH   4   5
ATOM      5  O   UNL     1       1.239  44.941  56.142  1.00  0.00    -0.383 OA
ATOM      6  C   UNL     1       0.623  45.646  57.210  1.00  0.00     0.194 C 
ENDBRANCH   4   5
ENDBRANCH   3   4
ENDBRANCH   1   3
BRANCH   1   7
ATOM      7  C   UNL     1       3.602  44.213  52.969  1.00  0.00     0.226 A 
ATOM      8  N   UNL     1       4.388  45.307  52.979  1.00  0.00    -0.195 NA
ATOM      9  N   UNL     1       3.720  43.170  52.133  1.00  0.00    -0.193 NA
ATOM     10  C   UNL     1       5.423  45.410  52.108  1.00  0.00     0.147 A 
ATOM     11  C   UNL     1       4.735  43.310  51.267  1.00  0.00     0.165 A 
ATOM     12  C   UNL     1       5.607  44.377  51.188  1.00  0.00     0.082 A 
ATOM     13  N   UNL     1       5.116  42.438  50.284  1.00  0.00    -0.250 N 
ATOM     14  C   UNL     1       6.455  44.057  50.107  1.00  0.00     0.149 A 
ATOM     15  N   UNL     1       6.163  42.877  49.545  1.00  0.00    -0.179 NA
ATOM     16  C   UNL     1       4.519  41.164  49.979  1.00  0.00     0.176 C 
BRANCH  10  17
ATOM     17  N   UNL     1       6.187  46.589  52.169  1.00  0.00    -0.337 N 
ATOM     18  H   UNL     1       5.565  47.287  52.575  1.00  0.00     0.168 HD
BRANCH  17  19
ATOM     19  C   UNL     1       7.488  46.726  52.704  1.00  0.00     0.076 A 
ATOM     20  C   UNL     1       8.573  46.661  51.818  1.00  0.00     0.029 A 
ATOM     21  C   UNL     1       7.757  47.048  54.043  1.00  0.00     0.146 A 
ATOM     22  C   UNL     1       9.883  46.848  52.269  1.00  0.00     0.002 A 
ATOM     23  C   UNL     1       9.059  47.236  54.500  1.00  0.00     0.041 A 
ATOM     24  C   UNL     1      10.128  47.130  53.612  1.00  0.00     0.003 A 
ATOM     25  F   UNL     1       6.755  47.203  54.921  1.00  0.00    -0.205 F 
ENDBRANCH  17  19
ENDBRANCH  10  17
ENDBRANCH   1   7
TORSDOF 6
ENDMDL
MODEL 3
REMARK VINA RESULT:    -8.205      2.372      5.284
REMARK INTER + INTRA:         -12.017
REMARK INTER:                 -11.277
REMARK INTRA:                  -0.739
REMARK UNBOUND:                -0.933
REMARK SMILES COCCNc1nc(Nc2ccccc2F)c2cnn(C)c2n1
REMARK SMILES IDX 5 1 4 3 3 4 2 5 1 6 6 7 7 8 23 9 8 10 22 11 17 12 20 13
REMARK SMILES IDX 18 14 19 15 21 16 9 17 10 19 11 20 15 21 12 22 14 23 13 24
REMARK SMILES IDX 16 25
REMARK H PARENT 5 2 9 18
ROOT
ATOM      1  N   UNL     1       4.696  46.949  54.945  1.00  0.00    -0.352 N 
ATOM      2  H   UNL     1       4.069  47.542  54.406  1.00  0.00     0.163 HD
ENDROOT
BRANCH   1   3
ATOM      3  C   UNL     1       4.077  45.690  55.344  1.00  0.00     0.144 C 
BRANCH   3   4
ATOM      4  C   UNL     1       2.601  45.695  54.930  1.00  0.00     0.181 C 
BRANCH   4   5
ATOM      5  O   UNL     1       2.483  45.175  53.599  1.00  0.00    -0.383 OA
ATOM      6  C   UNL     1       1.887  46.120  52.722  1.00  0.00     0.194 C 
ENDBRANCH   4   5
ENDBRANCH   3   4
ENDBRANCH   1   3
BRANCH   1   7
ATOM      7  C   UNL     1       5.843  46.801  54.174  1.00  0.00     0.226 A 
ATOM      8  N   UNL     1       5.631  46.294  52.944  1.00  0.00    -0.195 NA
ATOM      9  N   UNL     1       7.032  47.157  54.682  1.00  0.00    -0.193 NA
ATOM     10  C   UNL     1       6.670  46.129  52.087  1.00  0.00     0.147 A 
ATOM     11  C   UNL     1       8.044  46.960  53.823  1.00  0.00     0.165 A 
ATOM     12  C   UNL     1       7.949  46.456  52.542  1.00  0.00     0.082 A 
ATOM     13  N   UNL     1       9.374  47.207  54.032  1.00  0.00    -0.250 N 
ATOM     14  C   UNL     1       9.281  46.417  52.080  1.00  0.00     0.149 A 
ATOM     15  N   UNL     1      10.160  46.870  52.983  1.00  0.00    -0.179 NA
ATOM     16  C   UNL     1       9.975  47.757  55.220  1.00  0.00     0.176 C 
BRANCH  10  17
ATOM     17  N   UNL     1       6.372  45.579  50.828  1.00  0.00    -0.337 N 
ATOM     18  H   UNL     1       7.095  45.935  50.205  1.00  0.00     0.168 HD
BRANCH  17  19
ATOM     19  C   UNL     1       6.109  44.220  50.542  1.00  0.00     0.076 A 
ATOM     20  C   UNL     1       4.958  43.642  51.096  1.00  0.00     0.029 A 
ATOM     21  C   UNL     1       6.856  43.449  49.638  1.00  0.00     0.146 A 
ATOM     22  C   UNL     1       4.605  42.320  50.806  1.00  0.00     0.002 A 
ATOM     23  C   UNL     1       6.511  42.131  49.345  1.00  0.00     0.041 A 
ATOM     24  C   UNL     1       5.385  41.562  49.935  1.00  0.00     0.003 A 
ATOM     25  F   UNL     1       7.922  43.972  49.015  1.00  0.00    -0.205 F 
ENDBRANCH  17  19
ENDBRANCH  10  17
ENDBRANCH   1   7
TORSDOF 6
ENDMDL
MODEL 4
REMARK VINA RESULT:    -8.142      2.226      5.003
REMARK INTER + INTRA:         -11.931
REMARK INTER:                 -10.923
REMARK INTRA:                  -1.008
REMARK UNBOUND:                -0.933
REMARK SMILES COCCNc1nc(Nc2ccccc2F)c2cnn(C)c2n1
REMARK SMILES IDX 5 1 4 3 3 4 2 5 1 6 6 7 7 8 23 9 8 10 22 11 17 12 20 13
REMARK SMILES IDX 18 14 19 15 21 16 9 17 10 19 11 20 15 21 12 22 14 23 13 24
REMARK SMILES IDX 16 25
REMARK H PARENT 5 2 9 18
ROOT
ATOM      1  N   UNL     1       4.505  46.953  54.980  1.00  0.00    -0.352 N 
ATOM      2  H   UNL     1       3.869  47.563  54.472  1.00  0.00     0.163 HD
ENDROOT
BRANCH   1   3
ATOM      3  C   UNL     1       3.897  45.675  55.333  1.00  0.00     0.144 C 
BRANCH   3   4
ATOM      4  C   UNL     1       2.409  45.699  54.964  1.00  0.00     0.181 C 
BRANCH   4   5
ATOM      5  O   UNL     1       2.235  45.112  53.668  1.00  0.00    -0.383 OA
ATOM      6  C   UNL     1       1.781  46.069  52.721  1.00  0.00     0.194 C 
ENDBRANCH   4   5
ENDBRANCH   3   4
ENDBRANCH   1   3
BRANCH   1   7
ATOM      7  C   UNL     1       5.644  46.844  54.191  1.00  0.00     0.226 A 
ATOM      8  N   UNL     1       5.424  46.376  52.948  1.00  0.00    -0.195 NA
ATOM      9  N   UNL     1       6.835  47.196  54.698  1.00  0.00    -0.193 NA
ATOM     10  C   UNL     1       6.454  46.252  52.074  1.00  0.00     0.147 A 
ATOM     11  C   UNL     1       7.839  47.039  53.822  1.00  0.00     0.165 A 
ATOM     12  C   UNL     1       7.735  46.577  52.525  1.00  0.00     0.082 A 
ATOM     13  N   UNL     1       9.168  47.294  54.024  1.00  0.00    -0.250 N 
ATOM     14  C   UNL     1       9.061  46.569  52.048  1.00  0.00     0.149 A 
ATOM     15  N   UNL     1       9.946  47.001  52.956  1.00  0.00    -0.179 NA
ATOM     16  C   UNL     1       9.777  47.809  55.223  1.00  0.00     0.176 C 
BRANCH  10  17
ATOM     17  N   UNL     1       6.147  45.741  50.800  1.00  0.00    -0.337 N 
ATOM     18  H   UNL     1       6.700  46.299  50.150  1.00  0.00     0.168 HD
BRANCH  17  19
ATOM     19  C   UNL     1       6.161  44.383  50.410  1.00  0.00     0.076 A 
ATOM     20  C   UNL     1       7.278  43.913  49.704  1.00  0.00     0.029 A 
ATOM     21  C   UNL     1       5.188  43.446  50.791  1.00  0.00     0.146 A 
ATOM     22  C   UNL     1       7.384  42.568  49.338  1.00  0.00     0.002 A 
ATOM     23  C   UNL     1       5.287  42.104  50.431  1.00  0.00     0.041 A 
ATOM     24  C   UNL     1       6.386  41.663  49.696  1.00  0.00     0.003 A 
ATOM     25  F   UNL     1       4.137  43.820  51.536  1.00  0.00    -0.205 F 
ENDBRANCH  17  19
ENDBRANCH  10  17
ENDBRANCH   1   7
TORSDOF 6
ENDMDL
MODEL 5
REMARK VINA RESULT:    -8.128      1.346      1.668
REMARK INTER + INTRA:         -11.912
REMARK INTER:                 -11.012
REMARK INTRA:                  -0.900
REMARK UNBOUND:                -0.933
REMARK SMILES COCCNc1nc(Nc2ccccc2F)c2cnn(C)c2n1
REMARK SMILES IDX 5 1 4 3 3 4 2 5 1 6 6 7 7 8 23 9 8 10 22 11 17 12 20 13
REMARK SMILES IDX 18 14 19 15 21 16 9 17 10 19 11 20 15 21 12 22 14 23 13 24
REMARK SMILES IDX 16 25
REMARK H PARENT 5 2 9 18
ROOT
ATOM      1  N   UNL     1       2.978  44.540  54.200  1.00  0.00    -0.352 N 
ATOM      2  H   UNL     1       3.545  44.740  55.021  1.00  0.00     0.163 HD
ENDROOT
BRANCH   1   3
ATOM      3  C   UNL     1       1.924  45.526  53.991  1.00  0.00     0.144 C 
BRANCH   3   4
ATOM      4  C   UNL     1       0.596  44.805  53.735  1.00  0.00     0.181 C 
BRANCH   4   5
ATOM      5  O   UNL     1       0.673  43.474  54.262  1.00  0.00    -0.383 OA
ATOM      6  C   UNL     1       0.211  42.515  53.320  1.00  0.00     0.194 C 
ENDBRANCH   4   5
ENDBRANCH   3   4
ENDBRANCH   1   3
BRANCH   1   7
ATOM      7  C   UNL     1       3.868  44.422  53.139  1.00  0.00     0.226 A 
ATOM      8  N   UNL     1       4.699  45.470  52.983  1.00  0.00    -0.195 NA
ATOM      9  N   UNL     1       3.842  43.320  52.375  1.00  0.00    -0.193 NA
ATOM     10  C   UNL     1       5.632  45.459  51.999  1.00  0.00     0.147 A 
ATOM     11  C   UNL     1       4.758  43.348  51.394  1.00  0.00     0.165 A 
ATOM     12  C   UNL     1       5.663  44.358  51.141  1.00  0.00     0.082 A 
ATOM     13  N   UNL     1       4.985  42.392  50.441  1.00  0.00    -0.250 N 
ATOM     14  C   UNL     1       6.367  43.922  50.000  1.00  0.00     0.149 A 
ATOM     15  N   UNL     1       5.959  42.724  49.561  1.00  0.00    -0.179 NA
ATOM     16  C   UNL     1       4.299  41.134  50.296  1.00  0.00     0.176 C 
BRANCH  10  17
ATOM     17  N   UNL     1       6.451  46.597  51.889  1.00  0.00    -0.337 N 
ATOM     18  H   UNL     1       5.840  47.385  52.101  1.00  0.00     0.168 HD
BRANCH  17  19
ATOM     19  C   UNL     1       7.717  46.788  52.488  1.00  0.00     0.076 A 
ATOM     20  C   UNL     1       7.757  47.336  53.779  1.00  0.00     0.029 A 
ATOM     21  C   UNL     1       8.925  46.350  51.926  1.00  0.00     0.146 A 
ATOM     22  C   UNL     1       8.971  47.497  54.454  1.00  0.00     0.002 A 
ATOM     23  C   UNL     1      10.139  46.508  52.593  1.00  0.00     0.041 A 
ATOM     24  C   UNL     1      10.163  47.088  53.859  1.00  0.00     0.003 A 
ATOM     25  F   UNL     1       8.941  45.746  50.729  1.00  0.00    -0.205 F 
ENDBRANCH  17  19
ENDBRANCH  10  17
ENDBRANCH   1   7
TORSDOF 6
ENDMDL
MODEL 6
REMARK VINA RESULT:    -8.112      1.677      2.060
REMARK INTER + INTRA:         -11.890
REMARK INTER:                 -10.935
REMARK INTRA:                  -0.955
REMARK UNBOUND:                -0.933
REMARK SMILES COCCNc1nc(Nc2ccccc2F)c2cnn(C)c2n1
REMARK SMILES IDX 5 1 4 3 3 4 2 5 1 6 6 7 7 8 23 9 8 10 22 11 17 12 20 13
REMARK SMILES IDX 18 14 19 15 21 16 9 17 10 19 11 20 15 21 12 22 14 23 13 24
REMARK SMILES IDX 16 25
REMARK H PARENT 5 2 9 18
ROOT
ATOM      1  N   UNL     1       2.541  45.423  52.533  1.00  0.00    -0.352 N 
ATOM      2  H   UNL     1       1.922  44.652  52.775  1.00  0.00     0.163 HD
ENDROOT
BRANCH   1   3
ATOM      3  C   UNL     1       2.940  46.209  53.695  1.00  0.00     0.144 C 
BRANCH   3   4
ATOM      4  C   UNL     1       3.200  45.272  54.880  1.00  0.00     0.181 C 
BRANCH   4   5
ATOM      5  O   UNL     1       4.381  45.701  55.571  1.00  0.00    -0.383 OA
ATOM      6  C   UNL     1       5.498  44.885  55.247  1.00  0.00     0.194 C 
ENDBRANCH   4   5
ENDBRANCH   3   4
ENDBRANCH   1   3
BRANCH   1   7
ATOM      7  C   UNL     1       3.601  44.858  51.834  1.00  0.00     0.226 A 
ATOM      8  N   UNL     1       4.663  45.671  51.672  1.00  0.00    -0.195 NA
ATOM      9  N   UNL     1       3.502  43.598  51.387  1.00  0.00    -0.193 NA
ATOM     10  C   UNL     1       5.771  45.224  51.030  1.00  0.00     0.147 A 
ATOM     11  C   UNL     1       4.601  43.191  50.734  1.00  0.00     0.165 A 
ATOM     12  C   UNL     1       5.747  43.928  50.513  1.00  0.00     0.082 A 
ATOM     13  N   UNL     1       4.818  41.973  50.149  1.00  0.00    -0.250 N 
ATOM     14  C   UNL     1       6.577  43.068  49.764  1.00  0.00     0.149 A 
ATOM     15  N   UNL     1       6.019  41.873  49.532  1.00  0.00    -0.179 NA
ATOM     16  C   UNL     1       3.915  40.851  50.125  1.00  0.00     0.176 C 
BRANCH  10  17
ATOM     17  N   UNL     1       6.831  46.136  50.886  1.00  0.00    -0.337 N 
ATOM     18  H   UNL     1       6.398  46.994  50.546  1.00  0.00     0.168 HD
BRANCH  17  19
ATOM     19  C   UNL     1       7.823  46.439  51.847  1.00  0.00     0.076 A 
ATOM     20  C   UNL     1       9.154  46.126  51.538  1.00  0.00     0.029 A 
ATOM     21  C   UNL     1       7.576  47.144  53.034  1.00  0.00     0.146 A 
ATOM     22  C   UNL     1      10.192  46.451  52.417  1.00  0.00     0.002 A 
ATOM     23  C   UNL     1       8.604  47.472  53.915  1.00  0.00     0.041 A 
ATOM     24  C   UNL     1       9.917  47.119  53.609  1.00  0.00     0.003 A 
ATOM     25  F   UNL     1       6.333  47.541  53.345  1.00  0.00    -0.205 F 
ENDBRANCH  17  19
ENDBRANCH  10  17
ENDBRANCH   1   7
TORSDOF 6
ENDMDL
MODEL 7
REMARK VINA RESULT:    -7.969      2.108      2.549
REMARK INTER + INTRA:         -11.697
REMARK INTER:                 -10.763
REMARK INTRA:                  -0.934
REMARK UNBOUND:                -0.933
REMARK SMILES COCCNc1nc(Nc2ccccc2F)c2cnn(C)c2n1
REMARK SMILES IDX 5 1 4 3 3 4 2 5 1 6 6 7 7 8 23 9 8 10 22 11 17 12 20 13
REMARK SMILES IDX 18 14 19 15 21 16 9 17 10 19 11 20 15 21 12 22 14 23 13 24
REMARK SMILES IDX 16 25
REMARK H PARENT 5 2 9 18
ROOT
ATOM      1  N   UNL     1       2.780  46.086  52.074  1.00  0.00    -0.352 N 
ATOM      2  H   UNL     1       1.983  45.454  52.070  1.00  0.00     0.163 HD
ENDROOT
BRANCH   1   3
ATOM      3  C   UNL     1       3.044  46.649  53.394  1.00  0.00     0.144 C 
BRANCH   3   4
ATOM      4  C   UNL     1       3.145  45.515  54.420  1.00  0.00     0.181 C 
BRANCH   4   5
ATOM      5  O   UNL     1       4.208  45.803  55.338  1.00  0.00    -0.383 OA
ATOM      6  C   UNL     1       5.429  45.204  54.924  1.00  0.00     0.194 C 
ENDBRANCH   4   5
ENDBRANCH   3   4
ENDBRANCH   1   3
BRANCH   1   7
ATOM      7  C   UNL     1       3.841  45.369  51.536  1.00  0.00     0.226 A 
ATOM      8  N   UNL     1       4.963  46.089  51.339  1.00  0.00    -0.195 NA
ATOM      9  N   UNL     1       3.686  44.066  51.259  1.00  0.00    -0.193 NA
ATOM     10  C   UNL     1       6.077  45.493  50.845  1.00  0.00     0.147 A 
ATOM     11  C   UNL     1       4.795  43.509  50.748  1.00  0.00     0.165 A 
ATOM     12  C   UNL     1       5.998  44.140  50.509  1.00  0.00     0.082 A 
ATOM     13  N   UNL     1       4.966  42.210  50.351  1.00  0.00    -0.250 N 
ATOM     14  C   UNL     1       6.815  43.138  49.946  1.00  0.00     0.149 A 
ATOM     15  N   UNL     1       6.194  41.956  49.841  1.00  0.00    -0.179 NA
ATOM     16  C   UNL     1       3.994  41.150  50.418  1.00  0.00     0.176 C 
BRANCH  10  17
ATOM     17  N   UNL     1       7.202  46.314  50.652  1.00  0.00    -0.337 N 
ATOM     18  H   UNL     1       6.841  47.162  50.218  1.00  0.00     0.168 HD
BRANCH  17  19
ATOM     19  C   UNL     1       8.184  46.640  51.615  1.00  0.00     0.076 A 
ATOM     20  C   UNL     1       7.822  47.506  52.656  1.00  0.00     0.029 A 
ATOM     21  C   UNL     1       9.459  46.056  51.665  1.00  0.00     0.146 A 
ATOM     22  C   UNL     1       8.725  47.825  53.675  1.00  0.00     0.002 A 
ATOM     23  C   UNL     1      10.365  46.369  52.676  1.00  0.00     0.041 A 
ATOM     24  C   UNL     1       9.999  47.260  53.683  1.00  0.00     0.003 A 
ATOM     25  F   UNL     1       9.835  45.160  50.741  1.00  0.00    -0.205 F 
ENDBRANCH  17  19
ENDBRANCH  10  17
ENDBRANCH   1   7
TORSDOF 6
ENDMDL
MODEL 8
REMARK VINA RESULT:    -7.962      2.820      4.661
REMARK INTER + INTRA:         -11.688
REMARK INTER:                 -10.924
REMARK INTRA:                  -0.764
REMARK UNBOUND:                -0.933
REMARK SMILES COCCNc1nc(Nc2ccccc2F)c2cnn(C)c2n1
REMARK SMILES IDX 5 1 4 3 3 4 2 5 1 6 6 7 7 8 23 9 8 10 22 11 17 12 20 13
REMARK SMILES IDX 18 14 19 15 21 16 9 17 10 19 11 20 15 21 12 22 14 23 13 24
REMARK SMILES IDX 16 25
REMARK H PARENT 5 2 9 18
ROOT
ATOM      1  N   UNL     1       6.258  41.569  49.408  1.00  0.00    -0.352 N 
ATOM      2  H   UNL     1       6.403  40.820  50.082  1.00  0.00     0.163 HD
ENDROOT
BRANCH   1   3
ATOM      3  C   UNL     1       5.380  41.175  48.312  1.00  0.00     0.144 C 
BRANCH   3   4
ATOM      4  C   UNL     1       5.783  41.929  47.040  1.00  0.00     0.181 C 
BRANCH   4   5
ATOM      5  O   UNL     1       5.158  41.311  45.907  1.00  0.00    -0.383 OA
ATOM      6  C   UNL     1       5.020  42.223  44.827  1.00  0.00     0.194 C 
ENDBRANCH   4   5
ENDBRANCH   3   4
ENDBRANCH   1   3
BRANCH   1   7
ATOM      7  C   UNL     1       5.805  42.661  50.139  1.00  0.00     0.226 A 
ATOM      8  N   UNL     1       6.572  43.763  50.035  1.00  0.00    -0.195 NA
ATOM      9  N   UNL     1       4.683  42.550  50.866  1.00  0.00    -0.193 NA
ATOM     10  C   UNL     1       6.217  44.902  50.680  1.00  0.00     0.147 A 
ATOM     11  C   UNL     1       4.371  43.683  51.513  1.00  0.00     0.165 A 
ATOM     12  C   UNL     1       5.072  44.871  51.478  1.00  0.00     0.082 A 
ATOM     13  N   UNL     1       3.304  43.900  52.343  1.00  0.00    -0.250 N 
ATOM     14  C   UNL     1       4.356  45.727  52.341  1.00  0.00     0.149 A 
ATOM     15  N   UNL     1       3.277  45.144  52.877  1.00  0.00    -0.179 NA
ATOM     16  C   UNL     1       2.268  42.960  52.685  1.00  0.00     0.176 C 
BRANCH  10  17
ATOM     17  N   UNL     1       7.077  46.006  50.537  1.00  0.00    -0.337 N 
ATOM     18  H   UNL     1       6.468  46.789  50.304  1.00  0.00     0.168 HD
BRANCH  17  19
ATOM     19  C   UNL     1       8.077  46.421  51.446  1.00  0.00     0.076 A 
ATOM     20  C   UNL     1       7.712  47.315  52.461  1.00  0.00     0.029 A 
ATOM     21  C   UNL     1       9.379  45.898  51.472  1.00  0.00     0.146 A 
ATOM     22  C   UNL     1       8.635  47.721  53.430  1.00  0.00     0.002 A 
ATOM     23  C   UNL     1      10.305  46.298  52.434  1.00  0.00     0.041 A 
ATOM     24  C   UNL     1       9.935  47.217  53.413  1.00  0.00     0.003 A 
ATOM     25  F   UNL     1       9.763  44.979  50.575  1.00  0.00    -0.205 F 
ENDBRANCH  17  19
ENDBRANCH  10  17
ENDBRANCH   1   7
TORSDOF 6
ENDMDL
MODEL 9
REMARK VINA RESULT:    -7.935      2.606      4.431
REMARK INTER + INTRA:         -11.651
REMARK INTER:                 -10.973
REMARK INTRA:                  -0.678
REMARK UNBOUND:                -0.933
REMARK SMILES COCCNc1nc(Nc2ccccc2F)c2cnn(C)c2n1
REMARK SMILES IDX 5 1 4 3 3 4 2 5 1 6 6 7 7 8 23 9 8 10 22 11 17 12 20 13
REMARK SMILES IDX 18 14 19 15 21 16 9 17 10 19 11 20 15 21 12 22 14 23 13 24
REMARK SMILES IDX 16 25
REMARK H PARENT 5 2 9 18
ROOT
ATOM      1  N   UNL     1       6.248  41.555  49.390  1.00  0.00    -0.352 N 
ATOM      2  H   UNL     1       6.403  40.780  50.029  1.00  0.00     0.163 HD
ENDROOT
BRANCH   1   3
ATOM      3  C   UNL     1       5.389  41.195  48.266  1.00  0.00     0.144 C 
BRANCH   3   4
ATOM      4  C   UNL     1       5.813  41.991  47.026  1.00  0.00     0.181 C 
BRANCH   4   5
ATOM      5  O   UNL     1       5.277  41.360  45.856  1.00  0.00    -0.383 OA
ATOM      6  C   UNL     1       5.010  42.306  44.830  1.00  0.00     0.194 C 
ENDBRANCH   4   5
ENDBRANCH   3   4
ENDBRANCH   1   3
BRANCH   1   7
ATOM      7  C   UNL     1       5.763  42.601  50.166  1.00  0.00     0.226 A 
ATOM      8  N   UNL     1       6.512  43.720  50.132  1.00  0.00    -0.195 NA
ATOM      9  N   UNL     1       4.631  42.435  50.866  1.00  0.00    -0.193 NA
ATOM     10  C   UNL     1       6.126  44.819  50.827  1.00  0.00     0.147 A 
ATOM     11  C   UNL     1       4.287  43.528  51.564  1.00  0.00     0.165 A 
ATOM     12  C   UNL     1       4.968  44.728  51.602  1.00  0.00     0.082 A 
ATOM     13  N   UNL     1       3.202  43.685  52.383  1.00  0.00    -0.250 N 
ATOM     14  C   UNL     1       4.222  45.527  52.493  1.00  0.00     0.149 A 
ATOM     15  N   UNL     1       3.144  44.900  52.980  1.00  0.00    -0.179 NA
ATOM     16  C   UNL     1       2.178  42.712  52.659  1.00  0.00     0.176 C 
BRANCH  10  17
ATOM     17  N   UNL     1       6.969  45.942  50.756  1.00  0.00    -0.337 N 
ATOM     18  H   UNL     1       6.355  46.721  50.518  1.00  0.00     0.168 HD
BRANCH  17  19
ATOM     19  C   UNL     1       7.918  46.349  51.721  1.00  0.00     0.076 A 
ATOM     20  C   UNL     1       9.262  46.015  51.502  1.00  0.00     0.029 A 
ATOM     21  C   UNL     1       7.620  47.171  52.818  1.00  0.00     0.146 A 
ATOM     22  C   UNL     1      10.262  46.436  52.384  1.00  0.00     0.002 A 
ATOM     23  C   UNL     1       8.610  47.594  53.702  1.00  0.00     0.041 A 
ATOM     24  C   UNL     1       9.935  47.221  53.489  1.00  0.00     0.003 A 
ATOM     25  F   UNL     1       6.364  47.589  53.035  1.00  0.00    -0.205 F 
ENDBRANCH  17  19
ENDBRANCH  10  17
ENDBRANCH   1   7
TORSDOF 6
ENDMDL
MODEL 10
REMARK VINA RESULT:    -7.918      1.488      2.038
REMARK INTER + INTRA:         -11.628
REMARK INTER:                 -10.876
REMARK INTRA:                  -0.752
REMARK UNBOUND:                -0.933
REMARK SMILES COCCNc1nc(Nc2ccccc2F)c2cnn(C)c2n1
REMARK SMILES IDX 5 1 4 3 3 4 2 5 1 6 6 7 7 8 23 9 8 10 22 11 17 12 20 13
REMARK SMILES IDX 18 14 19 15 21 16 9 17 10 19 11 20 15 21 12 22 14 23 13 24
REMARK SMILES IDX 16 25
REMARK H PARENT 5 2 9 18
ROOT
ATOM      1  N   UNL     1       2.717  44.473  54.191  1.00  0.00    -0.352 N 
ATOM      2  H   UNL     1       3.017  45.219  54.815  1.00  0.00     0.163 HD
ENDROOT
BRANCH   1   3
ATOM      3  C   UNL     1       1.349  44.651  53.718  1.00  0.00     0.144 C 
BRANCH   3   4
ATOM      4  C   UNL     1       0.374  44.416  54.877  1.00  0.00     0.181 C 
BRANCH   4   5
ATOM      5  O   UNL     1       1.053  44.647  56.119  1.00  0.00    -0.383 OA
ATOM      6  C   UNL     1       0.461  45.716  56.843  1.00  0.00     0.194 C 
ENDBRANCH   4   5
ENDBRANCH   3   4
ENDBRANCH   1   3
BRANCH   1   7
ATOM      7  C   UNL     1       3.668  44.413  53.180  1.00  0.00     0.226 A 
ATOM      8  N   UNL     1       4.456  45.500  53.084  1.00  0.00    -0.195 NA
ATOM      9  N   UNL     1       3.735  43.323  52.399  1.00  0.00    -0.193 NA
ATOM     10  C   UNL     1       5.441  45.548  52.152  1.00  0.00     0.147 A 
ATOM     11  C   UNL     1       4.700  43.409  51.471  1.00  0.00     0.165 A 
ATOM     12  C   UNL     1       5.569  44.464  51.282  1.00  0.00     0.082 A 
ATOM     13  N   UNL     1       5.023  42.480  50.519  1.00  0.00    -0.250 N 
ATOM     14  C   UNL     1       6.354  44.079  50.176  1.00  0.00     0.149 A 
ATOM     15  N   UNL     1       6.027  42.871  49.698  1.00  0.00    -0.179 NA
ATOM     16  C   UNL     1       4.406  41.194  50.320  1.00  0.00     0.176 C 
BRANCH  10  17
ATOM     17  N   UNL     1       6.210  46.724  52.103  1.00  0.00    -0.337 N 
ATOM     18  H   UNL     1       5.590  47.461  52.438  1.00  0.00     0.168 HD
BRANCH  17  19
ATOM     19  C   UNL     1       7.510  46.906  52.628  1.00  0.00     0.076 A 
ATOM     20  C   UNL     1       7.629  47.297  53.969  1.00  0.00     0.029 A 
ATOM     21  C   UNL     1       8.688  46.599  51.930  1.00  0.00     0.146 A 
ATOM     22  C   UNL     1       8.883  47.438  54.570  1.00  0.00     0.002 A 
ATOM     23  C   UNL     1       9.942  46.737  52.522  1.00  0.00     0.041 A 
ATOM     24  C   UNL     1      10.042  47.163  53.844  1.00  0.00     0.003 A 
ATOM     25  F   UNL     1       8.635  46.144  50.670  1.00  0.00    -0.205 F 
ENDBRANCH  17  19
ENDBRANCH  10  17
ENDBRANCH   1   7
TORSDOF 6
ENDMDL
MODEL 11
REMARK VINA RESULT:    -7.807      2.039      4.006
REMARK INTER + INTRA:         -11.478
REMARK INTER:                 -10.754
REMARK INTRA:                  -0.725
REMARK UNBOUND:                -0.933
REMARK SMILES COCCNc1nc(Nc2ccccc2F)c2cnn(C)c2n1
REMARK SMILES IDX 5 1 4 3 3 4 2 5 1 6 6 7 7 8 23 9 8 10 22 11 17 12 20 13
REMARK SMILES IDX 18 14 19 15 21 16 9 17 10 19 11 20 15 21 12 22 14 23 13 24
REMARK SMILES IDX 16 25
REMARK H PARENT 5 2 9 18
ROOT
ATOM      1  N   UNL     1       4.783  41.897  50.995  1.00  0.00    -0.352 N 
ATOM      2  H   UNL     1       3.910  41.517  50.635  1.00  0.00     0.163 HD
ENDROOT
BRANCH   1   3
ATOM      3  C   UNL     1       5.901  41.702  50.078  1.00  0.00     0.144 C 
BRANCH   3   4
ATOM      4  C   UNL     1       5.369  41.247  48.714  1.00  0.00     0.181 C 
BRANCH   4   5
ATOM      5  O   UNL     1       4.014  40.800  48.862  1.00  0.00    -0.383 OA
ATOM      6  C   UNL     1       3.547  40.160  47.683  1.00  0.00     0.194 C 
ENDBRANCH   4   5
ENDBRANCH   3   4
ENDBRANCH   1   3
BRANCH   1   7
ATOM      7  C   UNL     1       4.525  43.226  51.305  1.00  0.00     0.226 A 
ATOM      8  N   UNL     1       5.560  44.062  51.100  1.00  0.00    -0.195 NA
ATOM      9  N   UNL     1       3.314  43.574  51.767  1.00  0.00    -0.193 NA
ATOM     10  C   UNL     1       5.421  45.390  51.339  1.00  0.00     0.147 A 
ATOM     11  C   UNL     1       3.214  44.888  52.020  1.00  0.00     0.165 A 
ATOM     12  C   UNL     1       4.199  45.838  51.843  1.00  0.00     0.082 A 
ATOM     13  N   UNL     1       2.126  45.561  52.506  1.00  0.00    -0.250 N 
ATOM     14  C   UNL     1       3.608  47.042  52.278  1.00  0.00     0.149 A 
ATOM     15  N   UNL     1       2.343  46.885  52.689  1.00  0.00    -0.179 NA
ATOM     16  C   UNL     1       0.839  45.003  52.835  1.00  0.00     0.176 C 
BRANCH  10  17
ATOM     17  N   UNL     1       6.553  46.196  51.118  1.00  0.00    -0.337 N 
ATOM     18  H   UNL     1       6.182  47.099  50.825  1.00  0.00     0.168 HD
BRANCH  17  19
ATOM     19  C   UNL     1       7.644  46.380  51.998  1.00  0.00     0.076 A 
ATOM     20  C   UNL     1       8.935  46.161  51.498  1.00  0.00     0.029 A 
ATOM     21  C   UNL     1       7.525  46.888  53.300  1.00  0.00     0.146 A 
ATOM     22  C   UNL     1      10.063  46.381  52.295  1.00  0.00     0.002 A 
ATOM     23  C   UNL     1       8.643  47.111  54.101  1.00  0.00     0.041 A 
ATOM     24  C   UNL     1       9.917  46.851  53.599  1.00  0.00     0.003 A 
ATOM     25  F   UNL     1       6.321  47.193  53.806  1.00  0.00    -0.205 F 
ENDBRANCH  17  19
ENDBRANCH  10  17
ENDBRANCH   1   7
TORSDOF 6
ENDMDL
MODEL 12
REMARK VINA RESULT:    -7.778      1.924      4.003
REMARK INTER + INTRA:         -11.440
REMARK INTER:                 -10.725
REMARK INTRA:                  -0.715
REMARK UNBOUND:                -0.933
REMARK SMILES COCCNc1nc(Nc2ccccc2F)c2cnn(C)c2n1
REMARK SMILES IDX 5 1 4 3 3 4 2 5 1 6 6 7 7 8 23 9 8 10 22 11 17 12 20 13
REMARK SMILES IDX 18 14 19 15 21 16 9 17 10 19 11 20 15 21 12 22 14 23 13 24
REMARK SMILES IDX 16 25
REMARK H PARENT 5 2 9 18
ROOT
ATOM      1  N   UNL     1       5.288  42.316  50.445  1.00  0.00    -0.352 N 
ATOM      2  H   UNL     1       6.195  42.046  50.820  1.00  0.00     0.163 HD
ENDROOT
BRANCH   1   3
ATOM      3  C   UNL     1       4.375  41.185  50.316  1.00  0.00     0.144 C 
BRANCH   3   4
ATOM      4  C   UNL     1       4.230  40.814  48.836  1.00  0.00     0.181 C 
BRANCH   4   5
ATOM      5  O   UNL     1       3.159  39.871  48.689  1.00  0.00    -0.383 OA
ATOM      6  C   UNL     1       3.173  39.266  47.404  1.00  0.00     0.194 C 
ENDBRANCH   4   5
ENDBRANCH   3   4
ENDBRANCH   1   3
BRANCH   1   7
ATOM      7  C   UNL     1       4.821  43.335  51.266  1.00  0.00     0.226 A 
ATOM      8  N   UNL     1       5.583  44.446  51.270  1.00  0.00    -0.195 NA
ATOM      9  N   UNL     1       3.692  43.154  51.968  1.00  0.00    -0.193 NA
ATOM     10  C   UNL     1       5.215  45.521  52.011  1.00  0.00     0.147 A 
ATOM     11  C   UNL     1       3.367  44.223  52.711  1.00  0.00     0.165 A 
ATOM     12  C   UNL     1       4.062  45.413  52.790  1.00  0.00     0.082 A 
ATOM     13  N   UNL     1       2.290  44.360  53.544  1.00  0.00    -0.250 N 
ATOM     14  C   UNL     1       3.332  46.184  53.718  1.00  0.00     0.149 A 
ATOM     15  N   UNL     1       2.250  45.551  54.188  1.00  0.00    -0.179 NA
ATOM     16  C   UNL     1       1.256  43.388  53.789  1.00  0.00     0.176 C 
BRANCH  10  17
ATOM     17  N   UNL     1       6.070  46.637  51.977  1.00  0.00    -0.337 N 
ATOM     18  H   UNL     1       5.500  47.418  52.300  1.00  0.00     0.168 HD
BRANCH  17  19
ATOM     19  C   UNL     1       7.370  46.722  52.527  1.00  0.00     0.076 A 
ATOM     20  C   UNL     1       8.460  46.659  51.648  1.00  0.00     0.029 A 
ATOM     21  C   UNL     1       7.634  46.991  53.878  1.00  0.00     0.146 A 
ATOM     22  C   UNL     1       9.771  46.796  52.116  1.00  0.00     0.002 A 
ATOM     23  C   UNL     1       8.937  47.129  54.352  1.00  0.00     0.041 A 
ATOM     24  C   UNL     1      10.010  47.025  53.470  1.00  0.00     0.003 A 
ATOM     25  F   UNL     1       6.628  47.142  54.753  1.00  0.00    -0.205 F 
ENDBRANCH  17  19
ENDBRANCH  10  17
ENDBRANCH   1   7
TORSDOF 6
ENDMDL
MODEL 13
REMARK VINA RESULT:    -7.752      2.293      4.341
REMARK INTER + INTRA:         -11.404
REMARK INTER:                 -10.574
REMARK INTRA:                  -0.830
REMARK UNBOUND:                -0.933
REMARK SMILES COCCNc1nc(Nc2ccccc2F)c2cnn(C)c2n1
REMARK SMILES IDX 5 1 4 3 3 4 2 5 1 6 6 7 7 8 23 9 8 10 22 11 17 12 20 13
REMARK SMILES IDX 18 14 19 15 21 16 9 17 10 19 11 20 15 21 12 22 14 23 13 24
REMARK SMILES IDX 16 25
REMARK H PARENT 5 2 9 18
ROOT
ATOM      1  N   UNL     1       4.769  41.680  50.873  1.00  0.00    -0.352 N 
ATOM      2  H   UNL     1       3.888  41.425  50.433  1.00  0.00     0.163 HD
ENDROOT
BRANCH   1   3
ATOM      3  C   UNL     1       5.901  41.596  49.956  1.00  0.00     0.144 C 
BRANCH   3   4
ATOM      4  C   UNL     1       5.401  41.185  48.566  1.00  0.00     0.181 C 
BRANCH   4   5
ATOM      5  O   UNL     1       4.058  40.694  48.674  1.00  0.00    -0.383 OA
ATOM      6  C   UNL     1       3.566  40.246  47.419  1.00  0.00     0.194 C 
ENDBRANCH   4   5
ENDBRANCH   3   4
ENDBRANCH   1   3
BRANCH   1   7
ATOM      7  C   UNL     1       4.573  42.941  51.423  1.00  0.00     0.226 A 
ATOM      8  N   UNL     1       5.446  43.878  51.006  1.00  0.00    -0.195 NA
ATOM      9  N   UNL     1       3.572  43.132  52.295  1.00  0.00    -0.193 NA
ATOM     10  C   UNL     1       5.338  45.155  51.452  1.00  0.00     0.147 A 
ATOM     11  C   UNL     1       3.505  44.397  52.739  1.00  0.00     0.165 A 
ATOM     12  C   UNL     1       4.335  45.440  52.380  1.00  0.00     0.082 A 
ATOM     13  N   UNL     1       2.614  44.918  53.637  1.00  0.00    -0.250 N 
ATOM     14  C   UNL     1       3.872  46.534  53.139  1.00  0.00     0.149 A 
ATOM     15  N   UNL     1       2.824  46.227  53.913  1.00  0.00    -0.179 NA
ATOM     16  C   UNL     1       1.535  44.222  54.288  1.00  0.00     0.176 C 
BRANCH  10  17
ATOM     17  N   UNL     1       6.297  46.071  50.984  1.00  0.00    -0.337 N 
ATOM     18  H   UNL     1       5.776  46.929  50.801  1.00  0.00     0.168 HD
BRANCH  17  19
ATOM     19  C   UNL     1       7.539  46.375  51.586  1.00  0.00     0.076 A 
ATOM     20  C   UNL     1       7.540  47.234  52.694  1.00  0.00     0.029 A 
ATOM     21  C   UNL     1       8.754  45.775  51.223  1.00  0.00     0.146 A 
ATOM     22  C   UNL     1       8.726  47.530  53.374  1.00  0.00     0.002 A 
ATOM     23  C   UNL     1       9.940  46.065  51.896  1.00  0.00     0.041 A 
ATOM     24  C   UNL     1       9.928  46.950  52.971  1.00  0.00     0.003 A 
ATOM     25  F   UNL     1       8.803  44.884  50.222  1.00  0.00    -0.205 F 
ENDBRANCH  17  19
ENDBRANCH  10  17
ENDBRANCH   1   7
TORSDOF 6
ENDMDL
MODEL 14
REMARK VINA RESULT:    -7.532      2.254      2.914
REMARK INTER + INTRA:         -11.107
REMARK INTER:                 -10.433
REMARK INTRA:                  -0.674
REMARK UNBOUND:                -0.933
REMARK SMILES COCCNc1nc(Nc2ccccc2F)c2cnn(C)c2n1
REMARK SMILES IDX 5 1 4 3 3 4 2 5 1 6 6 7 7 8 23 9 8 10 22 11 17 12 20 13
REMARK SMILES IDX 18 14 19 15 21 16 9 17 10 19 11 20 15 21 12 22 14 23 13 24
REMARK SMILES IDX 16 25
REMARK H PARENT 5 2 9 18
ROOT
ATOM      1  N   UNL     1       2.785  46.053  56.115  1.00  0.00    -0.352 N 
ATOM      2  H   UNL     1       2.642  47.060  56.117  1.00  0.00     0.163 HD
ENDROOT
BRANCH   1   3
ATOM      3  C   UNL     1       1.559  45.309  56.382  1.00  0.00     0.144 C 
BRANCH   3   4
ATOM      4  C   UNL     1       0.629  46.159  57.256  1.00  0.00     0.181 C 
BRANCH   4   5
ATOM      5  O   UNL     1       1.284  46.450  58.497  1.00  0.00    -0.383 OA
ATOM      6  C   UNL     1       0.634  47.506  59.192  1.00  0.00     0.194 C 
ENDBRANCH   4   5
ENDBRANCH   3   4
ENDBRANCH   1   3
BRANCH   1   7
ATOM      7  C   UNL     1       3.380  45.752  54.895  1.00  0.00     0.226 A 
ATOM      8  N   UNL     1       4.360  46.597  54.525  1.00  0.00    -0.195 NA
ATOM      9  N   UNL     1       2.956  44.687  54.197  1.00  0.00    -0.193 NA
ATOM     10  C   UNL     1       5.036  46.392  53.366  1.00  0.00     0.147 A 
ATOM     11  C   UNL     1       3.623  44.523  53.045  1.00  0.00     0.165 A 
ATOM     12  C   UNL     1       4.646  45.316  52.566  1.00  0.00     0.082 A 
ATOM     13  N   UNL     1       3.431  43.548  52.104  1.00  0.00    -0.250 N 
ATOM     14  C   UNL     1       4.978  44.746  51.320  1.00  0.00     0.149 A 
ATOM     15  N   UNL     1       4.240  43.668  51.025  1.00  0.00    -0.179 NA
ATOM     16  C   UNL     1       2.479  42.469  52.158  1.00  0.00     0.176 C 
BRANCH  10  17
ATOM     17  N   UNL     1       6.034  47.327  53.040  1.00  0.00    -0.337 N 
ATOM     18  H   UNL     1       5.879  48.112  53.671  1.00  0.00     0.168 HD
BRANCH  17  19
ATOM     19  C   UNL     1       7.419  47.073  52.910  1.00  0.00     0.076 A 
ATOM     20  C   UNL     1       7.927  46.841  51.624  1.00  0.00     0.029 A 
ATOM     21  C   UNL     1       8.336  47.164  53.968  1.00  0.00     0.146 A 
ATOM     22  C   UNL     1       9.295  46.642  51.415  1.00  0.00     0.002 A 
ATOM     23  C   UNL     1       9.701  46.967  53.768  1.00  0.00     0.041 A 
ATOM     24  C   UNL     1      10.182  46.700  52.488  1.00  0.00     0.003 A 
ATOM     25  F   UNL     1       7.920  47.462  55.208  1.00  0.00    -0.205 F 
ENDBRANCH  17  19
ENDBRANCH  10  17
ENDBRANCH   1   7
TORSDOF 6
ENDMDL
MODEL 15
REMARK VINA RESULT:    -7.280      2.648      6.038
REMARK INTER + INTRA:         -10.767
REMARK INTER:                 -10.138
REMARK INTRA:                  -0.629
REMARK UNBOUND:                -0.933
REMARK SMILES COCCNc1nc(Nc2ccccc2F)c2cnn(C)c2n1
REMARK SMILES IDX 5 1 4 3 3 4 2 5 1 6 6 7 7 8 23 9 8 10 22 11 17 12 20 13
REMARK SMILES IDX 18 14 19 15 21 16 9 17 10 19 11 20 15 21 12 22 14 23 13 24
REMARK SMILES IDX 16 25
REMARK H PARENT 5 2 9 18
ROOT
ATOM      1  N   UNL     1       5.557  46.811  54.766  1.00  0.00    -0.352 N 
ATOM      2  H   UNL     1       6.049  46.286  55.485  1.00  0.00     0.163 HD
ENDROOT
BRANCH   1   3
ATOM      3  C   UNL     1       6.397  47.106  53.611  1.00  0.00     0.144 C 
BRANCH   3   4
ATOM      4  C   UNL     1       7.839  46.679  53.907  1.00  0.00     0.181 C 
BRANCH   4   5
ATOM      5  O   UNL     1       8.433  47.620  54.811  1.00  0.00    -0.383 OA
ATOM      6  C   UNL     1       9.851  47.522  54.807  1.00  0.00     0.194 C 
ENDBRANCH   4   5
ENDBRANCH   3   4
ENDBRANCH   1   3
BRANCH   1   7
ATOM      7  C   UNL     1       4.415  46.077  54.468  1.00  0.00     0.226 A 
ATOM      8  N   UNL     1       4.423  45.493  53.254  1.00  0.00    -0.195 NA
ATOM      9  N   UNL     1       3.423  46.002  55.369  1.00  0.00    -0.193 NA
ATOM     10  C   UNL     1       3.376  44.726  52.860  1.00  0.00     0.147 A 
ATOM     11  C   UNL     1       2.390  45.260  54.942  1.00  0.00     0.165 A 
ATOM     12  C   UNL     1       2.289  44.610  53.729  1.00  0.00     0.082 A 
ATOM     13  N   UNL     1       1.225  44.994  55.609  1.00  0.00    -0.250 N 
ATOM     14  C   UNL     1       1.014  44.007  53.759  1.00  0.00     0.149 A 
ATOM     15  N   UNL     1       0.354  44.238  54.900  1.00  0.00    -0.179 NA
ATOM     16  C   UNL     1       0.864  45.440  56.930  1.00  0.00     0.176 C 
BRANCH  10  17
ATOM     17  N   UNL     1       3.450  44.165  51.573  1.00  0.00    -0.337 N 
ATOM     18  H   UNL     1       3.084  44.882  50.949  1.00  0.00     0.168 HD
BRANCH  17  19
ATOM     19  C   UNL     1       4.575  43.539  50.989  1.00  0.00     0.076 A 
ATOM     20  C   UNL     1       4.585  42.138  50.918  1.00  0.00     0.029 A 
ATOM     21  C   UNL     1       5.622  44.232  50.363  1.00  0.00     0.146 A 
ATOM     22  C   UNL     1       5.638  41.456  50.300  1.00  0.00     0.002 A 
ATOM     23  C   UNL     1       6.675  43.560  49.745  1.00  0.00     0.041 A 
ATOM     24  C   UNL     1       6.686  42.167  49.718  1.00  0.00     0.003 A 
ATOM     25  F   UNL     1       5.628  45.573  50.329  1.00  0.00    -0.205 F 
ENDBRANCH  17  19
ENDBRANCH  10  17
ENDBRANCH   1   7
TORSDOF 6
ENDMDL
MODEL 16
REMARK VINA RESULT:    -7.242      3.272      6.935
REMARK INTER + INTRA:         -10.715
REMARK INTER:                  -9.929
REMARK INTRA:                  -0.786
REMARK UNBOUND:                -0.933
REMARK SMILES COCCNc1nc(Nc2ccccc2F)c2cnn(C)c2n1
REMARK SMILES IDX 5 1 4 3 3 4 2 5 1 6 6 7 7 8 23 9 8 10 22 11 17 12 20 13
REMARK SMILES IDX 18 14 19 15 21 16 9 17 10 19 11 20 15 21 12 22 14 23 13 24
REMARK SMILES IDX 16 25
REMARK H PARENT 5 2 9 18
ROOT
ATOM      1  N   UNL     1       7.347  46.128  50.616  1.00  0.00    -0.352 N 
ATOM      2  H   UNL     1       6.823  46.954  50.337  1.00  0.00     0.163 HD
ENDROOT
BRANCH   1   3
ATOM      3  C   UNL     1       8.271  46.390  51.714  1.00  0.00     0.144 C 
BRANCH   3   4
ATOM      4  C   UNL     1       8.385  47.903  51.932  1.00  0.00     0.181 C 
BRANCH   4   5
ATOM      5  O   UNL     1       8.362  48.179  53.339  1.00  0.00    -0.383 OA
ATOM      6  C   UNL     1       9.360  47.442  54.030  1.00  0.00     0.194 C 
ENDBRANCH   4   5
ENDBRANCH   3   4
ENDBRANCH   1   3
BRANCH   1   7
ATOM      7  C   UNL     1       6.400  45.147  50.888  1.00  0.00     0.226 A 
ATOM      8  N   UNL     1       6.547  44.012  50.178  1.00  0.00    -0.195 NA
ATOM      9  N   UNL     1       5.445  45.386  51.800  1.00  0.00    -0.193 NA
ATOM     10  C   UNL     1       5.701  42.971  50.377  1.00  0.00     0.147 A 
ATOM     11  C   UNL     1       4.608  44.349  51.956  1.00  0.00     0.165 A 
ATOM     12  C   UNL     1       4.662  43.140  51.294  1.00  0.00     0.082 A 
ATOM     13  N   UNL     1       3.528  44.272  52.793  1.00  0.00    -0.250 N 
ATOM     14  C   UNL     1       3.555  42.419  51.788  1.00  0.00     0.149 A 
ATOM     15  N   UNL     1       2.853  43.102  52.701  1.00  0.00    -0.179 NA
ATOM     16  C   UNL     1       3.067  45.284  53.707  1.00  0.00     0.176 C 
BRANCH  10  17
ATOM     17  N   UNL     1       5.907  41.827  49.586  1.00  0.00    -0.337 N 
ATOM     18  H   UNL     1       5.855  41.042  50.235  1.00  0.00     0.168 HD
BRANCH  17  19
ATOM     19  C   UNL     1       5.247  41.504  48.378  1.00  0.00     0.076 A 
ATOM     20  C   UNL     1       5.826  41.937  47.177  1.00  0.00     0.029 A 
ATOM     21  C   UNL     1       4.121  40.671  48.298  1.00  0.00     0.146 A 
ATOM     22  C   UNL     1       5.258  41.603  45.943  1.00  0.00     0.002 A 
ATOM     23  C   UNL     1       3.550  40.334  47.073  1.00  0.00     0.041 A 
ATOM     24  C   UNL     1       4.116  40.805  45.891  1.00  0.00     0.003 A 
ATOM     25  F   UNL     1       3.570  40.160  49.409  1.00  0.00    -0.205 F 
ENDBRANCH  17  19
ENDBRANCH  10  17
ENDBRANCH   1   7
TORSDOF 6
ENDMDL
MODEL 17
REMARK VINA RESULT:    -7.240      2.220      5.534
REMARK INTER + INTRA:         -10.713
REMARK INTER:                  -9.728
REMARK INTRA:                  -0.985
REMARK UNBOUND:                -0.933
REMARK SMILES COCCNc1nc(Nc2ccccc2F)c2cnn(C)c2n1
REMARK SMILES IDX 5 1 4 3 3 4 2 5 1 6 6 7 7 8 23 9 8 10 22 11 17 12 20 13
REMARK SMILES IDX 18 14 19 15 21 16 9 17 10 19 11 20 15 21 12 22 14 23 13 24
REMARK SMILES IDX 16 25
REMARK H PARENT 5 2 9 18
ROOT
ATOM      1  N   UNL     1       6.483  43.416  49.301  1.00  0.00    -0.352 N 
ATOM      2  H   UNL     1       7.179  43.551  48.570  1.00  0.00     0.163 HD
ENDROOT
BRANCH   1   3
ATOM      3  C   UNL     1       6.567  42.097  49.919  1.00  0.00     0.144 C 
BRANCH   3   4
ATOM      4  C   UNL     1       5.267  41.328  49.656  1.00  0.00     0.181 C 
BRANCH   4   5
ATOM      5  O   UNL     1       4.612  41.069  50.904  1.00  0.00    -0.383 OA
ATOM      6  C   UNL     1       3.517  41.952  51.110  1.00  0.00     0.194 C 
ENDBRANCH   4   5
ENDBRANCH   3   4
ENDBRANCH   1   3
BRANCH   1   7
ATOM      7  C   UNL     1       6.647  44.473  50.187  1.00  0.00     0.226 A 
ATOM      8  N   UNL     1       5.498  44.995  50.657  1.00  0.00    -0.195 NA
ATOM      9  N   UNL     1       7.884  44.887  50.502  1.00  0.00    -0.193 NA
ATOM     10  C   UNL     1       5.529  46.014  51.553  1.00  0.00     0.147 A 
ATOM     11  C   UNL     1       7.884  45.911  51.369  1.00  0.00     0.165 A 
ATOM     12  C   UNL     1       6.776  46.521  51.921  1.00  0.00     0.082 A 
ATOM     13  N   UNL     1       8.970  46.569  51.880  1.00  0.00    -0.250 N 
ATOM     14  C   UNL     1       7.307  47.548  52.729  1.00  0.00     0.149 A 
ATOM     15  N   UNL     1       8.645  47.589  52.709  1.00  0.00    -0.179 NA
ATOM     16  C   UNL     1      10.356  46.287  51.614  1.00  0.00     0.176 C 
BRANCH  10  17
ATOM     17  N   UNL     1       4.288  46.516  51.984  1.00  0.00    -0.337 N 
ATOM     18  H   UNL     1       3.705  46.536  51.148  1.00  0.00     0.168 HD
BRANCH  17  19
ATOM     19  C   UNL     1       3.534  46.068  53.093  1.00  0.00     0.076 A 
ATOM     20  C   UNL     1       2.509  45.141  52.859  1.00  0.00     0.029 A 
ATOM     21  C   UNL     1       3.828  46.395  54.425  1.00  0.00     0.146 A 
ATOM     22  C   UNL     1       1.763  44.611  53.916  1.00  0.00     0.002 A 
ATOM     23  C   UNL     1       3.090  45.871  55.484  1.00  0.00     0.041 A 
ATOM     24  C   UNL     1       2.049  44.980  55.230  1.00  0.00     0.003 A 
ATOM     25  F   UNL     1       4.849  47.215  54.717  1.00  0.00    -0.205 F 
ENDBRANCH  17  19
ENDBRANCH  10  17
ENDBRANCH   1   7
TORSDOF 6
ENDMDL
MODEL 18
REMARK VINA RESULT:    -7.229      3.205      6.184
REMARK INTER + INTRA:         -10.698
REMARK INTER:                  -9.881
REMARK INTRA:                  -0.818
REMARK UNBOUND:                -0.933
REMARK SMILES COCCNc1nc(Nc2ccccc2F)c2cnn(C)c2n1
REMARK SMILES IDX 5 1 4 3 3 4 2 5 1 6 6 7 7 8 23 9 8 10 22 11 17 12 20 13
REMARK SMILES IDX 18 14 19 15 21 16 9 17 10 19 11 20 15 21 12 22 14 23 13 24
REMARK SMILES IDX 16 25
REMARK H PARENT 5 2 9 18
ROOT
ATOM      1  N   UNL     1       2.846  42.316  52.816  1.00  0.00    -0.352 N 
ATOM      2  H   UNL     1       3.154  42.451  53.776  1.00  0.00     0.163 HD
ENDROOT
BRANCH   1   3
ATOM      3  C   UNL     1       1.591  43.001  52.526  1.00  0.00     0.144 C 
BRANCH   3   4
ATOM      4  C   UNL     1       0.851  43.287  53.837  1.00  0.00     0.181 C 
BRANCH   4   5
ATOM      5  O   UNL     1       0.483  44.672  53.878  1.00  0.00    -0.383 OA
ATOM      6  C   UNL     1       0.967  45.372  52.740  1.00  0.00     0.194 C 
ENDBRANCH   4   5
ENDBRANCH   3   4
ENDBRANCH   1   3
BRANCH   1   7
ATOM      7  C   UNL     1       3.910  42.709  52.013  1.00  0.00     0.226 A 
ATOM      8  N   UNL     1       4.222  41.843  51.030  1.00  0.00    -0.195 NA
ATOM      9  N   UNL     1       4.529  43.873  52.259  1.00  0.00    -0.193 NA
ATOM     10  C   UNL     1       5.225  42.129  50.163  1.00  0.00     0.147 A 
ATOM     11  C   UNL     1       5.532  44.119  51.403  1.00  0.00     0.165 A 
ATOM     12  C   UNL     1       5.938  43.313  50.358  1.00  0.00     0.082 A 
ATOM     13  N   UNL     1       6.364  45.205  51.385  1.00  0.00    -0.250 N 
ATOM     14  C   UNL     1       7.035  43.996  49.794  1.00  0.00     0.149 A 
ATOM     15  N   UNL     1       7.308  45.151  50.416  1.00  0.00    -0.179 NA
ATOM     16  C   UNL     1       6.328  46.337  52.275  1.00  0.00     0.176 C 
BRANCH  10  17
ATOM     17  N   UNL     1       5.502  41.168  49.175  1.00  0.00    -0.337 N 
ATOM     18  H   UNL     1       5.400  40.268  49.643  1.00  0.00     0.168 HD
BRANCH  17  19
ATOM     19  C   UNL     1       4.946  41.106  47.877  1.00  0.00     0.076 A 
ATOM     20  C   UNL     1       5.620  41.767  46.840  1.00  0.00     0.029 A 
ATOM     21  C   UNL     1       3.833  40.322  47.536  1.00  0.00     0.146 A 
ATOM     22  C   UNL     1       5.159  41.698  45.522  1.00  0.00     0.002 A 
ATOM     23  C   UNL     1       3.367  40.248  46.225  1.00  0.00     0.041 A 
ATOM     24  C   UNL     1       4.028  40.943  45.215  1.00  0.00     0.003 A 
ATOM     25  F   UNL     1       3.194  39.603  48.471  1.00  0.00    -0.205 F 
ENDBRANCH  17  19
ENDBRANCH  10  17
ENDBRANCH   1   7
TORSDOF 6
ENDMDL
MODEL 19
REMARK VINA RESULT:    -7.158      2.787      6.498
REMARK INTER + INTRA:         -10.602
REMARK INTER:                  -9.898
REMARK INTRA:                  -0.704
REMARK UNBOUND:                -0.933
REMARK SMILES COCCNc1nc(Nc2ccccc2F)c2cnn(C)c2n1
REMARK SMILES IDX 5 1 4 3 3 4 2 5 1 6 6 7 7 8 23 9 8 10 22 11 17 12 20 13
REMARK SMILES IDX 18 14 19 15 21 16 9 17 10 19 11 20 15 21 12 22 14 23 13 24
REMARK SMILES IDX 16 25
REMARK H PARENT 5 2 9 18
ROOT
ATOM      1  N   UNL     1       5.388  46.416  52.692  1.00  0.00    -0.352 N 
ATOM      2  H   UNL     1       4.758  46.423  53.491  1.00  0.00     0.163 HD
ENDROOT
BRANCH   1   3
ATOM      3  C   UNL     1       6.758  46.763  53.056  1.00  0.00     0.144 C 
BRANCH   3   4
ATOM      4  C   UNL     1       6.891  46.784  54.583  1.00  0.00     0.181 C 
BRANCH   4   5
ATOM      5  O   UNL     1       8.003  47.612  54.948  1.00  0.00    -0.383 OA
ATOM      6  C   UNL     1       9.051  47.526  53.992  1.00  0.00     0.194 C 
ENDBRANCH   4   5
ENDBRANCH   3   4
ENDBRANCH   1   3
BRANCH   1   7
ATOM      7  C   UNL     1       5.253  45.164  52.106  1.00  0.00     0.226 A 
ATOM      8  N   UNL     1       4.243  44.420  52.596  1.00  0.00    -0.195 NA
ATOM      9  N   UNL     1       6.100  44.794  51.134  1.00  0.00    -0.193 NA
ATOM     10  C   UNL     1       3.992  43.189  52.084  1.00  0.00     0.147 A 
ATOM     11  C   UNL     1       5.846  43.563  50.664  1.00  0.00     0.165 A 
ATOM     12  C   UNL     1       4.840  42.715  51.081  1.00  0.00     0.082 A 
ATOM     13  N   UNL     1       6.525  42.889  49.686  1.00  0.00    -0.250 N 
ATOM     14  C   UNL     1       5.020  41.550  50.308  1.00  0.00     0.149 A 
ATOM     15  N   UNL     1       6.048  41.643  49.455  1.00  0.00    -0.179 NA
ATOM     16  C   UNL     1       7.653  43.366  48.930  1.00  0.00     0.176 C 
BRANCH  10  17
ATOM     17  N   UNL     1       2.931  42.467  52.659  1.00  0.00    -0.337 N 
ATOM     18  H   UNL     1       3.217  42.298  53.623  1.00  0.00     0.168 HD
BRANCH  17  19
ATOM     19  C   UNL     1       1.558  42.800  52.610  1.00  0.00     0.076 A 
ATOM     20  C   UNL     1       0.898  43.046  53.822  1.00  0.00     0.029 A 
ATOM     21  C   UNL     1       0.847  43.022  51.422  1.00  0.00     0.146 A 
ATOM     22  C   UNL     1      -0.444  43.437  53.844  1.00  0.00     0.002 A 
ATOM     23  C   UNL     1      -0.491  43.412  51.435  1.00  0.00     0.041 A 
ATOM     24  C   UNL     1      -1.141  43.615  52.650  1.00  0.00     0.003 A 
ATOM     25  F   UNL     1       1.447  42.881  50.230  1.00  0.00    -0.205 F 
ENDBRANCH  17  19
ENDBRANCH  10  17
ENDBRANCH   1   7
TORSDOF 6
ENDMDL
MODEL 20
REMARK VINA RESULT:    -7.142      2.319      6.355
REMARK INTER + INTRA:         -10.580
REMARK INTER:                  -9.643
REMARK INTRA:                  -0.937
REMARK UNBOUND:                -0.933
REMARK SMILES COCCNc1nc(Nc2ccccc2F)c2cnn(C)c2n1
REMARK SMILES IDX 5 1 4 3 3 4 2 5 1 6 6 7 7 8 23 9 8 10 22 11 17 12 20 13
REMARK SMILES IDX 18 14 19 15 21 16 9 17 10 19 11 20 15 21 12 22 14 23 13 24
REMARK SMILES IDX 16 25
REMARK H PARENT 5 2 9 18
ROOT
ATOM      1  N   UNL     1       6.149  44.121  49.774  1.00  0.00    -0.352 N 
ATOM      2  H   UNL     1       6.532  44.848  49.174  1.00  0.00     0.163 HD
ENDROOT
BRANCH   1   3
ATOM      3  C   UNL     1       6.879  42.863  49.670  1.00  0.00     0.144 C 
BRANCH   3   4
ATOM      4  C   UNL     1       5.919  41.753  49.225  1.00  0.00     0.181 C 
BRANCH   4   5
ATOM      5  O   UNL     1       5.317  41.158  50.382  1.00  0.00    -0.383 OA
ATOM      6  C   UNL     1       3.899  41.226  50.323  1.00  0.00     0.194 C 
ENDBRANCH   4   5
ENDBRANCH   3   4
ENDBRANCH   1   3
BRANCH   1   7
ATOM      7  C   UNL     1       6.118  44.658  51.055  1.00  0.00     0.226 A 
ATOM      8  N   UNL     1       5.067  44.269  51.802  1.00  0.00    -0.195 NA
ATOM      9  N   UNL     1       7.093  45.493  51.446  1.00  0.00    -0.193 NA
ATOM     10  C   UNL     1       4.942  44.704  53.081  1.00  0.00     0.147 A 
ATOM     11  C   UNL     1       6.930  45.928  52.705  1.00  0.00     0.165 A 
ATOM     12  C   UNL     1       5.903  45.594  53.564  1.00  0.00     0.082 A 
ATOM     13  N   UNL     1       7.735  46.791  53.398  1.00  0.00    -0.250 N 
ATOM     14  C   UNL     1       6.172  46.331  54.736  1.00  0.00     0.149 A 
ATOM     15  N   UNL     1       7.286  47.068  54.645  1.00  0.00    -0.179 NA
ATOM     16  C   UNL     1       8.949  47.406  52.929  1.00  0.00     0.176 C 
BRANCH  10  17
ATOM     17  N   UNL     1       3.810  44.267  53.791  1.00  0.00    -0.337 N 
ATOM     18  H   UNL     1       3.839  44.773  54.675  1.00  0.00     0.168 HD
BRANCH  17  19
ATOM     19  C   UNL     1       2.482  44.206  53.310  1.00  0.00     0.076 A 
ATOM     20  C   UNL     1       1.899  42.941  53.149  1.00  0.00     0.029 A 
ATOM     21  C   UNL     1       1.670  45.330  53.102  1.00  0.00     0.146 A 
ATOM     22  C   UNL     1       0.571  42.808  52.733  1.00  0.00     0.002 A 
ATOM     23  C   UNL     1       0.345  45.207  52.688  1.00  0.00     0.041 A 
ATOM     24  C   UNL     1      -0.206  43.941  52.497  1.00  0.00     0.003 A 
ATOM     25  F   UNL     1       2.147  46.566  53.317  1.00  0.00    -0.205 F 
ENDBRANCH  17  19
ENDBRANCH  10  17
ENDBRANCH   1   7
TORSDOF 6
ENDMDL
