MODEL 1
REMARK VINA RESULT:    -9.276      0.000      0.000
REMARK INTER + INTRA:         -13.827
REMARK INTER:                 -12.529
REMARK INTRA:                  -1.297
REMARK UNBOUND:                -1.297
REMARK SMILES COc1ccc(CNc2cc(Nc3ccc(Cl)cc3C)nc(C)n2)cc1
REMARK SMILES IDX 8 1 7 3 6 4 3 5 4 6 26 7 5 8 25 9 2 10 1 11 9 12 10 13 24 14
REMARK SMILES IDX 11 15 22 16 21 17 23 18 12 19 13 21 14 22 19 23 15 24 18 25
REMARK SMILES IDX 16 26 20 27 17 28
REMARK H PARENT 8 2 12 20
ROOT
ATOM      1  N   UNL     1       8.790  45.704  51.212  1.00  0.00    -0.366 N 
ATOM      2  H   UNL     1       9.110  44.752  51.350  1.00  0.00     0.162 HD
ENDROOT
BRANCH   1   3
ATOM      3  C   UNL     1       7.651  45.759  50.301  1.00  0.00     0.150 C 
BRANCH   3   4
ATOM      4  C   UNL     1       6.858  44.473  50.330  1.00  0.00    -0.029 A 
ATOM      5  C   UNL     1       5.390  42.065  50.396  1.00  0.00     0.118 A 
ATOM      6  C   UNL     1       4.930  43.198  51.072  1.00  0.00     0.047 A 
ATOM      7  C   UNL     1       6.585  42.139  49.683  1.00  0.00     0.047 A 
ATOM      8  C   UNL     1       5.654  44.392  51.040  1.00  0.00     0.009 A 
ATOM      9  C   UNL     1       7.313  43.334  49.649  1.00  0.00     0.009 A 
BRANCH   5  10
ATOM     10  O   UNL     1       4.587  40.964  50.511  1.00  0.00    -0.497 OA
ATOM     11  C   UNL     1       3.620  40.767  49.488  1.00  0.00     0.278 C 
ENDBRANCH   5  10
ENDBRANCH   3   4
ENDBRANCH   1   3
BRANCH   1  12
ATOM     12  C   UNL     1       8.604  46.306  52.471  1.00  0.00     0.132 A 
ATOM     13  C   UNL     1       7.309  46.551  52.884  1.00  0.00     0.093 A 
ATOM     14  N   UNL     1       9.651  46.613  53.248  1.00  0.00    -0.216 NA
ATOM     15  C   UNL     1       7.126  47.127  54.127  1.00  0.00     0.136 A 
ATOM     16  C   UNL     1       9.390  47.147  54.452  1.00  0.00     0.130 A 
ATOM     17  N   UNL     1       8.165  47.434  54.915  1.00  0.00    -0.216 NA
ATOM     18  C   UNL     1      10.556  47.492  55.324  1.00  0.00     0.090 C 
BRANCH  15  19
ATOM     19  N   UNL     1       5.792  47.367  54.558  1.00  0.00    -0.340 N 
ATOM     20  H   UNL     1       5.763  47.267  55.567  1.00  0.00     0.168 HD
BRANCH  19  21
ATOM     21  C   UNL     1       4.641  46.798  53.956  1.00  0.00     0.043 A 
ATOM     22  C   UNL     1       3.909  47.572  53.036  1.00  0.00     0.028 A 
ATOM     23  C   UNL     1       4.185  45.502  54.277  1.00  0.00    -0.026 A 
ATOM     24  C   UNL     1       2.741  47.079  52.451  1.00  0.00     0.022 A 
ATOM     25  C   UNL     1       2.997  45.025  53.692  1.00  0.00     0.026 A 
ATOM     26  C   UNL     1       2.287  45.808  52.786  1.00  0.00     0.041 A 
ATOM     27  C   UNL     1       4.913  44.608  55.244  1.00  0.00     0.046 C 
ATOM     28  Cl  UNL     1       0.843  45.201  52.075  1.00  0.00    -0.084 Cl
ENDBRANCH  19  21
ENDBRANCH  15  19
ENDBRANCH   1  12
TORSDOF 6
ENDMDL
MODEL 2
REMARK VINA RESULT:    -9.077      3.840      6.919
REMARK INTER + INTRA:         -13.558
REMARK INTER:                 -12.499
REMARK INTRA:                  -1.059
REMARK UNBOUND:                -1.297
REMARK SMILES COc1ccc(CNc2cc(Nc3ccc(Cl)cc3C)nc(C)n2)cc1
REMARK SMILES IDX 8 1 7 3 6 4 3 5 4 6 26 7 5 8 25 9 2 10 1 11 9 12 10 13 24 14
REMARK SMILES IDX 11 15 22 16 21 17 23 18 12 19 13 21 14 22 19 23 15 24 18 25
REMARK SMILES IDX 16 26 20 27 17 28
REMARK H PARENT 8 2 12 20
ROOT
ATOM      1  N   UNL     1       2.802  42.451  52.735  1.00  0.00    -0.366 N 
ATOM      2  H   UNL     1       3.117  42.512  53.697  1.00  0.00     0.162 HD
ENDROOT
BRANCH   1   3
ATOM      3  C   UNL     1       1.548  43.174  52.537  1.00  0.00     0.150 C 
BRANCH   3   4
ATOM      4  C   UNL     1       1.080  43.828  53.817  1.00  0.00    -0.029 A 
ATOM      5  C   UNL     1       0.204  45.031  56.212  1.00  0.00     0.118 A 
ATOM      6  C   UNL     1       1.540  45.126  55.816  1.00  0.00     0.047 A 
ATOM      7  C   UNL     1      -0.697  44.336  55.407  1.00  0.00     0.047 A 
ATOM      8  C   UNL     1       1.976  44.533  54.629  1.00  0.00     0.009 A 
ATOM      9  C   UNL     1      -0.262  43.740  54.217  1.00  0.00     0.009 A 
BRANCH   5  10
ATOM     10  O   UNL     1      -0.088  45.656  57.394  1.00  0.00    -0.497 OA
ATOM     11  C   UNL     1       0.934  46.462  57.962  1.00  0.00     0.278 C 
ENDBRANCH   5  10
ENDBRANCH   3   4
ENDBRANCH   1   3
BRANCH   1  12
ATOM     12  C   UNL     1       3.865  42.814  51.887  1.00  0.00     0.132 A 
ATOM     13  C   UNL     1       4.338  44.109  51.962  1.00  0.00     0.093 A 
ATOM     14  N   UNL     1       4.409  41.923  51.048  1.00  0.00    -0.216 NA
ATOM     15  C   UNL     1       5.393  44.460  51.141  1.00  0.00     0.136 A 
ATOM     16  C   UNL     1       5.447  42.333  50.300  1.00  0.00     0.130 A 
ATOM     17  N   UNL     1       5.949  43.577  50.301  1.00  0.00    -0.216 NA
ATOM     18  C   UNL     1       6.058  41.343  49.361  1.00  0.00     0.090 C 
BRANCH  15  19
ATOM     19  N   UNL     1       5.890  45.790  51.229  1.00  0.00    -0.340 N 
ATOM     20  H   UNL     1       6.064  46.125  50.288  1.00  0.00     0.168 HD
BRANCH  19  21
ATOM     21  C   UNL     1       6.913  46.205  52.117  1.00  0.00     0.043 A 
ATOM     22  C   UNL     1       8.255  46.027  51.732  1.00  0.00     0.028 A 
ATOM     23  C   UNL     1       6.633  46.751  53.388  1.00  0.00    -0.026 A 
ATOM     24  C   UNL     1       9.302  46.373  52.588  1.00  0.00     0.022 A 
ATOM     25  C   UNL     1       7.698  47.080  54.247  1.00  0.00     0.026 A 
ATOM     26  C   UNL     1       9.018  46.894  53.845  1.00  0.00     0.041 A 
ATOM     27  C   UNL     1       5.228  46.982  53.874  1.00  0.00     0.046 C 
ATOM     28  Cl  UNL     1      10.306  47.312  54.907  1.00  0.00    -0.084 Cl
ENDBRANCH  19  21
ENDBRANCH  15  19
ENDBRANCH   1  12
TORSDOF 6
ENDMDL
MODEL 3
REMARK VINA RESULT:    -8.964      3.707      6.931
REMARK INTER + INTRA:         -13.405
REMARK INTER:                 -12.639
REMARK INTRA:                  -0.766
REMARK UNBOUND:                -1.297
REMARK SMILES COc1ccc(CNc2cc(Nc3ccc(Cl)cc3C)nc(C)n2)cc1
REMARK SMILES IDX 8 1 7 3 6 4 3 5 4 6 26 7 5 8 25 9 2 10 1 11 9 12 10 13 24 14
REMARK SMILES IDX 11 15 22 16 21 17 23 18 12 19 13 21 14 22 19 23 15 24 18 25
REMARK SMILES IDX 16 26 20 27 17 28
REMARK H PARENT 8 2 12 20
ROOT
ATOM      1  N   UNL     1       3.887  43.500  53.029  1.00  0.00    -0.366 N 
ATOM      2  H   UNL     1       4.224  43.867  53.913  1.00  0.00     0.162 HD
ENDROOT
BRANCH   1   3
ATOM      3  C   UNL     1       2.520  43.933  52.757  1.00  0.00     0.150 C 
BRANCH   3   4
ATOM      4  C   UNL     1       1.831  44.413  54.013  1.00  0.00    -0.029 A 
ATOM      5  C   UNL     1       0.545  45.290  56.364  1.00  0.00     0.118 A 
ATOM      6  C   UNL     1       1.916  45.488  56.188  1.00  0.00     0.047 A 
ATOM      7  C   UNL     1      -0.185  44.655  55.361  1.00  0.00     0.047 A 
ATOM      8  C   UNL     1       2.556  45.056  55.024  1.00  0.00     0.009 A 
ATOM      9  C   UNL     1       0.454  44.221  54.193  1.00  0.00     0.009 A 
BRANCH   5  10
ATOM     10  O   UNL     1       0.046  45.761  57.549  1.00  0.00    -0.497 OA
ATOM     11  C   UNL     1       0.822  46.739  58.227  1.00  0.00     0.278 C 
ENDBRANCH   5  10
ENDBRANCH   3   4
ENDBRANCH   1   3
BRANCH   1  12
ATOM     12  C   UNL     1       4.837  43.784  52.030  1.00  0.00     0.132 A 
ATOM     13  C   UNL     1       5.585  44.938  52.159  1.00  0.00     0.093 A 
ATOM     14  N   UNL     1       5.019  42.950  50.998  1.00  0.00    -0.216 NA
ATOM     15  C   UNL     1       6.528  45.209  51.186  1.00  0.00     0.136 A 
ATOM     16  C   UNL     1       5.972  43.269  50.107  1.00  0.00     0.130 A 
ATOM     17  N   UNL     1       6.723  44.380  50.152  1.00  0.00    -0.216 NA
ATOM     18  C   UNL     1       6.180  42.342  48.952  1.00  0.00     0.090 C 
BRANCH  15  19
ATOM     19  N   UNL     1       7.308  46.390  51.327  1.00  0.00    -0.340 N 
ATOM     20  H   UNL     1       7.790  46.556  50.450  1.00  0.00     0.168 HD
BRANCH  19  21
ATOM     21  C   UNL     1       8.149  46.667  52.434  1.00  0.00     0.043 A 
ATOM     22  C   UNL     1       7.589  47.279  53.570  1.00  0.00     0.028 A 
ATOM     23  C   UNL     1       9.532  46.389  52.417  1.00  0.00    -0.026 A 
ATOM     24  C   UNL     1       8.381  47.618  54.669  1.00  0.00     0.022 A 
ATOM     25  C   UNL     1      10.322  46.751  53.524  1.00  0.00     0.026 A 
ATOM     26  C   UNL     1       9.746  47.357  54.638  1.00  0.00     0.041 A 
ATOM     27  C   UNL     1      10.208  45.730  51.245  1.00  0.00     0.046 C 
ATOM     28  Cl  UNL     1      10.728  47.784  55.986  1.00  0.00    -0.084 Cl
ENDBRANCH  19  21
ENDBRANCH  15  19
ENDBRANCH   1  12
TORSDOF 6
ENDMDL
MODEL 4
REMARK VINA RESULT:    -8.883      3.184      5.937
REMARK INTER + INTRA:         -13.296
REMARK INTER:                 -12.312
REMARK INTRA:                  -0.985
REMARK UNBOUND:                -1.297
REMARK SMILES COc1ccc(CNc2cc(Nc3ccc(Cl)cc3C)nc(C)n2)cc1
REMARK SMILES IDX 8 1 7 3 6 4 3 5 4 6 26 7 5 8 25 9 2 10 1 11 9 12 10 13 24 14
REMARK SMILES IDX 11 15 22 16 21 17 23 18 12 19 13 21 14 22 19 23 15 24 18 25
REMARK SMILES IDX 16 26 20 27 17 28
REMARK H PARENT 8 2 12 20
ROOT
ATOM      1  N   UNL     1       6.214  45.696  50.882  1.00  0.00    -0.366 N 
ATOM      2  H   UNL     1       5.848  46.223  51.668  1.00  0.00     0.162 HD
ENDROOT
BRANCH   1   3
ATOM      3  C   UNL     1       7.672  45.759  50.830  1.00  0.00     0.150 C 
BRANCH   3   4
ATOM      4  C   UNL     1       8.247  46.335  52.103  1.00  0.00    -0.029 A 
ATOM      5  C   UNL     1       9.323  47.425  54.470  1.00  0.00     0.118 A 
ATOM      6  C   UNL     1       7.942  47.281  54.318  1.00  0.00     0.047 A 
ATOM      7  C   UNL     1      10.168  47.019  53.438  1.00  0.00     0.047 A 
ATOM      8  C   UNL     1       7.406  46.740  53.147  1.00  0.00     0.009 A 
ATOM      9  C   UNL     1       9.633  46.477  52.264  1.00  0.00     0.009 A 
BRANCH   5  10
ATOM     10  O   UNL     1       9.714  47.969  55.664  1.00  0.00    -0.497 OA
ATOM     11  C   UNL     1      10.990  47.586  56.156  1.00  0.00     0.278 C 
ENDBRANCH   5  10
ENDBRANCH   3   4
ENDBRANCH   1   3
BRANCH   1  12
ATOM     12  C   UNL     1       5.652  44.406  50.901  1.00  0.00     0.132 A 
ATOM     13  C   UNL     1       4.586  44.179  51.749  1.00  0.00     0.093 A 
ATOM     14  N   UNL     1       6.126  43.438  50.107  1.00  0.00    -0.216 NA
ATOM     15  C   UNL     1       4.023  42.917  51.756  1.00  0.00     0.136 A 
ATOM     16  C   UNL     1       5.509  42.245  50.152  1.00  0.00     0.130 A 
ATOM     17  N   UNL     1       4.485  41.941  50.962  1.00  0.00    -0.216 NA
ATOM     18  C   UNL     1       6.035  41.160  49.267  1.00  0.00     0.090 C 
BRANCH  15  19
ATOM     19  N   UNL     1       2.916  42.687  52.620  1.00  0.00    -0.340 N 
ATOM     20  H   UNL     1       2.803  41.685  52.727  1.00  0.00     0.168 HD
BRANCH  19  21
ATOM     21  C   UNL     1       1.661  43.334  52.502  1.00  0.00     0.043 A 
ATOM     22  C   UNL     1       0.875  43.081  51.362  1.00  0.00     0.028 A 
ATOM     23  C   UNL     1       1.193  44.252  53.466  1.00  0.00    -0.026 A 
ATOM     24  C   UNL     1      -0.347  43.729  51.172  1.00  0.00     0.022 A 
ATOM     25  C   UNL     1      -0.033  44.910  53.254  1.00  0.00     0.026 A 
ATOM     26  C   UNL     1      -0.793  44.646  52.117  1.00  0.00     0.041 A 
ATOM     27  C   UNL     1       1.967  44.573  54.715  1.00  0.00     0.046 C 
ATOM     28  Cl  UNL     1      -2.294  45.454  51.882  1.00  0.00    -0.084 Cl
ENDBRANCH  19  21
ENDBRANCH  15  19
ENDBRANCH   1  12
TORSDOF 6
ENDMDL
MODEL 5
REMARK VINA RESULT:    -8.810      3.682      5.893
REMARK INTER + INTRA:         -13.197
REMARK INTER:                 -12.431
REMARK INTRA:                  -0.766
REMARK UNBOUND:                -1.297
REMARK SMILES COc1ccc(CNc2cc(Nc3ccc(Cl)cc3C)nc(C)n2)cc1
REMARK SMILES IDX 8 1 7 3 6 4 3 5 4 6 26 7 5 8 25 9 2 10 1 11 9 12 10 13 24 14
REMARK SMILES IDX 11 15 22 16 21 17 23 18 12 19 13 21 14 22 19 23 15 24 18 25
REMARK SMILES IDX 16 26 20 27 17 28
REMARK H PARENT 8 2 12 20
ROOT
ATOM      1  N   UNL     1       6.485  42.589  48.938  1.00  0.00    -0.366 N 
ATOM      2  H   UNL     1       7.490  42.455  48.900  1.00  0.00     0.162 HD
ENDROOT
BRANCH   1   3
ATOM      3  C   UNL     1       5.775  41.313  48.904  1.00  0.00     0.150 C 
BRANCH   3   4
ATOM      4  C   UNL     1       5.018  41.137  47.608  1.00  0.00    -0.029 A 
ATOM      5  C   UNL     1       3.619  40.798  45.183  1.00  0.00     0.118 A 
ATOM      6  C   UNL     1       3.156  40.206  46.360  1.00  0.00     0.047 A 
ATOM      7  C   UNL     1       4.783  41.564  45.219  1.00  0.00     0.047 A 
ATOM      8  C   UNL     1       3.846  40.374  47.563  1.00  0.00     0.009 A 
ATOM      9  C   UNL     1       5.476  41.734  46.424  1.00  0.00     0.009 A 
BRANCH   5  10
ATOM     10  O   UNL     1       2.850  40.552  44.078  1.00  0.00    -0.497 OA
ATOM     11  C   UNL     1       3.163  39.389  43.325  1.00  0.00     0.278 C 
ENDBRANCH   5  10
ENDBRANCH   3   4
ENDBRANCH   1   3
BRANCH   1  12
ATOM     12  C   UNL     1       6.182  43.436  50.021  1.00  0.00     0.132 A 
ATOM     13  C   UNL     1       6.966  44.559  50.201  1.00  0.00     0.093 A 
ATOM     14  N   UNL     1       5.154  43.169  50.836  1.00  0.00    -0.216 NA
ATOM     15  C   UNL     1       6.658  45.400  51.254  1.00  0.00     0.136 A 
ATOM     16  C   UNL     1       4.902  44.047  51.821  1.00  0.00     0.130 A 
ATOM     17  N   UNL     1       5.629  45.145  52.073  1.00  0.00    -0.216 NA
ATOM     18  C   UNL     1       3.755  43.753  52.734  1.00  0.00     0.090 C 
BRANCH  15  19
ATOM     19  N   UNL     1       7.457  46.563  51.431  1.00  0.00    -0.340 N 
ATOM     20  H   UNL     1       7.946  46.745  50.562  1.00  0.00     0.168 HD
BRANCH  19  21
ATOM     21  C   UNL     1       8.297  46.794  52.549  1.00  0.00     0.043 A 
ATOM     22  C   UNL     1       7.763  47.458  53.669  1.00  0.00     0.028 A 
ATOM     23  C   UNL     1       9.657  46.420  52.560  1.00  0.00    -0.026 A 
ATOM     24  C   UNL     1       8.559  47.755  54.777  1.00  0.00     0.022 A 
ATOM     25  C   UNL     1      10.452  46.740  53.676  1.00  0.00     0.026 A 
ATOM     26  C   UNL     1       9.903  47.399  54.773  1.00  0.00     0.041 A 
ATOM     27  C   UNL     1      10.304  45.701  51.407  1.00  0.00     0.046 C 
ATOM     28  Cl  UNL     1      10.890  47.773  56.132  1.00  0.00    -0.084 Cl
ENDBRANCH  19  21
ENDBRANCH  15  19
ENDBRANCH   1  12
TORSDOF 6
ENDMDL
MODEL 6
REMARK VINA RESULT:    -8.729      1.866      4.717
REMARK INTER + INTRA:         -13.088
REMARK INTER:                 -12.266
REMARK INTRA:                  -0.822
REMARK UNBOUND:                -1.297
REMARK SMILES COc1ccc(CNc2cc(Nc3ccc(Cl)cc3C)nc(C)n2)cc1
REMARK SMILES IDX 8 1 7 3 6 4 3 5 4 6 26 7 5 8 25 9 2 10 1 11 9 12 10 13 24 14
REMARK SMILES IDX 11 15 22 16 21 17 23 18 12 19 13 21 14 22 19 23 15 24 18 25
REMARK SMILES IDX 16 26 20 27 17 28
REMARK H PARENT 8 2 12 20
ROOT
ATOM      1  N   UNL     1       5.385  47.256  54.910  1.00  0.00    -0.366 N 
ATOM      2  H   UNL     1       5.651  47.850  55.688  1.00  0.00     0.162 HD
ENDROOT
BRANCH   1   3
ATOM      3  C   UNL     1       4.250  47.811  54.177  1.00  0.00     0.150 C 
BRANCH   3   4
ATOM      4  C   UNL     1       3.310  46.724  53.710  1.00  0.00    -0.029 A 
ATOM      5  C   UNL     1       1.569  44.689  52.827  1.00  0.00     0.118 A 
ATOM      6  C   UNL     1       2.142  44.632  54.099  1.00  0.00     0.047 A 
ATOM      7  C   UNL     1       1.865  45.768  51.995  1.00  0.00     0.047 A 
ATOM      8  C   UNL     1       3.003  45.640  54.540  1.00  0.00     0.009 A 
ATOM      9  C   UNL     1       2.728  46.779  52.435  1.00  0.00     0.009 A 
BRANCH   5  10
ATOM     10  O   UNL     1       0.746  43.640  52.522  1.00  0.00    -0.497 OA
ATOM     11  C   UNL     1       0.755  42.537  53.418  1.00  0.00     0.278 C 
ENDBRANCH   5  10
ENDBRANCH   3   4
ENDBRANCH   1   3
BRANCH   1  12
ATOM     12  C   UNL     1       6.533  46.970  54.146  1.00  0.00     0.132 A 
ATOM     13  C   UNL     1       6.352  46.460  52.875  1.00  0.00     0.093 A 
ATOM     14  N   UNL     1       7.758  47.203  54.633  1.00  0.00    -0.216 NA
ATOM     15  C   UNL     1       7.478  46.194  52.120  1.00  0.00     0.136 A 
ATOM     16  C   UNL     1       8.802  46.943  53.829  1.00  0.00     0.130 A 
ATOM     17  N   UNL     1       8.709  46.428  52.594  1.00  0.00    -0.216 NA
ATOM     18  C   UNL     1      10.173  47.201  54.368  1.00  0.00     0.090 C 
BRANCH  15  19
ATOM     19  N   UNL     1       7.291  45.683  50.806  1.00  0.00    -0.340 N 
ATOM     20  H   UNL     1       7.044  46.456  50.198  1.00  0.00     0.168 HD
BRANCH  19  21
ATOM     21  C   UNL     1       6.531  44.527  50.497  1.00  0.00     0.043 A 
ATOM     22  C   UNL     1       5.290  44.345  51.135  1.00  0.00     0.028 A 
ATOM     23  C   UNL     1       6.994  43.536  49.606  1.00  0.00    -0.026 A 
ATOM     24  C   UNL     1       4.523  43.201  50.905  1.00  0.00     0.022 A 
ATOM     25  C   UNL     1       6.219  42.380  49.396  1.00  0.00     0.026 A 
ATOM     26  C   UNL     1       4.995  42.220  50.040  1.00  0.00     0.041 A 
ATOM     27  C   UNL     1       8.306  43.656  48.878  1.00  0.00     0.046 C 
ATOM     28  Cl  UNL     1       4.058  40.804  49.762  1.00  0.00    -0.084 Cl
ENDBRANCH  19  21
ENDBRANCH  15  19
ENDBRANCH   1  12
TORSDOF 6
ENDMDL
MODEL 7
REMARK VINA RESULT:    -8.728      3.822      6.991
REMARK INTER + INTRA:         -13.086
REMARK INTER:                 -12.476
REMARK INTRA:                  -0.610
REMARK UNBOUND:                -1.297
REMARK SMILES COc1ccc(CNc2cc(Nc3ccc(Cl)cc3C)nc(C)n2)cc1
REMARK SMILES IDX 8 1 7 3 6 4 3 5 4 6 26 7 5 8 25 9 2 10 1 11 9 12 10 13 24 14
REMARK SMILES IDX 11 15 22 16 21 17 23 18 12 19 13 21 14 22 19 23 15 24 18 25
REMARK SMILES IDX 16 26 20 27 17 28
REMARK H PARENT 8 2 12 20
ROOT
ATOM      1  N   UNL     1       3.667  43.720  53.144  1.00  0.00    -0.366 N 
ATOM      2  H   UNL     1       3.997  44.165  53.993  1.00  0.00     0.162 HD
ENDROOT
BRANCH   1   3
ATOM      3  C   UNL     1       2.326  44.176  52.789  1.00  0.00     0.150 C 
BRANCH   3   4
ATOM      4  C   UNL     1       1.493  44.453  54.018  1.00  0.00    -0.029 A 
ATOM      5  C   UNL     1      -0.061  44.988  56.310  1.00  0.00     0.118 A 
ATOM      6  C   UNL     1      -0.637  44.399  55.182  1.00  0.00     0.047 A 
ATOM      7  C   UNL     1       1.296  45.305  56.294  1.00  0.00     0.047 A 
ATOM      8  C   UNL     1       0.131  44.132  54.046  1.00  0.00     0.009 A 
ATOM      9  C   UNL     1       2.068  45.038  55.156  1.00  0.00     0.009 A 
BRANCH   5  10
ATOM     10  O   UNL     1      -0.925  45.195  57.351  1.00  0.00    -0.497 OA
ATOM     11  C   UNL     1      -2.180  45.781  57.035  1.00  0.00     0.278 C 
ENDBRANCH   5  10
ENDBRANCH   3   4
ENDBRANCH   1   3
BRANCH   1  12
ATOM     12  C   UNL     1       4.652  43.861  52.147  1.00  0.00     0.132 A 
ATOM     13  C   UNL     1       5.466  44.975  52.197  1.00  0.00     0.093 A 
ATOM     14  N   UNL     1       4.803  42.932  51.194  1.00  0.00    -0.216 NA
ATOM     15  C   UNL     1       6.443  45.105  51.228  1.00  0.00     0.136 A 
ATOM     16  C   UNL     1       5.791  43.116  50.304  1.00  0.00     0.130 A 
ATOM     17  N   UNL     1       6.607  44.180  50.272  1.00  0.00    -0.216 NA
ATOM     18  C   UNL     1       5.963  42.082  49.237  1.00  0.00     0.090 C 
BRANCH  15  19
ATOM     19  N   UNL     1       7.291  46.245  51.287  1.00  0.00    -0.340 N 
ATOM     20  H   UNL     1       7.802  46.304  50.413  1.00  0.00     0.168 HD
BRANCH  19  21
ATOM     21  C   UNL     1       8.122  46.568  52.388  1.00  0.00     0.043 A 
ATOM     22  C   UNL     1       7.544  47.188  53.512  1.00  0.00     0.028 A 
ATOM     23  C   UNL     1       9.513  46.328  52.379  1.00  0.00    -0.026 A 
ATOM     24  C   UNL     1       8.326  47.572  54.603  1.00  0.00     0.022 A 
ATOM     25  C   UNL     1      10.291  46.735  53.479  1.00  0.00     0.026 A 
ATOM     26  C   UNL     1       9.697  47.348  54.579  1.00  0.00     0.041 A 
ATOM     27  C   UNL     1      10.208  45.663  51.222  1.00  0.00     0.046 C 
ATOM     28  Cl  UNL     1      10.665  47.830  55.918  1.00  0.00    -0.084 Cl
ENDBRANCH  19  21
ENDBRANCH  15  19
ENDBRANCH   1  12
TORSDOF 6
ENDMDL
MODEL 8
REMARK VINA RESULT:    -8.676      3.198      6.021
REMARK INTER + INTRA:         -13.017
REMARK INTER:                 -11.741
REMARK INTRA:                  -1.275
REMARK UNBOUND:                -1.297
REMARK SMILES COc1ccc(CNc2cc(Nc3ccc(Cl)cc3C)nc(C)n2)cc1
REMARK SMILES IDX 8 1 7 3 6 4 3 5 4 6 26 7 5 8 25 9 2 10 1 11 9 12 10 13 24 14
REMARK SMILES IDX 11 15 22 16 21 17 23 18 12 19 13 21 14 22 19 23 15 24 18 25
REMARK SMILES IDX 16 26 20 27 17 28
REMARK H PARENT 8 2 12 20
ROOT
ATOM      1  N   UNL     1       7.490  42.418  49.349  1.00  0.00    -0.366 N 
ATOM      2  H   UNL     1       7.934  41.742  48.737  1.00  0.00     0.162 HD
ENDROOT
BRANCH   1   3
ATOM      3  C   UNL     1       7.657  43.780  48.851  1.00  0.00     0.150 C 
BRANCH   3   4
ATOM      4  C   UNL     1       8.226  44.692  49.913  1.00  0.00    -0.029 A 
ATOM      5  C   UNL     1       9.282  46.382  51.908  1.00  0.00     0.118 A 
ATOM      6  C   UNL     1      10.105  45.478  51.233  1.00  0.00     0.047 A 
ATOM      7  C   UNL     1       7.928  46.443  51.582  1.00  0.00     0.047 A 
ATOM      8  C   UNL     1       9.586  44.641  50.243  1.00  0.00     0.009 A 
ATOM      9  C   UNL     1       7.405  45.605  50.590  1.00  0.00     0.009 A 
BRANCH   5  10
ATOM     10  O   UNL     1       9.917  47.141  52.853  1.00  0.00    -0.497 OA
ATOM     11  C   UNL     1       9.178  47.458  54.024  1.00  0.00     0.278 C 
ENDBRANCH   5  10
ENDBRANCH   3   4
ENDBRANCH   1   3
BRANCH   1  12
ATOM     12  C   UNL     1       6.166  42.007  49.594  1.00  0.00     0.132 A 
ATOM     13  C   UNL     1       5.534  42.502  50.717  1.00  0.00     0.093 A 
ATOM     14  N   UNL     1       5.537  41.177  48.752  1.00  0.00    -0.216 NA
ATOM     15  C   UNL     1       4.228  42.112  50.949  1.00  0.00     0.136 A 
ATOM     16  C   UNL     1       4.262  40.864  49.032  1.00  0.00     0.130 A 
ATOM     17  N   UNL     1       3.587  41.286  50.111  1.00  0.00    -0.216 NA
ATOM     18  C   UNL     1       3.555  39.937  48.095  1.00  0.00     0.090 C 
BRANCH  15  19
ATOM     19  N   UNL     1       3.573  42.633  52.098  1.00  0.00    -0.340 N 
ATOM     20  H   UNL     1       2.585  42.417  52.023  1.00  0.00     0.168 HD
BRANCH  19  21
ATOM     21  C   UNL     1       3.773  43.940  52.610  1.00  0.00     0.043 A 
ATOM     22  C   UNL     1       4.776  44.140  53.576  1.00  0.00     0.028 A 
ATOM     23  C   UNL     1       2.974  45.034  52.215  1.00  0.00    -0.026 A 
ATOM     24  C   UNL     1       4.982  45.397  54.150  1.00  0.00     0.022 A 
ATOM     25  C   UNL     1       3.182  46.291  52.813  1.00  0.00     0.026 A 
ATOM     26  C   UNL     1       4.180  46.466  53.769  1.00  0.00     0.041 A 
ATOM     27  C   UNL     1       1.886  44.907  51.183  1.00  0.00     0.046 C 
ATOM     28  Cl  UNL     1       4.424  48.013  54.481  1.00  0.00    -0.084 Cl
ENDBRANCH  19  21
ENDBRANCH  15  19
ENDBRANCH   1  12
TORSDOF 6
ENDMDL
MODEL 9
REMARK VINA RESULT:    -8.612      3.559      5.778
REMARK INTER + INTRA:         -12.931
REMARK INTER:                 -11.898
REMARK INTRA:                  -1.032
REMARK UNBOUND:                -1.297
REMARK SMILES COc1ccc(CNc2cc(Nc3ccc(Cl)cc3C)nc(C)n2)cc1
REMARK SMILES IDX 8 1 7 3 6 4 3 5 4 6 26 7 5 8 25 9 2 10 1 11 9 12 10 13 24 14
REMARK SMILES IDX 11 15 22 16 21 17 23 18 12 19 13 21 14 22 19 23 15 24 18 25
REMARK SMILES IDX 16 26 20 27 17 28
REMARK H PARENT 8 2 12 20
ROOT
ATOM      1  N   UNL     1       4.247  41.367  50.981  1.00  0.00    -0.366 N 
ATOM      2  H   UNL     1       3.444  41.000  50.482  1.00  0.00     0.162 HD
ENDROOT
BRANCH   1   3
ATOM      3  C   UNL     1       5.416  41.468  50.112  1.00  0.00     0.150 C 
BRANCH   3   4
ATOM      4  C   UNL     1       5.044  41.274  48.661  1.00  0.00    -0.029 A 
ATOM      5  C   UNL     1       4.336  40.924  45.954  1.00  0.00     0.118 A 
ATOM      6  C   UNL     1       5.476  41.652  46.302  1.00  0.00     0.047 A 
ATOM      7  C   UNL     1       3.550  40.368  46.961  1.00  0.00     0.047 A 
ATOM      8  C   UNL     1       5.830  41.825  47.642  1.00  0.00     0.009 A 
ATOM      9  C   UNL     1       3.903  40.540  48.305  1.00  0.00     0.009 A 
BRANCH   5  10
ATOM     10  O   UNL     1       4.105  40.832  44.608  1.00  0.00    -0.497 OA
ATOM     11  C   UNL     1       5.221  40.519  43.786  1.00  0.00     0.278 C 
ENDBRANCH   5  10
ENDBRANCH   3   4
ENDBRANCH   1   3
BRANCH   1  12
ATOM     12  C   UNL     1       3.867  42.548  51.646  1.00  0.00     0.132 A 
ATOM     13  C   UNL     1       4.644  43.674  51.457  1.00  0.00     0.093 A 
ATOM     14  N   UNL     1       2.776  42.579  52.422  1.00  0.00    -0.216 NA
ATOM     15  C   UNL     1       4.261  44.838  52.096  1.00  0.00     0.136 A 
ATOM     16  C   UNL     1       2.455  43.754  52.989  1.00  0.00     0.130 A 
ATOM     17  N   UNL     1       3.169  44.883  52.871  1.00  0.00    -0.216 NA
ATOM     18  C   UNL     1       1.237  43.794  53.857  1.00  0.00     0.090 C 
BRANCH  15  19
ATOM     19  N   UNL     1       5.053  46.001  51.890  1.00  0.00    -0.340 N 
ATOM     20  H   UNL     1       5.111  46.170  50.891  1.00  0.00     0.168 HD
BRANCH  19  21
ATOM     21  C   UNL     1       6.298  46.244  52.522  1.00  0.00     0.043 A 
ATOM     22  C   UNL     1       6.302  46.686  53.858  1.00  0.00     0.028 A 
ATOM     23  C   UNL     1       7.528  46.098  51.846  1.00  0.00    -0.026 A 
ATOM     24  C   UNL     1       7.498  46.987  54.514  1.00  0.00     0.022 A 
ATOM     25  C   UNL     1       8.725  46.421  52.513  1.00  0.00     0.026 A 
ATOM     26  C   UNL     1       8.704  46.858  53.835  1.00  0.00     0.041 A 
ATOM     27  C   UNL     1       7.613  45.624  50.421  1.00  0.00     0.046 C 
ATOM     28  Cl  UNL     1      10.179  47.238  54.636  1.00  0.00    -0.084 Cl
ENDBRANCH  19  21
ENDBRANCH  15  19
ENDBRANCH   1  12
TORSDOF 6
ENDMDL
MODEL 10
REMARK VINA RESULT:    -8.524      3.113      5.699
REMARK INTER + INTRA:         -12.811
REMARK INTER:                 -11.533
REMARK INTRA:                  -1.278
REMARK UNBOUND:                -1.297
REMARK SMILES COc1ccc(CNc2cc(Nc3ccc(Cl)cc3C)nc(C)n2)cc1
REMARK SMILES IDX 8 1 7 3 6 4 3 5 4 6 26 7 5 8 25 9 2 10 1 11 9 12 10 13 24 14
REMARK SMILES IDX 11 15 22 16 21 17 23 18 12 19 13 21 14 22 19 23 15 24 18 25
REMARK SMILES IDX 16 26 20 27 17 28
REMARK H PARENT 8 2 12 20
ROOT
ATOM      1  N   UNL     1       1.913  42.356  52.972  1.00  0.00    -0.366 N 
ATOM      2  H   UNL     1       1.233  41.627  53.157  1.00  0.00     0.162 HD
ENDROOT
BRANCH   1   3
ATOM      3  C   UNL     1       1.981  42.675  51.548  1.00  0.00     0.150 C 
BRANCH   3   4
ATOM      4  C   UNL     1       3.407  42.679  51.051  1.00  0.00    -0.029 A 
ATOM      5  C   UNL     1       6.076  42.688  50.140  1.00  0.00     0.118 A 
ATOM      6  C   UNL     1       5.300  41.530  50.055  1.00  0.00     0.047 A 
ATOM      7  C   UNL     1       5.515  43.845  50.678  1.00  0.00     0.047 A 
ATOM      8  C   UNL     1       3.977  41.523  50.504  1.00  0.00     0.009 A 
ATOM      9  C   UNL     1       4.190  43.841  51.129  1.00  0.00     0.009 A 
BRANCH   5  10
ATOM     10  O   UNL     1       7.353  42.557  49.665  1.00  0.00    -0.497 OA
ATOM     11  C   UNL     1       8.002  43.746  49.235  1.00  0.00     0.278 C 
ENDBRANCH   5  10
ENDBRANCH   3   4
ENDBRANCH   1   3
BRANCH   1  12
ATOM     12  C   UNL     1       1.662  43.439  53.836  1.00  0.00     0.132 A 
ATOM     13  C   UNL     1       2.706  44.298  54.115  1.00  0.00     0.093 A 
ATOM     14  N   UNL     1       0.443  43.637  54.354  1.00  0.00    -0.216 NA
ATOM     15  C   UNL     1       2.456  45.371  54.950  1.00  0.00     0.136 A 
ATOM     16  C   UNL     1       0.272  44.715  55.136  1.00  0.00     0.130 A 
ATOM     17  N   UNL     1       1.239  45.582  55.470  1.00  0.00    -0.216 NA
ATOM     18  C   UNL     1      -1.088  44.941  55.717  1.00  0.00     0.090 C 
BRANCH  15  19
ATOM     19  N   UNL     1       3.528  46.263  55.225  1.00  0.00    -0.340 N 
ATOM     20  H   UNL     1       3.134  47.166  55.465  1.00  0.00     0.168 HD
BRANCH  19  21
ATOM     21  C   UNL     1       4.679  46.407  54.411  1.00  0.00     0.043 A 
ATOM     22  C   UNL     1       5.916  45.953  54.904  1.00  0.00     0.028 A 
ATOM     23  C   UNL     1       4.633  47.027  53.144  1.00  0.00    -0.026 A 
ATOM     24  C   UNL     1       7.089  46.114  54.164  1.00  0.00     0.022 A 
ATOM     25  C   UNL     1       5.825  47.198  52.416  1.00  0.00     0.026 A 
ATOM     26  C   UNL     1       7.039  46.742  52.924  1.00  0.00     0.041 A 
ATOM     27  C   UNL     1       3.351  47.533  52.541  1.00  0.00     0.046 C 
ATOM     28  Cl  UNL     1       8.484  46.953  52.014  1.00  0.00    -0.084 Cl
ENDBRANCH  19  21
ENDBRANCH  15  19
ENDBRANCH   1  12
TORSDOF 6
ENDMDL
MODEL 11
REMARK VINA RESULT:    -8.480      2.922      5.614
REMARK INTER + INTRA:         -12.753
REMARK INTER:                 -11.784
REMARK INTRA:                  -0.969
REMARK UNBOUND:                -1.297
REMARK SMILES COc1ccc(CNc2cc(Nc3ccc(Cl)cc3C)nc(C)n2)cc1
REMARK SMILES IDX 8 1 7 3 6 4 3 5 4 6 26 7 5 8 25 9 2 10 1 11 9 12 10 13 24 14
REMARK SMILES IDX 11 15 22 16 21 17 23 18 12 19 13 21 14 22 19 23 15 24 18 25
REMARK SMILES IDX 16 26 20 27 17 28
REMARK H PARENT 8 2 12 20
ROOT
ATOM      1  N   UNL     1       7.826  45.133  50.403  1.00  0.00    -0.366 N 
ATOM      2  H   UNL     1       8.105  44.852  49.470  1.00  0.00     0.162 HD
ENDROOT
BRANCH   1   3
ATOM      3  C   UNL     1       7.953  46.576  50.587  1.00  0.00     0.150 C 
BRANCH   3   4
ATOM      4  C   UNL     1       8.507  46.912  51.952  1.00  0.00    -0.029 A 
ATOM      5  C   UNL     1       9.552  47.551  54.492  1.00  0.00     0.118 A 
ATOM      6  C   UNL     1       8.290  48.010  54.107  1.00  0.00     0.047 A 
ATOM      7  C   UNL     1      10.290  46.768  53.607  1.00  0.00     0.047 A 
ATOM      8  C   UNL     1       7.769  47.694  52.850  1.00  0.00     0.009 A 
ATOM      9  C   UNL     1       9.770  46.449  52.347  1.00  0.00     0.009 A 
BRANCH   5  10
ATOM     10  O   UNL     1       9.941  47.934  55.747  1.00  0.00    -0.497 OA
ATOM     11  C   UNL     1      11.215  47.486  56.187  1.00  0.00     0.278 C 
ENDBRANCH   5  10
ENDBRANCH   3   4
ENDBRANCH   1   3
BRANCH   1  12
ATOM     12  C   UNL     1       6.560  44.584  50.682  1.00  0.00     0.132 A 
ATOM     13  C   UNL     1       5.599  45.418  51.219  1.00  0.00     0.093 A 
ATOM     14  N   UNL     1       6.294  43.299  50.416  1.00  0.00    -0.216 NA
ATOM     15  C   UNL     1       4.350  44.883  51.477  1.00  0.00     0.136 A 
ATOM     16  C   UNL     1       5.051  42.860  50.671  1.00  0.00     0.130 A 
ATOM     17  N   UNL     1       4.071  43.600  51.211  1.00  0.00    -0.216 NA
ATOM     18  C   UNL     1       4.749  41.425  50.376  1.00  0.00     0.090 C 
BRANCH  15  19
ATOM     19  N   UNL     1       3.357  45.746  52.017  1.00  0.00    -0.340 N 
ATOM     20  H   UNL     1       3.679  46.702  51.913  1.00  0.00     0.168 HD
BRANCH  19  21
ATOM     21  C   UNL     1       2.725  45.553  53.271  1.00  0.00     0.043 A 
ATOM     22  C   UNL     1       1.471  44.914  53.303  1.00  0.00     0.028 A 
ATOM     23  C   UNL     1       3.289  46.015  54.478  1.00  0.00    -0.026 A 
ATOM     24  C   UNL     1       0.782  44.742  54.506  1.00  0.00     0.022 A 
ATOM     25  C   UNL     1       2.576  45.850  55.681  1.00  0.00     0.026 A 
ATOM     26  C   UNL     1       1.336  45.216  55.689  1.00  0.00     0.041 A 
ATOM     27  C   UNL     1       4.628  46.701  54.532  1.00  0.00     0.046 C 
ATOM     28  Cl  UNL     1       0.486  45.015  57.171  1.00  0.00    -0.084 Cl
ENDBRANCH  19  21
ENDBRANCH  15  19
ENDBRANCH   1  12
TORSDOF 6
ENDMDL
MODEL 12
REMARK VINA RESULT:    -8.427      1.248      1.620
REMARK INTER + INTRA:         -12.680
REMARK INTER:                 -11.623
REMARK INTRA:                  -1.057
REMARK UNBOUND:                -1.297
REMARK SMILES COc1ccc(CNc2cc(Nc3ccc(Cl)cc3C)nc(C)n2)cc1
REMARK SMILES IDX 8 1 7 3 6 4 3 5 4 6 26 7 5 8 25 9 2 10 1 11 9 12 10 13 24 14
REMARK SMILES IDX 11 15 22 16 21 17 23 18 12 19 13 21 14 22 19 23 15 24 18 25
REMARK SMILES IDX 16 26 20 27 17 28
REMARK H PARENT 8 2 12 20
ROOT
ATOM      1  N   UNL     1       7.423  45.360  49.802  1.00  0.00    -0.366 N 
ATOM      2  H   UNL     1       7.939  45.905  49.121  1.00  0.00     0.162 HD
ENDROOT
BRANCH   1   3
ATOM      3  C   UNL     1       7.856  43.965  49.808  1.00  0.00     0.150 C 
BRANCH   3   4
ATOM      4  C   UNL     1       6.693  43.024  49.595  1.00  0.00    -0.029 A 
ATOM      5  C   UNL     1       4.535  41.254  49.197  1.00  0.00     0.118 A 
ATOM      6  C   UNL     1       4.714  41.891  50.427  1.00  0.00     0.047 A 
ATOM      7  C   UNL     1       5.434  41.506  48.163  1.00  0.00     0.047 A 
ATOM      8  C   UNL     1       5.782  42.770  50.626  1.00  0.00     0.009 A 
ATOM      9  C   UNL     1       6.505  42.386  48.360  1.00  0.00     0.009 A 
BRANCH   5  10
ATOM     10  O   UNL     1       3.452  40.420  49.137  1.00  0.00    -0.497 OA
ATOM     11  C   UNL     1       3.304  39.645  47.955  1.00  0.00     0.278 C 
ENDBRANCH   5  10
ENDBRANCH   3   4
ENDBRANCH   1   3
BRANCH   1  12
ATOM     12  C   UNL     1       7.463  46.025  51.041  1.00  0.00     0.132 A 
ATOM     13  C   UNL     1       6.264  46.416  51.604  1.00  0.00     0.093 A 
ATOM     14  N   UNL     1       8.628  46.254  51.661  1.00  0.00    -0.216 NA
ATOM     15  C   UNL     1       6.302  47.055  52.829  1.00  0.00     0.136 A 
ATOM     16  C   UNL     1       8.582  46.857  52.860  1.00  0.00     0.130 A 
ATOM     17  N   UNL     1       7.461  47.285  53.460  1.00  0.00    -0.216 NA
ATOM     18  C   UNL     1       9.880  47.115  53.556  1.00  0.00     0.090 C 
BRANCH  15  19
ATOM     19  N   UNL     1       5.066  47.445  53.414  1.00  0.00    -0.340 N 
ATOM     20  H   UNL     1       5.264  47.880  54.309  1.00  0.00     0.168 HD
BRANCH  19  21
ATOM     21  C   UNL     1       3.920  46.615  53.492  1.00  0.00     0.043 A 
ATOM     22  C   UNL     1       2.831  46.888  52.644  1.00  0.00     0.028 A 
ATOM     23  C   UNL     1       3.819  45.554  54.416  1.00  0.00    -0.026 A 
ATOM     24  C   UNL     1       1.658  46.132  52.713  1.00  0.00     0.022 A 
ATOM     25  C   UNL     1       2.626  44.811  54.486  1.00  0.00     0.026 A 
ATOM     26  C   UNL     1       1.560  45.100  53.639  1.00  0.00     0.041 A 
ATOM     27  C   UNL     1       4.941  45.191  55.352  1.00  0.00     0.046 C 
ATOM     28  Cl  UNL     1       0.113  44.173  53.734  1.00  0.00    -0.084 Cl
ENDBRANCH  19  21
ENDBRANCH  15  19
ENDBRANCH   1  12
TORSDOF 6
ENDMDL
MODEL 13
REMARK VINA RESULT:    -8.422      3.117      5.577
REMARK INTER + INTRA:         -12.673
REMARK INTER:                 -11.236
REMARK INTRA:                  -1.437
REMARK UNBOUND:                -1.297
REMARK SMILES COc1ccc(CNc2cc(Nc3ccc(Cl)cc3C)nc(C)n2)cc1
REMARK SMILES IDX 8 1 7 3 6 4 3 5 4 6 26 7 5 8 25 9 2 10 1 11 9 12 10 13 24 14
REMARK SMILES IDX 11 15 22 16 21 17 23 18 12 19 13 21 14 22 19 23 15 24 18 25
REMARK SMILES IDX 16 26 20 27 17 28
REMARK H PARENT 8 2 12 20
ROOT
ATOM      1  N   UNL     1       1.907  42.348  52.916  1.00  0.00    -0.366 N 
ATOM      2  H   UNL     1       1.241  41.600  53.076  1.00  0.00     0.162 HD
ENDROOT
BRANCH   1   3
ATOM      3  C   UNL     1       1.991  42.693  51.499  1.00  0.00     0.150 C 
BRANCH   3   4
ATOM      4  C   UNL     1       3.424  42.711  51.019  1.00  0.00    -0.029 A 
ATOM      5  C   UNL     1       6.103  42.743  50.140  1.00  0.00     0.118 A 
ATOM      6  C   UNL     1       5.333  41.582  50.032  1.00  0.00     0.047 A 
ATOM      7  C   UNL     1       5.531  43.890  50.686  1.00  0.00     0.047 A 
ATOM      8  C   UNL     1       4.005  41.564  50.465  1.00  0.00     0.009 A 
ATOM      9  C   UNL     1       4.200  43.874  51.120  1.00  0.00     0.009 A 
BRANCH   5  10
ATOM     10  O   UNL     1       7.386  42.623  49.680  1.00  0.00    -0.497 OA
ATOM     11  C   UNL     1       8.040  43.822  49.286  1.00  0.00     0.278 C 
ENDBRANCH   5  10
ENDBRANCH   3   4
ENDBRANCH   1   3
BRANCH   1  12
ATOM     12  C   UNL     1       1.619  43.409  53.795  1.00  0.00     0.132 A 
ATOM     13  C   UNL     1       2.655  44.245  54.159  1.00  0.00     0.093 A 
ATOM     14  N   UNL     1       0.374  43.609  54.246  1.00  0.00    -0.216 NA
ATOM     15  C   UNL     1       2.369  45.297  55.009  1.00  0.00     0.136 A 
ATOM     16  C   UNL     1       0.170  44.667  55.047  1.00  0.00     0.130 A 
ATOM     17  N   UNL     1       1.127  45.510  55.463  1.00  0.00    -0.216 NA
ATOM     18  C   UNL     1      -1.219  44.894  55.554  1.00  0.00     0.090 C 
BRANCH  15  19
ATOM     19  N   UNL     1       3.434  46.166  55.373  1.00  0.00    -0.340 N 
ATOM     20  H   UNL     1       3.032  47.035  55.708  1.00  0.00     0.168 HD
BRANCH  19  21
ATOM     21  C   UNL     1       4.579  46.408  54.574  1.00  0.00     0.043 A 
ATOM     22  C   UNL     1       4.511  47.400  53.579  1.00  0.00     0.028 A 
ATOM     23  C   UNL     1       5.768  45.661  54.715  1.00  0.00    -0.026 A 
ATOM     24  C   UNL     1       5.593  47.645  52.731  1.00  0.00     0.022 A 
ATOM     25  C   UNL     1       6.845  45.907  53.843  1.00  0.00     0.026 A 
ATOM     26  C   UNL     1       6.754  46.893  52.864  1.00  0.00     0.041 A 
ATOM     27  C   UNL     1       5.927  44.588  55.758  1.00  0.00     0.046 C 
ATOM     28  Cl  UNL     1       8.086  47.185  51.814  1.00  0.00    -0.084 Cl
ENDBRANCH  19  21
ENDBRANCH  15  19
ENDBRANCH   1  12
TORSDOF 6
ENDMDL
MODEL 14
REMARK VINA RESULT:    -8.376      2.953      5.679
REMARK INTER + INTRA:         -12.611
REMARK INTER:                 -11.804
REMARK INTRA:                  -0.807
REMARK UNBOUND:                -1.297
REMARK SMILES COc1ccc(CNc2cc(Nc3ccc(Cl)cc3C)nc(C)n2)cc1
REMARK SMILES IDX 8 1 7 3 6 4 3 5 4 6 26 7 5 8 25 9 2 10 1 11 9 12 10 13 24 14
REMARK SMILES IDX 11 15 22 16 21 17 23 18 12 19 13 21 14 22 19 23 15 24 18 25
REMARK SMILES IDX 16 26 20 27 17 28
REMARK H PARENT 8 2 12 20
ROOT
ATOM      1  N   UNL     1       7.706  44.998  50.335  1.00  0.00    -0.366 N 
ATOM      2  H   UNL     1       7.965  44.674  49.410  1.00  0.00     0.162 HD
ENDROOT
BRANCH   1   3
ATOM      3  C   UNL     1       7.868  46.444  50.459  1.00  0.00     0.150 C 
BRANCH   3   4
ATOM      4  C   UNL     1       8.411  46.825  51.816  1.00  0.00    -0.029 A 
ATOM      5  C   UNL     1       9.436  47.548  54.342  1.00  0.00     0.118 A 
ATOM      6  C   UNL     1       8.150  47.936  53.959  1.00  0.00     0.047 A 
ATOM      7  C   UNL     1      10.210  46.794  53.462  1.00  0.00     0.047 A 
ATOM      8  C   UNL     1       7.639  47.577  52.709  1.00  0.00     0.009 A 
ATOM      9  C   UNL     1       9.700  46.434  52.208  1.00  0.00     0.009 A 
BRANCH   5  10
ATOM     10  O   UNL     1       9.812  47.965  55.590  1.00  0.00    -0.497 OA
ATOM     11  C   UNL     1      11.061  47.491  56.075  1.00  0.00     0.278 C 
ENDBRANCH   5  10
ENDBRANCH   3   4
ENDBRANCH   1   3
BRANCH   1  12
ATOM     12  C   UNL     1       6.432  44.490  50.653  1.00  0.00     0.132 A 
ATOM     13  C   UNL     1       5.487  45.374  51.135  1.00  0.00     0.093 A 
ATOM     14  N   UNL     1       6.145  43.194  50.474  1.00  0.00    -0.216 NA
ATOM     15  C   UNL     1       4.231  44.878  51.432  1.00  0.00     0.136 A 
ATOM     16  C   UNL     1       4.896  42.794  50.761  1.00  0.00     0.130 A 
ATOM     17  N   UNL     1       3.930  43.585  51.253  1.00  0.00    -0.216 NA
ATOM     18  C   UNL     1       4.570  41.348  50.564  1.00  0.00     0.090 C 
BRANCH  15  19
ATOM     19  N   UNL     1       3.253  45.791  51.915  1.00  0.00    -0.340 N 
ATOM     20  H   UNL     1       3.620  46.731  51.810  1.00  0.00     0.168 HD
BRANCH  19  21
ATOM     21  C   UNL     1       2.561  45.646  53.144  1.00  0.00     0.043 A 
ATOM     22  C   UNL     1       3.254  45.897  54.342  1.00  0.00     0.028 A 
ATOM     23  C   UNL     1       1.217  45.221  53.206  1.00  0.00    -0.026 A 
ATOM     24  C   UNL     1       2.635  45.723  55.582  1.00  0.00     0.022 A 
ATOM     25  C   UNL     1       0.611  45.033  54.462  1.00  0.00     0.026 A 
ATOM     26  C   UNL     1       1.316  45.286  55.636  1.00  0.00     0.041 A 
ATOM     27  C   UNL     1       0.403  44.939  51.972  1.00  0.00     0.046 C 
ATOM     28  Cl  UNL     1       0.553  45.060  57.161  1.00  0.00    -0.084 Cl
ENDBRANCH  19  21
ENDBRANCH  15  19
ENDBRANCH   1  12
TORSDOF 6
ENDMDL
MODEL 15
REMARK VINA RESULT:    -8.321      3.600      5.701
REMARK INTER + INTRA:         -12.537
REMARK INTER:                 -11.674
REMARK INTRA:                  -0.863
REMARK UNBOUND:                -1.297
REMARK SMILES COc1ccc(CNc2cc(Nc3ccc(Cl)cc3C)nc(C)n2)cc1
REMARK SMILES IDX 8 1 7 3 6 4 3 5 4 6 26 7 5 8 25 9 2 10 1 11 9 12 10 13 24 14
REMARK SMILES IDX 11 15 22 16 21 17 23 18 12 19 13 21 14 22 19 23 15 24 18 25
REMARK SMILES IDX 16 26 20 27 17 28
REMARK H PARENT 8 2 12 20
ROOT
ATOM      1  N   UNL     1       4.335  41.267  50.830  1.00  0.00    -0.366 N 
ATOM      2  H   UNL     1       3.531  40.827  50.396  1.00  0.00     0.162 HD
ENDROOT
BRANCH   1   3
ATOM      3  C   UNL     1       5.443  41.400  49.889  1.00  0.00     0.150 C 
BRANCH   3   4
ATOM      4  C   UNL     1       4.980  41.223  48.461  1.00  0.00    -0.029 A 
ATOM      5  C   UNL     1       4.130  40.883  45.794  1.00  0.00     0.118 A 
ATOM      6  C   UNL     1       3.415  40.308  46.847  1.00  0.00     0.047 A 
ATOM      7  C   UNL     1       5.271  41.632  46.076  1.00  0.00     0.047 A 
ATOM      8  C   UNL     1       3.833  40.477  48.170  1.00  0.00     0.009 A 
ATOM      9  C   UNL     1       5.692  41.803  47.400  1.00  0.00     0.009 A 
BRANCH   5  10
ATOM     10  O   UNL     1       3.613  40.639  44.551  1.00  0.00    -0.497 OA
ATOM     11  C   UNL     1       3.570  39.283  44.129  1.00  0.00     0.278 C 
ENDBRANCH   5  10
ENDBRANCH   3   4
ENDBRANCH   1   3
BRANCH   1  12
ATOM     12  C   UNL     1       3.915  42.453  51.462  1.00  0.00     0.132 A 
ATOM     13  C   UNL     1       4.625  43.609  51.202  1.00  0.00     0.093 A 
ATOM     14  N   UNL     1       2.851  42.460  52.274  1.00  0.00    -0.216 NA
ATOM     15  C   UNL     1       4.204  44.777  51.809  1.00  0.00     0.136 A 
ATOM     16  C   UNL     1       2.488  43.639  52.806  1.00  0.00     0.130 A 
ATOM     17  N   UNL     1       3.137  44.797  52.619  1.00  0.00    -0.216 NA
ATOM     18  C   UNL     1       1.299  43.652  53.714  1.00  0.00     0.090 C 
BRANCH  15  19
ATOM     19  N   UNL     1       4.927  45.969  51.530  1.00  0.00    -0.340 N 
ATOM     20  H   UNL     1       4.939  46.102  50.524  1.00  0.00     0.168 HD
BRANCH  19  21
ATOM     21  C   UNL     1       6.179  46.299  52.105  1.00  0.00     0.043 A 
ATOM     22  C   UNL     1       7.349  46.052  51.364  1.00  0.00     0.028 A 
ATOM     23  C   UNL     1       6.295  46.828  53.409  1.00  0.00    -0.026 A 
ATOM     24  C   UNL     1       8.611  46.312  51.901  1.00  0.00     0.022 A 
ATOM     25  C   UNL     1       7.573  47.070  53.944  1.00  0.00     0.026 A 
ATOM     26  C   UNL     1       8.717  46.816  53.193  1.00  0.00     0.041 A 
ATOM     27  C   UNL     1       5.094  47.129  54.265  1.00  0.00     0.046 C 
ATOM     28  Cl  UNL     1      10.271  47.128  53.863  1.00  0.00    -0.084 Cl
ENDBRANCH  19  21
ENDBRANCH  15  19
ENDBRANCH   1  12
TORSDOF 6
ENDMDL
MODEL 16
REMARK VINA RESULT:    -8.267      3.658      6.479
REMARK INTER + INTRA:         -12.464
REMARK INTER:                 -11.803
REMARK INTRA:                  -0.661
REMARK UNBOUND:                -1.297
REMARK SMILES COc1ccc(CNc2cc(Nc3ccc(Cl)cc3C)nc(C)n2)cc1
REMARK SMILES IDX 8 1 7 3 6 4 3 5 4 6 26 7 5 8 25 9 2 10 1 11 9 12 10 13 24 14
REMARK SMILES IDX 11 15 22 16 21 17 23 18 12 19 13 21 14 22 19 23 15 24 18 25
REMARK SMILES IDX 16 26 20 27 17 28
REMARK H PARENT 8 2 12 20
ROOT
ATOM      1  N   UNL     1       3.804  44.024  53.518  1.00  0.00    -0.366 N 
ATOM      2  H   UNL     1       4.301  44.033  54.402  1.00  0.00     0.162 HD
ENDROOT
BRANCH   1   3
ATOM      3  C   UNL     1       2.701  44.981  53.516  1.00  0.00     0.150 C 
BRANCH   3   4
ATOM      4  C   UNL     1       1.382  44.303  53.224  1.00  0.00    -0.029 A 
ATOM      5  C   UNL     1      -1.082  43.037  52.697  1.00  0.00     0.118 A 
ATOM      6  C   UNL     1      -0.918  44.403  52.455  1.00  0.00     0.047 A 
ATOM      7  C   UNL     1      -0.010  42.302  53.201  1.00  0.00     0.047 A 
ATOM      8  C   UNL     1       0.302  45.032  52.713  1.00  0.00     0.009 A 
ATOM      9  C   UNL     1       1.214  42.931  53.461  1.00  0.00     0.009 A 
BRANCH   5  10
ATOM     10  O   UNL     1      -2.325  42.548  52.402  1.00  0.00    -0.497 OA
ATOM     11  C   UNL     1      -3.400  43.478  52.417  1.00  0.00     0.278 C 
ENDBRANCH   5  10
ENDBRANCH   3   4
ENDBRANCH   1   3
BRANCH   1  12
ATOM     12  C   UNL     1       4.737  44.155  52.472  1.00  0.00     0.132 A 
ATOM     13  C   UNL     1       5.600  45.233  52.509  1.00  0.00     0.093 A 
ATOM     14  N   UNL     1       4.796  43.251  51.486  1.00  0.00    -0.216 NA
ATOM     15  C   UNL     1       6.528  45.352  51.491  1.00  0.00     0.136 A 
ATOM     16  C   UNL     1       5.741  43.422  50.547  1.00  0.00     0.130 A 
ATOM     17  N   UNL     1       6.599  44.452  50.501  1.00  0.00    -0.216 NA
ATOM     18  C   UNL     1       5.810  42.415  49.443  1.00  0.00     0.090 C 
BRANCH  15  19
ATOM     19  N   UNL     1       7.426  46.454  51.536  1.00  0.00    -0.340 N 
ATOM     20  H   UNL     1       7.925  46.490  50.653  1.00  0.00     0.168 HD
BRANCH  19  21
ATOM     21  C   UNL     1       8.288  46.741  52.623  1.00  0.00     0.043 A 
ATOM     22  C   UNL     1       7.759  47.400  53.749  1.00  0.00     0.028 A 
ATOM     23  C   UNL     1       9.663  46.426  52.599  1.00  0.00    -0.026 A 
ATOM     24  C   UNL     1       8.573  47.750  54.827  1.00  0.00     0.022 A 
ATOM     25  C   UNL     1      10.476  46.799  53.685  1.00  0.00     0.026 A 
ATOM     26  C   UNL     1       9.931  47.452  54.788  1.00  0.00     0.041 A 
ATOM     27  C   UNL     1      10.306  45.715  51.438  1.00  0.00     0.046 C 
ATOM     28  Cl  UNL     1      10.940  47.891  56.110  1.00  0.00    -0.084 Cl
ENDBRANCH  19  21
ENDBRANCH  15  19
ENDBRANCH   1  12
TORSDOF 6
ENDMDL
MODEL 17
REMARK VINA RESULT:    -8.220      3.633      7.056
REMARK INTER + INTRA:         -12.401
REMARK INTER:                 -11.159
REMARK INTRA:                  -1.242
REMARK UNBOUND:                -1.297
REMARK SMILES COc1ccc(CNc2cc(Nc3ccc(Cl)cc3C)nc(C)n2)cc1
REMARK SMILES IDX 8 1 7 3 6 4 3 5 4 6 26 7 5 8 25 9 2 10 1 11 9 12 10 13 24 14
REMARK SMILES IDX 11 15 22 16 21 17 23 18 12 19 13 21 14 22 19 23 15 24 18 25
REMARK SMILES IDX 16 26 20 27 17 28
REMARK H PARENT 8 2 12 20
ROOT
ATOM      1  N   UNL     1       2.184  44.549  55.509  1.00  0.00    -0.366 N 
ATOM      2  H   UNL     1       2.808  43.800  55.790  1.00  0.00     0.162 HD
ENDROOT
BRANCH   1   3
ATOM      3  C   UNL     1       2.798  45.858  55.712  1.00  0.00     0.150 C 
BRANCH   3   4
ATOM      4  C   UNL     1       4.071  46.002  54.911  1.00  0.00    -0.029 A 
ATOM      5  C   UNL     1       6.451  46.285  53.426  1.00  0.00     0.118 A 
ATOM      6  C   UNL     1       6.362  45.342  54.451  1.00  0.00     0.047 A 
ATOM      7  C   UNL     1       5.347  47.086  53.140  1.00  0.00     0.047 A 
ATOM      8  C   UNL     1       5.183  45.198  55.188  1.00  0.00     0.009 A 
ATOM      9  C   UNL     1       4.165  46.944  53.876  1.00  0.00     0.009 A 
BRANCH   5  10
ATOM     10  O   UNL     1       7.660  46.322  52.786  1.00  0.00    -0.497 OA
ATOM     11  C   UNL     1       7.971  47.510  52.072  1.00  0.00     0.278 C 
ENDBRANCH   5  10
ENDBRANCH   3   4
ENDBRANCH   1   3
BRANCH   1  12
ATOM     12  C   UNL     1       1.712  44.282  54.210  1.00  0.00     0.132 A 
ATOM     13  C   UNL     1       2.425  43.389  53.435  1.00  0.00     0.093 A 
ATOM     14  N   UNL     1       0.595  44.862  53.752  1.00  0.00    -0.216 NA
ATOM     15  C   UNL     1       1.952  43.114  52.165  1.00  0.00     0.136 A 
ATOM     16  C   UNL     1       0.186  44.525  52.518  1.00  0.00     0.130 A 
ATOM     17  N   UNL     1       0.834  43.685  51.697  1.00  0.00    -0.216 NA
ATOM     18  C   UNL     1      -1.060  45.171  52.001  1.00  0.00     0.090 C 
BRANCH  15  19
ATOM     19  N   UNL     1       2.680  42.185  51.372  1.00  0.00    -0.340 N 
ATOM     20  H   UNL     1       2.638  41.280  51.828  1.00  0.00     0.168 HD
BRANCH  19  21
ATOM     21  C   UNL     1       3.968  42.427  50.834  1.00  0.00     0.043 A 
ATOM     22  C   UNL     1       4.706  43.523  51.317  1.00  0.00     0.028 A 
ATOM     23  C   UNL     1       4.517  41.633  49.805  1.00  0.00    -0.026 A 
ATOM     24  C   UNL     1       5.960  43.836  50.788  1.00  0.00     0.022 A 
ATOM     25  C   UNL     1       5.774  41.970  49.269  1.00  0.00     0.026 A 
ATOM     26  C   UNL     1       6.486  43.060  49.762  1.00  0.00     0.041 A 
ATOM     27  C   UNL     1       3.797  40.439  49.238  1.00  0.00     0.046 C 
ATOM     28  Cl  UNL     1       8.026  43.449  49.100  1.00  0.00    -0.084 Cl
ENDBRANCH  19  21
ENDBRANCH  15  19
ENDBRANCH   1  12
TORSDOF 6
ENDMDL
MODEL 18
REMARK VINA RESULT:    -8.126      3.127      6.329
REMARK INTER + INTRA:         -12.274
REMARK INTER:                 -11.584
REMARK INTRA:                  -0.690
REMARK UNBOUND:                -1.297
REMARK SMILES COc1ccc(CNc2cc(Nc3ccc(Cl)cc3C)nc(C)n2)cc1
REMARK SMILES IDX 8 1 7 3 6 4 3 5 4 6 26 7 5 8 25 9 2 10 1 11 9 12 10 13 24 14
REMARK SMILES IDX 11 15 22 16 21 17 23 18 12 19 13 21 14 22 19 23 15 24 18 25
REMARK SMILES IDX 16 26 20 27 17 28
REMARK H PARENT 8 2 12 20
ROOT
ATOM      1  N   UNL     1       4.475  46.756  55.068  1.00  0.00    -0.366 N 
ATOM      2  H   UNL     1       5.244  46.230  55.467  1.00  0.00     0.162 HD
ENDROOT
BRANCH   1   3
ATOM      3  C   UNL     1       4.949  47.766  54.126  1.00  0.00     0.150 C 
BRANCH   3   4
ATOM      4  C   UNL     1       6.368  47.488  53.688  1.00  0.00    -0.029 A 
ATOM      5  C   UNL     1       9.021  46.989  52.871  1.00  0.00     0.118 A 
ATOM      6  C   UNL     1       8.579  46.591  54.135  1.00  0.00     0.047 A 
ATOM      7  C   UNL     1       8.133  47.635  52.013  1.00  0.00     0.047 A 
ATOM      8  C   UNL     1       7.265  46.835  54.542  1.00  0.00     0.009 A 
ATOM      9  C   UNL     1       6.816  47.881  52.418  1.00  0.00     0.009 A 
BRANCH   5  10
ATOM     10  O   UNL     1      10.329  46.689  52.601  1.00  0.00    -0.497 OA
ATOM     11  C   UNL     1      10.572  45.799  51.520  1.00  0.00     0.278 C 
ENDBRANCH   5  10
ENDBRANCH   3   4
ENDBRANCH   1   3
BRANCH   1  12
ATOM     12  C   UNL     1       3.517  45.851  54.573  1.00  0.00     0.132 A 
ATOM     13  C   UNL     1       3.811  45.174  53.406  1.00  0.00     0.093 A 
ATOM     14  N   UNL     1       2.366  45.642  55.225  1.00  0.00    -0.216 NA
ATOM     15  C   UNL     1       2.878  44.273  52.928  1.00  0.00     0.136 A 
ATOM     16  C   UNL     1       1.521  44.733  54.712  1.00  0.00     0.130 A 
ATOM     17  N   UNL     1       1.725  44.052  53.575  1.00  0.00    -0.216 NA
ATOM     18  C   UNL     1       0.235  44.496  55.437  1.00  0.00     0.090 C 
BRANCH  15  19
ATOM     19  N   UNL     1       3.187  43.566  51.734  1.00  0.00    -0.340 N 
ATOM     20  H   UNL     1       2.838  42.618  51.829  1.00  0.00     0.168 HD
BRANCH  19  21
ATOM     21  C   UNL     1       4.454  43.583  51.098  1.00  0.00     0.043 A 
ATOM     22  C   UNL     1       5.163  44.797  51.038  1.00  0.00     0.028 A 
ATOM     23  C   UNL     1       5.007  42.436  50.490  1.00  0.00    -0.026 A 
ATOM     24  C   UNL     1       6.392  44.880  50.382  1.00  0.00     0.022 A 
ATOM     25  C   UNL     1       6.239  42.538  49.818  1.00  0.00     0.026 A 
ATOM     26  C   UNL     1       6.923  43.751  49.770  1.00  0.00     0.041 A 
ATOM     27  C   UNL     1       4.318  41.098  50.515  1.00  0.00     0.046 C 
ATOM     28  Cl  UNL     1       8.432  43.853  48.951  1.00  0.00    -0.084 Cl
ENDBRANCH  19  21
ENDBRANCH  15  19
ENDBRANCH   1  12
TORSDOF 6
ENDMDL
