MODEL 1
REMARK VINA RESULT:    -9.465      0.000      0.000
REMARK INTER + INTRA:         -13.762
REMARK INTER:                 -12.785
REMARK INTRA:                  -0.978
REMARK UNBOUND:                -0.978
REMARK SMILES COc1ccc(CNc2cc(Nc3ccc(C)cc3C)nc(C)n2)cc1
REMARK SMILES IDX 8 1 7 3 6 4 3 5 4 6 26 7 5 8 25 9 2 10 1 11 9 12 10 13 24 14
REMARK SMILES IDX 11 15 22 16 21 17 23 18 12 19 13 21 14 22 19 23 15 24 18 25
REMARK SMILES IDX 16 26 20 27 17 28
REMARK H PARENT 8 2 12 20
ROOT
ATOM      1  N   UNL     1       2.818  42.519  52.718  1.00  0.00    -0.366 N 
ATOM      2  H   UNL     1       3.090  42.584  53.695  1.00  0.00     0.162 HD
ENDROOT
BRANCH   1   3
ATOM      3  C   UNL     1       1.587  43.256  52.461  1.00  0.00     0.150 C 
BRANCH   3   4
ATOM      4  C   UNL     1       1.108  43.868  53.758  1.00  0.00    -0.029 A 
ATOM      5  C   UNL     1       0.198  44.979  56.183  1.00  0.00     0.118 A 
ATOM      6  C   UNL     1       1.543  45.078  55.816  1.00  0.00     0.047 A 
ATOM      7  C   UNL     1      -0.692  44.318  55.338  1.00  0.00     0.047 A 
ATOM      8  C   UNL     1       1.997  44.527  54.615  1.00  0.00     0.009 A 
ATOM      9  C   UNL     1      -0.239  43.765  54.134  1.00  0.00     0.009 A 
BRANCH   5  10
ATOM     10  O   UNL     1      -0.111  45.560  57.382  1.00  0.00    -0.497 OA
ATOM     11  C   UNL     1       0.847  46.459  57.925  1.00  0.00     0.278 C 
ENDBRANCH   5  10
ENDBRANCH   3   4
ENDBRANCH   1   3
BRANCH   1  12
ATOM     12  C   UNL     1       3.897  42.877  51.892  1.00  0.00     0.132 A 
ATOM     13  C   UNL     1       4.428  44.145  52.025  1.00  0.00     0.093 A 
ATOM     14  N   UNL     1       4.425  41.986  51.044  1.00  0.00    -0.216 NA
ATOM     15  C   UNL     1       5.513  44.483  51.236  1.00  0.00     0.136 A 
ATOM     16  C   UNL     1       5.477  42.386  50.311  1.00  0.00     0.130 A 
ATOM     17  N   UNL     1       6.043  43.600  50.377  1.00  0.00    -0.216 NA
ATOM     18  C   UNL     1       6.095  41.387  49.383  1.00  0.00     0.090 C 
BRANCH  15  19
ATOM     19  N   UNL     1       6.048  45.788  51.383  1.00  0.00    -0.340 N 
ATOM     20  H   UNL     1       6.075  46.236  50.476  1.00  0.00     0.168 HD
BRANCH  19  21
ATOM     21  C   UNL     1       7.100  46.232  52.222  1.00  0.00     0.043 A 
ATOM     22  C   UNL     1       8.444  46.086  51.851  1.00  0.00     0.026 A 
ATOM     23  C   UNL     1       6.823  46.718  53.521  1.00  0.00    -0.027 A 
ATOM     24  C   UNL     1       9.488  46.471  52.699  1.00  0.00     0.005 A 
ATOM     25  C   UNL     1       7.881  47.108  54.366  1.00  0.00     0.009 A 
ATOM     26  C   UNL     1       9.214  47.005  53.956  1.00  0.00    -0.051 A 
ATOM     27  C   UNL     1       5.415  46.847  54.039  1.00  0.00     0.046 C 
ATOM     28  C   UNL     1      10.329  47.391  54.881  1.00  0.00     0.044 C 
ENDBRANCH  19  21
ENDBRANCH  15  19
ENDBRANCH   1  12
TORSDOF 6
ENDMDL
MODEL 2
REMARK VINA RESULT:    -9.385      3.307      7.010
REMARK INTER + INTRA:         -13.655
REMARK INTER:                 -12.423
REMARK INTRA:                  -1.232
REMARK UNBOUND:                -0.978
REMARK SMILES COc1ccc(CNc2cc(Nc3ccc(C)cc3C)nc(C)n2)cc1
REMARK SMILES IDX 8 1 7 3 6 4 3 5 4 6 26 7 5 8 25 9 2 10 1 11 9 12 10 13 24 14
REMARK SMILES IDX 11 15 22 16 21 17 23 18 12 19 13 21 14 22 19 23 15 24 18 25
REMARK SMILES IDX 16 26 20 27 17 28
REMARK H PARENT 8 2 12 20
ROOT
ATOM      1  N   UNL     1       9.096  45.848  51.244  1.00  0.00    -0.366 N 
ATOM      2  H   UNL     1       9.344  44.868  51.349  1.00  0.00     0.162 HD
ENDROOT
BRANCH   1   3
ATOM      3  C   UNL     1       8.020  46.021  50.276  1.00  0.00     0.150 C 
BRANCH   3   4
ATOM      4  C   UNL     1       7.217  44.741  50.209  1.00  0.00    -0.029 A 
ATOM      5  C   UNL     1       5.693  42.375  50.075  1.00  0.00     0.118 A 
ATOM      6  C   UNL     1       6.898  42.485  49.377  1.00  0.00     0.047 A 
ATOM      7  C   UNL     1       5.247  43.454  50.837  1.00  0.00     0.047 A 
ATOM      8  C   UNL     1       7.656  43.656  49.440  1.00  0.00     0.009 A 
ATOM      9  C   UNL     1       6.004  44.629  50.901  1.00  0.00     0.009 A 
BRANCH   5  10
ATOM     10  O   UNL     1       5.052  41.176  49.925  1.00  0.00    -0.497 OA
ATOM     11  C   UNL     1       3.641  41.176  50.094  1.00  0.00     0.278 C 
ENDBRANCH   5  10
ENDBRANCH   3   4
ENDBRANCH   1   3
BRANCH   1  12
ATOM     12  C   UNL     1       8.849  46.422  52.502  1.00  0.00     0.132 A 
ATOM     13  C   UNL     1       7.536  46.609  52.887  1.00  0.00     0.093 A 
ATOM     14  N   UNL     1       9.865  46.723  53.321  1.00  0.00    -0.216 NA
ATOM     15  C   UNL     1       7.295  47.143  54.141  1.00  0.00     0.136 A 
ATOM     16  C   UNL     1       9.552  47.237  54.522  1.00  0.00     0.130 A 
ATOM     17  N   UNL     1       8.305  47.455  54.964  1.00  0.00    -0.216 NA
ATOM     18  C   UNL     1      10.679  47.546  55.457  1.00  0.00     0.090 C 
BRANCH  15  19
ATOM     19  N   UNL     1       5.942  47.329  54.524  1.00  0.00    -0.340 N 
ATOM     20  H   UNL     1       5.890  47.383  55.533  1.00  0.00     0.168 HD
BRANCH  19  21
ATOM     21  C   UNL     1       4.770  46.760  53.965  1.00  0.00     0.043 A 
ATOM     22  C   UNL     1       3.925  47.502  53.127  1.00  0.00     0.026 A 
ATOM     23  C   UNL     1       4.351  45.465  54.347  1.00  0.00    -0.027 A 
ATOM     24  C   UNL     1       2.738  46.965  52.618  1.00  0.00     0.005 A 
ATOM     25  C   UNL     1       3.155  44.931  53.825  1.00  0.00     0.009 A 
ATOM     26  C   UNL     1       2.354  45.667  52.947  1.00  0.00    -0.051 A 
ATOM     27  C   UNL     1       5.153  44.616  55.297  1.00  0.00     0.046 C 
ATOM     28  C   UNL     1       1.067  45.098  52.429  1.00  0.00     0.044 C 
ENDBRANCH  19  21
ENDBRANCH  15  19
ENDBRANCH   1  12
TORSDOF 6
ENDMDL
MODEL 3
REMARK VINA RESULT:    -9.241      0.872      1.648
REMARK INTER + INTRA:         -13.460
REMARK INTER:                 -12.673
REMARK INTRA:                  -0.787
REMARK UNBOUND:                -0.978
REMARK SMILES COc1ccc(CNc2cc(Nc3ccc(C)cc3C)nc(C)n2)cc1
REMARK SMILES IDX 8 1 7 3 6 4 3 5 4 6 26 7 5 8 25 9 2 10 1 11 9 12 10 13 24 14
REMARK SMILES IDX 11 15 22 16 21 17 23 18 12 19 13 21 14 22 19 23 15 24 18 25
REMARK SMILES IDX 16 26 20 27 17 28
REMARK H PARENT 8 2 12 20
ROOT
ATOM      1  N   UNL     1       3.427  43.390  53.063  1.00  0.00    -0.366 N 
ATOM      2  H   UNL     1       3.754  43.709  53.970  1.00  0.00     0.162 HD
ENDROOT
BRANCH   1   3
ATOM      3  C   UNL     1       2.142  43.985  52.723  1.00  0.00     0.150 C 
BRANCH   3   4
ATOM      4  C   UNL     1       1.461  44.432  53.997  1.00  0.00    -0.029 A 
ATOM      5  C   UNL     1       0.177  45.233  56.374  1.00  0.00     0.118 A 
ATOM      6  C   UNL     1       1.555  45.402  56.219  1.00  0.00     0.047 A 
ATOM      7  C   UNL     1      -0.559  44.656  55.341  1.00  0.00     0.047 A 
ATOM      8  C   UNL     1       2.195  45.005  55.042  1.00  0.00     0.009 A 
ATOM      9  C   UNL     1       0.080  44.257  54.161  1.00  0.00     0.009 A 
BRANCH   5  10
ATOM     10  O   UNL     1      -0.320  45.663  57.574  1.00  0.00    -0.497 OA
ATOM     11  C   UNL     1      -0.921  46.951  57.595  1.00  0.00     0.278 C 
ENDBRANCH   5  10
ENDBRANCH   3   4
ENDBRANCH   1   3
BRANCH   1  12
ATOM     12  C   UNL     1       4.431  43.573  52.097  1.00  0.00     0.132 A 
ATOM     13  C   UNL     1       5.238  44.690  52.199  1.00  0.00     0.093 A 
ATOM     14  N   UNL     1       4.628  42.656  51.142  1.00  0.00    -0.216 NA
ATOM     15  C   UNL     1       6.249  44.850  51.267  1.00  0.00     0.136 A 
ATOM     16  C   UNL     1       5.629  42.881  50.273  1.00  0.00     0.130 A 
ATOM     17  N   UNL     1       6.448  43.942  50.302  1.00  0.00    -0.216 NA
ATOM     18  C   UNL     1       5.878  41.845  49.222  1.00  0.00     0.090 C 
BRANCH  15  19
ATOM     19  N   UNL     1       7.069  46.001  51.384  1.00  0.00    -0.340 N 
ATOM     20  H   UNL     1       7.476  46.207  50.481  1.00  0.00     0.168 HD
BRANCH  19  21
ATOM     21  C   UNL     1       7.925  46.383  52.448  1.00  0.00     0.043 A 
ATOM     22  C   UNL     1       7.430  47.037  53.585  1.00  0.00     0.026 A 
ATOM     23  C   UNL     1       9.326  46.231  52.330  1.00  0.00    -0.027 A 
ATOM     24  C   UNL     1       8.276  47.467  54.612  1.00  0.00     0.005 A 
ATOM     25  C   UNL     1      10.169  46.664  53.372  1.00  0.00     0.009 A 
ATOM     26  C   UNL     1       9.652  47.265  54.524  1.00  0.00    -0.051 A 
ATOM     27  C   UNL     1       9.959  45.604  51.116  1.00  0.00     0.046 C 
ATOM     28  C   UNL     1      10.566  47.752  55.607  1.00  0.00     0.044 C 
ENDBRANCH  19  21
ENDBRANCH  15  19
ENDBRANCH   1  12
TORSDOF 6
ENDMDL
MODEL 4
REMARK VINA RESULT:    -9.170      1.360      2.207
REMARK INTER + INTRA:         -13.364
REMARK INTER:                 -12.599
REMARK INTRA:                  -0.765
REMARK UNBOUND:                -0.978
REMARK SMILES COc1ccc(CNc2cc(Nc3ccc(C)cc3C)nc(C)n2)cc1
REMARK SMILES IDX 8 1 7 3 6 4 3 5 4 6 26 7 5 8 25 9 2 10 1 11 9 12 10 13 24 14
REMARK SMILES IDX 11 15 22 16 21 17 23 18 12 19 13 21 14 22 19 23 15 24 18 25
REMARK SMILES IDX 16 26 20 27 17 28
REMARK H PARENT 8 2 12 20
ROOT
ATOM      1  N   UNL     1       3.697  43.376  52.812  1.00  0.00    -0.366 N 
ATOM      2  H   UNL     1       4.049  42.720  53.503  1.00  0.00     0.162 HD
ENDROOT
BRANCH   1   3
ATOM      3  C   UNL     1       3.124  44.556  53.446  1.00  0.00     0.150 C 
BRANCH   3   4
ATOM      4  C   UNL     1       1.719  44.231  53.900  1.00  0.00    -0.029 A 
ATOM      5  C   UNL     1      -0.891  43.593  54.748  1.00  0.00     0.118 A 
ATOM      6  C   UNL     1      -0.195  44.655  55.330  1.00  0.00     0.047 A 
ATOM      7  C   UNL     1      -0.279  42.845  53.743  1.00  0.00     0.047 A 
ATOM      8  C   UNL     1       1.100  44.974  54.913  1.00  0.00     0.009 A 
ATOM      9  C   UNL     1       1.019  43.163  53.324  1.00  0.00     0.009 A 
BRANCH   5  10
ATOM     10  O   UNL     1      -2.147  43.389  55.251  1.00  0.00    -0.497 OA
ATOM     11  C   UNL     1      -2.454  44.020  56.487  1.00  0.00     0.278 C 
ENDBRANCH   5  10
ENDBRANCH   3   4
ENDBRANCH   1   3
BRANCH   1  12
ATOM     12  C   UNL     1       4.688  43.648  51.855  1.00  0.00     0.132 A 
ATOM     13  C   UNL     1       5.478  44.768  52.034  1.00  0.00     0.093 A 
ATOM     14  N   UNL     1       4.892  42.808  50.832  1.00  0.00    -0.216 NA
ATOM     15  C   UNL     1       6.477  45.015  51.109  1.00  0.00     0.136 A 
ATOM     16  C   UNL     1       5.881  43.115  49.975  1.00  0.00     0.130 A 
ATOM     17  N   UNL     1       6.682  44.185  50.078  1.00  0.00    -0.216 NA
ATOM     18  C   UNL     1       6.137  42.165  48.848  1.00  0.00     0.090 C 
BRANCH  15  19
ATOM     19  N   UNL     1       7.280  46.167  51.306  1.00  0.00    -0.340 N 
ATOM     20  H   UNL     1       7.724  46.411  50.430  1.00  0.00     0.168 HD
BRANCH  19  21
ATOM     21  C   UNL     1       8.083  46.516  52.420  1.00  0.00     0.043 A 
ATOM     22  C   UNL     1       7.543  47.171  53.535  1.00  0.00     0.026 A 
ATOM     23  C   UNL     1       9.484  46.328  52.379  1.00  0.00    -0.027 A 
ATOM     24  C   UNL     1       8.340  47.568  54.613  1.00  0.00     0.005 A 
ATOM     25  C   UNL     1      10.279  46.728  53.472  1.00  0.00     0.009 A 
ATOM     26  C   UNL     1       9.713  47.331  54.599  1.00  0.00    -0.051 A 
ATOM     27  C   UNL     1      10.169  45.697  51.196  1.00  0.00     0.046 C 
ATOM     28  C   UNL     1      10.577  47.783  55.738  1.00  0.00     0.044 C 
ENDBRANCH  19  21
ENDBRANCH  15  19
ENDBRANCH   1  12
TORSDOF 6
ENDMDL
MODEL 5
REMARK VINA RESULT:    -9.158      2.305      7.370
REMARK INTER + INTRA:         -13.347
REMARK INTER:                 -12.406
REMARK INTRA:                  -0.941
REMARK UNBOUND:                -0.978
REMARK SMILES COc1ccc(CNc2cc(Nc3ccc(C)cc3C)nc(C)n2)cc1
REMARK SMILES IDX 8 1 7 3 6 4 3 5 4 6 26 7 5 8 25 9 2 10 1 11 9 12 10 13 24 14
REMARK SMILES IDX 11 15 22 16 21 17 23 18 12 19 13 21 14 22 19 23 15 24 18 25
REMARK SMILES IDX 16 26 20 27 17 28
REMARK H PARENT 8 2 12 20
ROOT
ATOM      1  N   UNL     1       6.030  45.656  50.893  1.00  0.00    -0.366 N 
ATOM      2  H   UNL     1       5.725  46.217  51.684  1.00  0.00     0.162 HD
ENDROOT
BRANCH   1   3
ATOM      3  C   UNL     1       7.480  45.682  50.754  1.00  0.00     0.150 C 
BRANCH   3   4
ATOM      4  C   UNL     1       8.078  46.278  52.009  1.00  0.00    -0.029 A 
ATOM      5  C   UNL     1       9.208  47.413  54.327  1.00  0.00     0.118 A 
ATOM      6  C   UNL     1       7.845  47.107  54.277  1.00  0.00     0.047 A 
ATOM      7  C   UNL     1      10.006  47.155  53.214  1.00  0.00     0.047 A 
ATOM      8  C   UNL     1       7.282  46.546  53.128  1.00  0.00     0.009 A 
ATOM      9  C   UNL     1       9.443  46.593  52.062  1.00  0.00     0.009 A 
BRANCH   5  10
ATOM     10  O   UNL     1       9.627  47.959  55.509  1.00  0.00    -0.497 OA
ATOM     11  C   UNL     1      10.866  47.492  56.028  1.00  0.00     0.278 C 
ENDBRANCH   5  10
ENDBRANCH   3   4
ENDBRANCH   1   3
BRANCH   1  12
ATOM     12  C   UNL     1       5.472  44.369  50.969  1.00  0.00     0.132 A 
ATOM     13  C   UNL     1       4.542  44.119  51.960  1.00  0.00     0.093 A 
ATOM     14  N   UNL     1       5.797  43.435  50.067  1.00  0.00    -0.216 NA
ATOM     15  C   UNL     1       3.968  42.861  52.011  1.00  0.00     0.136 A 
ATOM     16  C   UNL     1       5.199  42.238  50.181  1.00  0.00     0.130 A 
ATOM     17  N   UNL     1       4.294  41.917  51.117  1.00  0.00    -0.216 NA
ATOM     18  C   UNL     1       5.531  41.198  49.158  1.00  0.00     0.090 C 
BRANCH  15  19
ATOM     19  N   UNL     1       3.015  42.618  53.032  1.00  0.00    -0.340 N 
ATOM     20  H   UNL     1       3.107  41.660  53.347  1.00  0.00     0.168 HD
BRANCH  19  21
ATOM     21  C   UNL     1       1.679  43.080  53.135  1.00  0.00     0.043 A 
ATOM     22  C   UNL     1       0.671  42.603  52.285  1.00  0.00     0.026 A 
ATOM     23  C   UNL     1       1.353  44.138  54.016  1.00  0.00    -0.027 A 
ATOM     24  C   UNL     1      -0.636  43.095  52.344  1.00  0.00     0.005 A 
ATOM     25  C   UNL     1       0.032  44.624  54.071  1.00  0.00     0.009 A 
ATOM     26  C   UNL     1      -0.971  44.097  53.253  1.00  0.00    -0.051 A 
ATOM     27  C   UNL     1       2.381  44.766  54.920  1.00  0.00     0.046 C 
ATOM     28  C   UNL     1      -2.364  44.650  53.299  1.00  0.00     0.044 C 
ENDBRANCH  19  21
ENDBRANCH  15  19
ENDBRANCH   1  12
TORSDOF 6
ENDMDL
MODEL 6
REMARK VINA RESULT:    -9.144      3.889      6.720
REMARK INTER + INTRA:         -13.329
REMARK INTER:                 -12.404
REMARK INTRA:                  -0.925
REMARK UNBOUND:                -0.978
REMARK SMILES COc1ccc(CNc2cc(Nc3ccc(C)cc3C)nc(C)n2)cc1
REMARK SMILES IDX 8 1 7 3 6 4 3 5 4 6 26 7 5 8 25 9 2 10 1 11 9 12 10 13 24 14
REMARK SMILES IDX 11 15 22 16 21 17 23 18 12 19 13 21 14 22 19 23 15 24 18 25
REMARK SMILES IDX 16 26 20 27 17 28
REMARK H PARENT 8 2 12 20
ROOT
ATOM      1  N   UNL     1       5.072  42.015  50.481  1.00  0.00    -0.366 N 
ATOM      2  H   UNL     1       4.150  41.669  50.229  1.00  0.00     0.162 HD
ENDROOT
BRANCH   1   3
ATOM      3  C   UNL     1       6.051  41.710  49.445  1.00  0.00     0.150 C 
BRANCH   3   4
ATOM      4  C   UNL     1       5.320  41.418  48.155  1.00  0.00    -0.029 A 
ATOM      5  C   UNL     1       3.986  40.863  45.736  1.00  0.00     0.118 A 
ATOM      6  C   UNL     1       3.504  40.356  46.945  1.00  0.00     0.047 A 
ATOM      7  C   UNL     1       5.140  41.644  45.736  1.00  0.00     0.047 A 
ATOM      8  C   UNL     1       4.163  40.628  48.146  1.00  0.00     0.009 A 
ATOM      9  C   UNL     1       5.803  41.918  46.938  1.00  0.00     0.009 A 
BRANCH   5  10
ATOM     10  O   UNL     1       3.246  40.519  44.637  1.00  0.00    -0.497 OA
ATOM     11  C   UNL     1       1.893  40.148  44.865  1.00  0.00     0.278 C 
ENDBRANCH   5  10
ENDBRANCH   3   4
ENDBRANCH   1   3
BRANCH   1  12
ATOM     12  C   UNL     1       4.999  43.372  50.837  1.00  0.00     0.132 A 
ATOM     13  C   UNL     1       6.175  44.096  50.889  1.00  0.00     0.093 A 
ATOM     14  N   UNL     1       3.813  43.951  51.061  1.00  0.00    -0.216 NA
ATOM     15  C   UNL     1       6.097  45.441  51.206  1.00  0.00     0.136 A 
ATOM     16  C   UNL     1       3.818  45.260  51.363  1.00  0.00     0.130 A 
ATOM     17  N   UNL     1       4.915  46.027  51.440  1.00  0.00    -0.216 NA
ATOM     18  C   UNL     1       2.495  45.924  51.582  1.00  0.00     0.090 C 
BRANCH  15  19
ATOM     19  N   UNL     1       7.311  46.172  51.256  1.00  0.00    -0.340 N 
ATOM     20  H   UNL     1       7.873  45.932  50.449  1.00  0.00     0.168 HD
BRANCH  19  21
ATOM     21  C   UNL     1       8.113  46.497  52.379  1.00  0.00     0.043 A 
ATOM     22  C   UNL     1       7.578  47.163  53.491  1.00  0.00     0.026 A 
ATOM     23  C   UNL     1       9.509  46.273  52.351  1.00  0.00    -0.027 A 
ATOM     24  C   UNL     1       8.375  47.536  54.578  1.00  0.00     0.005 A 
ATOM     25  C   UNL     1      10.303  46.649  53.453  1.00  0.00     0.009 A 
ATOM     26  C   UNL     1       9.742  47.263  54.577  1.00  0.00    -0.051 A 
ATOM     27  C   UNL     1      10.188  45.628  51.172  1.00  0.00     0.046 C 
ATOM     28  C   UNL     1      10.606  47.688  55.725  1.00  0.00     0.044 C 
ENDBRANCH  19  21
ENDBRANCH  15  19
ENDBRANCH   1  12
TORSDOF 6
ENDMDL
MODEL 7
REMARK VINA RESULT:    -9.134      1.487      2.519
REMARK INTER + INTRA:         -13.315
REMARK INTER:                 -12.518
REMARK INTRA:                  -0.798
REMARK UNBOUND:                -0.978
REMARK SMILES COc1ccc(CNc2cc(Nc3ccc(C)cc3C)nc(C)n2)cc1
REMARK SMILES IDX 8 1 7 3 6 4 3 5 4 6 26 7 5 8 25 9 2 10 1 11 9 12 10 13 24 14
REMARK SMILES IDX 11 15 22 16 21 17 23 18 12 19 13 21 14 22 19 23 15 24 18 25
REMARK SMILES IDX 16 26 20 27 17 28
REMARK H PARENT 8 2 12 20
ROOT
ATOM      1  N   UNL     1       3.924  43.455  52.737  1.00  0.00    -0.366 N 
ATOM      2  H   UNL     1       4.247  42.684  53.315  1.00  0.00     0.162 HD
ENDROOT
BRANCH   1   3
ATOM      3  C   UNL     1       3.416  44.552  53.552  1.00  0.00     0.150 C 
BRANCH   3   4
ATOM      4  C   UNL     1       1.981  44.255  53.925  1.00  0.00    -0.029 A 
ATOM      5  C   UNL     1      -0.702  43.737  54.615  1.00  0.00     0.118 A 
ATOM      6  C   UNL     1      -0.039  42.932  53.685  1.00  0.00     0.047 A 
ATOM      7  C   UNL     1      -0.023  44.806  55.197  1.00  0.00     0.047 A 
ATOM      8  C   UNL     1       1.291  43.187  53.339  1.00  0.00     0.009 A 
ATOM      9  C   UNL     1       1.309  45.064  54.852  1.00  0.00     0.009 A 
BRANCH   5  10
ATOM     10  O   UNL     1      -1.998  43.377  54.860  1.00  0.00    -0.497 OA
ATOM     11  C   UNL     1      -3.006  44.088  54.153  1.00  0.00     0.278 C 
ENDBRANCH   5  10
ENDBRANCH   3   4
ENDBRANCH   1   3
BRANCH   1  12
ATOM     12  C   UNL     1       4.922  43.822  51.819  1.00  0.00     0.132 A 
ATOM     13  C   UNL     1       5.666  44.955  52.083  1.00  0.00     0.093 A 
ATOM     14  N   UNL     1       5.176  43.055  50.752  1.00  0.00    -0.216 NA
ATOM     15  C   UNL     1       6.673  45.295  51.196  1.00  0.00     0.136 A 
ATOM     16  C   UNL     1       6.168  43.449  49.936  1.00  0.00     0.130 A 
ATOM     17  N   UNL     1       6.928  44.538  50.120  1.00  0.00    -0.216 NA
ATOM     18  C   UNL     1       6.481  42.581  48.757  1.00  0.00     0.090 C 
BRANCH  15  19
ATOM     19  N   UNL     1       7.429  46.461  51.480  1.00  0.00    -0.340 N 
ATOM     20  H   UNL     1       7.844  46.800  50.621  1.00  0.00     0.168 HD
BRANCH  19  21
ATOM     21  C   UNL     1       8.239  46.748  52.607  1.00  0.00     0.043 A 
ATOM     22  C   UNL     1       7.733  47.445  53.713  1.00  0.00     0.026 A 
ATOM     23  C   UNL     1       9.621  46.452  52.588  1.00  0.00    -0.027 A 
ATOM     24  C   UNL     1       8.541  47.780  54.804  1.00  0.00     0.005 A 
ATOM     25  C   UNL     1      10.427  46.790  53.694  1.00  0.00     0.009 A 
ATOM     26  C   UNL     1       9.892  47.437  54.812  1.00  0.00    -0.051 A 
ATOM     27  C   UNL     1      10.274  45.768  51.416  1.00  0.00     0.046 C 
ATOM     28  C   UNL     1      10.769  47.821  55.965  1.00  0.00     0.044 C 
ENDBRANCH  19  21
ENDBRANCH  15  19
ENDBRANCH   1  12
TORSDOF 6
ENDMDL
MODEL 8
REMARK VINA RESULT:    -9.069      3.425      6.708
REMARK INTER + INTRA:         -13.228
REMARK INTER:                 -12.200
REMARK INTRA:                  -1.028
REMARK UNBOUND:                -0.978
REMARK SMILES COc1ccc(CNc2cc(Nc3ccc(C)cc3C)nc(C)n2)cc1
REMARK SMILES IDX 8 1 7 3 6 4 3 5 4 6 26 7 5 8 25 9 2 10 1 11 9 12 10 13 24 14
REMARK SMILES IDX 11 15 22 16 21 17 23 18 12 19 13 21 14 22 19 23 15 24 18 25
REMARK SMILES IDX 16 26 20 27 17 28
REMARK H PARENT 8 2 12 20
ROOT
ATOM      1  N   UNL     1       4.054  41.339  50.875  1.00  0.00    -0.366 N 
ATOM      2  H   UNL     1       3.273  41.077  50.280  1.00  0.00     0.162 HD
ENDROOT
BRANCH   1   3
ATOM      3  C   UNL     1       5.301  41.385  50.123  1.00  0.00     0.150 C 
BRANCH   3   4
ATOM      4  C   UNL     1       4.987  41.224  48.652  1.00  0.00    -0.029 A 
ATOM      5  C   UNL     1       4.370  40.936  45.918  1.00  0.00     0.118 A 
ATOM      6  C   UNL     1       5.498  41.656  46.320  1.00  0.00     0.047 A 
ATOM      7  C   UNL     1       3.546  40.364  46.886  1.00  0.00     0.047 A 
ATOM      8  C   UNL     1       5.807  41.802  47.675  1.00  0.00     0.009 A 
ATOM      9  C   UNL     1       3.853  40.509  48.244  1.00  0.00     0.009 A 
BRANCH   5  10
ATOM     10  O   UNL     1       4.186  40.872  44.564  1.00  0.00    -0.497 OA
ATOM     11  C   UNL     1       5.318  40.525  43.778  1.00  0.00     0.278 C 
ENDBRANCH   5  10
ENDBRANCH   3   4
ENDBRANCH   1   3
BRANCH   1  12
ATOM     12  C   UNL     1       3.752  42.516  51.579  1.00  0.00     0.132 A 
ATOM     13  C   UNL     1       4.580  43.609  51.409  1.00  0.00     0.093 A 
ATOM     14  N   UNL     1       2.657  42.585  52.346  1.00  0.00    -0.216 NA
ATOM     15  C   UNL     1       4.260  44.779  52.075  1.00  0.00     0.136 A 
ATOM     16  C   UNL     1       2.412  43.754  52.962  1.00  0.00     0.130 A 
ATOM     17  N   UNL     1       3.171  44.854  52.852  1.00  0.00    -0.216 NA
ATOM     18  C   UNL     1       1.173  43.851  53.796  1.00  0.00     0.090 C 
BRANCH  15  19
ATOM     19  N   UNL     1       5.118  45.892  51.891  1.00  0.00    -0.340 N 
ATOM     20  H   UNL     1       5.133  46.137  50.908  1.00  0.00     0.168 HD
BRANCH  19  21
ATOM     21  C   UNL     1       6.351  46.185  52.526  1.00  0.00     0.043 A 
ATOM     22  C   UNL     1       6.399  46.690  53.833  1.00  0.00     0.026 A 
ATOM     23  C   UNL     1       7.565  46.097  51.806  1.00  0.00    -0.027 A 
ATOM     24  C   UNL     1       7.609  47.033  54.445  1.00  0.00     0.005 A 
ATOM     25  C   UNL     1       8.780  46.442  52.433  1.00  0.00     0.009 A 
ATOM     26  C   UNL     1       8.812  46.892  53.756  1.00  0.00    -0.051 A 
ATOM     27  C   UNL     1       7.611  45.633  50.375  1.00  0.00     0.046 C 
ATOM     28  C   UNL     1      10.108  47.287  54.396  1.00  0.00     0.044 C 
ENDBRANCH  19  21
ENDBRANCH  15  19
ENDBRANCH   1  12
TORSDOF 6
ENDMDL
MODEL 9
REMARK VINA RESULT:    -8.981      2.341      5.511
REMARK INTER + INTRA:         -13.108
REMARK INTER:                 -12.276
REMARK INTRA:                  -0.832
REMARK UNBOUND:                -0.978
REMARK SMILES COc1ccc(CNc2cc(Nc3ccc(C)cc3C)nc(C)n2)cc1
REMARK SMILES IDX 8 1 7 3 6 4 3 5 4 6 26 7 5 8 25 9 2 10 1 11 9 12 10 13 24 14
REMARK SMILES IDX 11 15 22 16 21 17 23 18 12 19 13 21 14 22 19 23 15 24 18 25
REMARK SMILES IDX 16 26 20 27 17 28
REMARK H PARENT 8 2 12 20
ROOT
ATOM      1  N   UNL     1       5.350  47.205  54.977  1.00  0.00    -0.366 N 
ATOM      2  H   UNL     1       5.625  47.783  55.766  1.00  0.00     0.162 HD
ENDROOT
BRANCH   1   3
ATOM      3  C   UNL     1       4.248  47.807  54.237  1.00  0.00     0.150 C 
BRANCH   3   4
ATOM      4  C   UNL     1       3.322  46.709  53.765  1.00  0.00    -0.029 A 
ATOM      5  C   UNL     1       1.615  44.661  52.853  1.00  0.00     0.118 A 
ATOM      6  C   UNL     1       2.259  44.552  54.088  1.00  0.00     0.047 A 
ATOM      7  C   UNL     1       1.830  45.794  52.070  1.00  0.00     0.047 A 
ATOM      8  C   UNL     1       3.107  45.565  54.543  1.00  0.00     0.009 A 
ATOM      9  C   UNL     1       2.680  46.810  52.524  1.00  0.00     0.009 A 
BRANCH   5  10
ATOM     10  O   UNL     1       0.815  43.599  52.530  1.00  0.00    -0.497 OA
ATOM     11  C   UNL     1       0.757  42.532  53.467  1.00  0.00     0.278 C 
ENDBRANCH   5  10
ENDBRANCH   3   4
ENDBRANCH   1   3
BRANCH   1  12
ATOM     12  C   UNL     1       6.474  46.888  54.196  1.00  0.00     0.132 A 
ATOM     13  C   UNL     1       6.265  46.337  52.946  1.00  0.00     0.093 A 
ATOM     14  N   UNL     1       7.707  47.169  54.636  1.00  0.00    -0.216 NA
ATOM     15  C   UNL     1       7.373  46.058  52.164  1.00  0.00     0.136 A 
ATOM     16  C   UNL     1       8.732  46.869  53.821  1.00  0.00     0.130 A 
ATOM     17  N   UNL     1       8.611  46.327  52.600  1.00  0.00    -0.216 NA
ATOM     18  C   UNL     1      10.112  47.209  54.291  1.00  0.00     0.090 C 
BRANCH  15  19
ATOM     19  N   UNL     1       7.144  45.493  50.884  1.00  0.00    -0.340 N 
ATOM     20  H   UNL     1       7.062  46.240  50.205  1.00  0.00     0.168 HD
BRANCH  19  21
ATOM     21  C   UNL     1       6.353  44.371  50.531  1.00  0.00     0.043 A 
ATOM     22  C   UNL     1       5.153  44.083  51.197  1.00  0.00     0.026 A 
ATOM     23  C   UNL     1       6.823  43.435  49.581  1.00  0.00    -0.027 A 
ATOM     24  C   UNL     1       4.397  42.947  50.891  1.00  0.00     0.005 A 
ATOM     25  C   UNL     1       6.052  42.295  49.277  1.00  0.00     0.009 A 
ATOM     26  C   UNL     1       4.830  42.053  49.913  1.00  0.00    -0.051 A 
ATOM     27  C   UNL     1       8.133  43.619  48.863  1.00  0.00     0.046 C 
ATOM     28  C   UNL     1       4.040  40.818  49.604  1.00  0.00     0.044 C 
ENDBRANCH  19  21
ENDBRANCH  15  19
ENDBRANCH   1  12
TORSDOF 6
ENDMDL
MODEL 10
REMARK VINA RESULT:    -8.870      3.391      6.320
REMARK INTER + INTRA:         -12.958
REMARK INTER:                 -11.628
REMARK INTRA:                  -1.330
REMARK UNBOUND:                -0.978
REMARK SMILES COc1ccc(CNc2cc(Nc3ccc(C)cc3C)nc(C)n2)cc1
REMARK SMILES IDX 8 1 7 3 6 4 3 5 4 6 26 7 5 8 25 9 2 10 1 11 9 12 10 13 24 14
REMARK SMILES IDX 11 15 22 16 21 17 23 18 12 19 13 21 14 22 19 23 15 24 18 25
REMARK SMILES IDX 16 26 20 27 17 28
REMARK H PARENT 8 2 12 20
ROOT
ATOM      1  N   UNL     1       7.653  42.496  49.402  1.00  0.00    -0.366 N 
ATOM      2  H   UNL     1       8.070  41.800  48.790  1.00  0.00     0.162 HD
ENDROOT
BRANCH   1   3
ATOM      3  C   UNL     1       7.804  43.839  48.856  1.00  0.00     0.150 C 
BRANCH   3   4
ATOM      4  C   UNL     1       8.338  44.748  49.941  1.00  0.00    -0.029 A 
ATOM      5  C   UNL     1       9.304  46.431  51.983  1.00  0.00     0.118 A 
ATOM      6  C   UNL     1      10.152  45.513  51.358  1.00  0.00     0.047 A 
ATOM      7  C   UNL     1       7.969  46.503  51.590  1.00  0.00     0.047 A 
ATOM      8  C   UNL     1       9.676  44.676  50.346  1.00  0.00     0.009 A 
ATOM      9  C   UNL     1       7.490  45.665  50.576  1.00  0.00     0.009 A 
BRANCH   5  10
ATOM     10  O   UNL     1       9.899  47.186  52.956  1.00  0.00    -0.497 OA
ATOM     11  C   UNL     1       9.086  47.571  54.057  1.00  0.00     0.278 C 
ENDBRANCH   5  10
ENDBRANCH   3   4
ENDBRANCH   1   3
BRANCH   1  12
ATOM     12  C   UNL     1       6.331  42.137  49.714  1.00  0.00     0.132 A 
ATOM     13  C   UNL     1       5.730  42.742  50.801  1.00  0.00     0.093 A 
ATOM     14  N   UNL     1       5.662  41.275  48.938  1.00  0.00    -0.216 NA
ATOM     15  C   UNL     1       4.416  42.413  51.085  1.00  0.00     0.136 A 
ATOM     16  C   UNL     1       4.391  41.004  49.277  1.00  0.00     0.130 A 
ATOM     17  N   UNL     1       3.742  41.544  50.320  1.00  0.00    -0.216 NA
ATOM     18  C   UNL     1       3.625  40.067  48.398  1.00  0.00     0.090 C 
BRANCH  15  19
ATOM     19  N   UNL     1       3.812  43.041  52.203  1.00  0.00    -0.340 N 
ATOM     20  H   UNL     1       2.832  42.789  52.232  1.00  0.00     0.168 HD
BRANCH  19  21
ATOM     21  C   UNL     1       4.038  44.337  52.729  1.00  0.00     0.043 A 
ATOM     22  C   UNL     1       4.904  44.546  53.812  1.00  0.00     0.026 A 
ATOM     23  C   UNL     1       3.293  45.442  52.257  1.00  0.00    -0.027 A 
ATOM     24  C   UNL     1       5.089  45.814  54.373  1.00  0.00     0.005 A 
ATOM     25  C   UNL     1       3.489  46.717  52.826  1.00  0.00     0.009 A 
ATOM     26  C   UNL     1       4.398  46.915  53.869  1.00  0.00    -0.051 A 
ATOM     27  C   UNL     1       2.287  45.307  51.145  1.00  0.00     0.046 C 
ATOM     28  C   UNL     1       4.569  48.270  54.486  1.00  0.00     0.044 C 
ENDBRANCH  19  21
ENDBRANCH  15  19
ENDBRANCH   1  12
TORSDOF 6
ENDMDL
MODEL 11
REMARK VINA RESULT:    -8.796      2.162      7.120
REMARK INTER + INTRA:         -12.859
REMARK INTER:                 -12.553
REMARK INTRA:                  -0.306
REMARK UNBOUND:                -0.978
REMARK SMILES COc1ccc(CNc2cc(Nc3ccc(C)cc3C)nc(C)n2)cc1
REMARK SMILES IDX 8 1 7 3 6 4 3 5 4 6 26 7 5 8 25 9 2 10 1 11 9 12 10 13 24 14
REMARK SMILES IDX 11 15 22 16 21 17 23 18 12 19 13 21 14 22 19 23 15 24 18 25
REMARK SMILES IDX 16 26 20 27 17 28
REMARK H PARENT 8 2 12 20
ROOT
ATOM      1  N   UNL     1       5.852  45.816  51.188  1.00  0.00    -0.366 N 
ATOM      2  H   UNL     1       5.586  46.246  52.069  1.00  0.00     0.162 HD
ENDROOT
BRANCH   1   3
ATOM      3  C   UNL     1       7.280  45.959  50.938  1.00  0.00     0.150 C 
BRANCH   3   4
ATOM      4  C   UNL     1       7.943  46.478  52.194  1.00  0.00    -0.029 A 
ATOM      5  C   UNL     1       9.197  47.469  54.515  1.00  0.00     0.118 A 
ATOM      6  C   UNL     1       7.807  47.341  54.458  1.00  0.00     0.047 A 
ATOM      7  C   UNL     1       9.961  47.106  53.407  1.00  0.00     0.047 A 
ATOM      8  C   UNL     1       7.182  46.851  53.308  1.00  0.00     0.009 A 
ATOM      9  C   UNL     1       9.337  46.615  52.254  1.00  0.00     0.009 A 
BRANCH   5  10
ATOM     10  O   UNL     1       9.677  47.961  55.698  1.00  0.00    -0.497 OA
ATOM     11  C   UNL     1      10.994  47.574  56.067  1.00  0.00     0.278 C 
ENDBRANCH   5  10
ENDBRANCH   3   4
ENDBRANCH   1   3
BRANCH   1  12
ATOM     12  C   UNL     1       5.378  44.494  51.133  1.00  0.00     0.132 A 
ATOM     13  C   UNL     1       4.189  44.201  51.774  1.00  0.00     0.093 A 
ATOM     14  N   UNL     1       6.037  43.566  50.429  1.00  0.00    -0.216 NA
ATOM     15  C   UNL     1       3.706  42.907  51.689  1.00  0.00     0.136 A 
ATOM     16  C   UNL     1       5.506  42.332  50.392  1.00  0.00     0.130 A 
ATOM     17  N   UNL     1       4.364  41.969  50.994  1.00  0.00    -0.216 NA
ATOM     18  C   UNL     1       6.219  41.297  49.581  1.00  0.00     0.090 C 
BRANCH  15  19
ATOM     19  N   UNL     1       2.485  42.620  52.351  1.00  0.00    -0.340 N 
ATOM     20  H   UNL     1       1.858  42.163  51.701  1.00  0.00     0.168 HD
BRANCH  19  21
ATOM     21  C   UNL     1       1.782  43.398  53.304  1.00  0.00     0.043 A 
ATOM     22  C   UNL     1       2.450  44.278  54.167  1.00  0.00     0.026 A 
ATOM     23  C   UNL     1       0.394  43.208  53.498  1.00  0.00    -0.027 A 
ATOM     24  C   UNL     1       1.768  45.006  55.147  1.00  0.00     0.005 A 
ATOM     25  C   UNL     1      -0.285  43.950  54.485  1.00  0.00     0.009 A 
ATOM     26  C   UNL     1       0.390  44.864  55.300  1.00  0.00    -0.051 A 
ATOM     27  C   UNL     1      -0.401  42.235  52.669  1.00  0.00     0.046 C 
ATOM     28  C   UNL     1      -0.340  45.619  56.369  1.00  0.00     0.044 C 
ENDBRANCH  19  21
ENDBRANCH  15  19
ENDBRANCH   1  12
TORSDOF 6
ENDMDL
MODEL 12
REMARK VINA RESULT:    -8.787      3.438      6.625
REMARK INTER + INTRA:         -12.847
REMARK INTER:                 -11.939
REMARK INTRA:                  -0.909
REMARK UNBOUND:                -0.978
REMARK SMILES COc1ccc(CNc2cc(Nc3ccc(C)cc3C)nc(C)n2)cc1
REMARK SMILES IDX 8 1 7 3 6 4 3 5 4 6 26 7 5 8 25 9 2 10 1 11 9 12 10 13 24 14
REMARK SMILES IDX 11 15 22 16 21 17 23 18 12 19 13 21 14 22 19 23 15 24 18 25
REMARK SMILES IDX 16 26 20 27 17 28
REMARK H PARENT 8 2 12 20
ROOT
ATOM      1  N   UNL     1       4.200  41.261  50.852  1.00  0.00    -0.366 N 
ATOM      2  H   UNL     1       3.435  40.875  50.307  1.00  0.00     0.162 HD
ENDROOT
BRANCH   1   3
ATOM      3  C   UNL     1       5.384  41.468  50.028  1.00  0.00     0.150 C 
BRANCH   3   4
ATOM      4  C   UNL     1       5.007  41.272  48.577  1.00  0.00    -0.029 A 
ATOM      5  C   UNL     1       4.271  40.916  45.880  1.00  0.00     0.118 A 
ATOM      6  C   UNL     1       5.406  41.659  46.215  1.00  0.00     0.047 A 
ATOM      7  C   UNL     1       3.499  40.355  46.896  1.00  0.00     0.047 A 
ATOM      8  C   UNL     1       5.773  41.838  47.551  1.00  0.00     0.009 A 
ATOM      9  C   UNL     1       3.865  40.533  48.236  1.00  0.00     0.009 A 
BRANCH   5  10
ATOM     10  O   UNL     1       4.026  40.820  44.538  1.00  0.00    -0.497 OA
ATOM     11  C   UNL     1       5.043  40.227  43.741  1.00  0.00     0.278 C 
ENDBRANCH   5  10
ENDBRANCH   3   4
ENDBRANCH   1   3
BRANCH   1  12
ATOM     12  C   UNL     1       3.769  42.401  51.552  1.00  0.00     0.132 A 
ATOM     13  C   UNL     1       4.459  43.582  51.364  1.00  0.00     0.093 A 
ATOM     14  N   UNL     1       2.682  42.345  52.332  1.00  0.00    -0.216 NA
ATOM     15  C   UNL     1       4.011  44.711  52.027  1.00  0.00     0.136 A 
ATOM     16  C   UNL     1       2.308  43.482  52.943  1.00  0.00     0.130 A 
ATOM     17  N   UNL     1       2.930  44.663  52.817  1.00  0.00    -0.216 NA
ATOM     18  C   UNL     1       1.076  43.438  53.792  1.00  0.00     0.090 C 
BRANCH  15  19
ATOM     19  N   UNL     1       4.729  45.917  51.824  1.00  0.00    -0.340 N 
ATOM     20  H   UNL     1       4.510  46.280  50.905  1.00  0.00     0.168 HD
BRANCH  19  21
ATOM     21  C   UNL     1       6.049  46.248  52.221  1.00  0.00     0.043 A 
ATOM     22  C   UNL     1       7.145  46.026  51.375  1.00  0.00     0.026 A 
ATOM     23  C   UNL     1       6.311  46.691  53.538  1.00  0.00    -0.027 A 
ATOM     24  C   UNL     1       8.455  46.298  51.781  1.00  0.00     0.005 A 
ATOM     25  C   UNL     1       7.634  46.967  53.936  1.00  0.00     0.009 A 
ATOM     26  C   UNL     1       8.709  46.791  53.059  1.00  0.00    -0.051 A 
ATOM     27  C   UNL     1       5.209  46.893  54.544  1.00  0.00     0.046 C 
ATOM     28  C   UNL     1      10.114  47.054  53.510  1.00  0.00     0.044 C 
ENDBRANCH  19  21
ENDBRANCH  15  19
ENDBRANCH   1  12
TORSDOF 6
ENDMDL
MODEL 13
REMARK VINA RESULT:    -8.781      2.948      5.866
REMARK INTER + INTRA:         -12.839
REMARK INTER:                 -11.624
REMARK INTRA:                  -1.214
REMARK UNBOUND:                -0.978
REMARK SMILES COc1ccc(CNc2cc(Nc3ccc(C)cc3C)nc(C)n2)cc1
REMARK SMILES IDX 8 1 7 3 6 4 3 5 4 6 26 7 5 8 25 9 2 10 1 11 9 12 10 13 24 14
REMARK SMILES IDX 11 15 22 16 21 17 23 18 12 19 13 21 14 22 19 23 15 24 18 25
REMARK SMILES IDX 16 26 20 27 17 28
REMARK H PARENT 8 2 12 20
ROOT
ATOM      1  N   UNL     1       1.987  42.341  52.950  1.00  0.00    -0.366 N 
ATOM      2  H   UNL     1       1.330  41.590  53.142  1.00  0.00     0.162 HD
ENDROOT
BRANCH   1   3
ATOM      3  C   UNL     1       1.992  42.691  51.536  1.00  0.00     0.150 C 
BRANCH   3   4
ATOM      4  C   UNL     1       3.419  42.681  51.037  1.00  0.00    -0.029 A 
ATOM      5  C   UNL     1       6.090  42.677  50.138  1.00  0.00     0.118 A 
ATOM      6  C   UNL     1       5.316  41.515  50.073  1.00  0.00     0.047 A 
ATOM      7  C   UNL     1       5.528  43.842  50.658  1.00  0.00     0.047 A 
ATOM      8  C   UNL     1       3.992  41.513  50.519  1.00  0.00     0.009 A 
ATOM      9  C   UNL     1       4.201  43.842  51.106  1.00  0.00     0.009 A 
BRANCH   5  10
ATOM     10  O   UNL     1       7.368  42.539  49.669  1.00  0.00    -0.497 OA
ATOM     11  C   UNL     1       8.027  43.725  49.245  1.00  0.00     0.278 C 
ENDBRANCH   5  10
ENDBRANCH   3   4
ENDBRANCH   1   3
BRANCH   1  12
ATOM     12  C   UNL     1       1.756  43.420  53.819  1.00  0.00     0.132 A 
ATOM     13  C   UNL     1       2.801  44.287  54.076  1.00  0.00     0.093 A 
ATOM     14  N   UNL     1       0.537  43.627  54.334  1.00  0.00    -0.216 NA
ATOM     15  C   UNL     1       2.561  45.369  54.904  1.00  0.00     0.136 A 
ATOM     16  C   UNL     1       0.381  44.698  55.129  1.00  0.00     0.130 A 
ATOM     17  N   UNL     1       1.347  45.578  55.431  1.00  0.00    -0.216 NA
ATOM     18  C   UNL     1      -0.985  44.956  55.683  1.00  0.00     0.090 C 
BRANCH  15  19
ATOM     19  N   UNL     1       3.642  46.250  55.159  1.00  0.00    -0.340 N 
ATOM     20  H   UNL     1       3.280  47.111  55.549  1.00  0.00     0.168 HD
BRANCH  19  21
ATOM     21  C   UNL     1       4.814  46.470  54.392  1.00  0.00     0.043 A 
ATOM     22  C   UNL     1       6.086  46.161  54.895  1.00  0.00     0.026 A 
ATOM     23  C   UNL     1       4.740  47.133  53.145  1.00  0.00    -0.027 A 
ATOM     24  C   UNL     1       7.250  46.428  54.167  1.00  0.00     0.005 A 
ATOM     25  C   UNL     1       5.918  47.393  52.417  1.00  0.00     0.009 A 
ATOM     26  C   UNL     1       7.173  47.028  52.911  1.00  0.00    -0.051 A 
ATOM     27  C   UNL     1       3.426  47.568  52.552  1.00  0.00     0.046 C 
ATOM     28  C   UNL     1       8.419  47.344  52.140  1.00  0.00     0.044 C 
ENDBRANCH  19  21
ENDBRANCH  15  19
ENDBRANCH   1  12
TORSDOF 6
ENDMDL
MODEL 14
REMARK VINA RESULT:    -8.693      2.962      5.854
REMARK INTER + INTRA:         -12.720
REMARK INTER:                 -11.282
REMARK INTRA:                  -1.438
REMARK UNBOUND:                -0.978
REMARK SMILES COc1ccc(CNc2cc(Nc3ccc(C)cc3C)nc(C)n2)cc1
REMARK SMILES IDX 8 1 7 3 6 4 3 5 4 6 26 7 5 8 25 9 2 10 1 11 9 12 10 13 24 14
REMARK SMILES IDX 11 15 22 16 21 17 23 18 12 19 13 21 14 22 19 23 15 24 18 25
REMARK SMILES IDX 16 26 20 27 17 28
REMARK H PARENT 8 2 12 20
ROOT
ATOM      1  N   UNL     1       1.931  42.321  52.708  1.00  0.00    -0.366 N 
ATOM      2  H   UNL     1       1.232  41.593  52.831  1.00  0.00     0.162 HD
ENDROOT
BRANCH   1   3
ATOM      3  C   UNL     1       2.042  42.717  51.310  1.00  0.00     0.150 C 
BRANCH   3   4
ATOM      4  C   UNL     1       3.495  42.639  50.898  1.00  0.00    -0.029 A 
ATOM      5  C   UNL     1       6.193  42.479  50.099  1.00  0.00     0.118 A 
ATOM      6  C   UNL     1       5.670  43.673  50.603  1.00  0.00     0.047 A 
ATOM      7  C   UNL     1       5.363  41.364  49.990  1.00  0.00     0.047 A 
ATOM      8  C   UNL     1       4.333  43.756  50.999  1.00  0.00     0.009 A 
ATOM      9  C   UNL     1       4.022  41.445  50.386  1.00  0.00     0.009 A 
BRANCH   5  10
ATOM     10  O   UNL     1       7.514  42.537  49.749  1.00  0.00    -0.497 OA
ATOM     11  C   UNL     1       7.994  43.781  49.257  1.00  0.00     0.278 C 
ENDBRANCH   5  10
ENDBRANCH   3   4
ENDBRANCH   1   3
BRANCH   1  12
ATOM     12  C   UNL     1       1.687  43.380  53.598  1.00  0.00     0.132 A 
ATOM     13  C   UNL     1       2.700  44.293  53.819  1.00  0.00     0.093 A 
ATOM     14  N   UNL     1       0.483  43.525  54.167  1.00  0.00    -0.216 NA
ATOM     15  C   UNL     1       2.446  45.355  54.669  1.00  0.00     0.136 A 
ATOM     16  C   UNL     1       0.312  44.580  54.980  1.00  0.00     0.130 A 
ATOM     17  N   UNL     1       1.247  45.503  55.250  1.00  0.00    -0.216 NA
ATOM     18  C   UNL     1      -1.040  44.768  55.595  1.00  0.00     0.090 C 
BRANCH  15  19
ATOM     19  N   UNL     1       3.495  46.285  54.886  1.00  0.00    -0.340 N 
ATOM     20  H   UNL     1       3.094  47.184  55.122  1.00  0.00     0.168 HD
BRANCH  19  21
ATOM     21  C   UNL     1       4.725  46.421  54.195  1.00  0.00     0.043 A 
ATOM     22  C   UNL     1       4.834  47.215  53.045  1.00  0.00     0.026 A 
ATOM     23  C   UNL     1       5.848  45.650  54.575  1.00  0.00    -0.027 A 
ATOM     24  C   UNL     1       6.030  47.309  52.327  1.00  0.00     0.005 A 
ATOM     25  C   UNL     1       7.050  45.755  53.847  1.00  0.00     0.009 A 
ATOM     26  C   UNL     1       7.155  46.595  52.735  1.00  0.00    -0.051 A 
ATOM     27  C   UNL     1       5.810  44.714  55.754  1.00  0.00     0.046 C 
ATOM     28  C   UNL     1       8.431  46.668  51.951  1.00  0.00     0.044 C 
ENDBRANCH  19  21
ENDBRANCH  15  19
ENDBRANCH   1  12
TORSDOF 6
ENDMDL
MODEL 15
REMARK VINA RESULT:    -8.692      2.827      6.648
REMARK INTER + INTRA:         -12.718
REMARK INTER:                 -11.896
REMARK INTRA:                  -0.823
REMARK UNBOUND:                -0.978
REMARK SMILES COc1ccc(CNc2cc(Nc3ccc(C)cc3C)nc(C)n2)cc1
REMARK SMILES IDX 8 1 7 3 6 4 3 5 4 6 26 7 5 8 25 9 2 10 1 11 9 12 10 13 24 14
REMARK SMILES IDX 11 15 22 16 21 17 23 18 12 19 13 21 14 22 19 23 15 24 18 25
REMARK SMILES IDX 16 26 20 27 17 28
REMARK H PARENT 8 2 12 20
ROOT
ATOM      1  N   UNL     1       4.277  46.398  55.289  1.00  0.00    -0.366 N 
ATOM      2  H   UNL     1       5.100  45.897  55.611  1.00  0.00     0.162 HD
ENDROOT
BRANCH   1   3
ATOM      3  C   UNL     1       4.643  47.571  54.506  1.00  0.00     0.150 C 
BRANCH   3   4
ATOM      4  C   UNL     1       6.041  47.376  53.964  1.00  0.00    -0.029 A 
ATOM      5  C   UNL     1       8.646  47.046  52.941  1.00  0.00     0.118 A 
ATOM      6  C   UNL     1       8.345  46.673  54.253  1.00  0.00     0.047 A 
ATOM      7  C   UNL     1       7.643  47.590  52.140  1.00  0.00     0.047 A 
ATOM      8  C   UNL     1       7.055  46.836  54.764  1.00  0.00     0.009 A 
ATOM      9  C   UNL     1       6.350  47.755  52.650  1.00  0.00     0.009 A 
BRANCH   5  10
ATOM     10  O   UNL     1       9.945  46.832  52.570  1.00  0.00    -0.497 OA
ATOM     11  C   UNL     1      10.176  45.833  51.586  1.00  0.00     0.278 C 
ENDBRANCH   5  10
ENDBRANCH   3   4
ENDBRANCH   1   3
BRANCH   1  12
ATOM     12  C   UNL     1       3.396  45.515  54.642  1.00  0.00     0.132 A 
ATOM     13  C   UNL     1       3.892  44.736  53.615  1.00  0.00     0.093 A 
ATOM     14  N   UNL     1       2.128  45.398  55.056  1.00  0.00    -0.216 NA
ATOM     15  C   UNL     1       3.031  43.841  53.002  1.00  0.00     0.136 A 
ATOM     16  C   UNL     1       1.353  44.509  54.413  1.00  0.00     0.130 A 
ATOM     17  N   UNL     1       1.758  43.724  53.404  1.00  0.00    -0.216 NA
ATOM     18  C   UNL     1      -0.056  44.347  54.890  1.00  0.00     0.090 C 
BRANCH  15  19
ATOM     19  N   UNL     1       3.553  43.048  51.950  1.00  0.00    -0.340 N 
ATOM     20  H   UNL     1       3.380  42.072  52.156  1.00  0.00     0.168 HD
BRANCH  19  21
ATOM     21  C   UNL     1       4.745  43.226  51.204  1.00  0.00     0.043 A 
ATOM     22  C   UNL     1       5.517  44.390  51.324  1.00  0.00     0.026 A 
ATOM     23  C   UNL     1       5.119  42.284  50.217  1.00  0.00    -0.027 A 
ATOM     24  C   UNL     1       6.664  44.596  50.551  1.00  0.00     0.005 A 
ATOM     25  C   UNL     1       6.278  42.499  49.445  1.00  0.00     0.009 A 
ATOM     26  C   UNL     1       7.066  43.641  49.618  1.00  0.00    -0.051 A 
ATOM     27  C   UNL     1       4.316  41.036  49.962  1.00  0.00     0.046 C 
ATOM     28  C   UNL     1       8.276  43.871  48.765  1.00  0.00     0.044 C 
ENDBRANCH  19  21
ENDBRANCH  15  19
ENDBRANCH   1  12
TORSDOF 6
ENDMDL
MODEL 16
REMARK VINA RESULT:    -8.689      3.679      6.706
REMARK INTER + INTRA:         -12.714
REMARK INTER:                 -12.024
REMARK INTRA:                  -0.690
REMARK UNBOUND:                -0.978
REMARK SMILES COc1ccc(CNc2cc(Nc3ccc(C)cc3C)nc(C)n2)cc1
REMARK SMILES IDX 8 1 7 3 6 4 3 5 4 6 26 7 5 8 25 9 2 10 1 11 9 12 10 13 24 14
REMARK SMILES IDX 11 15 22 16 21 17 23 18 12 19 13 21 14 22 19 23 15 24 18 25
REMARK SMILES IDX 16 26 20 27 17 28
REMARK H PARENT 8 2 12 20
ROOT
ATOM      1  N   UNL     1       6.412  41.792  49.226  1.00  0.00    -0.366 N 
ATOM      2  H   UNL     1       5.969  40.879  49.268  1.00  0.00     0.162 HD
ENDROOT
BRANCH   1   3
ATOM      3  C   UNL     1       6.445  42.303  47.862  1.00  0.00     0.150 C 
BRANCH   3   4
ATOM      4  C   UNL     1       5.372  41.605  47.056  1.00  0.00    -0.029 A 
ATOM      5  C   UNL     1       3.397  40.294  45.533  1.00  0.00     0.118 A 
ATOM      6  C   UNL     1       3.466  40.110  46.916  1.00  0.00     0.047 A 
ATOM      7  C   UNL     1       4.321  41.131  44.910  1.00  0.00     0.047 A 
ATOM      8  C   UNL     1       4.445  40.758  47.674  1.00  0.00     0.009 A 
ATOM      9  C   UNL     1       5.303  41.781  45.667  1.00  0.00     0.009 A 
BRANCH   5  10
ATOM     10  O   UNL     1       2.393  39.601  44.914  1.00  0.00    -0.497 OA
ATOM     11  C   UNL     1       1.834  38.507  45.628  1.00  0.00     0.278 C 
ENDBRANCH   5  10
ENDBRANCH   3   4
ENDBRANCH   1   3
BRANCH   1  12
ATOM     12  C   UNL     1       5.821  42.659  50.161  1.00  0.00     0.132 A 
ATOM     13  C   UNL     1       6.386  43.908  50.341  1.00  0.00     0.093 A 
ATOM     14  N   UNL     1       4.709  42.298  50.812  1.00  0.00    -0.216 NA
ATOM     15  C   UNL     1       5.782  44.773  51.236  1.00  0.00     0.136 A 
ATOM     16  C   UNL     1       4.180  43.192  51.665  1.00  0.00     0.130 A 
ATOM     17  N   UNL     1       4.674  44.417  51.898  1.00  0.00    -0.216 NA
ATOM     18  C   UNL     1       2.918  42.810  52.373  1.00  0.00     0.090 C 
BRANCH  15  19
ATOM     19  N   UNL     1       6.372  46.051  51.410  1.00  0.00    -0.340 N 
ATOM     20  H   UNL     1       6.479  46.490  50.504  1.00  0.00     0.168 HD
BRANCH  19  21
ATOM     21  C   UNL     1       7.390  46.449  52.312  1.00  0.00     0.043 A 
ATOM     22  C   UNL     1       8.747  46.365  51.968  1.00  0.00     0.026 A 
ATOM     23  C   UNL     1       7.066  46.821  53.637  1.00  0.00    -0.027 A 
ATOM     24  C   UNL     1       9.757  46.703  52.873  1.00  0.00     0.005 A 
ATOM     25  C   UNL     1       8.092  47.164  54.541  1.00  0.00     0.009 A 
ATOM     26  C   UNL     1       9.437  47.126  54.162  1.00  0.00    -0.051 A 
ATOM     27  C   UNL     1       5.643  46.874  54.124  1.00  0.00     0.046 C 
ATOM     28  C   UNL     1      10.517  47.460  55.146  1.00  0.00     0.044 C 
ENDBRANCH  19  21
ENDBRANCH  15  19
ENDBRANCH   1  12
TORSDOF 6
ENDMDL
MODEL 17
REMARK VINA RESULT:    -8.676      1.722      2.521
REMARK INTER + INTRA:         -12.696
REMARK INTER:                 -12.046
REMARK INTRA:                  -0.650
REMARK UNBOUND:                -0.978
REMARK SMILES COc1ccc(CNc2cc(Nc3ccc(C)cc3C)nc(C)n2)cc1
REMARK SMILES IDX 8 1 7 3 6 4 3 5 4 6 26 7 5 8 25 9 2 10 1 11 9 12 10 13 24 14
REMARK SMILES IDX 11 15 22 16 21 17 23 18 12 19 13 21 14 22 19 23 15 24 18 25
REMARK SMILES IDX 16 26 20 27 17 28
REMARK H PARENT 8 2 12 20
ROOT
ATOM      1  N   UNL     1       3.491  42.819  52.702  1.00  0.00    -0.366 N 
ATOM      2  H   UNL     1       3.911  42.284  53.457  1.00  0.00     0.162 HD
ENDROOT
BRANCH   1   3
ATOM      3  C   UNL     1       2.771  43.978  53.213  1.00  0.00     0.150 C 
BRANCH   3   4
ATOM      4  C   UNL     1       1.286  43.700  53.137  1.00  0.00    -0.029 A 
ATOM      5  C   UNL     1      -1.486  43.215  53.006  1.00  0.00     0.118 A 
ATOM      6  C   UNL     1      -0.651  42.857  51.944  1.00  0.00     0.047 A 
ATOM      7  C   UNL     1      -0.934  43.822  54.133  1.00  0.00     0.047 A 
ATOM      8  C   UNL     1       0.724  43.097  52.006  1.00  0.00     0.009 A 
ATOM      9  C   UNL     1       0.443  44.064  54.196  1.00  0.00     0.009 A 
BRANCH   5  10
ATOM     10  O   UNL     1      -2.809  42.925  52.814  1.00  0.00    -0.497 OA
ATOM     11  C   UNL     1      -3.399  43.383  51.605  1.00  0.00     0.278 C 
ENDBRANCH   5  10
ENDBRANCH   3   4
ENDBRANCH   1   3
BRANCH   1  12
ATOM     12  C   UNL     1       4.455  43.113  51.723  1.00  0.00     0.132 A 
ATOM     13  C   UNL     1       5.120  44.322  51.805  1.00  0.00     0.093 A 
ATOM     14  N   UNL     1       4.754  42.216  50.776  1.00  0.00    -0.216 NA
ATOM     15  C   UNL     1       6.093  44.594  50.861  1.00  0.00     0.136 A 
ATOM     16  C   UNL     1       5.711  42.552  49.894  1.00  0.00     0.130 A 
ATOM     17  N   UNL     1       6.393  43.706  49.903  1.00  0.00    -0.216 NA
ATOM     18  C   UNL     1       6.075  41.543  48.851  1.00  0.00     0.090 C 
BRANCH  15  19
ATOM     19  N   UNL     1       6.768  45.838  50.957  1.00  0.00    -0.340 N 
ATOM     20  H   UNL     1       7.045  46.134  50.029  1.00  0.00     0.168 HD
BRANCH  19  21
ATOM     21  C   UNL     1       7.676  46.287  51.948  1.00  0.00     0.043 A 
ATOM     22  C   UNL     1       9.047  46.009  51.863  1.00  0.00     0.026 A 
ATOM     23  C   UNL     1       7.201  46.919  53.120  1.00  0.00    -0.027 A 
ATOM     24  C   UNL     1       9.941  46.401  52.865  1.00  0.00     0.005 A 
ATOM     25  C   UNL     1       8.110  47.313  54.123  1.00  0.00     0.009 A 
ATOM     26  C   UNL     1       9.482  47.075  53.995  1.00  0.00    -0.051 A 
ATOM     27  C   UNL     1       5.738  47.199  53.337  1.00  0.00     0.046 C 
ATOM     28  C   UNL     1      10.430  47.470  55.086  1.00  0.00     0.044 C 
ENDBRANCH  19  21
ENDBRANCH  15  19
ENDBRANCH   1  12
TORSDOF 6
ENDMDL
MODEL 18
REMARK VINA RESULT:    -8.594      2.388      7.018
REMARK INTER + INTRA:         -12.586
REMARK INTER:                 -11.776
REMARK INTRA:                  -0.810
REMARK UNBOUND:                -0.978
REMARK SMILES COc1ccc(CNc2cc(Nc3ccc(C)cc3C)nc(C)n2)cc1
REMARK SMILES IDX 8 1 7 3 6 4 3 5 4 6 26 7 5 8 25 9 2 10 1 11 9 12 10 13 24 14
REMARK SMILES IDX 11 15 22 16 21 17 23 18 12 19 13 21 14 22 19 23 15 24 18 25
REMARK SMILES IDX 16 26 20 27 17 28
REMARK H PARENT 8 2 12 20
ROOT
ATOM      1  N   UNL     1       7.354  44.790  50.695  1.00  0.00    -0.366 N 
ATOM      2  H   UNL     1       7.711  44.420  49.819  1.00  0.00     0.162 HD
ENDROOT
BRANCH   1   3
ATOM      3  C   UNL     1       7.446  46.244  50.732  1.00  0.00     0.150 C 
BRANCH   3   4
ATOM      4  C   UNL     1       8.084  46.656  52.040  1.00  0.00    -0.029 A 
ATOM      5  C   UNL     1       9.297  47.444  54.458  1.00  0.00     0.118 A 
ATOM      6  C   UNL     1       7.915  47.562  54.284  1.00  0.00     0.047 A 
ATOM      7  C   UNL     1      10.073  46.935  53.419  1.00  0.00     0.047 A 
ATOM      8  C   UNL     1       7.311  47.174  53.086  1.00  0.00     0.009 A 
ATOM      9  C   UNL     1       9.470  46.546  52.217  1.00  0.00     0.009 A 
BRANCH   5  10
ATOM     10  O   UNL     1       9.757  47.861  55.677  1.00  0.00    -0.497 OA
ATOM     11  C   UNL     1      11.079  47.478  56.030  1.00  0.00     0.278 C 
ENDBRANCH   5  10
ENDBRANCH   3   4
ENDBRANCH   1   3
BRANCH   1  12
ATOM     12  C   UNL     1       6.070  44.278  50.947  1.00  0.00     0.132 A 
ATOM     13  C   UNL     1       5.131  45.121  51.510  1.00  0.00     0.093 A 
ATOM     14  N   UNL     1       5.758  43.025  50.594  1.00  0.00    -0.216 NA
ATOM     15  C   UNL     1       3.857  44.626  51.725  1.00  0.00     0.136 A 
ATOM     16  C   UNL     1       4.501  42.615  50.834  1.00  0.00     0.130 A 
ATOM     17  N   UNL     1       3.538  43.370  51.383  1.00  0.00    -0.216 NA
ATOM     18  C   UNL     1       4.134  41.227  50.413  1.00  0.00     0.090 C 
BRANCH  15  19
ATOM     19  N   UNL     1       2.904  45.502  52.304  1.00  0.00    -0.340 N 
ATOM     20  H   UNL     1       3.281  46.441  52.309  1.00  0.00     0.168 HD
BRANCH  19  21
ATOM     21  C   UNL     1       2.034  45.277  53.400  1.00  0.00     0.043 A 
ATOM     22  C   UNL     1       0.698  44.896  53.208  1.00  0.00     0.026 A 
ATOM     23  C   UNL     1       2.457  45.560  54.719  1.00  0.00    -0.027 A 
ATOM     24  C   UNL     1      -0.180  44.727  54.283  1.00  0.00     0.005 A 
ATOM     25  C   UNL     1       1.565  45.382  55.796  1.00  0.00     0.009 A 
ATOM     26  C   UNL     1       0.252  44.949  55.589  1.00  0.00    -0.051 A 
ATOM     27  C   UNL     1       3.851  46.041  55.022  1.00  0.00     0.046 C 
ATOM     28  C   UNL     1      -0.693  44.800  56.742  1.00  0.00     0.044 C 
ENDBRANCH  19  21
ENDBRANCH  15  19
ENDBRANCH   1  12
TORSDOF 6
ENDMDL
MODEL 19
REMARK VINA RESULT:    -8.579      2.732      6.134
REMARK INTER + INTRA:         -12.566
REMARK INTER:                 -11.435
REMARK INTRA:                  -1.131
REMARK UNBOUND:                -0.978
REMARK SMILES COc1ccc(CNc2cc(Nc3ccc(C)cc3C)nc(C)n2)cc1
REMARK SMILES IDX 8 1 7 3 6 4 3 5 4 6 26 7 5 8 25 9 2 10 1 11 9 12 10 13 24 14
REMARK SMILES IDX 11 15 22 16 21 17 23 18 12 19 13 21 14 22 19 23 15 24 18 25
REMARK SMILES IDX 16 26 20 27 17 28
REMARK H PARENT 8 2 12 20
ROOT
ATOM      1  N   UNL     1       2.409  44.612  55.586  1.00  0.00    -0.366 N 
ATOM      2  H   UNL     1       3.221  44.022  55.745  1.00  0.00     0.162 HD
ENDROOT
BRANCH   1   3
ATOM      3  C   UNL     1       2.778  46.021  55.556  1.00  0.00     0.150 C 
BRANCH   3   4
ATOM      4  C   UNL     1       4.073  46.169  54.789  1.00  0.00    -0.029 A 
ATOM      5  C   UNL     1       6.485  46.410  53.353  1.00  0.00     0.118 A 
ATOM      6  C   UNL     1       5.406  47.252  53.076  1.00  0.00     0.047 A 
ATOM      7  C   UNL     1       6.356  45.441  54.347  1.00  0.00     0.047 A 
ATOM      8  C   UNL     1       4.208  47.135  53.785  1.00  0.00     0.009 A 
ATOM      9  C   UNL     1       5.156  45.322  55.059  1.00  0.00     0.009 A 
BRANCH   5  10
ATOM     10  O   UNL     1       7.595  46.632  52.585  1.00  0.00    -0.497 OA
ATOM     11  C   UNL     1       7.867  47.979  52.224  1.00  0.00     0.278 C 
ENDBRANCH   5  10
ENDBRANCH   3   4
ENDBRANCH   1   3
BRANCH   1  12
ATOM     12  C   UNL     1       1.703  44.168  54.456  1.00  0.00     0.132 A 
ATOM     13  C   UNL     1       2.399  43.482  53.479  1.00  0.00     0.093 A 
ATOM     14  N   UNL     1       0.381  44.358  54.365  1.00  0.00    -0.216 NA
ATOM     15  C   UNL     1       1.695  43.015  52.384  1.00  0.00     0.136 A 
ATOM     16  C   UNL     1      -0.234  43.876  53.272  1.00  0.00     0.130 A 
ATOM     17  N   UNL     1       0.373  43.208  52.280  1.00  0.00    -0.216 NA
ATOM     18  C   UNL     1      -1.717  44.055  53.177  1.00  0.00     0.090 C 
BRANCH  15  19
ATOM     19  N   UNL     1       2.422  42.313  51.389  1.00  0.00    -0.340 N 
ATOM     20  H   UNL     1       2.208  41.326  51.460  1.00  0.00     0.168 HD
BRANCH  19  21
ATOM     21  C   UNL     1       3.743  42.533  50.926  1.00  0.00     0.043 A 
ATOM     22  C   UNL     1       4.461  43.684  51.283  1.00  0.00     0.026 A 
ATOM     23  C   UNL     1       4.326  41.658  49.981  1.00  0.00    -0.027 A 
ATOM     24  C   UNL     1       5.743  43.935  50.785  1.00  0.00     0.005 A 
ATOM     25  C   UNL     1       5.621  41.917  49.488  1.00  0.00     0.009 A 
ATOM     26  C   UNL     1       6.343  43.042  49.899  1.00  0.00    -0.051 A 
ATOM     27  C   UNL     1       3.607  40.433  49.482  1.00  0.00     0.046 C 
ATOM     28  C   UNL     1       7.704  43.322  49.338  1.00  0.00     0.044 C 
ENDBRANCH  19  21
ENDBRANCH  15  19
ENDBRANCH   1  12
TORSDOF 6
ENDMDL
MODEL 20
REMARK VINA RESULT:    -8.448      2.671      5.793
REMARK INTER + INTRA:         -12.388
REMARK INTER:                 -10.799
REMARK INTRA:                  -1.589
REMARK UNBOUND:                -0.978
REMARK SMILES COc1ccc(CNc2cc(Nc3ccc(C)cc3C)nc(C)n2)cc1
REMARK SMILES IDX 8 1 7 3 6 4 3 5 4 6 26 7 5 8 25 9 2 10 1 11 9 12 10 13 24 14
REMARK SMILES IDX 11 15 22 16 21 17 23 18 12 19 13 21 14 22 19 23 15 24 18 25
REMARK SMILES IDX 16 26 20 27 17 28
REMARK H PARENT 8 2 12 20
ROOT
ATOM      1  N   UNL     1       2.448  44.685  55.947  1.00  0.00    -0.366 N 
ATOM      2  H   UNL     1       3.190  43.994  56.021  1.00  0.00     0.162 HD
ENDROOT
BRANCH   1   3
ATOM      3  C   UNL     1       2.979  46.040  56.002  1.00  0.00     0.150 C 
BRANCH   3   4
ATOM      4  C   UNL     1       4.293  46.078  55.253  1.00  0.00    -0.029 A 
ATOM      5  C   UNL     1       6.733  46.116  53.845  1.00  0.00     0.118 A 
ATOM      6  C   UNL     1       5.831  47.178  53.733  1.00  0.00     0.047 A 
ATOM      7  C   UNL     1       6.411  45.031  54.658  1.00  0.00     0.047 A 
ATOM      8  C   UNL     1       4.620  47.162  54.429  1.00  0.00     0.009 A 
ATOM      9  C   UNL     1       5.197  45.013  55.356  1.00  0.00     0.009 A 
BRANCH   5  10
ATOM     10  O   UNL     1       7.878  46.260  53.110  1.00  0.00    -0.497 OA
ATOM     11  C   UNL     1       8.080  47.515  52.475  1.00  0.00     0.278 C 
ENDBRANCH   5  10
ENDBRANCH   3   4
ENDBRANCH   1   3
BRANCH   1  12
ATOM     12  C   UNL     1       1.646  44.415  54.826  1.00  0.00     0.132 A 
ATOM     13  C   UNL     1       2.270  44.227  53.608  1.00  0.00     0.093 A 
ATOM     14  N   UNL     1       0.319  44.289  54.956  1.00  0.00    -0.216 NA
ATOM     15  C   UNL     1       1.481  43.926  52.511  1.00  0.00     0.136 A 
ATOM     16  C   UNL     1      -0.380  43.997  53.846  1.00  0.00     0.130 A 
ATOM     17  N   UNL     1       0.152  43.807  52.630  1.00  0.00    -0.216 NA
ATOM     18  C   UNL     1      -1.860  43.822  53.988  1.00  0.00     0.090 C 
BRANCH  15  19
ATOM     19  N   UNL     1       2.135  43.735  51.268  1.00  0.00    -0.340 N 
ATOM     20  H   UNL     1       1.755  42.910  50.820  1.00  0.00     0.168 HD
BRANCH  19  21
ATOM     21  C   UNL     1       3.498  43.936  50.935  1.00  0.00     0.043 A 
ATOM     22  C   UNL     1       4.394  42.862  50.843  1.00  0.00     0.026 A 
ATOM     23  C   UNL     1       4.020  45.245  50.815  1.00  0.00    -0.027 A 
ATOM     24  C   UNL     1       5.752  43.058  50.571  1.00  0.00     0.005 A 
ATOM     25  C   UNL     1       5.388  45.432  50.536  1.00  0.00     0.009 A 
ATOM     26  C   UNL     1       6.256  44.345  50.394  1.00  0.00    -0.051 A 
ATOM     27  C   UNL     1       3.152  46.465  50.966  1.00  0.00     0.046 C 
ATOM     28  C   UNL     1       7.716  44.563  50.132  1.00  0.00     0.044 C 
ENDBRANCH  19  21
ENDBRANCH  15  19
ENDBRANCH   1  12
TORSDOF 6
ENDMDL
