MODEL 1
REMARK VINA RESULT:    -7.880      0.000      0.000
REMARK INTER + INTRA:         -12.067
REMARK INTER:                 -11.335
REMARK INTRA:                  -0.731
REMARK UNBOUND:                -0.731
REMARK SMILES OCCOCCNc1nc(-c2ccc(Cl)cc2)nc2c1CCC2
REMARK SMILES IDX 5 1 4 2 3 3 2 4 1 5 6 7 7 8 8 10 9 11 20 12 10 13 19 14
REMARK SMILES IDX 21 15 18 16 23 17 22 18 11 19 12 20 17 21 13 22 16 23 14 24
REMARK SMILES IDX 15 25
REMARK H PARENT 1 6 7 9
ROOT
ATOM      1  C   UNL     1       7.061  43.337  49.152  1.00  0.00     0.181 C 
ENDROOT
BRANCH   1   2
ATOM      2  O   UNL     1       6.566  42.484  50.196  1.00  0.00    -0.377 OA
BRANCH   2   3
ATOM      3  C   UNL     1       5.562  41.568  49.742  1.00  0.00     0.188 C 
BRANCH   3   4
ATOM      4  C   UNL     1       4.321  41.555  50.636  1.00  0.00     0.184 C 
BRANCH   4   5
ATOM      5  O   UNL     1       3.513  40.413  50.358  1.00  0.00    -0.394 OA
ATOM      6  H   UNL     1       4.112  39.708  50.058  1.00  0.00     0.210 HD
ENDBRANCH   4   5
ENDBRANCH   3   4
ENDBRANCH   2   3
ENDBRANCH   1   2
BRANCH   1   7
ATOM      7  C   UNL     1       8.158  44.241  49.728  1.00  0.00     0.143 C 
BRANCH   7   8
ATOM      8  N   UNL     1       7.603  45.573  49.988  1.00  0.00    -0.367 N 
ATOM      9  H   UNL     1       6.780  45.716  49.404  1.00  0.00     0.162 HD
BRANCH   8  10
ATOM     10  C   UNL     1       7.288  45.827  51.330  1.00  0.00     0.133 A 
ATOM     11  N   UNL     1       6.080  45.505  51.824  1.00  0.00    -0.211 NA
ATOM     12  C   UNL     1       8.248  46.350  52.157  1.00  0.00     0.016 A 
ATOM     13  C   UNL     1       5.831  45.750  53.135  1.00  0.00     0.161 A 
ATOM     14  C   UNL     1       7.904  46.567  53.474  1.00  0.00     0.050 A 
ATOM     15  C   UNL     1       9.647  46.781  51.882  1.00  0.00     0.042 C 
ATOM     16  N   UNL     1       6.709  46.293  54.001  1.00  0.00    -0.233 NA
ATOM     17  C   UNL     1       9.040  47.192  54.231  1.00  0.00     0.057 C 
ATOM     18  C   UNL     1      10.219  46.862  53.306  1.00  0.00     0.011 C 
BRANCH  13  19
ATOM     19  C   UNL     1       4.489  45.398  53.650  1.00  0.00     0.019 A 
ATOM     20  C   UNL     1       3.623  44.548  52.930  1.00  0.00     0.013 A 
ATOM     21  C   UNL     1       4.017  45.896  54.882  1.00  0.00     0.013 A 
ATOM     22  C   UNL     1       2.354  44.212  53.415  1.00  0.00     0.021 A 
ATOM     23  C   UNL     1       2.749  45.564  55.372  1.00  0.00     0.021 A 
ATOM     24  C   UNL     1       1.922  44.722  54.634  1.00  0.00     0.041 A 
ATOM     25  Cl  UNL     1       0.363  44.311  55.233  1.00  0.00    -0.084 Cl
ENDBRANCH  13  19
ENDBRANCH   8  10
ENDBRANCH   7   8
ENDBRANCH   1   7
TORSDOF 8
ENDMDL
MODEL 2
REMARK VINA RESULT:    -7.843      2.792      5.845
REMARK INTER + INTRA:         -12.013
REMARK INTER:                 -11.211
REMARK INTRA:                  -0.802
REMARK UNBOUND:                -0.731
REMARK SMILES OCCOCCNc1nc(-c2ccc(Cl)cc2)nc2c1CCC2
REMARK SMILES IDX 5 1 4 2 3 3 2 4 1 5 6 7 7 8 8 10 9 11 20 12 10 13 19 14
REMARK SMILES IDX 21 15 18 16 23 17 22 18 11 19 12 20 17 21 13 22 16 23 14 24
REMARK SMILES IDX 15 25
REMARK H PARENT 1 6 7 9
ROOT
ATOM      1  C   UNL     1       4.067  40.863  49.150  1.00  0.00     0.181 C 
ENDROOT
BRANCH   1   2
ATOM      2  O   UNL     1       5.353  41.174  48.592  1.00  0.00    -0.377 OA
BRANCH   2   3
ATOM      3  C   UNL     1       6.272  41.697  49.559  1.00  0.00     0.188 C 
BRANCH   3   4
ATOM      4  C   UNL     1       6.873  43.040  49.143  1.00  0.00     0.184 C 
BRANCH   4   5
ATOM      5  O   UNL     1       8.294  43.020  49.283  1.00  0.00    -0.394 OA
ATOM      6  H   UNL     1       8.488  43.214  50.216  1.00  0.00     0.210 HD
ENDBRANCH   4   5
ENDBRANCH   3   4
ENDBRANCH   2   3
ENDBRANCH   1   2
BRANCH   1   7
ATOM      7  C   UNL     1       4.093  41.166  50.654  1.00  0.00     0.143 C 
BRANCH   7   8
ATOM      8  N   UNL     1       2.885  41.913  51.020  1.00  0.00    -0.367 N 
ATOM      9  H   UNL     1       2.163  41.260  51.326  1.00  0.00     0.162 HD
BRANCH   8  10
ATOM     10  C   UNL     1       3.077  42.902  51.993  1.00  0.00     0.133 A 
ATOM     11  N   UNL     1       4.233  43.586  52.058  1.00  0.00    -0.211 NA
ATOM     12  C   UNL     1       2.049  43.215  52.844  1.00  0.00     0.016 A 
ATOM     13  C   UNL     1       4.362  44.551  53.004  1.00  0.00     0.161 A 
ATOM     14  C   UNL     1       2.272  44.208  53.775  1.00  0.00     0.050 A 
ATOM     15  C   UNL     1       0.684  42.635  52.984  1.00  0.00     0.042 C 
ATOM     16  N   UNL     1       3.412  44.891  53.897  1.00  0.00    -0.233 NA
ATOM     17  C   UNL     1       1.075  44.392  54.663  1.00  0.00     0.057 C 
ATOM     18  C   UNL     1      -0.016  43.720  53.819  1.00  0.00     0.011 C 
BRANCH  13  19
ATOM     19  C   UNL     1       5.649  45.279  53.061  1.00  0.00     0.019 A 
ATOM     20  C   UNL     1       6.145  45.805  54.273  1.00  0.00     0.013 A 
ATOM     21  C   UNL     1       6.435  45.480  51.908  1.00  0.00     0.013 A 
ATOM     22  C   UNL     1       7.362  46.494  54.330  1.00  0.00     0.021 A 
ATOM     23  C   UNL     1       7.653  46.168  51.959  1.00  0.00     0.021 A 
ATOM     24  C   UNL     1       8.111  46.672  53.172  1.00  0.00     0.041 A 
ATOM     25  Cl  UNL     1       9.607  47.518  53.239  1.00  0.00    -0.084 Cl
ENDBRANCH  13  19
ENDBRANCH   8  10
ENDBRANCH   7   8
ENDBRANCH   1   7
TORSDOF 8
ENDMDL
MODEL 3
REMARK VINA RESULT:    -7.798      2.797      5.782
REMARK INTER + INTRA:         -11.949
REMARK INTER:                 -11.204
REMARK INTRA:                  -0.745
REMARK UNBOUND:                -0.731
REMARK SMILES OCCOCCNc1nc(-c2ccc(Cl)cc2)nc2c1CCC2
REMARK SMILES IDX 5 1 4 2 3 3 2 4 1 5 6 7 7 8 8 10 9 11 20 12 10 13 19 14
REMARK SMILES IDX 21 15 18 16 23 17 22 18 11 19 12 20 17 21 13 22 16 23 14 24
REMARK SMILES IDX 15 25
REMARK H PARENT 1 6 7 9
ROOT
ATOM      1  C   UNL     1       3.953  40.807  49.181  1.00  0.00     0.181 C 
ENDROOT
BRANCH   1   2
ATOM      2  O   UNL     1       5.213  41.155  48.587  1.00  0.00    -0.377 OA
BRANCH   2   3
ATOM      3  C   UNL     1       6.188  41.577  49.548  1.00  0.00     0.188 C 
BRANCH   3   4
ATOM      4  C   UNL     1       6.715  42.988  49.281  1.00  0.00     0.184 C 
BRANCH   4   5
ATOM      5  O   UNL     1       8.118  42.960  49.021  1.00  0.00    -0.394 OA
ATOM      6  H   UNL     1       8.517  42.377  49.690  1.00  0.00     0.210 HD
ENDBRANCH   4   5
ENDBRANCH   3   4
ENDBRANCH   2   3
ENDBRANCH   1   2
BRANCH   1   7
ATOM      7  C   UNL     1       4.000  41.145  50.677  1.00  0.00     0.143 C 
BRANCH   7   8
ATOM      8  N   UNL     1       2.805  41.916  51.039  1.00  0.00    -0.367 N 
ATOM      9  H   UNL     1       2.068  41.278  51.336  1.00  0.00     0.162 HD
BRANCH   8  10
ATOM     10  C   UNL     1       3.013  42.896  52.019  1.00  0.00     0.133 A 
ATOM     11  N   UNL     1       4.173  43.571  52.080  1.00  0.00    -0.211 NA
ATOM     12  C   UNL     1       1.993  43.210  52.880  1.00  0.00     0.016 A 
ATOM     13  C   UNL     1       4.318  44.527  53.032  1.00  0.00     0.161 A 
ATOM     14  C   UNL     1       2.231  44.193  53.817  1.00  0.00     0.050 A 
ATOM     15  C   UNL     1       0.626  42.638  53.026  1.00  0.00     0.042 C 
ATOM     16  N   UNL     1       3.377  44.867  53.936  1.00  0.00    -0.233 NA
ATOM     17  C   UNL     1       1.043  44.378  54.716  1.00  0.00     0.057 C 
ATOM     18  C   UNL     1      -0.060  43.721  53.875  1.00  0.00     0.011 C 
BRANCH  13  19
ATOM     19  C   UNL     1       5.610  45.246  53.085  1.00  0.00     0.019 A 
ATOM     20  C   UNL     1       6.354  45.509  51.916  1.00  0.00     0.013 A 
ATOM     21  C   UNL     1       6.153  45.698  54.305  1.00  0.00     0.013 A 
ATOM     22  C   UNL     1       7.576  46.190  51.962  1.00  0.00     0.021 A 
ATOM     23  C   UNL     1       7.375  46.380  54.358  1.00  0.00     0.021 A 
ATOM     24  C   UNL     1       8.081  46.622  53.184  1.00  0.00     0.041 A 
ATOM     25  Cl  UNL     1       9.583  47.459  53.245  1.00  0.00    -0.084 Cl
ENDBRANCH  13  19
ENDBRANCH   8  10
ENDBRANCH   7   8
ENDBRANCH   1   7
TORSDOF 8
ENDMDL
MODEL 4
REMARK VINA RESULT:    -7.794      2.746      5.103
REMARK INTER + INTRA:         -11.943
REMARK INTER:                 -11.301
REMARK INTRA:                  -0.642
REMARK UNBOUND:                -0.731
REMARK SMILES OCCOCCNc1nc(-c2ccc(Cl)cc2)nc2c1CCC2
REMARK SMILES IDX 5 1 4 2 3 3 2 4 1 5 6 7 7 8 8 10 9 11 20 12 10 13 19 14
REMARK SMILES IDX 21 15 18 16 23 17 22 18 11 19 12 20 17 21 13 22 16 23 14 24
REMARK SMILES IDX 15 25
REMARK H PARENT 1 6 7 9
ROOT
ATOM      1  C   UNL     1       7.695  47.842  52.092  1.00  0.00     0.181 C 
ENDROOT
BRANCH   1   2
ATOM      2  O   UNL     1       8.467  48.292  53.216  1.00  0.00    -0.377 OA
BRANCH   2   3
ATOM      3  C   UNL     1       9.446  47.337  53.643  1.00  0.00     0.188 C 
BRANCH   3   4
ATOM      4  C   UNL     1       9.931  47.581  55.072  1.00  0.00     0.184 C 
BRANCH   4   5
ATOM      5  O   UNL     1       9.193  48.640  55.680  1.00  0.00    -0.394 OA
ATOM      6  H   UNL     1       8.298  48.616  55.300  1.00  0.00     0.210 HD
ENDBRANCH   4   5
ENDBRANCH   3   4
ENDBRANCH   2   3
ENDBRANCH   1   2
BRANCH   1   7
ATOM      7  C   UNL     1       8.035  46.372  51.814  1.00  0.00     0.143 C 
BRANCH   7   8
ATOM      8  N   UNL     1       7.213  45.885  50.700  1.00  0.00    -0.367 N 
ATOM      9  H   UNL     1       7.821  45.533  49.961  1.00  0.00     0.162 HD
BRANCH   8  10
ATOM     10  C   UNL     1       6.268  44.911  51.048  1.00  0.00     0.133 A 
ATOM     11  N   UNL     1       5.367  45.144  52.018  1.00  0.00    -0.211 NA
ATOM     12  C   UNL     1       6.227  43.735  50.345  1.00  0.00     0.016 A 
ATOM     13  C   UNL     1       4.457  44.178  52.303  1.00  0.00     0.161 A 
ATOM     14  C   UNL     1       5.270  42.811  50.706  1.00  0.00     0.050 A 
ATOM     15  C   UNL     1       7.082  43.228  49.236  1.00  0.00     0.042 C 
ATOM     16  N   UNL     1       4.376  42.985  51.681  1.00  0.00    -0.233 NA
ATOM     17  C   UNL     1       5.392  41.561  49.882  1.00  0.00     0.057 C 
ATOM     18  C   UNL     1       6.219  42.076  48.698  1.00  0.00     0.011 C 
BRANCH  13  19
ATOM     19  C   UNL     1       3.484  44.457  53.383  1.00  0.00     0.019 A 
ATOM     20  C   UNL     1       2.175  43.933  53.347  1.00  0.00     0.013 A 
ATOM     21  C   UNL     1       3.824  45.257  54.493  1.00  0.00     0.013 A 
ATOM     22  C   UNL     1       1.253  44.194  54.368  1.00  0.00     0.021 A 
ATOM     23  C   UNL     1       2.907  45.521  55.516  1.00  0.00     0.021 A 
ATOM     24  C   UNL     1       1.623  44.986  55.448  1.00  0.00     0.041 A 
ATOM     25  Cl  UNL     1       0.493  45.309  56.705  1.00  0.00    -0.084 Cl
ENDBRANCH  13  19
ENDBRANCH   8  10
ENDBRANCH   7   8
ENDBRANCH   1   7
TORSDOF 8
ENDMDL
MODEL 5
REMARK VINA RESULT:    -7.784      2.619      5.108
REMARK INTER + INTRA:         -11.928
REMARK INTER:                 -11.304
REMARK INTRA:                  -0.625
REMARK UNBOUND:                -0.731
REMARK SMILES OCCOCCNc1nc(-c2ccc(Cl)cc2)nc2c1CCC2
REMARK SMILES IDX 5 1 4 2 3 3 2 4 1 5 6 7 7 8 8 10 9 11 20 12 10 13 19 14
REMARK SMILES IDX 21 15 18 16 23 17 22 18 11 19 12 20 17 21 13 22 16 23 14 24
REMARK SMILES IDX 15 25
REMARK H PARENT 1 6 7 9
ROOT
ATOM      1  C   UNL     1       9.433  46.155  51.568  1.00  0.00     0.181 C 
ENDROOT
BRANCH   1   2
ATOM      2  O   UNL     1      10.175  46.733  52.653  1.00  0.00    -0.377 OA
BRANCH   2   3
ATOM      3  C   UNL     1       9.377  47.583  53.487  1.00  0.00     0.188 C 
BRANCH   3   4
ATOM      4  C   UNL     1       9.837  47.586  54.945  1.00  0.00     0.184 C 
BRANCH   4   5
ATOM      5  O   UNL     1       9.176  48.617  55.678  1.00  0.00    -0.394 OA
ATOM      6  H   UNL     1       8.304  48.269  55.933  1.00  0.00     0.210 HD
ENDBRANCH   4   5
ENDBRANCH   3   4
ENDBRANCH   2   3
ENDBRANCH   1   2
BRANCH   1   7
ATOM      7  C   UNL     1       7.939  46.419  51.792  1.00  0.00     0.143 C 
BRANCH   7   8
ATOM      8  N   UNL     1       7.172  45.849  50.679  1.00  0.00    -0.367 N 
ATOM      9  H   UNL     1       7.815  45.452  49.994  1.00  0.00     0.162 HD
BRANCH   8  10
ATOM     10  C   UNL     1       6.220  44.891  51.050  1.00  0.00     0.133 A 
ATOM     11  N   UNL     1       5.325  45.152  52.020  1.00  0.00    -0.211 NA
ATOM     12  C   UNL     1       6.163  43.702  50.370  1.00  0.00     0.016 A 
ATOM     13  C   UNL     1       4.408  44.201  52.328  1.00  0.00     0.161 A 
ATOM     14  C   UNL     1       5.199  42.794  50.754  1.00  0.00     0.050 A 
ATOM     15  C   UNL     1       7.007  43.165  49.268  1.00  0.00     0.042 C 
ATOM     16  N   UNL     1       4.312  42.997  51.730  1.00  0.00    -0.233 NA
ATOM     17  C   UNL     1       5.304  41.528  49.955  1.00  0.00     0.057 C 
ATOM     18  C   UNL     1       6.130  42.011  48.756  1.00  0.00     0.011 C 
BRANCH  13  19
ATOM     19  C   UNL     1       3.444  44.510  53.408  1.00  0.00     0.019 A 
ATOM     20  C   UNL     1       3.792  45.347  54.489  1.00  0.00     0.013 A 
ATOM     21  C   UNL     1       2.137  43.981  53.403  1.00  0.00     0.013 A 
ATOM     22  C   UNL     1       2.882  45.642  55.511  1.00  0.00     0.021 A 
ATOM     23  C   UNL     1       1.223  44.272  54.422  1.00  0.00     0.021 A 
ATOM     24  C   UNL     1       1.601  45.102  55.472  1.00  0.00     0.041 A 
ATOM     25  Cl  UNL     1       0.480  45.462  56.727  1.00  0.00    -0.084 Cl
ENDBRANCH  13  19
ENDBRANCH   8  10
ENDBRANCH   7   8
ENDBRANCH   1   7
TORSDOF 8
ENDMDL
MODEL 6
REMARK VINA RESULT:    -7.710      2.835      5.074
REMARK INTER + INTRA:         -11.822
REMARK INTER:                 -10.585
REMARK INTRA:                  -1.238
REMARK UNBOUND:                -0.731
REMARK SMILES OCCOCCNc1nc(-c2ccc(Cl)cc2)nc2c1CCC2
REMARK SMILES IDX 5 1 4 2 3 3 2 4 1 5 6 7 7 8 8 10 9 11 20 12 10 13 19 14
REMARK SMILES IDX 21 15 18 16 23 17 22 18 11 19 12 20 17 21 13 22 16 23 14 24
REMARK SMILES IDX 15 25
REMARK H PARENT 1 6 7 9
ROOT
ATOM      1  C   UNL     1       3.205  45.589  55.293  1.00  0.00     0.181 C 
ENDROOT
BRANCH   1   2
ATOM      2  O   UNL     1       2.395  45.275  54.150  1.00  0.00    -0.377 OA
BRANCH   2   3
ATOM      3  C   UNL     1       2.306  46.355  53.213  1.00  0.00     0.188 C 
BRANCH   3   4
ATOM      4  C   UNL     1       2.357  45.887  51.758  1.00  0.00     0.184 C 
BRANCH   4   5
ATOM      5  O   UNL     1       3.452  46.493  51.073  1.00  0.00    -0.394 OA
ATOM      6  H   UNL     1       3.395  46.209  50.144  1.00  0.00     0.210 HD
ENDBRANCH   4   5
ENDBRANCH   3   4
ENDBRANCH   2   3
ENDBRANCH   1   2
BRANCH   1   7
ATOM      7  C   UNL     1       4.310  46.565  54.866  1.00  0.00     0.143 C 
BRANCH   7   8
ATOM      8  N   UNL     1       5.592  45.854  54.813  1.00  0.00    -0.367 N 
ATOM      9  H   UNL     1       5.523  44.992  55.352  1.00  0.00     0.162 HD
BRANCH   8  10
ATOM     10  C   UNL     1       6.056  45.575  53.520  1.00  0.00     0.133 A 
ATOM     11  N   UNL     1       5.530  44.565  52.806  1.00  0.00    -0.211 NA
ATOM     12  C   UNL     1       7.011  46.384  52.961  1.00  0.00     0.016 A 
ATOM     13  C   UNL     1       5.997  44.348  51.550  1.00  0.00     0.161 A 
ATOM     14  C   UNL     1       7.426  46.086  51.680  1.00  0.00     0.050 A 
ATOM     15  C   UNL     1       7.744  47.556  53.512  1.00  0.00     0.042 C 
ATOM     16  N   UNL     1       6.957  45.076  50.945  1.00  0.00    -0.233 NA
ATOM     17  C   UNL     1       8.509  47.026  51.234  1.00  0.00     0.057 C 
ATOM     18  C   UNL     1       8.319  48.178  52.229  1.00  0.00     0.011 C 
BRANCH  13  19
ATOM     19  C   UNL     1       5.410  43.222  50.790  1.00  0.00     0.019 A 
ATOM     20  C   UNL     1       6.084  42.641  49.696  1.00  0.00     0.013 A 
ATOM     21  C   UNL     1       4.152  42.681  51.127  1.00  0.00     0.013 A 
ATOM     22  C   UNL     1       5.532  41.574  48.976  1.00  0.00     0.021 A 
ATOM     23  C   UNL     1       3.595  41.616  50.411  1.00  0.00     0.021 A 
ATOM     24  C   UNL     1       4.289  41.067  49.338  1.00  0.00     0.041 A 
ATOM     25  Cl  UNL     1       3.607  39.757  48.455  1.00  0.00    -0.084 Cl
ENDBRANCH  13  19
ENDBRANCH   8  10
ENDBRANCH   7   8
ENDBRANCH   1   7
TORSDOF 8
ENDMDL
MODEL 7
REMARK VINA RESULT:    -7.688      2.689      4.966
REMARK INTER + INTRA:         -11.790
REMARK INTER:                 -10.934
REMARK INTRA:                  -0.856
REMARK UNBOUND:                -0.731
REMARK SMILES OCCOCCNc1nc(-c2ccc(Cl)cc2)nc2c1CCC2
REMARK SMILES IDX 5 1 4 2 3 3 2 4 1 5 6 7 7 8 8 10 9 11 20 12 10 13 19 14
REMARK SMILES IDX 21 15 18 16 23 17 22 18 11 19 12 20 17 21 13 22 16 23 14 24
REMARK SMILES IDX 15 25
REMARK H PARENT 1 6 7 9
ROOT
ATOM      1  C   UNL     1       3.189  45.883  55.420  1.00  0.00     0.181 C 
ENDROOT
BRANCH   1   2
ATOM      2  O   UNL     1       2.200  44.868  55.190  1.00  0.00    -0.377 OA
BRANCH   2   3
ATOM      3  C   UNL     1       1.974  44.612  53.798  1.00  0.00     0.188 C 
BRANCH   3   4
ATOM      4  C   UNL     1       0.975  43.480  53.556  1.00  0.00     0.184 C 
BRANCH   4   5
ATOM      5  O   UNL     1       1.618  42.210  53.666  1.00  0.00    -0.394 OA
ATOM      6  H   UNL     1       2.564  42.356  53.490  1.00  0.00     0.210 HD
ENDBRANCH   4   5
ENDBRANCH   3   4
ENDBRANCH   2   3
ENDBRANCH   1   2
BRANCH   1   7
ATOM      7  C   UNL     1       4.583  45.246  55.336  1.00  0.00     0.143 C 
BRANCH   7   8
ATOM      8  N   UNL     1       5.513  46.194  54.713  1.00  0.00    -0.367 N 
ATOM      9  H   UNL     1       6.289  46.374  55.349  1.00  0.00     0.162 HD
BRANCH   8  10
ATOM     10  C   UNL     1       6.004  45.799  53.461  1.00  0.00     0.133 A 
ATOM     11  N   UNL     1       5.457  44.760  52.806  1.00  0.00    -0.211 NA
ATOM     12  C   UNL     1       7.009  46.523  52.875  1.00  0.00     0.016 A 
ATOM     13  C   UNL     1       5.952  44.430  51.586  1.00  0.00     0.161 A 
ATOM     14  C   UNL     1       7.451  46.113  51.635  1.00  0.00     0.050 A 
ATOM     15  C   UNL     1       7.776  47.703  53.363  1.00  0.00     0.042 C 
ATOM     16  N   UNL     1       6.961  45.070  50.962  1.00  0.00    -0.233 NA
ATOM     17  C   UNL     1       8.587  46.971  51.158  1.00  0.00     0.057 C 
ATOM     18  C   UNL     1       8.416  48.202  52.057  1.00  0.00     0.011 C 
BRANCH  13  19
ATOM     19  C   UNL     1       5.340  43.274  50.893  1.00  0.00     0.019 A 
ATOM     20  C   UNL     1       4.025  42.855  51.181  1.00  0.00     0.013 A 
ATOM     21  C   UNL     1       6.045  42.543  49.916  1.00  0.00     0.013 A 
ATOM     22  C   UNL     1       3.443  41.764  50.526  1.00  0.00     0.021 A 
ATOM     23  C   UNL     1       5.469  41.450  49.258  1.00  0.00     0.021 A 
ATOM     24  C   UNL     1       4.168  41.066  49.567  1.00  0.00     0.041 A 
ATOM     25  Cl  UNL     1       3.457  39.723  48.760  1.00  0.00    -0.084 Cl
ENDBRANCH  13  19
ENDBRANCH   8  10
ENDBRANCH   7   8
ENDBRANCH   1   7
TORSDOF 8
ENDMDL
MODEL 8
REMARK VINA RESULT:    -7.679      2.981      5.234
REMARK INTER + INTRA:         -11.778
REMARK INTER:                 -11.202
REMARK INTRA:                  -0.576
REMARK UNBOUND:                -0.731
REMARK SMILES OCCOCCNc1nc(-c2ccc(Cl)cc2)nc2c1CCC2
REMARK SMILES IDX 5 1 4 2 3 3 2 4 1 5 6 7 7 8 8 10 9 11 20 12 10 13 19 14
REMARK SMILES IDX 21 15 18 16 23 17 22 18 11 19 12 20 17 21 13 22 16 23 14 24
REMARK SMILES IDX 15 25
REMARK H PARENT 1 6 7 9
ROOT
ATOM      1  C   UNL     1       7.609  47.040  54.257  1.00  0.00     0.181 C 
ENDROOT
BRANCH   1   2
ATOM      2  O   UNL     1       8.571  47.891  54.900  1.00  0.00    -0.377 OA
BRANCH   2   3
ATOM      3  C   UNL     1       9.926  47.509  54.629  1.00  0.00     0.188 C 
BRANCH   3   4
ATOM      4  C   UNL     1      10.809  47.526  55.877  1.00  0.00     0.184 C 
BRANCH   4   5
ATOM      5  O   UNL     1      10.244  48.367  56.882  1.00  0.00    -0.394 OA
ATOM      6  H   UNL     1      10.967  48.614  57.484  1.00  0.00     0.210 HD
ENDBRANCH   4   5
ENDBRANCH   3   4
ENDBRANCH   2   3
ENDBRANCH   1   2
BRANCH   1   7
ATOM      7  C   UNL     1       8.192  46.549  52.925  1.00  0.00     0.143 C 
BRANCH   7   8
ATOM      8  N   UNL     1       7.194  46.721  51.865  1.00  0.00    -0.367 N 
ATOM      9  H   UNL     1       7.657  47.033  51.011  1.00  0.00     0.162 HD
BRANCH   8  10
ATOM     10  C   UNL     1       6.417  45.586  51.599  1.00  0.00     0.133 A 
ATOM     11  N   UNL     1       5.244  45.394  52.227  1.00  0.00    -0.211 NA
ATOM     12  C   UNL     1       6.832  44.697  50.641  1.00  0.00     0.016 A 
ATOM     13  C   UNL     1       4.517  44.290  51.918  1.00  0.00     0.161 A 
ATOM     14  C   UNL     1       6.030  43.603  50.396  1.00  0.00     0.050 A 
ATOM     15  C   UNL     1       8.061  44.670  49.799  1.00  0.00     0.042 C 
ATOM     16  N   UNL     1       4.875  43.356  51.015  1.00  0.00    -0.233 NA
ATOM     17  C   UNL     1       6.648  42.703  49.365  1.00  0.00     0.057 C 
ATOM     18  C   UNL     1       7.657  43.659  48.715  1.00  0.00     0.011 C 
BRANCH  13  19
ATOM     19  C   UNL     1       3.235  44.098  52.633  1.00  0.00     0.019 A 
ATOM     20  C   UNL     1       2.452  42.940  52.442  1.00  0.00     0.013 A 
ATOM     21  C   UNL     1       2.742  45.062  53.535  1.00  0.00     0.013 A 
ATOM     22  C   UNL     1       1.241  42.754  53.118  1.00  0.00     0.021 A 
ATOM     23  C   UNL     1       1.531  44.882  54.214  1.00  0.00     0.021 A 
ATOM     24  C   UNL     1       0.786  43.727  54.001  1.00  0.00     0.041 A 
ATOM     25  Cl  UNL     1      -0.703  43.503  54.834  1.00  0.00    -0.084 Cl
ENDBRANCH  13  19
ENDBRANCH   8  10
ENDBRANCH   7   8
ENDBRANCH   1   7
TORSDOF 8
ENDMDL
MODEL 9
REMARK VINA RESULT:    -7.569      2.807      5.877
REMARK INTER + INTRA:         -11.619
REMARK INTER:                 -10.812
REMARK INTRA:                  -0.807
REMARK UNBOUND:                -0.731
REMARK SMILES OCCOCCNc1nc(-c2ccc(Cl)cc2)nc2c1CCC2
REMARK SMILES IDX 5 1 4 2 3 3 2 4 1 5 6 7 7 8 8 10 9 11 20 12 10 13 19 14
REMARK SMILES IDX 21 15 18 16 23 17 22 18 11 19 12 20 17 21 13 22 16 23 14 24
REMARK SMILES IDX 15 25
REMARK H PARENT 1 6 7 9
ROOT
ATOM      1  C   UNL     1       3.500  41.174  50.338  1.00  0.00     0.181 C 
ENDROOT
BRANCH   1   2
ATOM      2  O   UNL     1       4.847  41.353  50.800  1.00  0.00    -0.377 OA
BRANCH   2   3
ATOM      3  C   UNL     1       5.501  42.477  50.198  1.00  0.00     0.188 C 
BRANCH   3   4
ATOM      4  C   UNL     1       6.905  42.147  49.689  1.00  0.00     0.184 C 
BRANCH   4   5
ATOM      5  O   UNL     1       7.272  40.818  50.055  1.00  0.00    -0.394 OA
ATOM      6  H   UNL     1       7.130  40.739  51.014  1.00  0.00     0.210 HD
ENDBRANCH   4   5
ENDBRANCH   3   4
ENDBRANCH   2   3
ENDBRANCH   1   2
BRANCH   1   7
ATOM      7  C   UNL     1       2.680  42.418  50.703  1.00  0.00     0.143 C 
BRANCH   7   8
ATOM      8  N   UNL     1       2.208  42.300  52.087  1.00  0.00    -0.367 N 
ATOM      9  H   UNL     1       2.528  41.415  52.479  1.00  0.00     0.162 HD
BRANCH   8  10
ATOM     10  C   UNL     1       2.579  43.358  52.928  1.00  0.00     0.133 A 
ATOM     11  N   UNL     1       3.796  43.920  52.828  1.00  0.00    -0.211 NA
ATOM     12  C   UNL     1       1.665  43.862  53.816  1.00  0.00     0.016 A 
ATOM     13  C   UNL     1       4.101  44.956  53.649  1.00  0.00     0.161 A 
ATOM     14  C   UNL     1       2.063  44.915  54.612  1.00  0.00     0.050 A 
ATOM     15  C   UNL     1       0.268  43.446  54.123  1.00  0.00     0.042 C 
ATOM     16  N   UNL     1       3.270  45.484  54.569  1.00  0.00    -0.233 NA
ATOM     17  C   UNL     1       0.972  45.313  55.563  1.00  0.00     0.057 C 
ATOM     18  C   UNL     1      -0.248  44.677  54.885  1.00  0.00     0.011 C 
BRANCH  13  19
ATOM     19  C   UNL     1       5.452  45.548  53.526  1.00  0.00     0.019 A 
ATOM     20  C   UNL     1       6.067  46.211  54.608  1.00  0.00     0.013 A 
ATOM     21  C   UNL     1       6.182  45.475  52.322  1.00  0.00     0.013 A 
ATOM     22  C   UNL     1       7.345  46.770  54.496  1.00  0.00     0.021 A 
ATOM     23  C   UNL     1       7.461  46.032  52.203  1.00  0.00     0.021 A 
ATOM     24  C   UNL     1       8.036  46.678  53.293  1.00  0.00     0.041 A 
ATOM     25  Cl  UNL     1       9.607  47.365  53.150  1.00  0.00    -0.084 Cl
ENDBRANCH  13  19
ENDBRANCH   8  10
ENDBRANCH   7   8
ENDBRANCH   1   7
TORSDOF 8
ENDMDL
MODEL 10
REMARK VINA RESULT:    -7.423      2.594      4.332
REMARK INTER + INTRA:         -11.410
REMARK INTER:                 -10.443
REMARK INTRA:                  -0.966
REMARK UNBOUND:                -0.731
REMARK SMILES OCCOCCNc1nc(-c2ccc(Cl)cc2)nc2c1CCC2
REMARK SMILES IDX 5 1 4 2 3 3 2 4 1 5 6 7 7 8 8 10 9 11 20 12 10 13 19 14
REMARK SMILES IDX 21 15 18 16 23 17 22 18 11 19 12 20 17 21 13 22 16 23 14 24
REMARK SMILES IDX 15 25
REMARK H PARENT 1 6 7 9
ROOT
ATOM      1  C   UNL     1       7.748  46.521  53.634  1.00  0.00     0.181 C 
ENDROOT
BRANCH   1   2
ATOM      2  O   UNL     1       7.184  46.591  54.953  1.00  0.00    -0.377 OA
BRANCH   2   3
ATOM      3  C   UNL     1       5.770  46.363  54.971  1.00  0.00     0.188 C 
BRANCH   3   4
ATOM      4  C   UNL     1       5.404  44.923  55.333  1.00  0.00     0.184 C 
BRANCH   4   5
ATOM      5  O   UNL     1       4.027  44.830  55.695  1.00  0.00    -0.394 OA
ATOM      6  H   UNL     1       3.963  45.080  56.633  1.00  0.00     0.210 HD
ENDBRANCH   4   5
ENDBRANCH   3   4
ENDBRANCH   2   3
ENDBRANCH   1   2
BRANCH   1   7
ATOM      7  C   UNL     1       6.894  47.371  52.684  1.00  0.00     0.143 C 
BRANCH   7   8
ATOM      8  N   UNL     1       6.912  46.769  51.346  1.00  0.00    -0.367 N 
ATOM      9  H   UNL     1       7.878  46.627  51.052  1.00  0.00     0.162 HD
BRANCH   8  10
ATOM     10  C   UNL     1       6.196  45.571  51.230  1.00  0.00     0.133 A 
ATOM     11  N   UNL     1       4.999  45.425  51.826  1.00  0.00    -0.211 NA
ATOM     12  C   UNL     1       6.695  44.563  50.446  1.00  0.00     0.016 A 
ATOM     13  C   UNL     1       4.334  44.254  51.665  1.00  0.00     0.161 A 
ATOM     14  C   UNL     1       5.951  43.407  50.343  1.00  0.00     0.050 A 
ATOM     15  C   UNL     1       7.967  44.462  49.677  1.00  0.00     0.042 C 
ATOM     16  N   UNL     1       4.775  43.206  50.941  1.00  0.00    -0.233 NA
ATOM     17  C   UNL     1       6.657  42.386  49.500  1.00  0.00     0.057 C 
ATOM     18  C   UNL     1       7.661  43.273  48.752  1.00  0.00     0.011 C 
BRANCH  13  19
ATOM     19  C   UNL     1       3.025  44.117  52.343  1.00  0.00     0.019 A 
ATOM     20  C   UNL     1       2.504  42.852  52.689  1.00  0.00     0.013 A 
ATOM     21  C   UNL     1       2.242  45.242  52.670  1.00  0.00     0.013 A 
ATOM     22  C   UNL     1       1.268  42.719  53.331  1.00  0.00     0.021 A 
ATOM     23  C   UNL     1       1.005  45.116  53.312  1.00  0.00     0.021 A 
ATOM     24  C   UNL     1       0.523  43.852  53.640  1.00  0.00     0.041 A 
ATOM     25  Cl  UNL     1      -0.997  43.692  54.428  1.00  0.00    -0.084 Cl
ENDBRANCH  13  19
ENDBRANCH   8  10
ENDBRANCH   7   8
ENDBRANCH   1   7
TORSDOF 8
ENDMDL
MODEL 11
REMARK VINA RESULT:    -7.405      4.431      7.912
REMARK INTER + INTRA:         -11.383
REMARK INTER:                 -10.757
REMARK INTRA:                  -0.627
REMARK UNBOUND:                -0.731
REMARK SMILES OCCOCCNc1nc(-c2ccc(Cl)cc2)nc2c1CCC2
REMARK SMILES IDX 5 1 4 2 3 3 2 4 1 5 6 7 7 8 8 10 9 11 20 12 10 13 19 14
REMARK SMILES IDX 21 15 18 16 23 17 22 18 11 19 12 20 17 21 13 22 16 23 14 24
REMARK SMILES IDX 15 25
REMARK H PARENT 1 6 7 9
ROOT
ATOM      1  C   UNL     1       0.059  45.354  56.552  1.00  0.00     0.181 C 
ENDROOT
BRANCH   1   2
ATOM      2  O   UNL     1       0.166  45.641  57.955  1.00  0.00    -0.377 OA
BRANCH   2   3
ATOM      3  C   UNL     1       0.040  47.037  58.252  1.00  0.00     0.188 C 
BRANCH   3   4
ATOM      4  C   UNL     1       0.914  47.476  59.428  1.00  0.00     0.184 C 
BRANCH   4   5
ATOM      5  O   UNL     1       2.115  46.707  59.476  1.00  0.00    -0.394 OA
ATOM      6  H   UNL     1       2.535  46.783  58.602  1.00  0.00     0.210 HD
ENDBRANCH   4   5
ENDBRANCH   3   4
ENDBRANCH   2   3
ENDBRANCH   1   2
BRANCH   1   7
ATOM      7  C   UNL     1       1.372  45.749  55.863  1.00  0.00     0.143 C 
BRANCH   7   8
ATOM      8  N   UNL     1       2.134  44.538  55.539  1.00  0.00    -0.367 N 
ATOM      9  H   UNL     1       1.549  43.718  55.696  1.00  0.00     0.162 HD
BRANCH   8  10
ATOM     10  C   UNL     1       2.664  44.506  54.243  1.00  0.00     0.133 A 
ATOM     11  N   UNL     1       3.914  44.938  54.000  1.00  0.00    -0.211 NA
ATOM     12  C   UNL     1       1.918  43.968  53.226  1.00  0.00     0.016 A 
ATOM     13  C   UNL     1       4.390  44.866  52.732  1.00  0.00     0.161 A 
ATOM     14  C   UNL     1       2.482  43.938  51.969  1.00  0.00     0.050 A 
ATOM     15  C   UNL     1       0.534  43.417  53.215  1.00  0.00     0.042 C 
ATOM     16  N   UNL     1       3.705  44.383  51.675  1.00  0.00    -0.233 NA
ATOM     17  C   UNL     1       1.522  43.373  50.961  1.00  0.00     0.057 C 
ATOM     18  C   UNL     1       0.530  42.651  51.882  1.00  0.00     0.011 C 
BRANCH  13  19
ATOM     19  C   UNL     1       5.764  45.359  52.491  1.00  0.00     0.019 A 
ATOM     20  C   UNL     1       6.358  45.290  51.213  1.00  0.00     0.013 A 
ATOM     21  C   UNL     1       6.538  45.919  53.527  1.00  0.00     0.013 A 
ATOM     22  C   UNL     1       7.657  45.758  50.982  1.00  0.00     0.021 A 
ATOM     23  C   UNL     1       7.838  46.388  53.303  1.00  0.00     0.021 A 
ATOM     24  C   UNL     1       8.391  46.305  52.029  1.00  0.00     0.041 A 
ATOM     25  Cl  UNL     1       9.988  46.880  51.749  1.00  0.00    -0.084 Cl
ENDBRANCH  13  19
ENDBRANCH   8  10
ENDBRANCH   7   8
ENDBRANCH   1   7
TORSDOF 8
ENDMDL
MODEL 12
REMARK VINA RESULT:    -7.352      3.163      6.283
REMARK INTER + INTRA:         -11.307
REMARK INTER:                 -10.155
REMARK INTRA:                  -1.152
REMARK UNBOUND:                -0.731
REMARK SMILES OCCOCCNc1nc(-c2ccc(Cl)cc2)nc2c1CCC2
REMARK SMILES IDX 5 1 4 2 3 3 2 4 1 5 6 7 7 8 8 10 9 11 20 12 10 13 19 14
REMARK SMILES IDX 21 15 18 16 23 17 22 18 11 19 12 20 17 21 13 22 16 23 14 24
REMARK SMILES IDX 15 25
REMARK H PARENT 1 6 7 9
ROOT
ATOM      1  C   UNL     1       0.565  42.954  53.529  1.00  0.00     0.181 C 
ENDROOT
BRANCH   1   2
ATOM      2  O   UNL     1       1.092  43.741  54.609  1.00  0.00    -0.377 OA
BRANCH   2   3
ATOM      3  C   UNL     1       1.289  45.115  54.256  1.00  0.00     0.188 C 
BRANCH   3   4
ATOM      4  C   UNL     1       2.652  45.653  54.694  1.00  0.00     0.184 C 
BRANCH   4   5
ATOM      5  O   UNL     1       3.417  44.628  55.327  1.00  0.00    -0.394 OA
ATOM      6  H   UNL     1       4.333  44.726  55.016  1.00  0.00     0.210 HD
ENDBRANCH   4   5
ENDBRANCH   3   4
ENDBRANCH   2   3
ENDBRANCH   1   2
BRANCH   1   7
ATOM      7  C   UNL     1       1.507  43.071  52.324  1.00  0.00     0.143 C 
BRANCH   7   8
ATOM      8  N   UNL     1       2.731  42.308  52.588  1.00  0.00    -0.367 N 
ATOM      9  H   UNL     1       2.581  41.330  52.339  1.00  0.00     0.162 HD
BRANCH   8  10
ATOM     10  C   UNL     1       3.878  42.794  51.946  1.00  0.00     0.133 A 
ATOM     11  N   UNL     1       4.629  43.753  52.515  1.00  0.00    -0.211 NA
ATOM     12  C   UNL     1       4.267  42.237  50.756  1.00  0.00     0.016 A 
ATOM     13  C   UNL     1       5.743  44.175  51.865  1.00  0.00     0.161 A 
ATOM     14  C   UNL     1       5.411  42.731  50.166  1.00  0.00     0.050 A 
ATOM     15  C   UNL     1       3.641  41.174  49.922  1.00  0.00     0.042 C 
ATOM     16  N   UNL     1       6.171  43.702  50.677  1.00  0.00    -0.233 NA
ATOM     17  C   UNL     1       5.670  42.059  48.848  1.00  0.00     0.057 C 
ATOM     18  C   UNL     1       4.806  40.800  48.992  1.00  0.00     0.011 C 
BRANCH  13  19
ATOM     19  C   UNL     1       6.544  45.240  52.508  1.00  0.00     0.019 A 
ATOM     20  C   UNL     1       7.451  46.028  51.768  1.00  0.00     0.013 A 
ATOM     21  C   UNL     1       6.437  45.513  53.887  1.00  0.00     0.013 A 
ATOM     22  C   UNL     1       8.209  47.036  52.373  1.00  0.00     0.021 A 
ATOM     23  C   UNL     1       7.193  46.520  54.497  1.00  0.00     0.021 A 
ATOM     24  C   UNL     1       8.077  47.278  53.735  1.00  0.00     0.041 A 
ATOM     25  Cl  UNL     1       9.008  48.517  54.483  1.00  0.00    -0.084 Cl
ENDBRANCH  13  19
ENDBRANCH   8  10
ENDBRANCH   7   8
ENDBRANCH   1   7
TORSDOF 8
ENDMDL
MODEL 13
REMARK VINA RESULT:    -7.330      2.415      4.768
REMARK INTER + INTRA:         -11.276
REMARK INTER:                 -10.076
REMARK INTRA:                  -1.199
REMARK UNBOUND:                -0.731
REMARK SMILES OCCOCCNc1nc(-c2ccc(Cl)cc2)nc2c1CCC2
REMARK SMILES IDX 5 1 4 2 3 3 2 4 1 5 6 7 7 8 8 10 9 11 20 12 10 13 19 14
REMARK SMILES IDX 21 15 18 16 23 17 22 18 11 19 12 20 17 21 13 22 16 23 14 24
REMARK SMILES IDX 15 25
REMARK H PARENT 1 6 7 9
ROOT
ATOM      1  C   UNL     1       6.910  47.481  52.568  1.00  0.00     0.181 C 
ENDROOT
BRANCH   1   2
ATOM      2  O   UNL     1       6.228  47.435  53.830  1.00  0.00    -0.377 OA
BRANCH   2   3
ATOM      3  C   UNL     1       6.546  46.266  54.596  1.00  0.00     0.188 C 
BRANCH   3   4
ATOM      4  C   UNL     1       5.313  45.610  55.220  1.00  0.00     0.184 C 
BRANCH   4   5
ATOM      5  O   UNL     1       5.320  44.202  54.987  1.00  0.00    -0.394 OA
ATOM      6  H   UNL     1       4.987  44.063  54.084  1.00  0.00     0.210 HD
ENDBRANCH   4   5
ENDBRANCH   3   4
ENDBRANCH   2   3
ENDBRANCH   1   2
BRANCH   1   7
ATOM      7  C   UNL     1       7.074  46.050  52.039  1.00  0.00     0.143 C 
BRANCH   7   8
ATOM      8  N   UNL     1       6.076  45.801  50.993  1.00  0.00    -0.367 N 
ATOM      9  H   UNL     1       6.547  45.699  50.094  1.00  0.00     0.162 HD
BRANCH   8  10
ATOM     10  C   UNL     1       5.244  44.698  51.225  1.00  0.00     0.133 A 
ATOM     11  N   UNL     1       4.150  44.812  51.998  1.00  0.00    -0.211 NA
ATOM     12  C   UNL     1       5.519  43.508  50.602  1.00  0.00     0.016 A 
ATOM     13  C   UNL     1       3.364  43.721  52.173  1.00  0.00     0.161 A 
ATOM     14  C   UNL     1       4.666  42.452  50.841  1.00  0.00     0.050 A 
ATOM     15  C   UNL     1       6.637  43.110  49.702  1.00  0.00     0.042 C 
ATOM     16  N   UNL     1       3.587  42.510  51.625  1.00  0.00    -0.233 NA
ATOM     17  C   UNL     1       5.133  41.212  50.135  1.00  0.00     0.057 C 
ATOM     18  C   UNL     1       6.081  41.815  49.090  1.00  0.00     0.011 C 
BRANCH  13  19
ATOM     19  C   UNL     1       2.173  43.872  53.039  1.00  0.00     0.019 A 
ATOM     20  C   UNL     1       1.972  45.030  53.819  1.00  0.00     0.013 A 
ATOM     21  C   UNL     1       1.189  42.866  53.122  1.00  0.00     0.013 A 
ATOM     22  C   UNL     1       0.846  45.177  54.638  1.00  0.00     0.021 A 
ATOM     23  C   UNL     1       0.061  43.007  53.939  1.00  0.00     0.021 A 
ATOM     24  C   UNL     1      -0.105  44.164  54.694  1.00  0.00     0.041 A 
ATOM     25  Cl  UNL     1      -1.490  44.340  55.699  1.00  0.00    -0.084 Cl
ENDBRANCH  13  19
ENDBRANCH   8  10
ENDBRANCH   7   8
ENDBRANCH   1   7
TORSDOF 8
ENDMDL
MODEL 14
REMARK VINA RESULT:    -7.299      2.562      4.785
REMARK INTER + INTRA:         -11.230
REMARK INTER:                 -10.679
REMARK INTRA:                  -0.551
REMARK UNBOUND:                -0.731
REMARK SMILES OCCOCCNc1nc(-c2ccc(Cl)cc2)nc2c1CCC2
REMARK SMILES IDX 5 1 4 2 3 3 2 4 1 5 6 7 7 8 8 10 9 11 20 12 10 13 19 14
REMARK SMILES IDX 21 15 18 16 23 17 22 18 11 19 12 20 17 21 13 22 16 23 14 24
REMARK SMILES IDX 15 25
REMARK H PARENT 1 6 7 9
ROOT
ATOM      1  C   UNL     1       7.980  47.910  52.213  1.00  0.00     0.181 C 
ENDROOT
BRANCH   1   2
ATOM      2  O   UNL     1       8.762  47.638  53.386  1.00  0.00    -0.377 OA
BRANCH   2   3
ATOM      3  C   UNL     1       9.775  46.648  53.168  1.00  0.00     0.188 C 
BRANCH   3   4
ATOM      4  C   UNL     1      10.109  46.455  51.688  1.00  0.00     0.184 C 
BRANCH   4   5
ATOM      5  O   UNL     1      10.982  45.339  51.511  1.00  0.00    -0.394 OA
ATOM      6  H   UNL     1      10.418  44.556  51.393  1.00  0.00     0.210 HD
ENDBRANCH   4   5
ENDBRANCH   3   4
ENDBRANCH   2   3
ENDBRANCH   1   2
BRANCH   1   7
ATOM      7  C   UNL     1       6.680  47.098  52.285  1.00  0.00     0.143 C 
BRANCH   7   8
ATOM      8  N   UNL     1       6.692  46.068  51.241  1.00  0.00    -0.367 N 
ATOM      9  H   UNL     1       7.636  45.698  51.142  1.00  0.00     0.162 HD
BRANCH   8  10
ATOM     10  C   UNL     1       5.786  45.017  51.441  1.00  0.00     0.133 A 
ATOM     11  N   UNL     1       4.759  45.150  52.299  1.00  0.00    -0.211 NA
ATOM     12  C   UNL     1       5.917  43.868  50.705  1.00  0.00     0.016 A 
ATOM     13  C   UNL     1       3.896  44.113  52.441  1.00  0.00     0.161 A 
ATOM     14  C   UNL     1       4.995  42.866  50.918  1.00  0.00     0.050 A 
ATOM     15  C   UNL     1       6.936  43.465  49.697  1.00  0.00     0.042 C 
ATOM     16  N   UNL     1       3.979  42.941  51.780  1.00  0.00    -0.233 NA
ATOM     17  C   UNL     1       5.308  41.660  50.081  1.00  0.00     0.057 C 
ATOM     18  C   UNL     1       6.232  42.276  49.022  1.00  0.00     0.011 C 
BRANCH  13  19
ATOM     19  C   UNL     1       2.781  44.281  53.400  1.00  0.00     0.019 A 
ATOM     20  C   UNL     1       1.530  43.665  53.191  1.00  0.00     0.013 A 
ATOM     21  C   UNL     1       2.922  45.065  54.564  1.00  0.00     0.013 A 
ATOM     22  C   UNL     1       0.474  43.822  54.097  1.00  0.00     0.021 A 
ATOM     23  C   UNL     1       1.870  45.226  55.473  1.00  0.00     0.021 A 
ATOM     24  C   UNL     1       0.650  44.602  55.234  1.00  0.00     0.041 A 
ATOM     25  Cl  UNL     1      -0.645  44.797  56.350  1.00  0.00    -0.084 Cl
ENDBRANCH  13  19
ENDBRANCH   8  10
ENDBRANCH   7   8
ENDBRANCH   1   7
TORSDOF 8
ENDMDL
MODEL 15
REMARK VINA RESULT:    -7.232      3.245      5.997
REMARK INTER + INTRA:         -11.134
REMARK INTER:                 -10.638
REMARK INTRA:                  -0.496
REMARK UNBOUND:                -0.731
REMARK SMILES OCCOCCNc1nc(-c2ccc(Cl)cc2)nc2c1CCC2
REMARK SMILES IDX 5 1 4 2 3 3 2 4 1 5 6 7 7 8 8 10 9 11 20 12 10 13 19 14
REMARK SMILES IDX 21 15 18 16 23 17 22 18 11 19 12 20 17 21 13 22 16 23 14 24
REMARK SMILES IDX 15 25
REMARK H PARENT 1 6 7 9
ROOT
ATOM      1  C   UNL     1       4.189  40.967  48.929  1.00  0.00     0.181 C 
ENDROOT
BRANCH   1   2
ATOM      2  O   UNL     1       3.201  39.977  48.602  1.00  0.00    -0.377 OA
BRANCH   2   3
ATOM      3  C   UNL     1       3.242  39.579  47.226  1.00  0.00     0.188 C 
BRANCH   3   4
ATOM      4  C   UNL     1       2.749  38.148  47.007  1.00  0.00     0.184 C 
BRANCH   4   5
ATOM      5  O   UNL     1       3.728  37.380  46.307  1.00  0.00    -0.394 OA
ATOM      6  H   UNL     1       4.426  37.998  46.030  1.00  0.00     0.210 HD
ENDBRANCH   4   5
ENDBRANCH   3   4
ENDBRANCH   2   3
ENDBRANCH   1   2
BRANCH   1   7
ATOM      7  C   UNL     1       4.257  41.115  50.454  1.00  0.00     0.143 C 
BRANCH   7   8
ATOM      8  N   UNL     1       3.007  41.706  50.942  1.00  0.00    -0.367 N 
ATOM      9  H   UNL     1       2.410  40.971  51.321  1.00  0.00     0.162 HD
BRANCH   8  10
ATOM     10  C   UNL     1       3.169  42.726  51.889  1.00  0.00     0.133 A 
ATOM     11  N   UNL     1       4.318  43.421  51.961  1.00  0.00    -0.211 NA
ATOM     12  C   UNL     1       2.118  43.057  52.705  1.00  0.00     0.016 A 
ATOM     13  C   UNL     1       4.418  44.414  52.880  1.00  0.00     0.161 A 
ATOM     14  C   UNL     1       2.312  44.078  53.611  1.00  0.00     0.050 A 
ATOM     15  C   UNL     1       0.755  42.471  52.830  1.00  0.00     0.042 C 
ATOM     16  N   UNL     1       3.444  44.774  53.739  1.00  0.00    -0.233 NA
ATOM     17  C   UNL     1       1.093  44.280  54.464  1.00  0.00     0.057 C 
ATOM     18  C   UNL     1       0.027  43.574  53.614  1.00  0.00     0.011 C 
BRANCH  13  19
ATOM     19  C   UNL     1       5.698  45.154  52.945  1.00  0.00     0.019 A 
ATOM     20  C   UNL     1       6.227  45.603  54.174  1.00  0.00     0.013 A 
ATOM     21  C   UNL     1       6.443  45.443  51.784  1.00  0.00     0.013 A 
ATOM     22  C   UNL     1       7.438  46.301  54.239  1.00  0.00     0.021 A 
ATOM     23  C   UNL     1       7.654  46.142  51.843  1.00  0.00     0.021 A 
ATOM     24  C   UNL     1       8.146  46.568  53.073  1.00  0.00     0.041 A 
ATOM     25  Cl  UNL     1       9.635  47.427  53.149  1.00  0.00    -0.084 Cl
ENDBRANCH  13  19
ENDBRANCH   8  10
ENDBRANCH   7   8
ENDBRANCH   1   7
TORSDOF 8
ENDMDL
MODEL 16
REMARK VINA RESULT:    -7.073      3.718      7.237
REMARK INTER + INTRA:         -10.905
REMARK INTER:                 -10.358
REMARK INTRA:                  -0.547
REMARK UNBOUND:                -0.731
REMARK SMILES OCCOCCNc1nc(-c2ccc(Cl)cc2)nc2c1CCC2
REMARK SMILES IDX 5 1 4 2 3 3 2 4 1 5 6 7 7 8 8 10 9 11 20 12 10 13 19 14
REMARK SMILES IDX 21 15 18 16 23 17 22 18 11 19 12 20 17 21 13 22 16 23 14 24
REMARK SMILES IDX 15 25
REMARK H PARENT 1 6 7 9
ROOT
ATOM      1  C   UNL     1       4.069  47.074  54.788  1.00  0.00     0.181 C 
ENDROOT
BRANCH   1   2
ATOM      2  O   UNL     1       5.389  47.539  54.465  1.00  0.00    -0.377 OA
BRANCH   2   3
ATOM      3  C   UNL     1       6.405  46.563  54.724  1.00  0.00     0.188 C 
BRANCH   3   4
ATOM      4  C   UNL     1       7.781  46.986  54.207  1.00  0.00     0.184 C 
BRANCH   4   5
ATOM      5  O   UNL     1       7.662  48.073  53.290  1.00  0.00    -0.394 OA
ATOM      6  H   UNL     1       7.886  48.882  53.781  1.00  0.00     0.210 HD
ENDBRANCH   4   5
ENDBRANCH   3   4
ENDBRANCH   2   3
ENDBRANCH   1   2
BRANCH   1   7
ATOM      7  C   UNL     1       4.184  45.772  55.591  1.00  0.00     0.143 C 
BRANCH   7   8
ATOM      8  N   UNL     1       3.023  44.922  55.306  1.00  0.00    -0.367 N 
ATOM      9  H   UNL     1       2.168  45.444  55.493  1.00  0.00     0.162 HD
BRANCH   8  10
ATOM     10  C   UNL     1       2.986  44.392  54.010  1.00  0.00     0.133 A 
ATOM     11  N   UNL     1       4.081  44.407  53.230  1.00  0.00    -0.211 NA
ATOM     12  C   UNL     1       1.836  43.795  53.561  1.00  0.00     0.016 A 
ATOM     13  C   UNL     1       4.001  43.861  51.990  1.00  0.00     0.161 A 
ATOM     14  C   UNL     1       1.847  43.269  52.287  1.00  0.00     0.050 A 
ATOM     15  C   UNL     1       0.504  43.631  54.207  1.00  0.00     0.042 C 
ATOM     16  N   UNL     1       2.899  43.289  51.466  1.00  0.00    -0.233 NA
ATOM     17  C   UNL     1       0.503  42.705  51.927  1.00  0.00     0.057 C 
ATOM     18  C   UNL     1      -0.126  42.547  53.318  1.00  0.00     0.011 C 
BRANCH  13  19
ATOM     19  C   UNL     1       5.218  43.902  51.148  1.00  0.00     0.019 A 
ATOM     20  C   UNL     1       6.053  45.039  51.116  1.00  0.00     0.013 A 
ATOM     21  C   UNL     1       5.595  42.808  50.343  1.00  0.00     0.013 A 
ATOM     22  C   UNL     1       7.205  45.081  50.322  1.00  0.00     0.021 A 
ATOM     23  C   UNL     1       6.745  42.844  49.546  1.00  0.00     0.021 A 
ATOM     24  C   UNL     1       7.546  43.982  49.540  1.00  0.00     0.041 A 
ATOM     25  Cl  UNL     1       8.960  44.030  48.563  1.00  0.00    -0.084 Cl
ENDBRANCH  13  19
ENDBRANCH   8  10
ENDBRANCH   7   8
ENDBRANCH   1   7
TORSDOF 8
ENDMDL
MODEL 17
REMARK VINA RESULT:    -7.038      2.527      3.880
REMARK INTER + INTRA:         -10.856
REMARK INTER:                 -10.232
REMARK INTRA:                  -0.623
REMARK UNBOUND:                -0.731
REMARK SMILES OCCOCCNc1nc(-c2ccc(Cl)cc2)nc2c1CCC2
REMARK SMILES IDX 5 1 4 2 3 3 2 4 1 5 6 7 7 8 8 10 9 11 20 12 10 13 19 14
REMARK SMILES IDX 21 15 18 16 23 17 22 18 11 19 12 20 17 21 13 22 16 23 14 24
REMARK SMILES IDX 15 25
REMARK H PARENT 1 6 7 9
ROOT
ATOM      1  C   UNL     1       3.522  40.179  48.223  1.00  0.00     0.181 C 
ENDROOT
BRANCH   1   2
ATOM      2  O   UNL     1       4.493  40.825  47.385  1.00  0.00    -0.377 OA
BRANCH   2   3
ATOM      3  C   UNL     1       4.112  40.851  46.004  1.00  0.00     0.188 C 
BRANCH   3   4
ATOM      4  C   UNL     1       5.066  41.674  45.138  1.00  0.00     0.184 C 
BRANCH   4   5
ATOM      5  O   UNL     1       4.368  42.736  44.490  1.00  0.00    -0.394 OA
ATOM      6  H   UNL     1       3.418  42.552  44.590  1.00  0.00     0.210 HD
ENDBRANCH   4   5
ENDBRANCH   3   4
ENDBRANCH   2   3
ENDBRANCH   1   2
BRANCH   1   7
ATOM      7  C   UNL     1       3.582  40.803  49.623  1.00  0.00     0.143 C 
BRANCH   7   8
ATOM      8  N   UNL     1       4.964  41.195  49.922  1.00  0.00    -0.367 N 
ATOM      9  H   UNL     1       5.512  41.183  49.062  1.00  0.00     0.162 HD
BRANCH   8  10
ATOM     10  C   UNL     1       5.099  42.436  50.558  1.00  0.00     0.133 A 
ATOM     11  N   UNL     1       4.298  42.773  51.583  1.00  0.00    -0.211 NA
ATOM     12  C   UNL     1       6.103  43.284  50.168  1.00  0.00     0.016 A 
ATOM     13  C   UNL     1       4.483  43.977  52.182  1.00  0.00     0.161 A 
ATOM     14  C   UNL     1       6.214  44.487  50.832  1.00  0.00     0.050 A 
ATOM     15  C   UNL     1       7.122  43.162  49.089  1.00  0.00     0.042 C 
ATOM     16  N   UNL     1       5.423  44.878  51.833  1.00  0.00    -0.233 NA
ATOM     17  C   UNL     1       7.321  45.321  50.253  1.00  0.00     0.057 C 
ATOM     18  C   UNL     1       8.125  44.252  49.502  1.00  0.00     0.011 C 
BRANCH  13  19
ATOM     19  C   UNL     1       3.578  44.328  53.300  1.00  0.00     0.019 A 
ATOM     20  C   UNL     1       2.261  43.828  53.365  1.00  0.00     0.013 A 
ATOM     21  C   UNL     1       3.994  45.176  54.346  1.00  0.00     0.013 A 
ATOM     22  C   UNL     1       1.403  44.157  54.421  1.00  0.00     0.021 A 
ATOM     23  C   UNL     1       3.141  45.508  55.405  1.00  0.00     0.021 A 
ATOM     24  C   UNL     1       1.848  44.996  55.437  1.00  0.00     0.041 A 
ATOM     25  Cl  UNL     1       0.797  45.403  56.737  1.00  0.00    -0.084 Cl
ENDBRANCH  13  19
ENDBRANCH   8  10
ENDBRANCH   7   8
ENDBRANCH   1   7
TORSDOF 8
ENDMDL
MODEL 18
REMARK VINA RESULT:    -6.856      3.307      6.280
REMARK INTER + INTRA:         -10.593
REMARK INTER:                  -9.316
REMARK INTRA:                  -1.277
REMARK UNBOUND:                -0.731
REMARK SMILES OCCOCCNc1nc(-c2ccc(Cl)cc2)nc2c1CCC2
REMARK SMILES IDX 5 1 4 2 3 3 2 4 1 5 6 7 7 8 8 10 9 11 20 12 10 13 19 14
REMARK SMILES IDX 21 15 18 16 23 17 22 18 11 19 12 20 17 21 13 22 16 23 14 24
REMARK SMILES IDX 15 25
REMARK H PARENT 1 6 7 9
ROOT
ATOM      1  C   UNL     1       0.048  43.174  51.753  1.00  0.00     0.181 C 
ENDROOT
BRANCH   1   2
ATOM      2  O   UNL     1       1.189  42.314  51.894  1.00  0.00    -0.377 OA
BRANCH   2   3
ATOM      3  C   UNL     1       2.269  42.668  51.021  1.00  0.00     0.188 C 
BRANCH   3   4
ATOM      4  C   UNL     1       3.642  42.481  51.668  1.00  0.00     0.184 C 
BRANCH   4   5
ATOM      5  O   UNL     1       3.568  42.692  53.077  1.00  0.00    -0.394 OA
ATOM      6  H   UNL     1       2.625  42.771  53.302  1.00  0.00     0.210 HD
ENDBRANCH   4   5
ENDBRANCH   3   4
ENDBRANCH   2   3
ENDBRANCH   1   2
BRANCH   1   7
ATOM      7  C   UNL     1       0.520  44.547  51.258  1.00  0.00     0.143 C 
BRANCH   7   8
ATOM      8  N   UNL     1       0.319  45.541  52.319  1.00  0.00    -0.367 N 
ATOM      9  H   UNL     1      -0.600  45.407  52.738  1.00  0.00     0.162 HD
BRANCH   8  10
ATOM     10  C   UNL     1       1.303  45.543  53.316  1.00  0.00     0.133 A 
ATOM     11  N   UNL     1       2.585  45.814  53.016  1.00  0.00    -0.211 NA
ATOM     12  C   UNL     1       0.937  45.329  54.620  1.00  0.00     0.016 A 
ATOM     13  C   UNL     1       3.497  45.827  54.021  1.00  0.00     0.161 A 
ATOM     14  C   UNL     1       1.933  45.358  55.574  1.00  0.00     0.050 A 
ATOM     15  C   UNL     1      -0.388  45.022  55.226  1.00  0.00     0.042 C 
ATOM     16  N   UNL     1       3.221  45.592  55.319  1.00  0.00    -0.233 NA
ATOM     17  C   UNL     1       1.381  45.052  56.936  1.00  0.00     0.057 C 
ATOM     18  C   UNL     1      -0.113  45.317  56.709  1.00  0.00     0.011 C 
BRANCH  13  19
ATOM     19  C   UNL     1       4.904  46.116  53.660  1.00  0.00     0.019 A 
ATOM     20  C   UNL     1       5.376  45.945  52.342  1.00  0.00     0.013 A 
ATOM     21  C   UNL     1       5.831  46.573  54.618  1.00  0.00     0.013 A 
ATOM     22  C   UNL     1       6.704  46.219  51.997  1.00  0.00     0.021 A 
ATOM     23  C   UNL     1       7.161  46.848  54.280  1.00  0.00     0.021 A 
ATOM     24  C   UNL     1       7.591  46.669  52.969  1.00  0.00     0.041 A 
ATOM     25  Cl  UNL     1       9.226  47.006  52.549  1.00  0.00    -0.084 Cl
ENDBRANCH  13  19
ENDBRANCH   8  10
ENDBRANCH   7   8
ENDBRANCH   1   7
TORSDOF 8
ENDMDL
MODEL 19
REMARK VINA RESULT:    -6.844      4.634      8.136
REMARK INTER + INTRA:         -10.576
REMARK INTER:                 -10.182
REMARK INTRA:                  -0.393
REMARK UNBOUND:                -0.731
REMARK SMILES OCCOCCNc1nc(-c2ccc(Cl)cc2)nc2c1CCC2
REMARK SMILES IDX 5 1 4 2 3 3 2 4 1 5 6 7 7 8 8 10 9 11 20 12 10 13 19 14
REMARK SMILES IDX 21 15 18 16 23 17 22 18 11 19 12 20 17 21 13 22 16 23 14 24
REMARK SMILES IDX 15 25
REMARK H PARENT 1 6 7 9
ROOT
ATOM      1  C   UNL     1       0.909  46.034  57.524  1.00  0.00     0.181 C 
ENDROOT
BRANCH   1   2
ATOM      2  O   UNL     1      -0.454  46.143  57.963  1.00  0.00    -0.377 OA
BRANCH   2   3
ATOM      3  C   UNL     1      -0.873  47.499  58.157  1.00  0.00     0.188 C 
BRANCH   3   4
ATOM      4  C   UNL     1      -2.245  47.791  57.548  1.00  0.00     0.184 C 
BRANCH   4   5
ATOM      5  O   UNL     1      -2.135  48.741  56.490  1.00  0.00    -0.394 OA
ATOM      6  H   UNL     1      -3.014  49.142  56.376  1.00  0.00     0.210 HD
ENDBRANCH   4   5
ENDBRANCH   3   4
ENDBRANCH   2   3
ENDBRANCH   1   2
BRANCH   1   7
ATOM      7  C   UNL     1       0.924  45.616  56.048  1.00  0.00     0.143 C 
BRANCH   7   8
ATOM      8  N   UNL     1       1.946  44.583  55.846  1.00  0.00    -0.367 N 
ATOM      9  H   UNL     1       1.559  43.672  56.089  1.00  0.00     0.162 HD
BRANCH   8  10
ATOM     10  C   UNL     1       2.494  44.542  54.557  1.00  0.00     0.133 A 
ATOM     11  N   UNL     1       3.742  44.984  54.327  1.00  0.00    -0.211 NA
ATOM     12  C   UNL     1       1.767  43.985  53.537  1.00  0.00     0.016 A 
ATOM     13  C   UNL     1       4.236  44.903  53.066  1.00  0.00     0.161 A 
ATOM     14  C   UNL     1       2.349  43.947  52.287  1.00  0.00     0.050 A 
ATOM     15  C   UNL     1       0.390  43.420  53.513  1.00  0.00     0.042 C 
ATOM     16  N   UNL     1       3.571  44.402  52.006  1.00  0.00    -0.233 NA
ATOM     17  C   UNL     1       1.409  43.362  51.274  1.00  0.00     0.057 C 
ATOM     18  C   UNL     1       0.412  42.639  52.189  1.00  0.00     0.011 C 
BRANCH  13  19
ATOM     19  C   UNL     1       5.609  45.408  52.838  1.00  0.00     0.019 A 
ATOM     20  C   UNL     1       6.432  45.811  53.910  1.00  0.00     0.013 A 
ATOM     21  C   UNL     1       6.152  45.509  51.541  1.00  0.00     0.013 A 
ATOM     22  C   UNL     1       7.731  46.288  53.698  1.00  0.00     0.021 A 
ATOM     23  C   UNL     1       7.449  45.985  51.323  1.00  0.00     0.021 A 
ATOM     24  C   UNL     1       8.234  46.373  52.405  1.00  0.00     0.041 A 
ATOM     25  Cl  UNL     1       9.829  46.959  52.140  1.00  0.00    -0.084 Cl
ENDBRANCH  13  19
ENDBRANCH   8  10
ENDBRANCH   7   8
ENDBRANCH   1   7
TORSDOF 8
ENDMDL
MODEL 20
REMARK VINA RESULT:    -6.815      3.869      6.747
REMARK INTER + INTRA:         -10.534
REMARK INTER:                  -9.749
REMARK INTRA:                  -0.786
REMARK UNBOUND:                -0.731
REMARK SMILES OCCOCCNc1nc(-c2ccc(Cl)cc2)nc2c1CCC2
REMARK SMILES IDX 5 1 4 2 3 3 2 4 1 5 6 7 7 8 8 10 9 11 20 12 10 13 19 14
REMARK SMILES IDX 21 15 18 16 23 17 22 18 11 19 12 20 17 21 13 22 16 23 14 24
REMARK SMILES IDX 15 25
REMARK H PARENT 1 6 7 9
ROOT
ATOM      1  C   UNL     1       0.055  43.137  50.836  1.00  0.00     0.181 C 
ENDROOT
BRANCH   1   2
ATOM      2  O   UNL     1      -0.364  44.462  51.198  1.00  0.00    -0.377 OA
BRANCH   2   3
ATOM      3  C   UNL     1      -1.787  44.628  51.163  1.00  0.00     0.188 C 
BRANCH   3   4
ATOM      4  C   UNL     1      -2.316  45.470  52.325  1.00  0.00     0.184 C 
BRANCH   4   5
ATOM      5  O   UNL     1      -2.465  46.834  51.931  1.00  0.00    -0.394 OA
ATOM      6  H   UNL     1      -2.072  46.916  51.045  1.00  0.00     0.210 HD
ENDBRANCH   4   5
ENDBRANCH   3   4
ENDBRANCH   2   3
ENDBRANCH   1   2
BRANCH   1   7
ATOM      7  C   UNL     1       1.585  43.059  50.927  1.00  0.00     0.143 C 
BRANCH   7   8
ATOM      8  N   UNL     1       1.968  42.596  52.266  1.00  0.00    -0.367 N 
ATOM      9  H   UNL     1       2.632  41.827  52.180  1.00  0.00     0.162 HD
BRANCH   8  10
ATOM     10  C   UNL     1       2.492  43.589  53.103  1.00  0.00     0.133 A 
ATOM     11  N   UNL     1       3.725  44.085  52.894  1.00  0.00    -0.211 NA
ATOM     12  C   UNL     1       1.711  44.103  54.106  1.00  0.00     0.016 A 
ATOM     13  C   UNL     1       4.179  45.062  53.719  1.00  0.00     0.161 A 
ATOM     14  C   UNL     1       2.257  45.092  54.896  1.00  0.00     0.050 A 
ATOM     15  C   UNL     1       0.332  43.753  54.547  1.00  0.00     0.042 C 
ATOM     16  N   UNL     1       3.485  45.591  54.746  1.00  0.00    -0.233 NA
ATOM     17  C   UNL     1       1.301  45.506  55.977  1.00  0.00     0.057 C 
ATOM     18  C   UNL     1      -0.022  44.974  55.411  1.00  0.00     0.011 C 
BRANCH  13  19
ATOM     19  C   UNL     1       5.544  45.580  53.474  1.00  0.00     0.019 A 
ATOM     20  C   UNL     1       6.105  45.592  52.180  1.00  0.00     0.013 A 
ATOM     21  C   UNL     1       6.341  46.082  54.522  1.00  0.00     0.013 A 
ATOM     22  C   UNL     1       7.394  46.083  51.944  1.00  0.00     0.021 A 
ATOM     23  C   UNL     1       7.632  46.573  54.293  1.00  0.00     0.021 A 
ATOM     24  C   UNL     1       8.152  46.571  53.002  1.00  0.00     0.041 A 
ATOM     25  Cl  UNL     1       9.738  47.174  52.717  1.00  0.00    -0.084 Cl
ENDBRANCH  13  19
ENDBRANCH   8  10
ENDBRANCH   7   8
ENDBRANCH   1   7
TORSDOF 8
ENDMDL
