MODEL 1
REMARK VINA RESULT:    -9.314      0.000      0.000
REMARK INTER + INTRA:         -13.470
REMARK INTER:                 -12.581
REMARK INTRA:                  -0.889
REMARK UNBOUND:                -0.889
REMARK SMILES c1ccc(CNc2nc(Nc3cc(C4CC4)[nH]n3)c3sccc3n2)cc1
REMARK SMILES IDX 7 1 8 2 9 3 19 4 20 5 21 6 22 7 23 8 24 9 6 10 5 12 4 13
REMARK SMILES IDX 1 14 2 15 26 16 3 17 25 18 10 19 11 21 12 22 18 23 13 24
REMARK SMILES IDX 17 25 14 27 15 28 16 29
REMARK H PARENT 6 11 10 20 17 26
ROOT
ATOM      1  C   UNL     1       2.228  44.034  53.085  1.00  0.00     0.225 A 
ATOM      2  N   UNL     1       3.221  44.778  53.583  1.00  0.00    -0.194 NA
ATOM      3  C   UNL     1       3.035  45.513  54.709  1.00  0.00     0.155 A 
ATOM      4  C   UNL     1       1.806  45.382  55.368  1.00  0.00     0.096 A 
ATOM      5  S   UNL     1       1.237  45.996  56.877  1.00  0.00    -0.138 S 
ATOM      6  C   UNL     1      -0.295  45.270  56.700  1.00  0.00     0.068 A 
ATOM      7  C   UNL     1      -0.379  44.538  55.540  1.00  0.00     0.041 A 
ATOM      8  C   UNL     1       0.828  44.581  54.782  1.00  0.00     0.089 A 
ATOM      9  N   UNL     1       1.018  43.915  53.621  1.00  0.00    -0.212 NA
ENDROOT
BRANCH   1  10
ATOM     10  N   UNL     1       2.539  43.355  51.913  1.00  0.00    -0.350 N 
ATOM     11  H   UNL     1       1.661  43.038  51.520  1.00  0.00     0.164 HD
BRANCH  10  12
ATOM     12  C   UNL     1       3.536  42.318  52.078  1.00  0.00     0.151 C 
BRANCH  12  13
ATOM     13  C   UNL     1       4.666  42.561  51.103  1.00  0.00    -0.029 A 
ATOM     14  C   UNL     1       6.778  42.988  49.306  1.00  0.00     0.000 A 
ATOM     15  C   UNL     1       6.152  41.744  49.362  1.00  0.00     0.000 A 
ATOM     16  C   UNL     1       6.359  44.016  50.148  1.00  0.00     0.000 A 
ATOM     17  C   UNL     1       5.103  41.530  50.256  1.00  0.00     0.005 A 
ATOM     18  C   UNL     1       5.310  43.805  51.045  1.00  0.00     0.005 A 
ENDBRANCH  12  13
ENDBRANCH  10  12
ENDBRANCH   1  10
BRANCH   3  19
ATOM     19  N   UNL     1       4.151  46.259  55.114  1.00  0.00    -0.322 N 
ATOM     20  H   UNL     1       4.252  46.129  56.114  1.00  0.00     0.170 HD
BRANCH  19  21
ATOM     21  C   UNL     1       5.246  46.637  54.422  1.00  0.00     0.153 A 
ATOM     22  C   UNL     1       6.487  45.969  54.590  1.00  0.00     0.072 A 
ATOM     23  N   UNL     1       5.340  47.591  53.491  1.00  0.00    -0.158 NA
ATOM     24  C   UNL     1       7.348  46.588  53.720  1.00  0.00     0.040 A 
ATOM     25  N   UNL     1       6.623  47.557  53.100  1.00  0.00    -0.280 N 
ATOM     26  H   UNL     1       6.933  48.220  52.398  1.00  0.00     0.190 HD
BRANCH  24  27
ATOM     27  C   UNL     1       8.843  46.280  53.509  1.00  0.00     0.038 C 
ATOM     28  C   UNL     1       9.870  47.214  54.095  1.00  0.00     0.010 C 
ATOM     29  C   UNL     1       9.653  47.176  52.611  1.00  0.00     0.010 C 
ENDBRANCH  24  27
ENDBRANCH  19  21
ENDBRANCH   3  19
TORSDOF 6
ENDMDL
MODEL 2
REMARK VINA RESULT:    -9.276      1.055      1.696
REMARK INTER + INTRA:         -13.419
REMARK INTER:                 -12.545
REMARK INTRA:                  -0.874
REMARK UNBOUND:                -0.889
REMARK SMILES c1ccc(CNc2nc(Nc3cc(C4CC4)[nH]n3)c3sccc3n2)cc1
REMARK SMILES IDX 7 1 8 2 9 3 19 4 20 5 21 6 22 7 23 8 24 9 6 10 5 12 4 13
REMARK SMILES IDX 1 14 2 15 26 16 3 17 25 18 10 19 11 21 12 22 18 23 13 24
REMARK SMILES IDX 17 25 14 27 15 28 16 29
REMARK H PARENT 6 11 10 20 17 26
ROOT
ATOM      1  C   UNL     1       3.386  43.000  52.573  1.00  0.00     0.225 A 
ATOM      2  N   UNL     1       4.020  44.020  53.159  1.00  0.00    -0.194 NA
ATOM      3  C   UNL     1       3.347  44.884  53.961  1.00  0.00     0.155 A 
ATOM      4  C   UNL     1       1.999  44.605  54.219  1.00  0.00     0.096 A 
ATOM      5  S   UNL     1       0.856  45.336  55.285  1.00  0.00    -0.138 S 
ATOM      6  C   UNL     1      -0.394  44.272  54.824  1.00  0.00     0.068 A 
ATOM      7  C   UNL     1       0.041  43.346  53.907  1.00  0.00     0.041 A 
ATOM      8  C   UNL     1       1.417  43.518  53.572  1.00  0.00     0.089 A 
ATOM      9  N   UNL     1       2.096  42.714  52.722  1.00  0.00    -0.212 NA
ENDROOT
BRANCH   1  10
ATOM     10  N   UNL     1       4.182  42.210  51.754  1.00  0.00    -0.350 N 
ATOM     11  H   UNL     1       5.074  42.113  52.225  1.00  0.00     0.164 HD
BRANCH  10  12
ATOM     12  C   UNL     1       4.269  42.677  50.386  1.00  0.00     0.151 C 
BRANCH  12  13
ATOM     13  C   UNL     1       5.613  43.334  50.174  1.00  0.00    -0.029 A 
ATOM     14  C   UNL     1       8.095  44.578  49.764  1.00  0.00     0.000 A 
ATOM     15  C   UNL     1       7.062  45.274  50.391  1.00  0.00     0.000 A 
ATOM     16  C   UNL     1       7.892  43.267  49.337  1.00  0.00     0.000 A 
ATOM     17  C   UNL     1       5.827  44.657  50.593  1.00  0.00     0.005 A 
ATOM     18  C   UNL     1       6.656  42.648  49.537  1.00  0.00     0.005 A 
ENDBRANCH  12  13
ENDBRANCH  10  12
ENDBRANCH   1  10
BRANCH   3  19
ATOM     19  N   UNL     1       4.129  45.917  54.499  1.00  0.00    -0.322 N 
ATOM     20  H   UNL     1       3.915  45.972  55.487  1.00  0.00     0.170 HD
BRANCH  19  21
ATOM     21  C   UNL     1       5.313  46.420  54.089  1.00  0.00     0.153 A 
ATOM     22  C   UNL     1       6.532  45.755  54.382  1.00  0.00     0.072 A 
ATOM     23  N   UNL     1       5.530  47.510  53.348  1.00  0.00    -0.158 NA
ATOM     24  C   UNL     1       7.507  46.519  53.793  1.00  0.00     0.040 A 
ATOM     25  N   UNL     1       6.862  47.561  53.203  1.00  0.00    -0.280 N 
ATOM     26  H   UNL     1       7.263  48.332  52.681  1.00  0.00     0.190 HD
BRANCH  24  27
ATOM     27  C   UNL     1       9.028  46.274  53.821  1.00  0.00     0.038 C 
ATOM     28  C   UNL     1       9.928  47.345  54.381  1.00  0.00     0.010 C 
ATOM     29  C   UNL     1       9.912  47.077  52.905  1.00  0.00     0.010 C 
ENDBRANCH  24  27
ENDBRANCH  19  21
ENDBRANCH   3  19
TORSDOF 6
ENDMDL
MODEL 3
REMARK VINA RESULT:    -9.268      2.853      6.606
REMARK INTER + INTRA:         -13.408
REMARK INTER:                 -12.330
REMARK INTRA:                  -1.078
REMARK UNBOUND:                -0.889
REMARK SMILES c1ccc(CNc2nc(Nc3cc(C4CC4)[nH]n3)c3sccc3n2)cc1
REMARK SMILES IDX 7 1 8 2 9 3 19 4 20 5 21 6 22 7 23 8 24 9 6 10 5 12 4 13
REMARK SMILES IDX 1 14 2 15 26 16 3 17 25 18 10 19 11 21 12 22 18 23 13 24
REMARK SMILES IDX 17 25 14 27 15 28 16 29
REMARK H PARENT 6 11 10 20 17 26
ROOT
ATOM      1  C   UNL     1       5.662  47.153  53.437  1.00  0.00     0.225 A 
ATOM      2  N   UNL     1       5.866  46.637  52.221  1.00  0.00    -0.194 NA
ATOM      3  C   UNL     1       7.126  46.446  51.754  1.00  0.00     0.155 A 
ATOM      4  C   UNL     1       8.185  46.720  52.628  1.00  0.00     0.096 A 
ATOM      5  S   UNL     1       9.886  46.466  52.492  1.00  0.00    -0.138 S 
ATOM      6  C   UNL     1      10.201  47.121  54.034  1.00  0.00     0.068 A 
ATOM      7  C   UNL     1       9.044  47.497  54.672  1.00  0.00     0.041 A 
ATOM      8  C   UNL     1       7.883  47.251  53.880  1.00  0.00     0.089 A 
ATOM      9  N   UNL     1       6.619  47.496  54.293  1.00  0.00    -0.212 NA
ENDROOT
BRANCH   1  10
ATOM     10  N   UNL     1       4.327  47.325  53.782  1.00  0.00    -0.350 N 
ATOM     11  H   UNL     1       4.112  46.614  54.471  1.00  0.00     0.164 HD
BRANCH  10  12
ATOM     12  C   UNL     1       3.424  47.361  52.650  1.00  0.00     0.151 C 
BRANCH  12  13
ATOM     13  C   UNL     1       2.781  46.003  52.489  1.00  0.00    -0.029 A 
ATOM     14  C   UNL     1       1.611  43.469  52.206  1.00  0.00     0.000 A 
ATOM     15  C   UNL     1       1.877  43.975  53.476  1.00  0.00     0.000 A 
ATOM     16  C   UNL     1       1.932  44.220  51.076  1.00  0.00     0.000 A 
ATOM     17  C   UNL     1       2.461  45.234  53.618  1.00  0.00     0.005 A 
ATOM     18  C   UNL     1       2.518  45.479  51.215  1.00  0.00     0.005 A 
ENDBRANCH  12  13
ENDBRANCH  10  12
ENDBRANCH   1  10
BRANCH   3  19
ATOM     19  N   UNL     1       7.197  45.913  50.459  1.00  0.00    -0.322 N 
ATOM     20  H   UNL     1       7.680  46.591  49.882  1.00  0.00     0.170 HD
BRANCH  19  21
ATOM     21  C   UNL     1       7.193  44.629  50.041  1.00  0.00     0.153 A 
ATOM     22  C   UNL     1       6.124  43.755  50.370  1.00  0.00     0.072 A 
ATOM     23  N   UNL     1       8.089  44.016  49.262  1.00  0.00    -0.158 NA
ATOM     24  C   UNL     1       6.435  42.566  49.763  1.00  0.00     0.040 A 
ATOM     25  N   UNL     1       7.621  42.766  49.128  1.00  0.00    -0.280 N 
ATOM     26  H   UNL     1       8.160  42.104  48.582  1.00  0.00     0.190 HD
BRANCH  24  27
ATOM     27  C   UNL     1       5.628  41.253  49.813  1.00  0.00     0.038 C 
ATOM     28  C   UNL     1       4.480  41.065  48.856  1.00  0.00     0.010 C 
ATOM     29  C   UNL     1       4.210  41.287  50.316  1.00  0.00     0.010 C 
ENDBRANCH  24  27
ENDBRANCH  19  21
ENDBRANCH   3  19
TORSDOF 6
ENDMDL
MODEL 4
REMARK VINA RESULT:    -9.169      1.650      4.828
REMARK INTER + INTRA:         -13.274
REMARK INTER:                 -12.231
REMARK INTRA:                  -1.043
REMARK UNBOUND:                -0.889
REMARK SMILES c1ccc(CNc2nc(Nc3cc(C4CC4)[nH]n3)c3sccc3n2)cc1
REMARK SMILES IDX 7 1 8 2 9 3 19 4 20 5 21 6 22 7 23 8 24 9 6 10 5 12 4 13
REMARK SMILES IDX 1 14 2 15 26 16 3 17 25 18 10 19 11 21 12 22 18 23 13 24
REMARK SMILES IDX 17 25 14 27 15 28 16 29
REMARK H PARENT 6 11 10 20 17 26
ROOT
ATOM      1  C   UNL     1       4.587  45.072  54.608  1.00  0.00     0.225 A 
ATOM      2  N   UNL     1       4.483  44.453  53.428  1.00  0.00    -0.194 NA
ATOM      3  C   UNL     1       3.278  44.019  52.978  1.00  0.00     0.155 A 
ATOM      4  C   UNL     1       2.153  44.330  53.751  1.00  0.00     0.096 A 
ATOM      5  S   UNL     1       0.465  44.114  53.466  1.00  0.00    -0.138 S 
ATOM      6  C   UNL     1       0.029  44.804  54.963  1.00  0.00     0.068 A 
ATOM      7  C   UNL     1       1.131  45.233  55.663  1.00  0.00     0.041 A 
ATOM      8  C   UNL     1       2.350  44.983  54.966  1.00  0.00     0.089 A 
ATOM      9  N   UNL     1       3.571  45.342  55.421  1.00  0.00    -0.212 NA
ENDROOT
BRANCH   1  10
ATOM     10  N   UNL     1       5.879  45.438  54.964  1.00  0.00    -0.350 N 
ATOM     11  H   UNL     1       5.993  45.184  55.938  1.00  0.00     0.164 HD
BRANCH  10  12
ATOM     12  C   UNL     1       6.209  46.814  54.656  1.00  0.00     0.151 C 
BRANCH  12  13
ATOM     13  C   UNL     1       7.504  46.848  53.877  1.00  0.00    -0.029 A 
ATOM     14  C   UNL     1       9.904  46.880  52.424  1.00  0.00     0.000 A 
ATOM     15  C   UNL     1       8.715  46.515  51.796  1.00  0.00     0.000 A 
ATOM     16  C   UNL     1       9.901  47.223  53.776  1.00  0.00     0.000 A 
ATOM     17  C   UNL     1       7.521  46.497  52.518  1.00  0.00     0.005 A 
ATOM     18  C   UNL     1       8.708  47.204  54.501  1.00  0.00     0.005 A 
ENDBRANCH  12  13
ENDBRANCH  10  12
ENDBRANCH   1  10
BRANCH   3  19
ATOM     19  N   UNL     1       3.314  43.372  51.734  1.00  0.00    -0.322 N 
ATOM     20  H   UNL     1       2.542  43.733  51.186  1.00  0.00     0.170 HD
BRANCH  19  21
ATOM     21  C   UNL     1       4.350  42.823  51.065  1.00  0.00     0.153 A 
ATOM     22  C   UNL     1       5.314  43.635  50.412  1.00  0.00     0.072 A 
ATOM     23  N   UNL     1       4.661  41.529  50.952  1.00  0.00    -0.158 NA
ATOM     24  C   UNL     1       6.219  42.756  49.877  1.00  0.00     0.040 A 
ATOM     25  N   UNL     1       5.779  41.513  50.211  1.00  0.00    -0.280 N 
ATOM     26  H   UNL     1       6.193  40.618  49.979  1.00  0.00     0.190 HD
BRANCH  24  27
ATOM     27  C   UNL     1       7.464  43.096  49.034  1.00  0.00     0.038 C 
ATOM     28  C   UNL     1       8.740  43.478  49.738  1.00  0.00     0.010 C 
ATOM     29  C   UNL     1       7.953  44.519  48.996  1.00  0.00     0.010 C 
ENDBRANCH  24  27
ENDBRANCH  19  21
ENDBRANCH   3  19
TORSDOF 6
ENDMDL
MODEL 5
REMARK VINA RESULT:    -9.103      2.290      3.340
REMARK INTER + INTRA:         -13.185
REMARK INTER:                 -12.353
REMARK INTRA:                  -0.832
REMARK UNBOUND:                -0.889
REMARK SMILES c1ccc(CNc2nc(Nc3cc(C4CC4)[nH]n3)c3sccc3n2)cc1
REMARK SMILES IDX 7 1 8 2 9 3 19 4 20 5 21 6 22 7 23 8 24 9 6 10 5 12 4 13
REMARK SMILES IDX 1 14 2 15 26 16 3 17 25 18 10 19 11 21 12 22 18 23 13 24
REMARK SMILES IDX 17 25 14 27 15 28 16 29
REMARK H PARENT 6 11 10 20 17 26
ROOT
ATOM      1  C   UNL     1       3.894  42.539  51.427  1.00  0.00     0.225 A 
ATOM      2  N   UNL     1       4.682  43.536  51.011  1.00  0.00    -0.194 NA
ATOM      3  C   UNL     1       4.516  44.794  51.492  1.00  0.00     0.155 A 
ATOM      4  C   UNL     1       3.561  44.977  52.500  1.00  0.00     0.096 A 
ATOM      5  S   UNL     1       3.161  46.346  53.472  1.00  0.00    -0.138 S 
ATOM      6  C   UNL     1       1.937  45.508  54.312  1.00  0.00     0.068 A 
ATOM      7  C   UNL     1       1.846  44.200  53.902  1.00  0.00     0.041 A 
ATOM      8  C   UNL     1       2.787  43.883  52.878  1.00  0.00     0.089 A 
ATOM      9  N   UNL     1       2.927  42.655  52.331  1.00  0.00    -0.212 NA
ENDROOT
BRANCH   1  10
ATOM     10  N   UNL     1       4.148  41.308  50.835  1.00  0.00    -0.350 N 
ATOM     11  H   UNL     1       4.119  40.618  51.576  1.00  0.00     0.164 HD
BRANCH  10  12
ATOM     12  C   UNL     1       5.351  41.277  50.028  1.00  0.00     0.151 C 
BRANCH  12  13
ATOM     13  C   UNL     1       4.964  41.171  48.571  1.00  0.00    -0.029 A 
ATOM     14  C   UNL     1       4.245  41.006  45.864  1.00  0.00     0.000 A 
ATOM     15  C   UNL     1       5.371  41.734  46.242  1.00  0.00     0.000 A 
ATOM     16  C   UNL     1       3.473  40.365  46.832  1.00  0.00     0.000 A 
ATOM     17  C   UNL     1       5.728  41.819  47.588  1.00  0.00     0.005 A 
ATOM     18  C   UNL     1       3.828  40.449  48.180  1.00  0.00     0.005 A 
ENDBRANCH  12  13
ENDBRANCH  10  12
ENDBRANCH   1  10
BRANCH   3  19
ATOM     19  N   UNL     1       5.398  45.746  50.961  1.00  0.00    -0.322 N 
ATOM     20  H   UNL     1       4.843  46.548  50.685  1.00  0.00     0.170 HD
BRANCH  19  21
ATOM     21  C   UNL     1       6.711  45.950  51.199  1.00  0.00     0.153 A 
ATOM     22  C   UNL     1       7.142  46.784  52.264  1.00  0.00     0.072 A 
ATOM     23  N   UNL     1       7.755  45.405  50.567  1.00  0.00    -0.158 NA
ATOM     24  C   UNL     1       8.511  46.732  52.227  1.00  0.00     0.040 A 
ATOM     25  N   UNL     1       8.829  45.911  51.190  1.00  0.00    -0.280 N 
ATOM     26  H   UNL     1       9.750  45.645  50.860  1.00  0.00     0.190 HD
BRANCH  24  27
ATOM     27  C   UNL     1       9.499  47.478  53.146  1.00  0.00     0.038 C 
ATOM     28  C   UNL     1      10.028  46.776  54.370  1.00  0.00     0.010 C 
ATOM     29  C   UNL     1       9.043  47.899  54.518  1.00  0.00     0.010 C 
ENDBRANCH  24  27
ENDBRANCH  19  21
ENDBRANCH   3  19
TORSDOF 6
ENDMDL
MODEL 6
REMARK VINA RESULT:    -9.064      0.899      1.103
REMARK INTER + INTRA:         -13.133
REMARK INTER:                 -12.115
REMARK INTRA:                  -1.018
REMARK UNBOUND:                -0.889
REMARK SMILES c1ccc(CNc2nc(Nc3cc(C4CC4)[nH]n3)c3sccc3n2)cc1
REMARK SMILES IDX 7 1 8 2 9 3 19 4 20 5 21 6 22 7 23 8 24 9 6 10 5 12 4 13
REMARK SMILES IDX 1 14 2 15 26 16 3 17 25 18 10 19 11 21 12 22 18 23 13 24
REMARK SMILES IDX 17 25 14 27 15 28 16 29
REMARK H PARENT 6 11 10 20 17 26
ROOT
ATOM      1  C   UNL     1       2.075  43.941  52.978  1.00  0.00     0.225 A 
ATOM      2  N   UNL     1       2.993  44.734  53.540  1.00  0.00    -0.194 NA
ATOM      3  C   UNL     1       2.706  45.432  54.668  1.00  0.00     0.155 A 
ATOM      4  C   UNL     1       1.455  45.214  55.259  1.00  0.00     0.096 A 
ATOM      5  S   UNL     1       0.774  45.762  56.747  1.00  0.00    -0.138 S 
ATOM      6  C   UNL     1      -0.700  44.949  56.478  1.00  0.00     0.068 A 
ATOM      7  C   UNL     1      -0.680  44.237  55.303  1.00  0.00     0.041 A 
ATOM      8  C   UNL     1       0.560  44.368  54.609  1.00  0.00     0.089 A 
ATOM      9  N   UNL     1       0.849  43.738  53.448  1.00  0.00    -0.212 NA
ENDROOT
BRANCH   1  10
ATOM     10  N   UNL     1       2.486  43.307  51.812  1.00  0.00    -0.350 N 
ATOM     11  H   UNL     1       1.646  42.984  51.347  1.00  0.00     0.164 HD
BRANCH  10  12
ATOM     12  C   UNL     1       3.493  42.287  52.019  1.00  0.00     0.151 C 
BRANCH  12  13
ATOM     13  C   UNL     1       4.643  42.530  51.068  1.00  0.00    -0.029 A 
ATOM     14  C   UNL     1       6.793  42.958  49.316  1.00  0.00     0.000 A 
ATOM     15  C   UNL     1       6.161  41.717  49.353  1.00  0.00     0.000 A 
ATOM     16  C   UNL     1       6.360  43.984  50.155  1.00  0.00     0.000 A 
ATOM     17  C   UNL     1       5.093  41.502  50.225  1.00  0.00     0.005 A 
ATOM     18  C   UNL     1       5.293  43.772  51.029  1.00  0.00     0.005 A 
ENDBRANCH  12  13
ENDBRANCH  10  12
ENDBRANCH   1  10
BRANCH   3  19
ATOM     19  N   UNL     1       3.753  46.236  55.143  1.00  0.00    -0.322 N 
ATOM     20  H   UNL     1       3.562  46.430  56.119  1.00  0.00     0.170 HD
BRANCH  19  21
ATOM     21  C   UNL     1       5.032  46.340  54.725  1.00  0.00     0.153 A 
ATOM     22  C   UNL     1       5.377  47.160  53.619  1.00  0.00     0.072 A 
ATOM     23  N   UNL     1       6.121  45.785  55.265  1.00  0.00    -0.158 NA
ATOM     24  C   UNL     1       6.739  47.052  53.504  1.00  0.00     0.040 A 
ATOM     25  N   UNL     1       7.134  46.210  54.497  1.00  0.00    -0.280 N 
ATOM     26  H   UNL     1       8.072  45.892  54.713  1.00  0.00     0.190 HD
BRANCH  24  27
ATOM     27  C   UNL     1       7.642  47.716  52.446  1.00  0.00     0.038 C 
ATOM     28  C   UNL     1       8.352  46.845  51.443  1.00  0.00     0.010 C 
ATOM     29  C   UNL     1       9.132  47.520  52.533  1.00  0.00     0.010 C 
ENDBRANCH  24  27
ENDBRANCH  19  21
ENDBRANCH   3  19
TORSDOF 6
ENDMDL
MODEL 7
REMARK VINA RESULT:    -8.929      2.174      6.439
REMARK INTER + INTRA:         -12.951
REMARK INTER:                 -12.249
REMARK INTRA:                  -0.702
REMARK UNBOUND:                -0.889
REMARK SMILES c1ccc(CNc2nc(Nc3cc(C4CC4)[nH]n3)c3sccc3n2)cc1
REMARK SMILES IDX 7 1 8 2 9 3 19 4 20 5 21 6 22 7 23 8 24 9 6 10 5 12 4 13
REMARK SMILES IDX 1 14 2 15 26 16 3 17 25 18 10 19 11 21 12 22 18 23 13 24
REMARK SMILES IDX 17 25 14 27 15 28 16 29
REMARK H PARENT 6 11 10 20 17 26
ROOT
ATOM      1  C   UNL     1       6.614  45.188  50.512  1.00  0.00     0.225 A 
ATOM      2  N   UNL     1       5.640  45.769  51.219  1.00  0.00    -0.194 NA
ATOM      3  C   UNL     1       4.526  45.074  51.562  1.00  0.00     0.155 A 
ATOM      4  C   UNL     1       4.487  43.715  51.228  1.00  0.00     0.096 A 
ATOM      5  S   UNL     1       3.359  42.466  51.611  1.00  0.00    -0.138 S 
ATOM      6  C   UNL     1       4.235  41.283  50.751  1.00  0.00     0.068 A 
ATOM      7  C   UNL     1       5.386  41.800  50.208  1.00  0.00     0.041 A 
ATOM      8  C   UNL     1       5.548  43.188  50.494  1.00  0.00     0.089 A 
ATOM      9  N   UNL     1       6.614  43.923  50.107  1.00  0.00    -0.212 NA
ENDROOT
BRANCH   1  10
ATOM     10  N   UNL     1       7.685  46.017  50.203  1.00  0.00    -0.350 N 
ATOM     11  H   UNL     1       7.741  46.052  49.191  1.00  0.00     0.164 HD
BRANCH  10  12
ATOM     12  C   UNL     1       8.922  45.657  50.864  1.00  0.00     0.151 C 
BRANCH  12  13
ATOM     13  C   UNL     1       9.064  46.480  52.124  1.00  0.00    -0.029 A 
ATOM     14  C   UNL     1       9.320  47.982  54.480  1.00  0.00     0.000 A 
ATOM     15  C   UNL     1      10.044  46.802  54.325  1.00  0.00     0.000 A 
ATOM     16  C   UNL     1       8.464  48.412  53.467  1.00  0.00     0.000 A 
ATOM     17  C   UNL     1       9.916  46.053  53.155  1.00  0.00     0.005 A 
ATOM     18  C   UNL     1       8.333  47.664  52.295  1.00  0.00     0.005 A 
ENDBRANCH  12  13
ENDBRANCH  10  12
ENDBRANCH   1  10
BRANCH   3  19
ATOM     19  N   UNL     1       3.577  45.807  52.289  1.00  0.00    -0.322 N 
ATOM     20  H   UNL     1       2.823  46.036  51.653  1.00  0.00     0.170 HD
BRANCH  19  21
ATOM     21  C   UNL     1       3.299  45.808  53.610  1.00  0.00     0.153 A 
ATOM     22  C   UNL     1       2.076  45.282  54.102  1.00  0.00     0.072 A 
ATOM     23  N   UNL     1       4.081  46.216  54.614  1.00  0.00    -0.158 NA
ATOM     24  C   UNL     1       2.151  45.415  55.465  1.00  0.00     0.040 A 
ATOM     25  N   UNL     1       3.357  45.991  55.720  1.00  0.00    -0.280 N 
ATOM     26  H   UNL     1       3.752  46.247  56.618  1.00  0.00     0.190 HD
BRANCH  24  27
ATOM     27  C   UNL     1       1.078  45.029  56.501  1.00  0.00     0.038 C 
ATOM     28  C   UNL     1      -0.258  45.724  56.462  1.00  0.00     0.010 C 
ATOM     29  C   UNL     1       0.707  46.021  57.572  1.00  0.00     0.010 C 
ENDBRANCH  24  27
ENDBRANCH  19  21
ENDBRANCH   3  19
TORSDOF 6
ENDMDL
MODEL 8
REMARK VINA RESULT:    -8.887      2.311      7.310
REMARK INTER + INTRA:         -12.894
REMARK INTER:                 -12.302
REMARK INTRA:                  -0.593
REMARK UNBOUND:                -0.889
REMARK SMILES c1ccc(CNc2nc(Nc3cc(C4CC4)[nH]n3)c3sccc3n2)cc1
REMARK SMILES IDX 7 1 8 2 9 3 19 4 20 5 21 6 22 7 23 8 24 9 6 10 5 12 4 13
REMARK SMILES IDX 1 14 2 15 26 16 3 17 25 18 10 19 11 21 12 22 18 23 13 24
REMARK SMILES IDX 17 25 14 27 15 28 16 29
REMARK H PARENT 6 11 10 20 17 26
ROOT
ATOM      1  C   UNL     1       5.090  44.810  52.512  1.00  0.00     0.225 A 
ATOM      2  N   UNL     1       4.061  44.105  52.994  1.00  0.00    -0.194 NA
ATOM      3  C   UNL     1       3.627  42.990  52.353  1.00  0.00     0.155 A 
ATOM      4  C   UNL     1       4.355  42.565  51.235  1.00  0.00     0.096 A 
ATOM      5  S   UNL     1       4.242  41.148  50.257  1.00  0.00    -0.138 S 
ATOM      6  C   UNL     1       5.527  41.630  49.246  1.00  0.00     0.068 A 
ATOM      7  C   UNL     1       6.070  42.825  49.651  1.00  0.00     0.041 A 
ATOM      8  C   UNL     1       5.417  43.357  50.803  1.00  0.00     0.089 A 
ATOM      9  N   UNL     1       5.784  44.501  51.422  1.00  0.00    -0.212 NA
ENDROOT
BRANCH   1  10
ATOM     10  N   UNL     1       5.415  45.944  53.245  1.00  0.00    -0.350 N 
ATOM     11  H   UNL     1       4.563  46.245  53.706  1.00  0.00     0.164 HD
BRANCH  10  12
ATOM     12  C   UNL     1       6.080  46.975  52.474  1.00  0.00     0.151 C 
BRANCH  12  13
ATOM     13  C   UNL     1       7.541  47.011  52.859  1.00  0.00    -0.029 A 
ATOM     14  C   UNL     1      10.257  47.049  53.563  1.00  0.00     0.000 A 
ATOM     15  C   UNL     1       9.882  46.769  52.250  1.00  0.00     0.000 A 
ATOM     16  C   UNL     1       9.282  47.303  54.526  1.00  0.00     0.000 A 
ATOM     17  C   UNL     1       8.532  46.748  51.900  1.00  0.00     0.005 A 
ATOM     18  C   UNL     1       7.930  47.281  54.179  1.00  0.00     0.005 A 
ENDBRANCH  12  13
ENDBRANCH  10  12
ENDBRANCH   1  10
BRANCH   3  19
ATOM     19  N   UNL     1       2.532  42.355  52.957  1.00  0.00    -0.322 N 
ATOM     20  H   UNL     1       2.900  41.722  53.656  1.00  0.00     0.170 HD
BRANCH  19  21
ATOM     21  C   UNL     1       1.254  42.767  53.100  1.00  0.00     0.153 A 
ATOM     22  C   UNL     1       0.843  43.495  54.247  1.00  0.00     0.072 A 
ATOM     23  N   UNL     1       0.244  42.626  52.238  1.00  0.00    -0.158 NA
ATOM     24  C   UNL     1      -0.484  43.770  54.041  1.00  0.00     0.040 A 
ATOM     25  N   UNL     1      -0.799  43.218  52.838  1.00  0.00    -0.280 N 
ATOM     26  H   UNL     1      -1.695  43.216  52.365  1.00  0.00     0.190 HD
BRANCH  24  27
ATOM     27  C   UNL     1      -1.441  44.518  54.990  1.00  0.00     0.038 C 
ATOM     28  C   UNL     1      -2.085  43.760  56.122  1.00  0.00     0.010 C 
ATOM     29  C   UNL     1      -2.911  44.194  54.946  1.00  0.00     0.010 C 
ENDBRANCH  24  27
ENDBRANCH  19  21
ENDBRANCH   3  19
TORSDOF 6
ENDMDL
MODEL 9
REMARK VINA RESULT:    -8.855      2.542      3.472
REMARK INTER + INTRA:         -12.851
REMARK INTER:                 -12.133
REMARK INTRA:                  -0.718
REMARK UNBOUND:                -0.889
REMARK SMILES c1ccc(CNc2nc(Nc3cc(C4CC4)[nH]n3)c3sccc3n2)cc1
REMARK SMILES IDX 7 1 8 2 9 3 19 4 20 5 21 6 22 7 23 8 24 9 6 10 5 12 4 13
REMARK SMILES IDX 1 14 2 15 26 16 3 17 25 18 10 19 11 21 12 22 18 23 13 24
REMARK SMILES IDX 17 25 14 27 15 28 16 29
REMARK H PARENT 6 11 10 20 17 26
ROOT
ATOM      1  C   UNL     1       3.217  42.156  50.820  1.00  0.00     0.225 A 
ATOM      2  N   UNL     1       4.127  42.949  51.394  1.00  0.00    -0.194 NA
ATOM      3  C   UNL     1       3.765  44.145  51.924  1.00  0.00     0.155 A 
ATOM      4  C   UNL     1       2.401  44.462  51.926  1.00  0.00     0.096 A 
ATOM      5  S   UNL     1       1.524  45.771  52.629  1.00  0.00    -0.138 S 
ATOM      6  C   UNL     1       0.026  45.199  52.053  1.00  0.00     0.068 A 
ATOM      7  C   UNL     1       0.164  44.015  51.370  1.00  0.00     0.041 A 
ATOM      8  C   UNL     1       1.520  43.576  51.311  1.00  0.00     0.089 A 
ATOM      9  N   UNL     1       1.918  42.422  50.730  1.00  0.00    -0.212 NA
ENDROOT
BRANCH   1  10
ATOM     10  N   UNL     1       3.723  40.975  50.291  1.00  0.00    -0.350 N 
ATOM     11  H   UNL     1       3.740  40.302  51.049  1.00  0.00     0.164 HD
BRANCH  10  12
ATOM     12  C   UNL     1       4.983  41.131  49.594  1.00  0.00     0.151 C 
BRANCH  12  13
ATOM     13  C   UNL     1       4.729  41.099  48.105  1.00  0.00    -0.029 A 
ATOM     14  C   UNL     1       4.261  41.007  45.340  1.00  0.00     0.000 A 
ATOM     15  C   UNL     1       3.409  40.333  46.213  1.00  0.00     0.000 A 
ATOM     16  C   UNL     1       5.348  41.721  45.840  1.00  0.00     0.000 A 
ATOM     17  C   UNL     1       3.643  40.376  47.588  1.00  0.00     0.005 A 
ATOM     18  C   UNL     1       5.585  41.765  47.216  1.00  0.00     0.005 A 
ENDBRANCH  12  13
ENDBRANCH  10  12
ENDBRANCH   1  10
BRANCH   3  19
ATOM     19  N   UNL     1       4.820  44.883  52.481  1.00  0.00    -0.322 N 
ATOM     20  H   UNL     1       4.851  44.663  53.469  1.00  0.00     0.170 HD
BRANCH  19  21
ATOM     21  C   UNL     1       5.948  45.360  51.912  1.00  0.00     0.153 A 
ATOM     22  C   UNL     1       6.920  46.051  52.682  1.00  0.00     0.072 A 
ATOM     23  N   UNL     1       6.347  45.229  50.645  1.00  0.00    -0.158 NA
ATOM     24  C   UNL     1       7.925  46.353  51.800  1.00  0.00     0.040 A 
ATOM     25  N   UNL     1       7.531  45.857  50.596  1.00  0.00    -0.280 N 
ATOM     26  H   UNL     1       8.020  45.901  49.709  1.00  0.00     0.190 HD
BRANCH  24  27
ATOM     27  C   UNL     1       9.224  47.129  52.095  1.00  0.00     0.038 C 
ATOM     28  C   UNL     1      10.519  46.368  52.205  1.00  0.00     0.010 C 
ATOM     29  C   UNL     1       9.890  46.955  53.434  1.00  0.00     0.010 C 
ENDBRANCH  24  27
ENDBRANCH  19  21
ENDBRANCH   3  19
TORSDOF 6
ENDMDL
MODEL 10
REMARK VINA RESULT:    -8.740      2.464      6.264
REMARK INTER + INTRA:         -12.695
REMARK INTER:                 -11.982
REMARK INTRA:                  -0.713
REMARK UNBOUND:                -0.889
REMARK SMILES c1ccc(CNc2nc(Nc3cc(C4CC4)[nH]n3)c3sccc3n2)cc1
REMARK SMILES IDX 7 1 8 2 9 3 19 4 20 5 21 6 22 7 23 8 24 9 6 10 5 12 4 13
REMARK SMILES IDX 1 14 2 15 26 16 3 17 25 18 10 19 11 21 12 22 18 23 13 24
REMARK SMILES IDX 17 25 14 27 15 28 16 29
REMARK H PARENT 6 11 10 20 17 26
ROOT
ATOM      1  C   UNL     1       4.306  45.393  52.299  1.00  0.00     0.225 A 
ATOM      2  N   UNL     1       4.512  44.137  51.890  1.00  0.00    -0.194 NA
ATOM      3  C   UNL     1       3.628  43.156  52.203  1.00  0.00     0.155 A 
ATOM      4  C   UNL     1       2.462  43.531  52.881  1.00  0.00     0.096 A 
ATOM      5  S   UNL     1       1.045  42.646  53.313  1.00  0.00    -0.138 S 
ATOM      6  C   UNL     1       0.317  43.995  54.058  1.00  0.00     0.068 A 
ATOM      7  C   UNL     1       1.103  45.117  53.957  1.00  0.00     0.041 A 
ATOM      8  C   UNL     1       2.325  44.863  53.265  1.00  0.00     0.089 A 
ATOM      9  N   UNL     1       3.256  45.807  53.000  1.00  0.00    -0.212 NA
ENDROOT
BRANCH   1  10
ATOM     10  N   UNL     1       5.300  46.295  51.938  1.00  0.00    -0.350 N 
ATOM     11  H   UNL     1       4.872  46.957  51.301  1.00  0.00     0.164 HD
BRANCH  10  12
ATOM     12  C   UNL     1       6.509  45.673  51.439  1.00  0.00     0.151 C 
BRANCH  12  13
ATOM     13  C   UNL     1       7.691  46.195  52.222  1.00  0.00    -0.029 A 
ATOM     14  C   UNL     1       9.872  47.193  53.679  1.00  0.00     0.000 A 
ATOM     15  C   UNL     1       8.598  47.190  54.246  1.00  0.00     0.000 A 
ATOM     16  C   UNL     1      10.059  46.707  52.386  1.00  0.00     0.000 A 
ATOM     17  C   UNL     1       7.513  46.696  53.521  1.00  0.00     0.005 A 
ATOM     18  C   UNL     1       8.975  46.213  51.659  1.00  0.00     0.005 A 
ENDBRANCH  12  13
ENDBRANCH  10  12
ENDBRANCH   1  10
BRANCH   3  19
ATOM     19  N   UNL     1       3.972  41.882  51.726  1.00  0.00    -0.322 N 
ATOM     20  H   UNL     1       3.420  41.209  52.243  1.00  0.00     0.170 HD
BRANCH  19  21
ATOM     21  C   UNL     1       4.453  41.502  50.523  1.00  0.00     0.153 A 
ATOM     22  C   UNL     1       3.591  40.993  49.516  1.00  0.00     0.072 A 
ATOM     23  N   UNL     1       5.711  41.580  50.080  1.00  0.00    -0.158 NA
ATOM     24  C   UNL     1       4.404  40.746  48.441  1.00  0.00     0.040 A 
ATOM     25  N   UNL     1       5.660  41.096  48.830  1.00  0.00    -0.280 N 
ATOM     26  H   UNL     1       6.520  41.042  48.296  1.00  0.00     0.190 HD
BRANCH  24  27
ATOM     27  C   UNL     1       3.995  40.156  47.077  1.00  0.00     0.038 C 
ATOM     28  C   UNL     1       4.222  40.972  45.831  1.00  0.00     0.010 C 
ATOM     29  C   UNL     1       2.827  40.760  46.342  1.00  0.00     0.010 C 
ENDBRANCH  24  27
ENDBRANCH  19  21
ENDBRANCH   3  19
TORSDOF 6
ENDMDL
MODEL 11
REMARK VINA RESULT:    -8.728      2.252      6.099
REMARK INTER + INTRA:         -12.679
REMARK INTER:                 -11.679
REMARK INTRA:                  -1.000
REMARK UNBOUND:                -0.889
REMARK SMILES c1ccc(CNc2nc(Nc3cc(C4CC4)[nH]n3)c3sccc3n2)cc1
REMARK SMILES IDX 7 1 8 2 9 3 19 4 20 5 21 6 22 7 23 8 24 9 6 10 5 12 4 13
REMARK SMILES IDX 1 14 2 15 26 16 3 17 25 18 10 19 11 21 12 22 18 23 13 24
REMARK SMILES IDX 17 25 14 27 15 28 16 29
REMARK H PARENT 6 11 10 20 17 26
ROOT
ATOM      1  C   UNL     1       7.153  45.571  50.879  1.00  0.00     0.225 A 
ATOM      2  N   UNL     1       6.136  46.066  51.592  1.00  0.00    -0.194 NA
ATOM      3  C   UNL     1       6.363  46.701  52.770  1.00  0.00     0.155 A 
ATOM      4  C   UNL     1       7.696  46.896  53.150  1.00  0.00     0.096 A 
ATOM      5  S   UNL     1       8.404  47.775  54.455  1.00  0.00    -0.138 S 
ATOM      6  C   UNL     1       9.993  47.366  53.991  1.00  0.00     0.068 A 
ATOM      7  C   UNL     1      10.007  46.608  52.845  1.00  0.00     0.041 A 
ATOM      8  C   UNL     1       8.695  46.352  52.346  1.00  0.00     0.089 A 
ATOM      9  N   UNL     1       8.437  45.663  51.213  1.00  0.00    -0.212 NA
ENDROOT
BRANCH   1  10
ATOM     10  N   UNL     1       6.784  44.918  49.710  1.00  0.00    -0.350 N 
ATOM     11  H   UNL     1       5.786  45.058  49.604  1.00  0.00     0.164 HD
BRANCH  10  12
ATOM     12  C   UNL     1       7.211  43.536  49.645  1.00  0.00     0.151 C 
BRANCH  12  13
ATOM     13  C   UNL     1       5.995  42.640  49.726  1.00  0.00    -0.029 A 
ATOM     14  C   UNL     1       3.749  40.968  49.903  1.00  0.00     0.000 A 
ATOM     15  C   UNL     1       4.003  41.901  50.906  1.00  0.00     0.000 A 
ATOM     16  C   UNL     1       4.615  40.862  48.816  1.00  0.00     0.000 A 
ATOM     17  C   UNL     1       5.121  42.732  50.821  1.00  0.00     0.005 A 
ATOM     18  C   UNL     1       5.735  41.691  48.728  1.00  0.00     0.005 A 
ENDBRANCH  12  13
ENDBRANCH  10  12
ENDBRANCH   1  10
BRANCH   3  19
ATOM     19  N   UNL     1       5.208  47.157  53.422  1.00  0.00    -0.322 N 
ATOM     20  H   UNL     1       5.329  48.149  53.589  1.00  0.00     0.170 HD
BRANCH  19  21
ATOM     21  C   UNL     1       3.945  46.680  53.398  1.00  0.00     0.153 A 
ATOM     22  C   UNL     1       3.596  45.496  54.099  1.00  0.00     0.072 A 
ATOM     23  N   UNL     1       2.874  47.218  52.808  1.00  0.00    -0.158 NA
ATOM     24  C   UNL     1       2.252  45.334  53.881  1.00  0.00     0.040 A 
ATOM     25  N   UNL     1       1.871  46.376  53.094  1.00  0.00    -0.280 N 
ATOM     26  H   UNL     1       0.948  46.579  52.727  1.00  0.00     0.190 HD
BRANCH  24  27
ATOM     27  C   UNL     1       1.355  44.188  54.390  1.00  0.00     0.038 C 
ATOM     28  C   UNL     1       1.165  42.971  53.523  1.00  0.00     0.010 C 
ATOM     29  C   UNL     1       0.035  43.940  53.711  1.00  0.00     0.010 C 
ENDBRANCH  24  27
ENDBRANCH  19  21
ENDBRANCH   3  19
TORSDOF 6
ENDMDL
MODEL 12
REMARK VINA RESULT:    -8.727      2.140      5.617
REMARK INTER + INTRA:         -12.678
REMARK INTER:                 -12.023
REMARK INTRA:                  -0.654
REMARK UNBOUND:                -0.889
REMARK SMILES c1ccc(CNc2nc(Nc3cc(C4CC4)[nH]n3)c3sccc3n2)cc1
REMARK SMILES IDX 7 1 8 2 9 3 19 4 20 5 21 6 22 7 23 8 24 9 6 10 5 12 4 13
REMARK SMILES IDX 1 14 2 15 26 16 3 17 25 18 10 19 11 21 12 22 18 23 13 24
REMARK SMILES IDX 17 25 14 27 15 28 16 29
REMARK H PARENT 6 11 10 20 17 26
ROOT
ATOM      1  C   UNL     1       2.950  42.726  52.378  1.00  0.00     0.225 A 
ATOM      2  N   UNL     1       3.367  43.984  52.550  1.00  0.00    -0.194 NA
ATOM      3  C   UNL     1       4.484  44.434  51.923  1.00  0.00     0.155 A 
ATOM      4  C   UNL     1       5.115  43.561  51.028  1.00  0.00     0.096 A 
ATOM      5  S   UNL     1       6.431  43.787  49.935  1.00  0.00    -0.138 S 
ATOM      6  C   UNL     1       6.366  42.177  49.379  1.00  0.00     0.068 A 
ATOM      7  C   UNL     1       5.346  41.476  49.974  1.00  0.00     0.041 A 
ATOM      8  C   UNL     1       4.611  42.269  50.905  1.00  0.00     0.089 A 
ATOM      9  N   UNL     1       3.536  41.826  51.595  1.00  0.00    -0.212 NA
ENDROOT
BRANCH   1  10
ATOM     10  N   UNL     1       1.812  42.384  53.098  1.00  0.00    -0.350 N 
ATOM     11  H   UNL     1       1.627  41.408  52.900  1.00  0.00     0.164 HD
BRANCH  10  12
ATOM     12  C   UNL     1       0.686  43.269  52.878  1.00  0.00     0.151 C 
BRANCH  12  13
ATOM     13  C   UNL     1       0.208  43.797  54.211  1.00  0.00    -0.029 A 
ATOM     14  C   UNL     1      -0.702  44.795  56.671  1.00  0.00     0.000 A 
ATOM     15  C   UNL     1      -1.574  44.098  55.837  1.00  0.00     0.000 A 
ATOM     16  C   UNL     1       0.620  45.001  56.280  1.00  0.00     0.000 A 
ATOM     17  C   UNL     1      -1.123  43.603  54.612  1.00  0.00     0.005 A 
ATOM     18  C   UNL     1       1.073  44.508  55.055  1.00  0.00     0.005 A 
ENDBRANCH  12  13
ENDBRANCH  10  12
ENDBRANCH   1  10
BRANCH   3  19
ATOM     19  N   UNL     1       4.817  45.767  52.203  1.00  0.00    -0.322 N 
ATOM     20  H   UNL     1       3.987  46.324  52.043  1.00  0.00     0.170 HD
BRANCH  19  21
ATOM     21  C   UNL     1       5.762  46.278  53.022  1.00  0.00     0.153 A 
ATOM     22  C   UNL     1       7.036  46.656  52.524  1.00  0.00     0.072 A 
ATOM     23  N   UNL     1       5.658  46.550  54.326  1.00  0.00    -0.158 NA
ATOM     24  C   UNL     1       7.710  47.155  53.609  1.00  0.00     0.040 A 
ATOM     25  N   UNL     1       6.854  47.056  54.662  1.00  0.00    -0.280 N 
ATOM     26  H   UNL     1       7.014  47.321  55.627  1.00  0.00     0.190 HD
BRANCH  24  27
ATOM     27  C   UNL     1       9.157  47.686  53.646  1.00  0.00     0.038 C 
ATOM     28  C   UNL     1      10.283  46.762  53.261  1.00  0.00     0.010 C 
ATOM     29  C   UNL     1      10.099  47.162  54.696  1.00  0.00     0.010 C 
ENDBRANCH  24  27
ENDBRANCH  19  21
ENDBRANCH   3  19
TORSDOF 6
ENDMDL
MODEL 13
REMARK VINA RESULT:    -8.706      2.909      7.494
REMARK INTER + INTRA:         -12.649
REMARK INTER:                 -11.920
REMARK INTRA:                  -0.729
REMARK UNBOUND:                -0.889
REMARK SMILES c1ccc(CNc2nc(Nc3cc(C4CC4)[nH]n3)c3sccc3n2)cc1
REMARK SMILES IDX 7 1 8 2 9 3 19 4 20 5 21 6 22 7 23 8 24 9 6 10 5 12 4 13
REMARK SMILES IDX 1 14 2 15 26 16 3 17 25 18 10 19 11 21 12 22 18 23 13 24
REMARK SMILES IDX 17 25 14 27 15 28 16 29
REMARK H PARENT 6 11 10 20 17 26
ROOT
ATOM      1  C   UNL     1       5.102  44.725  52.559  1.00  0.00     0.225 A 
ATOM      2  N   UNL     1       4.020  44.071  52.995  1.00  0.00    -0.194 NA
ATOM      3  C   UNL     1       3.545  42.994  52.320  1.00  0.00     0.155 A 
ATOM      4  C   UNL     1       4.285  42.547  51.218  1.00  0.00     0.096 A 
ATOM      5  S   UNL     1       4.124  41.155  50.211  1.00  0.00    -0.138 S 
ATOM      6  C   UNL     1       5.466  41.580  49.251  1.00  0.00     0.068 A 
ATOM      7  C   UNL     1       6.062  42.736  49.695  1.00  0.00     0.041 A 
ATOM      8  C   UNL     1       5.403  43.284  50.835  1.00  0.00     0.089 A 
ATOM      9  N   UNL     1       5.813  44.395  51.486  1.00  0.00    -0.212 NA
ENDROOT
BRANCH   1  10
ATOM     10  N   UNL     1       5.466  45.827  53.323  1.00  0.00    -0.350 N 
ATOM     11  H   UNL     1       4.644  46.098  53.849  1.00  0.00     0.164 HD
BRANCH  10  12
ATOM     12  C   UNL     1       6.076  46.897  52.562  1.00  0.00     0.151 C 
BRANCH  12  13
ATOM     13  C   UNL     1       7.548  46.965  52.900  1.00  0.00    -0.029 A 
ATOM     14  C   UNL     1      10.283  47.062  53.519  1.00  0.00     0.000 A 
ATOM     15  C   UNL     1       9.873  46.774  52.218  1.00  0.00     0.000 A 
ATOM     16  C   UNL     1       9.333  47.295  54.512  1.00  0.00     0.000 A 
ATOM     17  C   UNL     1       8.513  46.724  51.910  1.00  0.00     0.005 A 
ATOM     18  C   UNL     1       7.972  47.244  54.207  1.00  0.00     0.005 A 
ENDBRANCH  12  13
ENDBRANCH  10  12
ENDBRANCH   1  10
BRANCH   3  19
ATOM     19  N   UNL     1       2.397  42.412  52.877  1.00  0.00    -0.322 N 
ATOM     20  H   UNL     1       2.694  41.867  53.677  1.00  0.00     0.170 HD
BRANCH  19  21
ATOM     21  C   UNL     1       1.109  42.816  52.842  1.00  0.00     0.153 A 
ATOM     22  C   UNL     1       0.444  43.038  51.608  1.00  0.00     0.072 A 
ATOM     23  N   UNL     1       0.280  43.007  53.872  1.00  0.00    -0.158 NA
ATOM     24  C   UNL     1      -0.833  43.399  51.949  1.00  0.00     0.040 A 
ATOM     25  N   UNL     1      -0.878  43.382  53.309  1.00  0.00    -0.280 N 
ATOM     26  H   UNL     1      -1.662  43.602  53.913  1.00  0.00     0.190 HD
BRANCH  24  27
ATOM     27  C   UNL     1      -1.982  43.783  50.995  1.00  0.00     0.038 C 
ATOM     28  C   UNL     1      -3.106  42.805  50.776  1.00  0.00     0.010 C 
ATOM     29  C   UNL     1      -2.112  43.060  49.682  1.00  0.00     0.010 C 
ENDBRANCH  24  27
ENDBRANCH  19  21
ENDBRANCH   3  19
TORSDOF 6
ENDMDL
MODEL 14
REMARK VINA RESULT:    -8.654      1.332      4.994
REMARK INTER + INTRA:         -12.579
REMARK INTER:                 -11.740
REMARK INTRA:                  -0.839
REMARK UNBOUND:                -0.889
REMARK SMILES c1ccc(CNc2nc(Nc3cc(C4CC4)[nH]n3)c3sccc3n2)cc1
REMARK SMILES IDX 7 1 8 2 9 3 19 4 20 5 21 6 22 7 23 8 24 9 6 10 5 12 4 13
REMARK SMILES IDX 1 14 2 15 26 16 3 17 25 18 10 19 11 21 12 22 18 23 13 24
REMARK SMILES IDX 17 25 14 27 15 28 16 29
REMARK H PARENT 6 11 10 20 17 26
ROOT
ATOM      1  C   UNL     1       4.300  45.582  54.703  1.00  0.00     0.225 A 
ATOM      2  N   UNL     1       3.979  45.099  53.498  1.00  0.00    -0.194 NA
ATOM      3  C   UNL     1       2.723  44.651  53.246  1.00  0.00     0.155 A 
ATOM      4  C   UNL     1       1.769  44.805  54.260  1.00  0.00     0.096 A 
ATOM      5  S   UNL     1       0.066  44.526  54.290  1.00  0.00    -0.138 S 
ATOM      6  C   UNL     1      -0.078  45.012  55.918  1.00  0.00     0.068 A 
ATOM      7  C   UNL     1       1.129  45.419  56.434  1.00  0.00     0.041 A 
ATOM      8  C   UNL     1       2.188  45.323  55.483  1.00  0.00     0.089 A 
ATOM      9  N   UNL     1       3.463  45.697  55.729  1.00  0.00    -0.212 NA
ENDROOT
BRANCH   1  10
ATOM     10  N   UNL     1       5.625  45.978  54.838  1.00  0.00    -0.350 N 
ATOM     11  H   UNL     1       5.791  46.097  55.831  1.00  0.00     0.164 HD
BRANCH  10  12
ATOM     12  C   UNL     1       5.986  47.121  54.025  1.00  0.00     0.151 C 
BRANCH  12  13
ATOM     13  C   UNL     1       7.362  46.895  53.442  1.00  0.00    -0.029 A 
ATOM     14  C   UNL     1       9.911  46.447  52.357  1.00  0.00     0.000 A 
ATOM     15  C   UNL     1       8.773  46.179  51.597  1.00  0.00     0.000 A 
ATOM     16  C   UNL     1       9.781  46.931  53.657  1.00  0.00     0.000 A 
ATOM     17  C   UNL     1       7.506  46.400  52.137  1.00  0.00     0.005 A 
ATOM     18  C   UNL     1       8.514  47.152  54.200  1.00  0.00     0.005 A 
ENDBRANCH  12  13
ENDBRANCH  10  12
ENDBRANCH   1  10
BRANCH   3  19
ATOM     19  N   UNL     1       2.525  44.157  51.948  1.00  0.00    -0.322 N 
ATOM     20  H   UNL     1       2.178  44.923  51.385  1.00  0.00     0.170 HD
BRANCH  19  21
ATOM     21  C   UNL     1       3.122  43.131  51.305  1.00  0.00     0.153 A 
ATOM     22  C   UNL     1       4.391  43.291  50.689  1.00  0.00     0.072 A 
ATOM     23  N   UNL     1       2.691  41.872  51.189  1.00  0.00    -0.158 NA
ATOM     24  C   UNL     1       4.695  42.059  50.171  1.00  0.00     0.040 A 
ATOM     25  N   UNL     1       3.645  41.251  50.481  1.00  0.00    -0.280 N 
ATOM     26  H   UNL     1       3.519  40.272  50.252  1.00  0.00     0.190 HD
BRANCH  24  27
ATOM     27  C   UNL     1       5.952  41.668  49.368  1.00  0.00     0.038 C 
ATOM     28  C   UNL     1       7.208  41.300  50.114  1.00  0.00     0.010 C 
ATOM     29  C   UNL     1       7.135  42.599  49.366  1.00  0.00     0.010 C 
ENDBRANCH  24  27
ENDBRANCH  19  21
ENDBRANCH   3  19
TORSDOF 6
ENDMDL
MODEL 15
REMARK VINA RESULT:    -8.577      3.989      6.277
REMARK INTER + INTRA:         -12.475
REMARK INTER:                 -11.431
REMARK INTRA:                  -1.044
REMARK UNBOUND:                -0.889
REMARK SMILES c1ccc(CNc2nc(Nc3cc(C4CC4)[nH]n3)c3sccc3n2)cc1
REMARK SMILES IDX 7 1 8 2 9 3 19 4 20 5 21 6 22 7 23 8 24 9 6 10 5 12 4 13
REMARK SMILES IDX 1 14 2 15 26 16 3 17 25 18 10 19 11 21 12 22 18 23 13 24
REMARK SMILES IDX 17 25 14 27 15 28 16 29
REMARK H PARENT 6 11 10 20 17 26
ROOT
ATOM      1  C   UNL     1       4.563  41.592  50.330  1.00  0.00     0.225 A 
ATOM      2  N   UNL     1       5.635  42.305  49.973  1.00  0.00    -0.194 NA
ATOM      3  C   UNL     1       6.069  42.304  48.686  1.00  0.00     0.155 A 
ATOM      4  C   UNL     1       5.297  41.609  47.748  1.00  0.00     0.096 A 
ATOM      5  S   UNL     1       5.402  41.494  46.029  1.00  0.00    -0.138 S 
ATOM      6  C   UNL     1       4.053  40.458  45.923  1.00  0.00     0.068 A 
ATOM      7  C   UNL     1       3.495  40.223  47.157  1.00  0.00     0.041 A 
ATOM      8  C   UNL     1       4.191  40.896  48.205  1.00  0.00     0.089 A 
ATOM      9  N   UNL     1       3.822  40.859  49.505  1.00  0.00    -0.212 NA
ENDROOT
BRANCH   1  10
ATOM     10  N   UNL     1       4.243  41.655  51.680  1.00  0.00    -0.350 N 
ATOM     11  H   UNL     1       4.152  40.698  52.001  1.00  0.00     0.164 HD
BRANCH  10  12
ATOM     12  C   UNL     1       3.107  42.503  51.979  1.00  0.00     0.151 C 
BRANCH  12  13
ATOM     13  C   UNL     1       3.565  43.943  52.020  1.00  0.00    -0.029 A 
ATOM     14  C   UNL     1       4.404  46.619  52.126  1.00  0.00     0.000 A 
ATOM     15  C   UNL     1       4.880  45.702  53.062  1.00  0.00     0.000 A 
ATOM     16  C   UNL     1       3.507  46.206  51.142  1.00  0.00     0.000 A 
ATOM     17  C   UNL     1       4.461  44.372  53.012  1.00  0.00     0.005 A 
ATOM     18  C   UNL     1       3.086  44.876  51.090  1.00  0.00     0.005 A 
ENDBRANCH  12  13
ENDBRANCH  10  12
ENDBRANCH   1  10
BRANCH   3  19
ATOM     19  N   UNL     1       7.213  43.081  48.452  1.00  0.00    -0.322 N 
ATOM     20  H   UNL     1       7.221  43.313  47.466  1.00  0.00     0.170 HD
BRANCH  19  21
ATOM     21  C   UNL     1       7.911  43.881  49.286  1.00  0.00     0.153 A 
ATOM     22  C   UNL     1       7.253  44.812  50.131  1.00  0.00     0.072 A 
ATOM     23  N   UNL     1       9.231  43.900  49.492  1.00  0.00    -0.158 NA
ATOM     24  C   UNL     1       8.254  45.415  50.848  1.00  0.00     0.040 A 
ATOM     25  N   UNL     1       9.415  44.849  50.421  1.00  0.00    -0.280 N 
ATOM     26  H   UNL     1      10.361  45.054  50.724  1.00  0.00     0.190 HD
BRANCH  24  27
ATOM     27  C   UNL     1       8.107  46.533  51.899  1.00  0.00     0.038 C 
ATOM     28  C   UNL     1       8.479  47.943  51.520  1.00  0.00     0.010 C 
ATOM     29  C   UNL     1       9.348  47.168  52.467  1.00  0.00     0.010 C 
ENDBRANCH  24  27
ENDBRANCH  19  21
ENDBRANCH   3  19
TORSDOF 6
ENDMDL
MODEL 16
REMARK VINA RESULT:    -8.540      2.677      6.651
REMARK INTER + INTRA:         -12.424
REMARK INTER:                 -12.057
REMARK INTRA:                  -0.368
REMARK UNBOUND:                -0.889
REMARK SMILES c1ccc(CNc2nc(Nc3cc(C4CC4)[nH]n3)c3sccc3n2)cc1
REMARK SMILES IDX 7 1 8 2 9 3 19 4 20 5 21 6 22 7 23 8 24 9 6 10 5 12 4 13
REMARK SMILES IDX 1 14 2 15 26 16 3 17 25 18 10 19 11 21 12 22 18 23 13 24
REMARK SMILES IDX 17 25 14 27 15 28 16 29
REMARK H PARENT 6 11 10 20 17 26
ROOT
ATOM      1  C   UNL     1       4.997  44.455  51.791  1.00  0.00     0.225 A 
ATOM      2  N   UNL     1       4.910  43.257  51.205  1.00  0.00    -0.194 NA
ATOM      3  C   UNL     1       3.869  42.428  51.474  1.00  0.00     0.155 A 
ATOM      4  C   UNL     1       2.857  42.918  52.308  1.00  0.00     0.096 A 
ATOM      5  S   UNL     1       1.323  42.268  52.761  1.00  0.00    -0.138 S 
ATOM      6  C   UNL     1       0.942  43.608  53.743  1.00  0.00     0.068 A 
ATOM      7  C   UNL     1       1.932  44.560  53.710  1.00  0.00     0.041 A 
ATOM      8  C   UNL     1       3.024  44.180  52.873  1.00  0.00     0.089 A 
ATOM      9  N   UNL     1       4.106  44.956  52.641  1.00  0.00    -0.212 NA
ENDROOT
BRANCH   1  10
ATOM     10  N   UNL     1       6.125  45.191  51.452  1.00  0.00    -0.350 N 
ATOM     11  H   UNL     1       6.923  44.589  51.617  1.00  0.00     0.164 HD
BRANCH  10  12
ATOM     12  C   UNL     1       6.201  46.485  52.097  1.00  0.00     0.151 C 
BRANCH  12  13
ATOM     13  C   UNL     1       7.603  46.692  52.624  1.00  0.00    -0.029 A 
ATOM     14  C   UNL     1      10.211  47.044  53.597  1.00  0.00     0.000 A 
ATOM     15  C   UNL     1      10.008  46.516  52.324  1.00  0.00     0.000 A 
ATOM     16  C   UNL     1       9.117  47.391  54.389  1.00  0.00     0.000 A 
ATOM     17  C   UNL     1       8.712  46.338  51.839  1.00  0.00     0.005 A 
ATOM     18  C   UNL     1       7.818  47.213  53.907  1.00  0.00     0.005 A 
ENDBRANCH  12  13
ENDBRANCH  10  12
ENDBRANCH   1  10
BRANCH   3  19
ATOM     19  N   UNL     1       3.910  41.197  50.804  1.00  0.00    -0.322 N 
ATOM     20  H   UNL     1       3.456  40.516  51.400  1.00  0.00     0.170 HD
BRANCH  19  21
ATOM     21  C   UNL     1       3.978  40.923  49.484  1.00  0.00     0.153 A 
ATOM     22  C   UNL     1       4.978  41.510  48.664  1.00  0.00     0.072 A 
ATOM     23  N   UNL     1       3.218  40.080  48.780  1.00  0.00    -0.158 NA
ATOM     24  C   UNL     1       4.767  40.989  47.414  1.00  0.00     0.040 A 
ATOM     25  N   UNL     1       3.698  40.155  47.529  1.00  0.00    -0.280 N 
ATOM     26  H   UNL     1       3.253  39.602  46.806  1.00  0.00     0.190 HD
BRANCH  24  27
ATOM     27  C   UNL     1       5.551  41.307  46.126  1.00  0.00     0.038 C 
ATOM     28  C   UNL     1       4.981  42.306  45.153  1.00  0.00     0.010 C 
ATOM     29  C   UNL     1       4.998  40.847  44.803  1.00  0.00     0.010 C 
ENDBRANCH  24  27
ENDBRANCH  19  21
ENDBRANCH   3  19
TORSDOF 6
ENDMDL
MODEL 17
REMARK VINA RESULT:    -8.380      2.216      6.653
REMARK INTER + INTRA:         -12.208
REMARK INTER:                 -11.482
REMARK INTRA:                  -0.727
REMARK UNBOUND:                -0.889
REMARK SMILES c1ccc(CNc2nc(Nc3cc(C4CC4)[nH]n3)c3sccc3n2)cc1
REMARK SMILES IDX 7 1 8 2 9 3 19 4 20 5 21 6 22 7 23 8 24 9 6 10 5 12 4 13
REMARK SMILES IDX 1 14 2 15 26 16 3 17 25 18 10 19 11 21 12 22 18 23 13 24
REMARK SMILES IDX 17 25 14 27 15 28 16 29
REMARK H PARENT 6 11 10 20 17 26
ROOT
ATOM      1  C   UNL     1       4.599  45.867  53.957  1.00  0.00     0.225 A 
ATOM      2  N   UNL     1       3.752  45.699  54.978  1.00  0.00    -0.194 NA
ATOM      3  C   UNL     1       2.668  44.892  54.850  1.00  0.00     0.155 A 
ATOM      4  C   UNL     1       2.533  44.180  53.652  1.00  0.00     0.096 A 
ATOM      5  S   UNL     1       1.420  42.957  53.159  1.00  0.00    -0.138 S 
ATOM      6  C   UNL     1       2.126  42.807  51.614  1.00  0.00     0.068 A 
ATOM      7  C   UNL     1       3.213  43.636  51.471  1.00  0.00     0.041 A 
ATOM      8  C   UNL     1       3.464  44.410  52.642  1.00  0.00     0.089 A 
ATOM      9  N   UNL     1       4.496  45.274  52.772  1.00  0.00    -0.212 NA
ENDROOT
BRANCH   1  10
ATOM     10  N   UNL     1       5.649  46.741  54.208  1.00  0.00    -0.350 N 
ATOM     11  H   UNL     1       5.351  47.342  54.968  1.00  0.00     0.164 HD
BRANCH  10  12
ATOM     12  C   UNL     1       6.126  47.444  53.035  1.00  0.00     0.151 C 
BRANCH  12  13
ATOM     13  C   UNL     1       7.579  47.097  52.809  1.00  0.00    -0.029 A 
ATOM     14  C   UNL     1      10.285  46.483  52.392  1.00  0.00     0.000 A 
ATOM     15  C   UNL     1       9.900  47.195  53.526  1.00  0.00     0.000 A 
ATOM     16  C   UNL     1       9.327  46.082  51.463  1.00  0.00     0.000 A 
ATOM     17  C   UNL     1       8.555  47.503  53.733  1.00  0.00     0.005 A 
ATOM     18  C   UNL     1       7.980  46.389  51.667  1.00  0.00     0.005 A 
ENDBRANCH  12  13
ENDBRANCH  10  12
ENDBRANCH   1  10
BRANCH   3  19
ATOM     19  N   UNL     1       1.854  44.818  55.990  1.00  0.00    -0.322 N 
ATOM     20  H   UNL     1       2.466  44.697  56.788  1.00  0.00     0.170 HD
BRANCH  19  21
ATOM     21  C   UNL     1       0.624  45.324  56.220  1.00  0.00     0.153 A 
ATOM     22  C   UNL     1       0.347  46.073  57.393  1.00  0.00     0.072 A 
ATOM     23  N   UNL     1      -0.449  45.265  55.426  1.00  0.00    -0.158 NA
ATOM     24  C   UNL     1      -0.967  46.448  57.276  1.00  0.00     0.040 A 
ATOM     25  N   UNL     1      -1.403  45.930  56.096  1.00  0.00    -0.280 N 
ATOM     26  H   UNL     1      -2.326  45.998  55.684  1.00  0.00     0.190 HD
BRANCH  24  27
ATOM     27  C   UNL     1      -1.800  47.260  58.287  1.00  0.00     0.038 C 
ATOM     28  C   UNL     1      -2.178  48.678  57.949  1.00  0.00     0.010 C 
ATOM     29  C   UNL     1      -1.151  48.411  59.009  1.00  0.00     0.010 C 
ENDBRANCH  24  27
ENDBRANCH  19  21
ENDBRANCH   3  19
TORSDOF 6
ENDMDL
MODEL 18
REMARK VINA RESULT:    -8.345      2.482      5.627
REMARK INTER + INTRA:         -12.162
REMARK INTER:                 -11.491
REMARK INTRA:                  -0.671
REMARK UNBOUND:                -0.889
REMARK SMILES c1ccc(CNc2nc(Nc3cc(C4CC4)[nH]n3)c3sccc3n2)cc1
REMARK SMILES IDX 7 1 8 2 9 3 19 4 20 5 21 6 22 7 23 8 24 9 6 10 5 12 4 13
REMARK SMILES IDX 1 14 2 15 26 16 3 17 25 18 10 19 11 21 12 22 18 23 13 24
REMARK SMILES IDX 17 25 14 27 15 28 16 29
REMARK H PARENT 6 11 10 20 17 26
ROOT
ATOM      1  C   UNL     1       2.947  42.695  52.261  1.00  0.00     0.225 A 
ATOM      2  N   UNL     1       3.307  43.956  52.518  1.00  0.00    -0.194 NA
ATOM      3  C   UNL     1       4.437  44.477  51.976  1.00  0.00     0.155 A 
ATOM      4  C   UNL     1       5.146  43.675  51.073  1.00  0.00     0.096 A 
ATOM      5  S   UNL     1       6.506  44.004  50.063  1.00  0.00    -0.138 S 
ATOM      6  C   UNL     1       6.532  42.424  49.425  1.00  0.00     0.068 A 
ATOM      7  C   UNL     1       5.509  41.657  49.928  1.00  0.00     0.041 A 
ATOM      8  C   UNL     1       4.699  42.374  50.858  1.00  0.00     0.089 A 
ATOM      9  N   UNL     1       3.607  41.858  51.466  1.00  0.00    -0.212 NA
ENDROOT
BRANCH   1  10
ATOM     10  N   UNL     1       1.788  42.276  52.902  1.00  0.00    -0.350 N 
ATOM     11  H   UNL     1       1.144  41.986  52.175  1.00  0.00     0.164 HD
BRANCH  10  12
ATOM     12  C   UNL     1       1.248  43.242  53.836  1.00  0.00     0.151 C 
BRANCH  12  13
ATOM     13  C   UNL     1      -0.229  43.418  53.564  1.00  0.00    -0.029 A 
ATOM     14  C   UNL     1      -2.976  43.730  53.086  1.00  0.00     0.000 A 
ATOM     15  C   UNL     1      -2.405  44.260  54.242  1.00  0.00     0.000 A 
ATOM     16  C   UNL     1      -2.182  43.040  52.172  1.00  0.00     0.000 A 
ATOM     17  C   UNL     1      -1.040  44.104  54.482  1.00  0.00     0.005 A 
ATOM     18  C   UNL     1      -0.815  42.880  52.410  1.00  0.00     0.005 A 
ENDBRANCH  12  13
ENDBRANCH  10  12
ENDBRANCH   1  10
BRANCH   3  19
ATOM     19  N   UNL     1       4.705  45.805  52.339  1.00  0.00    -0.322 N 
ATOM     20  H   UNL     1       3.831  46.314  52.280  1.00  0.00     0.170 HD
BRANCH  19  21
ATOM     21  C   UNL     1       5.671  46.315  53.132  1.00  0.00     0.153 A 
ATOM     22  C   UNL     1       6.925  46.710  52.597  1.00  0.00     0.072 A 
ATOM     23  N   UNL     1       5.609  46.573  54.441  1.00  0.00    -0.158 NA
ATOM     24  C   UNL     1       7.631  47.203  53.664  1.00  0.00     0.040 A 
ATOM     25  N   UNL     1       6.811  47.085  54.743  1.00  0.00    -0.280 N 
ATOM     26  H   UNL     1       7.000  47.342  55.705  1.00  0.00     0.190 HD
BRANCH  24  27
ATOM     27  C   UNL     1       9.073  47.747  53.659  1.00  0.00     0.038 C 
ATOM     28  C   UNL     1      10.194  46.836  53.230  1.00  0.00     0.010 C 
ATOM     29  C   UNL     1      10.054  47.222  54.673  1.00  0.00     0.010 C 
ENDBRANCH  24  27
ENDBRANCH  19  21
ENDBRANCH   3  19
TORSDOF 6
ENDMDL
