MODEL 1
REMARK VINA RESULT:    -7.834      0.000      0.000
REMARK INTER + INTRA:         -12.724
REMARK INTER:                 -11.269
REMARK INTRA:                  -1.456
REMARK UNBOUND:                -1.456
REMARK SMILES COc1ccc(Nc2nc(NCC(C)C)nc(N)c2[N+](=O)[O-])cc1
REMARK SMILES IDX 8 1 9 2 10 3 16 4 17 5 19 6 7 7 6 9 3 10 4 11 24 12 5 13
REMARK SMILES IDX 23 14 2 15 1 16 20 17 21 18 22 19 11 20 12 22 13 23 14 24
REMARK SMILES IDX 15 25 18 26
REMARK H PARENT 7 8 11 21 18 27 18 28
ROOT
ATOM      1  C   UNL     1       7.215  45.302  50.919  1.00  0.00     0.217 A 
ATOM      2  N   UNL     1       6.016  45.363  51.530  1.00  0.00    -0.188 NA
ATOM      3  C   UNL     1       5.112  44.412  51.278  1.00  0.00     0.227 A 
ATOM      4  N   UNL     1       5.316  43.401  50.428  1.00  0.00    -0.189 NA
ATOM      5  C   UNL     1       6.493  43.330  49.792  1.00  0.00     0.210 A 
ATOM      6  C   UNL     1       7.480  44.268  50.035  1.00  0.00     0.353 A 
ENDROOT
BRANCH   1   7
ATOM      7  N   UNL     1       8.165  46.328  51.153  1.00  0.00    -0.334 N 
ATOM      8  H   UNL     1       8.858  46.357  50.401  1.00  0.00     0.168 HD
BRANCH   7   9
ATOM      9  C   UNL     1       8.695  46.807  52.369  1.00  0.00     0.040 A 
ATOM     10  C   UNL     1       9.597  47.759  54.881  1.00  0.00     0.119 A 
ATOM     11  C   UNL     1      10.273  46.734  54.221  1.00  0.00     0.048 A 
ATOM     12  C   UNL     1       8.454  48.297  54.295  1.00  0.00     0.048 A 
ATOM     13  C   UNL     1       9.821  46.256  52.986  1.00  0.00     0.030 A 
ATOM     14  C   UNL     1       8.005  47.817  53.058  1.00  0.00     0.030 A 
BRANCH  10  15
ATOM     15  O   UNL     1      10.141  48.131  56.078  1.00  0.00    -0.497 OA
ATOM     16  C   UNL     1      11.346  47.483  56.466  1.00  0.00     0.278 C 
ENDBRANCH  10  15
ENDBRANCH   7   9
ENDBRANCH   1   7
BRANCH   6  17
ATOM     17  N   UNL     1       8.754  44.179  49.377  1.00  0.00     0.070 N 
ATOM     18  O   UNL     1       8.762  44.130  48.138  1.00  0.00    -0.258 OA
ATOM     19  O   UNL     1       9.764  44.134  50.095  1.00  0.00    -0.258 OA
ENDBRANCH   6  17
BRANCH   3  20
ATOM     20  N   UNL     1       3.919  44.528  51.964  1.00  0.00    -0.354 N 
ATOM     21  H   UNL     1       3.325  43.752  51.698  1.00  0.00     0.163 HD
BRANCH  20  22
ATOM     22  C   UNL     1       3.985  44.843  53.382  1.00  0.00     0.119 C 
BRANCH  22  23
ATOM     23  C   UNL     1       3.371  46.214  53.720  1.00  0.00     0.002 C 
ATOM     24  C   UNL     1       2.743  46.879  52.493  1.00  0.00     0.009 C 
ATOM     25  C   UNL     1       4.445  47.130  54.312  1.00  0.00     0.009 C 
ENDBRANCH  22  23
ENDBRANCH  20  22
ENDBRANCH   3  20
BRANCH   5  26
ATOM     26  N   UNL     1       6.646  42.215  48.956  1.00  0.00    -0.378 N 
ATOM     27  H   UNL     1       7.477  42.295  48.375  1.00  0.00     0.158 HD
ATOM     28  H   UNL     1       5.844  42.117  48.330  1.00  0.00     0.158 HD
ENDBRANCH   5  26
TORSDOF 8
ENDMDL
MODEL 2
REMARK VINA RESULT:    -7.719      1.059      1.458
REMARK INTER + INTRA:         -12.560
REMARK INTER:                 -11.253
REMARK INTRA:                  -1.307
REMARK UNBOUND:                -1.456
REMARK SMILES COc1ccc(Nc2nc(NCC(C)C)nc(N)c2[N+](=O)[O-])cc1
REMARK SMILES IDX 8 1 9 2 10 3 16 4 17 5 19 6 7 7 6 9 3 10 4 11 24 12 5 13
REMARK SMILES IDX 23 14 2 15 1 16 20 17 21 18 22 19 11 20 12 22 13 23 14 24
REMARK SMILES IDX 15 25 18 26
REMARK H PARENT 7 8 11 21 18 27 18 28
ROOT
ATOM      1  C   UNL     1       6.575  44.706  50.882  1.00  0.00     0.217 A 
ATOM      2  N   UNL     1       5.387  44.564  51.503  1.00  0.00    -0.188 NA
ATOM      3  C   UNL     1       4.666  43.463  51.275  1.00  0.00     0.227 A 
ATOM      4  N   UNL     1       5.042  42.489  50.440  1.00  0.00    -0.189 NA
ATOM      5  C   UNL     1       6.209  42.617  49.795  1.00  0.00     0.210 A 
ATOM      6  C   UNL     1       7.014  43.720  50.013  1.00  0.00     0.353 A 
ENDROOT
BRANCH   1   7
ATOM      7  N   UNL     1       7.328  45.889  51.090  1.00  0.00    -0.334 N 
ATOM      8  H   UNL     1       7.863  46.128  50.252  1.00  0.00     0.168 HD
BRANCH   7   9
ATOM      9  C   UNL     1       7.952  46.368  52.261  1.00  0.00     0.040 A 
ATOM     10  C   UNL     1       9.289  47.450  54.514  1.00  0.00     0.119 A 
ATOM     11  C   UNL     1       7.912  47.229  54.537  1.00  0.00     0.048 A 
ATOM     12  C   UNL     1       9.998  47.148  53.354  1.00  0.00     0.048 A 
ATOM     13  C   UNL     1       7.250  46.705  53.421  1.00  0.00     0.030 A 
ATOM     14  C   UNL     1       9.332  46.624  52.238  1.00  0.00     0.030 A 
BRANCH  10  15
ATOM     15  O   UNL     1       9.809  47.964  55.668  1.00  0.00    -0.497 OA
ATOM     16  C   UNL     1      11.076  47.467  56.080  1.00  0.00     0.278 C 
ENDBRANCH  10  15
ENDBRANCH   7   9
ENDBRANCH   1   7
BRANCH   6  17
ATOM     17  N   UNL     1       8.280  43.847  49.346  1.00  0.00     0.070 N 
ATOM     18  O   UNL     1       8.277  43.901  48.107  1.00  0.00    -0.258 OA
ATOM     19  O   UNL     1       9.298  43.872  50.055  1.00  0.00    -0.258 OA
ENDBRANCH   6  17
BRANCH   3  20
ATOM     20  N   UNL     1       3.475  43.377  51.969  1.00  0.00    -0.354 N 
ATOM     21  H   UNL     1       3.312  42.404  52.199  1.00  0.00     0.163 HD
BRANCH  20  22
ATOM     22  C   UNL     1       3.242  44.346  53.028  1.00  0.00     0.119 C 
BRANCH  22  23
ATOM     23  C   UNL     1       2.043  45.270  52.741  1.00  0.00     0.002 C 
ATOM     24  C   UNL     1       1.216  44.782  51.549  1.00  0.00     0.009 C 
ATOM     25  C   UNL     1       2.540  46.694  52.477  1.00  0.00     0.009 C 
ENDBRANCH  22  23
ENDBRANCH  20  22
ENDBRANCH   3  20
BRANCH   5  26
ATOM     26  N   UNL     1       6.553  41.532  48.977  1.00  0.00    -0.378 N 
ATOM     27  H   UNL     1       6.646  40.674  49.514  1.00  0.00     0.158 HD
ATOM     28  H   UNL     1       7.447  41.698  48.510  1.00  0.00     0.158 HD
ENDBRANCH   5  26
TORSDOF 8
ENDMDL
MODEL 3
REMARK VINA RESULT:    -7.636      1.351      1.899
REMARK INTER + INTRA:         -12.440
REMARK INTER:                 -11.266
REMARK INTRA:                  -1.174
REMARK UNBOUND:                -1.456
REMARK SMILES COc1ccc(Nc2nc(NCC(C)C)nc(N)c2[N+](=O)[O-])cc1
REMARK SMILES IDX 8 1 9 2 10 3 16 4 17 5 19 6 7 7 6 9 3 10 4 11 24 12 5 13
REMARK SMILES IDX 23 14 2 15 1 16 20 17 21 18 22 19 11 20 12 22 13 23 14 24
REMARK SMILES IDX 15 25 18 26
REMARK H PARENT 7 8 11 21 18 27 18 28
ROOT
ATOM      1  C   UNL     1       6.486  44.687  50.968  1.00  0.00     0.217 A 
ATOM      2  N   UNL     1       5.340  44.484  51.649  1.00  0.00    -0.188 NA
ATOM      3  C   UNL     1       4.654  43.357  51.440  1.00  0.00     0.227 A 
ATOM      4  N   UNL     1       5.024  42.414  50.569  1.00  0.00    -0.189 NA
ATOM      5  C   UNL     1       6.148  42.601  49.864  1.00  0.00     0.210 A 
ATOM      6  C   UNL     1       6.918  43.734  50.059  1.00  0.00     0.353 A 
ENDROOT
BRANCH   1   7
ATOM      7  N   UNL     1       7.200  45.897  51.157  1.00  0.00    -0.334 N 
ATOM      8  H   UNL     1       7.701  46.157  50.305  1.00  0.00     0.168 HD
BRANCH   7   9
ATOM      9  C   UNL     1       7.838  46.397  52.311  1.00  0.00     0.040 A 
ATOM     10  C   UNL     1       9.210  47.515  54.525  1.00  0.00     0.119 A 
ATOM     11  C   UNL     1       7.827  47.340  54.555  1.00  0.00     0.048 A 
ATOM     12  C   UNL     1       9.909  47.150  53.377  1.00  0.00     0.048 A 
ATOM     13  C   UNL     1       7.148  46.798  53.458  1.00  0.00     0.030 A 
ATOM     14  C   UNL     1       9.226  46.607  52.281  1.00  0.00     0.030 A 
BRANCH  10  15
ATOM     15  O   UNL     1       9.747  48.054  55.660  1.00  0.00    -0.497 OA
ATOM     16  C   UNL     1      10.991  47.525  56.097  1.00  0.00     0.278 C 
ENDBRANCH  10  15
ENDBRANCH   7   9
ENDBRANCH   1   7
BRANCH   6  17
ATOM     17  N   UNL     1       8.138  43.926  49.327  1.00  0.00     0.070 N 
ATOM     18  O   UNL     1       8.062  44.036  48.094  1.00  0.00    -0.258 OA
ATOM     19  O   UNL     1       9.196  43.945  49.976  1.00  0.00    -0.258 OA
ENDBRANCH   6  17
BRANCH   3  20
ATOM     20  N   UNL     1       3.507  43.210  52.195  1.00  0.00    -0.354 N 
ATOM     21  H   UNL     1       3.541  42.304  52.648  1.00  0.00     0.163 HD
BRANCH  20  22
ATOM     22  C   UNL     1       3.094  44.335  53.018  1.00  0.00     0.119 C 
BRANCH  22  23
ATOM     23  C   UNL     1       1.668  44.177  53.577  1.00  0.00     0.002 C 
ATOM     24  C   UNL     1       1.578  44.596  55.046  1.00  0.00     0.009 C 
ATOM     25  C   UNL     1       1.212  42.723  53.426  1.00  0.00     0.009 C 
ENDBRANCH  22  23
ENDBRANCH  20  22
ENDBRANCH   3  20
BRANCH   5  26
ATOM     26  N   UNL     1       6.492  41.546  49.008  1.00  0.00    -0.378 N 
ATOM     27  H   UNL     1       5.695  41.239  48.456  1.00  0.00     0.158 HD
ATOM     28  H   UNL     1       6.823  40.739  49.541  1.00  0.00     0.158 HD
ENDBRANCH   5  26
TORSDOF 8
ENDMDL
MODEL 4
REMARK VINA RESULT:    -7.493      2.926      5.035
REMARK INTER + INTRA:         -12.233
REMARK INTER:                 -10.810
REMARK INTRA:                  -1.424
REMARK UNBOUND:                -1.456
REMARK SMILES COc1ccc(Nc2nc(NCC(C)C)nc(N)c2[N+](=O)[O-])cc1
REMARK SMILES IDX 8 1 9 2 10 3 16 4 17 5 19 6 7 7 6 9 3 10 4 11 24 12 5 13
REMARK SMILES IDX 23 14 2 15 1 16 20 17 21 18 22 19 11 20 12 22 13 23 14 24
REMARK SMILES IDX 15 25 18 26
REMARK H PARENT 7 8 11 21 18 27 18 28
ROOT
ATOM      1  C   UNL     1       4.383  44.904  52.067  1.00  0.00     0.217 A 
ATOM      2  N   UNL     1       4.597  43.756  51.394  1.00  0.00    -0.188 NA
ATOM      3  C   UNL     1       3.803  42.708  51.633  1.00  0.00     0.227 A 
ATOM      4  N   UNL     1       2.809  42.719  52.527  1.00  0.00    -0.189 NA
ATOM      5  C   UNL     1       2.590  43.842  53.224  1.00  0.00     0.210 A 
ATOM      6  C   UNL     1       3.360  44.969  52.999  1.00  0.00     0.353 A 
ENDROOT
BRANCH   1   7
ATOM      7  N   UNL     1       5.245  46.007  51.846  1.00  0.00    -0.334 N 
ATOM      8  H   UNL     1       5.157  46.348  50.886  1.00  0.00     0.168 HD
BRANCH   7   9
ATOM      9  C   UNL     1       6.523  46.275  52.379  1.00  0.00     0.040 A 
ATOM     10  C   UNL     1       9.114  46.934  53.320  1.00  0.00     0.119 A 
ATOM     11  C   UNL     1       8.031  46.868  54.195  1.00  0.00     0.048 A 
ATOM     12  C   UNL     1       8.900  46.690  51.966  1.00  0.00     0.048 A 
ATOM     13  C   UNL     1       6.749  46.554  53.729  1.00  0.00     0.030 A 
ATOM     14  C   UNL     1       7.616  46.375  51.503  1.00  0.00     0.030 A 
BRANCH  10  15
ATOM     15  O   UNL     1      10.308  47.251  53.905  1.00  0.00    -0.497 OA
ATOM     16  C   UNL     1      10.290  47.517  55.301  1.00  0.00     0.278 C 
ENDBRANCH  10  15
ENDBRANCH   7   9
ENDBRANCH   1   7
BRANCH   6  17
ATOM     17  N   UNL     1       3.109  46.184  53.722  1.00  0.00     0.070 N 
ATOM     18  O   UNL     1       3.198  46.149  54.959  1.00  0.00    -0.258 OA
ATOM     19  O   UNL     1       2.797  47.187  53.062  1.00  0.00    -0.258 OA
ENDBRANCH   6  17
BRANCH   3  20
ATOM     20  N   UNL     1       4.067  41.578  50.884  1.00  0.00    -0.354 N 
ATOM     21  H   UNL     1       3.333  41.479  50.193  1.00  0.00     0.163 HD
BRANCH  20  22
ATOM     22  C   UNL     1       5.430  41.381  50.421  1.00  0.00     0.119 C 
BRANCH  22  23
ATOM     23  C   UNL     1       5.517  41.124  48.905  1.00  0.00     0.002 C 
ATOM     24  C   UNL     1       6.051  42.341  48.146  1.00  0.00     0.009 C 
ATOM     25  C   UNL     1       4.135  40.745  48.365  1.00  0.00     0.009 C 
ENDBRANCH  22  23
ENDBRANCH  20  22
ENDBRANCH   3  20
BRANCH   5  26
ATOM     26  N   UNL     1       1.501  43.787  54.105  1.00  0.00    -0.378 N 
ATOM     27  H   UNL     1       1.805  43.795  55.075  1.00  0.00     0.158 HD
ATOM     28  H   UNL     1       0.960  42.932  53.961  1.00  0.00     0.158 HD
ENDBRANCH   5  26
TORSDOF 8
ENDMDL
MODEL 5
REMARK VINA RESULT:    -7.487      2.828      5.832
REMARK INTER + INTRA:         -12.225
REMARK INTER:                 -11.660
REMARK INTRA:                  -0.565
REMARK UNBOUND:                -1.456
REMARK SMILES COc1ccc(Nc2nc(NCC(C)C)nc(N)c2[N+](=O)[O-])cc1
REMARK SMILES IDX 8 1 9 2 10 3 16 4 17 5 19 6 7 7 6 9 3 10 4 11 24 12 5 13
REMARK SMILES IDX 23 14 2 15 1 16 20 17 21 18 22 19 11 20 12 22 13 23 14 24
REMARK SMILES IDX 15 25 18 26
REMARK H PARENT 7 8 11 21 18 27 18 28
ROOT
ATOM      1  C   UNL     1       5.274  43.953  51.360  1.00  0.00     0.217 A 
ATOM      2  N   UNL     1       5.828  45.129  51.715  1.00  0.00    -0.188 NA
ATOM      3  C   UNL     1       6.928  45.544  51.081  1.00  0.00     0.227 A 
ATOM      4  N   UNL     1       7.538  44.845  50.119  1.00  0.00    -0.189 NA
ATOM      5  C   UNL     1       7.019  43.662  49.762  1.00  0.00     0.210 A 
ATOM      6  C   UNL     1       5.863  43.194  50.361  1.00  0.00     0.353 A 
ENDROOT
BRANCH   1   7
ATOM      7  N   UNL     1       4.128  43.489  52.053  1.00  0.00    -0.334 N 
ATOM      8  H   UNL     1       3.508  42.976  51.423  1.00  0.00     0.168 HD
BRANCH   7   9
ATOM      9  C   UNL     1       3.416  44.080  53.117  1.00  0.00     0.040 A 
ATOM     10  C   UNL     1       1.916  45.108  55.291  1.00  0.00     0.119 A 
ATOM     11  C   UNL     1       3.275  45.391  55.163  1.00  0.00     0.048 A 
ATOM     12  C   UNL     1       1.307  44.292  54.341  1.00  0.00     0.048 A 
ATOM     13  C   UNL     1       4.018  44.874  54.096  1.00  0.00     0.030 A 
ATOM     14  C   UNL     1       2.054  43.776  53.274  1.00  0.00     0.030 A 
BRANCH  10  15
ATOM     15  O   UNL     1       1.309  45.674  56.377  1.00  0.00    -0.497 OA
ATOM     16  C   UNL     1       0.001  45.217  56.693  1.00  0.00     0.278 C 
ENDBRANCH  10  15
ENDBRANCH   7   9
ENDBRANCH   1   7
BRANCH   6  17
ATOM     17  N   UNL     1       5.287  41.941  49.961  1.00  0.00     0.070 N 
ATOM     18  O   UNL     1       4.924  41.160  50.855  1.00  0.00    -0.258 OA
ATOM     19  O   UNL     1       5.210  41.710  48.744  1.00  0.00    -0.258 OA
ENDBRANCH   6  17
BRANCH   3  20
ATOM     20  N   UNL     1       7.419  46.771  51.482  1.00  0.00    -0.354 N 
ATOM     21  H   UNL     1       6.766  47.485  51.183  1.00  0.00     0.163 HD
BRANCH  20  22
ATOM     22  C   UNL     1       7.931  46.881  52.838  1.00  0.00     0.119 C 
BRANCH  22  23
ATOM     23  C   UNL     1       9.423  47.260  52.886  1.00  0.00     0.002 C 
ATOM     24  C   UNL     1      10.281  46.320  52.036  1.00  0.00     0.009 C 
ATOM     25  C   UNL     1       9.915  47.239  54.336  1.00  0.00     0.009 C 
ENDBRANCH  22  23
ENDBRANCH  20  22
ENDBRANCH   3  20
BRANCH   5  26
ATOM     26  N   UNL     1       7.689  43.015  48.714  1.00  0.00    -0.378 N 
ATOM     27  H   UNL     1       7.937  42.061  48.963  1.00  0.00     0.158 HD
ATOM     28  H   UNL     1       8.554  43.505  48.479  1.00  0.00     0.158 HD
ENDBRANCH   5  26
TORSDOF 8
ENDMDL
MODEL 6
REMARK VINA RESULT:    -7.484      3.240      6.693
REMARK INTER + INTRA:         -12.221
REMARK INTER:                 -11.223
REMARK INTRA:                  -0.998
REMARK UNBOUND:                -1.456
REMARK SMILES COc1ccc(Nc2nc(NCC(C)C)nc(N)c2[N+](=O)[O-])cc1
REMARK SMILES IDX 8 1 9 2 10 3 16 4 17 5 19 6 7 7 6 9 3 10 4 11 24 12 5 13
REMARK SMILES IDX 23 14 2 15 1 16 20 17 21 18 22 19 11 20 12 22 13 23 14 24
REMARK SMILES IDX 15 25 18 26
REMARK H PARENT 7 8 11 21 18 27 18 28
ROOT
ATOM      1  C   UNL     1       5.221  43.926  51.383  1.00  0.00     0.217 A 
ATOM      2  N   UNL     1       5.790  45.089  51.758  1.00  0.00    -0.188 NA
ATOM      3  C   UNL     1       6.900  45.496  51.137  1.00  0.00     0.227 A 
ATOM      4  N   UNL     1       7.505  44.802  50.168  1.00  0.00    -0.189 NA
ATOM      5  C   UNL     1       6.971  43.633  49.791  1.00  0.00     0.210 A 
ATOM      6  C   UNL     1       5.805  43.174  50.376  1.00  0.00     0.353 A 
ENDROOT
BRANCH   1   7
ATOM      7  N   UNL     1       4.064  43.470  52.062  1.00  0.00    -0.334 N 
ATOM      8  H   UNL     1       4.059  42.449  52.122  1.00  0.00     0.168 HD
BRANCH   7   9
ATOM      9  C   UNL     1       2.756  43.998  52.074  1.00  0.00     0.040 A 
ATOM     10  C   UNL     1       0.201  45.224  52.089  1.00  0.00     0.119 A 
ATOM     11  C   UNL     1       0.479  44.162  51.230  1.00  0.00     0.048 A 
ATOM     12  C   UNL     1       1.208  45.690  52.930  1.00  0.00     0.048 A 
ATOM     13  C   UNL     1       1.745  43.564  51.215  1.00  0.00     0.030 A 
ATOM     14  C   UNL     1       2.474  45.089  52.912  1.00  0.00     0.030 A 
BRANCH  10  15
ATOM     15  O   UNL     1      -1.071  45.716  52.004  1.00  0.00    -0.497 OA
ATOM     16  C   UNL     1      -1.999  44.969  51.228  1.00  0.00     0.278 C 
ENDBRANCH  10  15
ENDBRANCH   7   9
ENDBRANCH   1   7
BRANCH   6  17
ATOM     17  N   UNL     1       5.212  41.935  49.955  1.00  0.00     0.070 N 
ATOM     18  O   UNL     1       5.136  41.715  48.736  1.00  0.00    -0.258 OA
ATOM     19  O   UNL     1       4.792  41.174  50.840  1.00  0.00    -0.258 OA
ENDBRANCH   6  17
BRANCH   3  20
ATOM     20  N   UNL     1       7.407  46.710  51.558  1.00  0.00    -0.354 N 
ATOM     21  H   UNL     1       6.756  47.436  51.285  1.00  0.00     0.163 HD
BRANCH  20  22
ATOM     22  C   UNL     1       7.939  46.784  52.909  1.00  0.00     0.119 C 
BRANCH  22  23
ATOM     23  C   UNL     1       9.423  47.196  52.946  1.00  0.00     0.002 C 
ATOM     24  C   UNL     1      10.292  46.289  52.071  1.00  0.00     0.009 C 
ATOM     25  C   UNL     1       9.933  47.163  54.389  1.00  0.00     0.009 C 
ENDBRANCH  22  23
ENDBRANCH  20  22
ENDBRANCH   3  20
BRANCH   5  26
ATOM     26  N   UNL     1       7.637  42.992  48.737  1.00  0.00    -0.378 N 
ATOM     27  H   UNL     1       7.709  41.990  48.896  1.00  0.00     0.158 HD
ATOM     28  H   UNL     1       8.587  43.353  48.634  1.00  0.00     0.158 HD
ENDBRANCH   5  26
TORSDOF 8
ENDMDL
MODEL 7
REMARK VINA RESULT:    -7.461      2.426      5.802
REMARK INTER + INTRA:         -12.188
REMARK INTER:                 -10.891
REMARK INTRA:                  -1.297
REMARK UNBOUND:                -1.456
REMARK SMILES COc1ccc(Nc2nc(NCC(C)C)nc(N)c2[N+](=O)[O-])cc1
REMARK SMILES IDX 8 1 9 2 10 3 16 4 17 5 19 6 7 7 6 9 3 10 4 11 24 12 5 13
REMARK SMILES IDX 23 14 2 15 1 16 20 17 21 18 22 19 11 20 12 22 13 23 14 24
REMARK SMILES IDX 15 25 18 26
REMARK H PARENT 7 8 11 21 18 27 18 28
ROOT
ATOM      1  C   UNL     1       6.979  46.535  52.332  1.00  0.00     0.217 A 
ATOM      2  N   UNL     1       5.837  46.586  53.045  1.00  0.00    -0.188 NA
ATOM      3  C   UNL     1       5.887  46.982  54.319  1.00  0.00     0.227 A 
ATOM      4  N   UNL     1       7.018  47.315  54.949  1.00  0.00    -0.189 NA
ATOM      5  C   UNL     1       8.170  47.252  54.268  1.00  0.00     0.210 A 
ATOM      6  C   UNL     1       8.178  46.879  52.936  1.00  0.00     0.353 A 
ENDROOT
BRANCH   1   7
ATOM      7  N   UNL     1       6.939  46.080  50.990  1.00  0.00    -0.334 N 
ATOM      8  H   UNL     1       6.619  46.824  50.366  1.00  0.00     0.168 HD
BRANCH   7   9
ATOM      9  C   UNL     1       6.632  44.802  50.479  1.00  0.00     0.040 A 
ATOM     10  C   UNL     1       6.180  42.185  49.490  1.00  0.00     0.119 A 
ATOM     11  C   UNL     1       5.287  42.776  50.382  1.00  0.00     0.048 A 
ATOM     12  C   UNL     1       7.315  42.895  49.106  1.00  0.00     0.048 A 
ATOM     13  C   UNL     1       5.515  44.064  50.879  1.00  0.00     0.030 A 
ATOM     14  C   UNL     1       7.541  44.184  49.605  1.00  0.00     0.030 A 
BRANCH  10  15
ATOM     15  O   UNL     1       5.840  40.926  49.082  1.00  0.00    -0.497 OA
ATOM     16  C   UNL     1       4.495  40.726  48.666  1.00  0.00     0.278 C 
ENDBRANCH  10  15
ENDBRANCH   7   9
ENDBRANCH   1   7
BRANCH   6  17
ATOM     17  N   UNL     1       9.407  46.839  52.194  1.00  0.00     0.070 N 
ATOM     18  O   UNL     1       9.490  47.541  51.175  1.00  0.00    -0.258 OA
ATOM     19  O   UNL     1      10.300  46.084  52.609  1.00  0.00    -0.258 OA
ENDBRANCH   6  17
BRANCH   3  20
ATOM     20  N   UNL     1       4.672  47.035  54.975  1.00  0.00    -0.354 N 
ATOM     21  H   UNL     1       4.076  47.690  54.483  1.00  0.00     0.163 HD
BRANCH  20  22
ATOM     22  C   UNL     1       4.067  45.774  55.372  1.00  0.00     0.119 C 
BRANCH  22  23
ATOM     23  C   UNL     1       2.710  45.520  54.689  1.00  0.00     0.002 C 
ATOM     24  C   UNL     1       1.674  44.956  55.666  1.00  0.00     0.009 C 
ATOM     25  C   UNL     1       2.894  44.553  53.517  1.00  0.00     0.009 C 
ENDBRANCH  22  23
ENDBRANCH  20  22
ENDBRANCH   3  20
BRANCH   5  26
ATOM     26  N   UNL     1       9.303  47.663  54.985  1.00  0.00    -0.378 N 
ATOM     27  H   UNL     1       9.259  48.652  55.217  1.00  0.00     0.158 HD
ATOM     28  H   UNL     1      10.153  47.514  54.438  1.00  0.00     0.158 HD
ENDBRANCH   5  26
TORSDOF 8
ENDMDL
MODEL 8
REMARK VINA RESULT:    -7.398      2.129      2.852
REMARK INTER + INTRA:         -12.097
REMARK INTER:                 -10.936
REMARK INTRA:                  -1.161
REMARK UNBOUND:                -1.456
REMARK SMILES COc1ccc(Nc2nc(NCC(C)C)nc(N)c2[N+](=O)[O-])cc1
REMARK SMILES IDX 8 1 9 2 10 3 16 4 17 5 19 6 7 7 6 9 3 10 4 11 24 12 5 13
REMARK SMILES IDX 23 14 2 15 1 16 20 17 21 18 22 19 11 20 12 22 13 23 14 24
REMARK SMILES IDX 15 25 18 26
REMARK H PARENT 7 8 11 21 18 27 18 28
ROOT
ATOM      1  C   UNL     1       4.926  44.168  51.254  1.00  0.00     0.217 A 
ATOM      2  N   UNL     1       3.838  44.632  51.901  1.00  0.00    -0.188 NA
ATOM      3  C   UNL     1       2.764  43.844  52.006  1.00  0.00     0.227 A 
ATOM      4  N   UNL     1       2.690  42.616  51.484  1.00  0.00    -0.189 NA
ATOM      5  C   UNL     1       3.751  42.141  50.818  1.00  0.00     0.210 A 
ATOM      6  C   UNL     1       4.903  42.897  50.702  1.00  0.00     0.353 A 
ENDROOT
BRANCH   1   7
ATOM      7  N   UNL     1       6.056  45.011  51.106  1.00  0.00    -0.334 N 
ATOM      8  H   UNL     1       6.654  44.683  50.345  1.00  0.00     0.168 HD
BRANCH   7   9
ATOM      9  C   UNL     1       6.793  45.712  52.083  1.00  0.00     0.040 A 
ATOM     10  C   UNL     1       8.257  47.268  53.946  1.00  0.00     0.119 A 
ATOM     11  C   UNL     1       7.217  46.439  54.367  1.00  0.00     0.048 A 
ATOM     12  C   UNL     1       8.554  47.336  52.587  1.00  0.00     0.048 A 
ATOM     13  C   UNL     1       6.487  45.680  53.446  1.00  0.00     0.030 A 
ATOM     14  C   UNL     1       7.820  46.574  51.668  1.00  0.00     0.030 A 
BRANCH  10  15
ATOM     15  O   UNL     1       8.887  47.954  54.946  1.00  0.00    -0.497 OA
ATOM     16  C   UNL     1      10.216  47.558  55.259  1.00  0.00     0.278 C 
ENDBRANCH  10  15
ENDBRANCH   7   9
ENDBRANCH   1   7
BRANCH   6  17
ATOM     17  N   UNL     1       6.053  42.380  50.015  1.00  0.00     0.070 N 
ATOM     18  O   UNL     1       6.499  41.282  50.380  1.00  0.00    -0.258 OA
ATOM     19  O   UNL     1       6.541  43.079  49.113  1.00  0.00    -0.258 OA
ENDBRANCH   6  17
BRANCH   3  20
ATOM     20  N   UNL     1       1.700  44.379  52.706  1.00  0.00    -0.354 N 
ATOM     21  H   UNL     1       0.856  44.218  52.170  1.00  0.00     0.163 HD
BRANCH  20  22
ATOM     22  C   UNL     1       1.629  44.107  54.133  1.00  0.00     0.119 C 
BRANCH  22  23
ATOM     23  C   UNL     1       1.784  45.376  54.992  1.00  0.00     0.002 C 
ATOM     24  C   UNL     1       3.248  45.656  55.342  1.00  0.00     0.009 C 
ATOM     25  C   UNL     1       0.965  45.233  56.277  1.00  0.00     0.009 C 
ENDBRANCH  22  23
ENDBRANCH  20  22
ENDBRANCH   3  20
BRANCH   5  26
ATOM     26  N   UNL     1       3.611  40.829  50.343  1.00  0.00    -0.378 N 
ATOM     27  H   UNL     1       3.117  40.805  49.454  1.00  0.00     0.158 HD
ATOM     28  H   UNL     1       3.079  40.258  51.003  1.00  0.00     0.158 HD
ENDBRANCH   5  26
TORSDOF 8
ENDMDL
MODEL 9
REMARK VINA RESULT:    -7.340      3.802      6.734
REMARK INTER + INTRA:         -12.014
REMARK INTER:                 -10.901
REMARK INTRA:                  -1.113
REMARK UNBOUND:                -1.456
REMARK SMILES COc1ccc(Nc2nc(NCC(C)C)nc(N)c2[N+](=O)[O-])cc1
REMARK SMILES IDX 8 1 9 2 10 3 16 4 17 5 19 6 7 7 6 9 3 10 4 11 24 12 5 13
REMARK SMILES IDX 23 14 2 15 1 16 20 17 21 18 22 19 11 20 12 22 13 23 14 24
REMARK SMILES IDX 15 25 18 26
REMARK H PARENT 7 8 11 21 18 27 18 28
ROOT
ATOM      1  C   UNL     1       4.038  43.988  52.714  1.00  0.00     0.217 A 
ATOM      2  N   UNL     1       4.645  45.110  53.150  1.00  0.00    -0.188 NA
ATOM      3  C   UNL     1       5.673  45.601  52.454  1.00  0.00     0.227 A 
ATOM      4  N   UNL     1       6.162  45.029  51.349  1.00  0.00    -0.189 NA
ATOM      5  C   UNL     1       5.591  43.901  50.907  1.00  0.00     0.210 A 
ATOM      6  C   UNL     1       4.502  43.361  51.568  1.00  0.00     0.353 A 
ENDROOT
BRANCH   1   7
ATOM      7  N   UNL     1       2.970  43.440  53.468  1.00  0.00    -0.334 N 
ATOM      8  H   UNL     1       2.669  42.547  53.072  1.00  0.00     0.168 HD
BRANCH   7   9
ATOM      9  C   UNL     1       1.918  44.090  54.147  1.00  0.00     0.040 A 
ATOM     10  C   UNL     1      -0.290  45.246  55.495  1.00  0.00     0.119 A 
ATOM     11  C   UNL     1       0.998  45.342  56.020  1.00  0.00     0.048 A 
ATOM     12  C   UNL     1      -0.480  44.552  54.303  1.00  0.00     0.048 A 
ATOM     13  C   UNL     1       2.087  44.762  55.360  1.00  0.00     0.030 A 
ATOM     14  C   UNL     1       0.612  43.972  53.645  1.00  0.00     0.030 A 
BRANCH  10  15
ATOM     15  O   UNL     1      -1.262  45.855  56.239  1.00  0.00    -0.497 OA
ATOM     16  C   UNL     1      -0.827  46.709  57.289  1.00  0.00     0.278 C 
ENDBRANCH  10  15
ENDBRANCH   7   9
ENDBRANCH   1   7
BRANCH   6  17
ATOM     17  N   UNL     1       3.867  42.168  51.082  1.00  0.00     0.070 N 
ATOM     18  O   UNL     1       2.657  42.225  50.814  1.00  0.00    -0.258 OA
ATOM     19  O   UNL     1       4.568  41.149  50.984  1.00  0.00    -0.258 OA
ENDBRANCH   6  17
BRANCH   3  20
ATOM     20  N   UNL     1       6.223  46.768  52.947  1.00  0.00    -0.354 N 
ATOM     21  H   UNL     1       5.476  47.328  53.340  1.00  0.00     0.163 HD
BRANCH  20  22
ATOM     22  C   UNL     1       7.439  46.658  53.736  1.00  0.00     0.119 C 
BRANCH  22  23
ATOM     23  C   UNL     1       8.549  47.614  53.261  1.00  0.00     0.002 C 
ATOM     24  C   UNL     1       8.444  47.917  51.764  1.00  0.00     0.009 C 
ATOM     25  C   UNL     1       9.921  47.008  53.570  1.00  0.00     0.009 C 
ENDBRANCH  22  23
ENDBRANCH  20  22
ENDBRANCH   3  20
BRANCH   5  26
ATOM     26  N   UNL     1       6.130  43.392  49.718  1.00  0.00    -0.378 N 
ATOM     27  H   UNL     1       6.957  43.909  49.432  1.00  0.00     0.158 HD
ATOM     28  H   UNL     1       5.453  43.453  48.956  1.00  0.00     0.158 HD
ENDBRANCH   5  26
TORSDOF 8
ENDMDL
MODEL 10
REMARK VINA RESULT:    -7.318      2.833      4.802
REMARK INTER + INTRA:         -11.983
REMARK INTER:                 -10.783
REMARK INTRA:                  -1.200
REMARK UNBOUND:                -1.456
REMARK SMILES COc1ccc(Nc2nc(NCC(C)C)nc(N)c2[N+](=O)[O-])cc1
REMARK SMILES IDX 8 1 9 2 10 3 16 4 17 5 19 6 7 7 6 9 3 10 4 11 24 12 5 13
REMARK SMILES IDX 23 14 2 15 1 16 20 17 21 18 22 19 11 20 12 22 13 23 14 24
REMARK SMILES IDX 15 25 18 26
REMARK H PARENT 7 8 11 21 18 27 18 28
ROOT
ATOM      1  C   UNL     1       5.708  44.478  51.079  1.00  0.00     0.217 A 
ATOM      2  N   UNL     1       6.184  43.679  50.103  1.00  0.00    -0.188 NA
ATOM      3  C   UNL     1       5.645  42.467  49.940  1.00  0.00     0.227 A 
ATOM      4  N   UNL     1       4.666  41.981  50.708  1.00  0.00    -0.189 NA
ATOM      5  C   UNL     1       4.190  42.748  51.698  1.00  0.00     0.210 A 
ATOM      6  C   UNL     1       4.687  44.023  51.897  1.00  0.00     0.353 A 
ENDROOT
BRANCH   1   7
ATOM      7  N   UNL     1       6.300  45.750  51.282  1.00  0.00    -0.334 N 
ATOM      8  H   UNL     1       6.259  46.308  50.427  1.00  0.00     0.168 HD
BRANCH   7   9
ATOM      9  C   UNL     1       7.394  46.117  52.093  1.00  0.00     0.040 A 
ATOM     10  C   UNL     1       9.646  46.963  53.591  1.00  0.00     0.119 A 
ATOM     11  C   UNL     1       8.374  46.946  54.161  1.00  0.00     0.048 A 
ATOM     12  C   UNL     1       9.792  46.576  52.261  1.00  0.00     0.048 A 
ATOM     13  C   UNL     1       7.260  46.539  53.418  1.00  0.00     0.030 A 
ATOM     14  C   UNL     1       8.675  46.169  51.521  1.00  0.00     0.030 A 
BRANCH  10  15
ATOM     15  O   UNL     1      10.645  47.381  54.424  1.00  0.00    -0.497 OA
ATOM     16  C   UNL     1      10.269  47.753  55.744  1.00  0.00     0.278 C 
ENDBRANCH  10  15
ENDBRANCH   7   9
ENDBRANCH   1   7
BRANCH   6  17
ATOM     17  N   UNL     1       4.160  44.860  52.939  1.00  0.00     0.070 N 
ATOM     18  O   UNL     1       3.397  45.781  52.610  1.00  0.00    -0.258 OA
ATOM     19  O   UNL     1       4.522  44.621  54.101  1.00  0.00    -0.258 OA
ENDBRANCH   6  17
BRANCH   3  20
ATOM     20  N   UNL     1       6.166  41.719  48.902  1.00  0.00    -0.354 N 
ATOM     21  H   UNL     1       5.921  40.749  49.058  1.00  0.00     0.163 HD
BRANCH  20  22
ATOM     22  C   UNL     1       5.990  42.228  47.552  1.00  0.00     0.119 C 
BRANCH  22  23
ATOM     23  C   UNL     1       5.349  41.198  46.603  1.00  0.00     0.002 C 
ATOM     24  C   UNL     1       5.143  41.766  45.196  1.00  0.00     0.009 C 
ATOM     25  C   UNL     1       4.007  40.733  47.174  1.00  0.00     0.009 C 
ENDBRANCH  22  23
ENDBRANCH  20  22
ENDBRANCH   3  20
BRANCH   5  26
ATOM     26  N   UNL     1       3.133  42.184  52.426  1.00  0.00    -0.378 N 
ATOM     27  H   UNL     1       2.414  41.812  51.811  1.00  0.00     0.158 HD
ATOM     28  H   UNL     1       2.690  42.884  53.025  1.00  0.00     0.158 HD
ENDBRANCH   5  26
TORSDOF 8
ENDMDL
MODEL 11
REMARK VINA RESULT:    -7.282      3.521      5.487
REMARK INTER + INTRA:         -11.931
REMARK INTER:                 -10.527
REMARK INTRA:                  -1.404
REMARK UNBOUND:                -1.456
REMARK SMILES COc1ccc(Nc2nc(NCC(C)C)nc(N)c2[N+](=O)[O-])cc1
REMARK SMILES IDX 8 1 9 2 10 3 16 4 17 5 19 6 7 7 6 9 3 10 4 11 24 12 5 13
REMARK SMILES IDX 23 14 2 15 1 16 20 17 21 18 22 19 11 20 12 22 13 23 14 24
REMARK SMILES IDX 15 25 18 26
REMARK H PARENT 7 8 11 21 18 27 18 28
ROOT
ATOM      1  C   UNL     1       3.294  44.067  52.568  1.00  0.00     0.217 A 
ATOM      2  N   UNL     1       3.857  42.999  51.970  1.00  0.00    -0.188 NA
ATOM      3  C   UNL     1       3.151  42.320  51.062  1.00  0.00     0.227 A 
ATOM      4  N   UNL     1       1.895  42.622  50.720  1.00  0.00    -0.189 NA
ATOM      5  C   UNL     1       1.305  43.667  51.316  1.00  0.00     0.210 A 
ATOM      6  C   UNL     1       1.996  44.428  52.242  1.00  0.00     0.353 A 
ENDROOT
BRANCH   1   7
ATOM      7  N   UNL     1       4.022  44.770  53.561  1.00  0.00    -0.334 N 
ATOM      8  H   UNL     1       3.388  45.201  54.237  1.00  0.00     0.168 HD
BRANCH   7   9
ATOM      9  C   UNL     1       5.234  45.483  53.454  1.00  0.00     0.040 A 
ATOM     10  C   UNL     1       7.591  47.022  53.122  1.00  0.00     0.119 A 
ATOM     11  C   UNL     1       7.109  46.718  54.395  1.00  0.00     0.048 A 
ATOM     12  C   UNL     1       6.882  46.574  52.010  1.00  0.00     0.048 A 
ATOM     13  C   UNL     1       5.939  45.968  54.559  1.00  0.00     0.030 A 
ATOM     14  C   UNL     1       5.712  45.823  52.178  1.00  0.00     0.030 A 
BRANCH  10  15
ATOM     15  O   UNL     1       8.740  47.761  53.103  1.00  0.00    -0.497 OA
ATOM     16  C   UNL     1       9.923  47.124  53.567  1.00  0.00     0.278 C 
ENDBRANCH  10  15
ENDBRANCH   7   9
ENDBRANCH   1   7
BRANCH   6  17
ATOM     17  N   UNL     1       1.378  45.566  52.862  1.00  0.00     0.070 N 
ATOM     18  O   UNL     1       0.328  45.381  53.496  1.00  0.00    -0.258 OA
ATOM     19  O   UNL     1       1.924  46.669  52.703  1.00  0.00    -0.258 OA
ENDBRANCH   6  17
BRANCH   3  20
ATOM     20  N   UNL     1       3.807  41.256  50.473  1.00  0.00    -0.354 N 
ATOM     21  H   UNL     1       3.467  41.162  49.523  1.00  0.00     0.163 HD
BRANCH  20  22
ATOM     22  C   UNL     1       5.245  41.163  50.663  1.00  0.00     0.119 C 
BRANCH  22  23
ATOM     23  C   UNL     1       6.041  41.543  49.400  1.00  0.00     0.002 C 
ATOM     24  C   UNL     1       6.454  43.017  49.405  1.00  0.00     0.009 C 
ATOM     25  C   UNL     1       5.206  41.245  48.153  1.00  0.00     0.009 C 
ENDBRANCH  22  23
ENDBRANCH  20  22
ENDBRANCH   3  20
BRANCH   5  26
ATOM     26  N   UNL     1       0.007  43.948  50.867  1.00  0.00    -0.378 N 
ATOM     27  H   UNL     1      -0.572  44.326  51.613  1.00  0.00     0.158 HD
ATOM     28  H   UNL     1      -0.450  43.101  50.524  1.00  0.00     0.158 HD
ENDBRANCH   5  26
TORSDOF 8
ENDMDL
MODEL 12
REMARK VINA RESULT:    -7.272      3.771      8.137
REMARK INTER + INTRA:         -11.916
REMARK INTER:                 -10.816
REMARK INTRA:                  -1.100
REMARK UNBOUND:                -1.456
REMARK SMILES COc1ccc(Nc2nc(NCC(C)C)nc(N)c2[N+](=O)[O-])cc1
REMARK SMILES IDX 8 1 9 2 10 3 16 4 17 5 19 6 7 7 6 9 3 10 4 11 24 12 5 13
REMARK SMILES IDX 23 14 2 15 1 16 20 17 21 18 22 19 11 20 12 22 13 23 14 24
REMARK SMILES IDX 15 25 18 26
REMARK H PARENT 7 8 11 21 18 27 18 28
ROOT
ATOM      1  C   UNL     1       5.983  42.852  49.936  1.00  0.00     0.217 A 
ATOM      2  N   UNL     1       6.924  43.812  49.840  1.00  0.00    -0.188 NA
ATOM      3  C   UNL     1       6.847  44.876  50.643  1.00  0.00     0.227 A 
ATOM      4  N   UNL     1       5.868  45.064  51.533  1.00  0.00    -0.189 NA
ATOM      5  C   UNL     1       4.908  44.134  51.634  1.00  0.00     0.210 A 
ATOM      6  C   UNL     1       4.951  42.995  50.850  1.00  0.00     0.353 A 
ENDROOT
BRANCH   1   7
ATOM      7  N   UNL     1       6.038  41.737  49.061  1.00  0.00    -0.334 N 
ATOM      8  H   UNL     1       6.992  41.377  48.995  1.00  0.00     0.168 HD
BRANCH   7   9
ATOM      9  C   UNL     1       5.298  41.472  47.891  1.00  0.00     0.040 A 
ATOM     10  C   UNL     1       3.963  40.898  45.457  1.00  0.00     0.119 A 
ATOM     11  C   UNL     1       3.514  40.360  46.662  1.00  0.00     0.048 A 
ATOM     12  C   UNL     1       5.096  41.709  45.463  1.00  0.00     0.048 A 
ATOM     13  C   UNL     1       4.180  40.634  47.862  1.00  0.00     0.030 A 
ATOM     14  C   UNL     1       5.759  41.981  46.667  1.00  0.00     0.030 A 
BRANCH  10  15
ATOM     15  O   UNL     1       3.225  40.551  44.361  1.00  0.00    -0.497 OA
ATOM     16  C   UNL     1       2.256  39.526  44.536  1.00  0.00     0.278 C 
ENDBRANCH  10  15
ENDBRANCH   7   9
ENDBRANCH   1   7
BRANCH   6  17
ATOM     17  N   UNL     1       3.941  41.981  50.975  1.00  0.00     0.070 N 
ATOM     18  O   UNL     1       2.757  42.328  50.854  1.00  0.00    -0.258 OA
ATOM     19  O   UNL     1       4.320  40.825  51.218  1.00  0.00    -0.258 OA
ENDBRANCH   6  17
BRANCH   3  20
ATOM     20  N   UNL     1       7.862  45.802  50.505  1.00  0.00    -0.354 N 
ATOM     21  H   UNL     1       7.797  46.206  49.578  1.00  0.00     0.163 HD
BRANCH  20  22
ATOM     22  C   UNL     1       8.086  46.725  51.605  1.00  0.00     0.119 C 
BRANCH  22  23
ATOM     23  C   UNL     1       9.267  46.311  52.503  1.00  0.00     0.002 C 
ATOM     24  C   UNL     1       9.623  47.399  53.519  1.00  0.00     0.009 C 
ATOM     25  C   UNL     1      10.489  45.993  51.637  1.00  0.00     0.009 C 
ENDBRANCH  22  23
ENDBRANCH  20  22
ENDBRANCH   3  20
BRANCH   5  26
ATOM     26  N   UNL     1       3.946  44.382  52.623  1.00  0.00    -0.378 N 
ATOM     27  H   UNL     1       3.129  44.849  52.239  1.00  0.00     0.158 HD
ATOM     28  H   UNL     1       4.326  44.983  53.356  1.00  0.00     0.158 HD
ENDBRANCH   5  26
TORSDOF 8
ENDMDL
MODEL 13
REMARK VINA RESULT:    -7.204      2.734      5.681
REMARK INTER + INTRA:         -11.819
REMARK INTER:                 -10.509
REMARK INTRA:                  -1.310
REMARK UNBOUND:                -1.456
REMARK SMILES COc1ccc(Nc2nc(NCC(C)C)nc(N)c2[N+](=O)[O-])cc1
REMARK SMILES IDX 8 1 9 2 10 3 16 4 17 5 19 6 7 7 6 9 3 10 4 11 24 12 5 13
REMARK SMILES IDX 23 14 2 15 1 16 20 17 21 18 22 19 11 20 12 22 13 23 14 24
REMARK SMILES IDX 15 25 18 26
REMARK H PARENT 7 8 11 21 18 27 18 28
ROOT
ATOM      1  C   UNL     1       7.308  46.052  51.399  1.00  0.00     0.217 A 
ATOM      2  N   UNL     1       7.134  45.048  50.516  1.00  0.00    -0.188 NA
ATOM      3  C   UNL     1       8.209  44.438  50.010  1.00  0.00     0.227 A 
ATOM      4  N   UNL     1       9.466  44.779  50.310  1.00  0.00    -0.189 NA
ATOM      5  C   UNL     1       9.666  45.787  51.169  1.00  0.00     0.210 A 
ATOM      6  C   UNL     1       8.593  46.438  51.750  1.00  0.00     0.353 A 
ENDROOT
BRANCH   1   7
ATOM      7  N   UNL     1       6.174  46.729  51.912  1.00  0.00    -0.334 N 
ATOM      8  H   UNL     1       6.374  47.723  52.041  1.00  0.00     0.168 HD
BRANCH   7   9
ATOM      9  C   UNL     1       5.181  46.277  52.806  1.00  0.00     0.040 A 
ATOM     10  C   UNL     1       3.293  45.414  54.736  1.00  0.00     0.119 A 
ATOM     11  C   UNL     1       2.910  46.242  53.681  1.00  0.00     0.048 A 
ATOM     12  C   UNL     1       4.628  45.032  54.840  1.00  0.00     0.048 A 
ATOM     13  C   UNL     1       3.844  46.677  52.734  1.00  0.00     0.030 A 
ATOM     14  C   UNL     1       5.561  45.470  53.890  1.00  0.00     0.030 A 
BRANCH  10  15
ATOM     15  O   UNL     1       2.284  45.063  55.588  1.00  0.00    -0.497 OA
ATOM     16  C   UNL     1       1.087  44.571  55.001  1.00  0.00     0.278 C 
ENDBRANCH  10  15
ENDBRANCH   7   9
ENDBRANCH   1   7
BRANCH   6  17
ATOM     17  N   UNL     1       8.802  47.500  52.693  1.00  0.00     0.070 N 
ATOM     18  O   UNL     1       9.551  47.277  53.657  1.00  0.00    -0.258 OA
ATOM     19  O   UNL     1       8.201  48.567  52.494  1.00  0.00    -0.258 OA
ENDBRANCH   6  17
BRANCH   3  20
ATOM     20  N   UNL     1       7.948  43.402  49.135  1.00  0.00    -0.354 N 
ATOM     21  H   UNL     1       8.515  42.608  49.407  1.00  0.00     0.163 HD
BRANCH  20  22
ATOM     22  C   UNL     1       6.557  43.130  48.810  1.00  0.00     0.119 C 
BRANCH  22  23
ATOM     23  C   UNL     1       6.105  41.723  49.245  1.00  0.00     0.002 C 
ATOM     24  C   UNL     1       5.178  41.075  48.213  1.00  0.00     0.009 C 
ATOM     25  C   UNL     1       5.395  41.804  50.598  1.00  0.00     0.009 C 
ENDBRANCH  22  23
ENDBRANCH  20  22
ENDBRANCH   3  20
BRANCH   5  26
ATOM     26  N   UNL     1      11.010  46.051  51.467  1.00  0.00    -0.378 N 
ATOM     27  H   UNL     1      11.100  46.732  52.216  1.00  0.00     0.158 HD
ATOM     28  H   UNL     1      11.497  46.427  50.651  1.00  0.00     0.158 HD
ENDBRANCH   5  26
TORSDOF 8
ENDMDL
MODEL 14
REMARK VINA RESULT:    -7.178      3.294      7.452
REMARK INTER + INTRA:         -11.781
REMARK INTER:                 -10.956
REMARK INTRA:                  -0.824
REMARK UNBOUND:                -1.456
REMARK SMILES COc1ccc(Nc2nc(NCC(C)C)nc(N)c2[N+](=O)[O-])cc1
REMARK SMILES IDX 8 1 9 2 10 3 16 4 17 5 19 6 7 7 6 9 3 10 4 11 24 12 5 13
REMARK SMILES IDX 23 14 2 15 1 16 20 17 21 18 22 19 11 20 12 22 13 23 14 24
REMARK SMILES IDX 15 25 18 26
REMARK H PARENT 7 8 11 21 18 27 18 28
ROOT
ATOM      1  C   UNL     1       5.080  44.838  52.720  1.00  0.00     0.217 A 
ATOM      2  N   UNL     1       6.165  45.293  52.063  1.00  0.00    -0.188 NA
ATOM      3  C   UNL     1       6.583  46.541  52.289  1.00  0.00     0.227 A 
ATOM      4  N   UNL     1       5.970  47.389  53.121  1.00  0.00    -0.189 NA
ATOM      5  C   UNL     1       4.876  46.969  53.770  1.00  0.00     0.210 A 
ATOM      6  C   UNL     1       4.413  45.676  53.601  1.00  0.00     0.353 A 
ENDROOT
BRANCH   1   7
ATOM      7  N   UNL     1       4.609  43.527  52.458  1.00  0.00    -0.334 N 
ATOM      8  H   UNL     1       4.758  42.921  53.267  1.00  0.00     0.168 HD
BRANCH   7   9
ATOM      9  C   UNL     1       4.602  42.795  51.252  1.00  0.00     0.040 A 
ATOM     10  C   UNL     1       4.751  41.264  48.872  1.00  0.00     0.119 A 
ATOM     11  C   UNL     1       3.623  41.207  49.689  1.00  0.00     0.048 A 
ATOM     12  C   UNL     1       5.819  42.072  49.255  1.00  0.00     0.048 A 
ATOM     13  C   UNL     1       3.553  41.955  50.870  1.00  0.00     0.030 A 
ATOM     14  C   UNL     1       5.746  42.819  50.438  1.00  0.00     0.030 A 
BRANCH  10  15
ATOM     15  O   UNL     1       4.689  40.486  47.750  1.00  0.00    -0.497 OA
ATOM     16  C   UNL     1       3.445  40.442  47.065  1.00  0.00     0.278 C 
ENDBRANCH  10  15
ENDBRANCH   7   9
ENDBRANCH   1   7
BRANCH   6  17
ATOM     17  N   UNL     1       3.259  45.211  54.317  1.00  0.00     0.070 N 
ATOM     18  O   UNL     1       2.304  44.777  53.655  1.00  0.00    -0.258 OA
ATOM     19  O   UNL     1       3.283  45.296  55.555  1.00  0.00    -0.258 OA
ENDBRANCH   6  17
BRANCH   3  20
ATOM     20  N   UNL     1       7.717  46.923  51.601  1.00  0.00    -0.354 N 
ATOM     21  H   UNL     1       7.448  47.150  50.651  1.00  0.00     0.163 HD
BRANCH  20  22
ATOM     22  C   UNL     1       8.625  47.848  52.260  1.00  0.00     0.119 C 
BRANCH  22  23
ATOM     23  C   UNL     1       9.935  47.178  52.715  1.00  0.00     0.002 C 
ATOM     24  C   UNL     1      10.265  45.938  51.880  1.00  0.00     0.009 C 
ATOM     25  C   UNL     1       9.832  46.792  54.193  1.00  0.00     0.009 C 
ENDBRANCH  22  23
ENDBRANCH  20  22
ENDBRANCH   3  20
BRANCH   5  26
ATOM     26  N   UNL     1       4.321  47.900  54.659  1.00  0.00    -0.378 N 
ATOM     27  H   UNL     1       4.716  48.827  54.522  1.00  0.00     0.158 HD
ATOM     28  H   UNL     1       4.502  47.631  55.627  1.00  0.00     0.158 HD
ENDBRANCH   5  26
TORSDOF 8
ENDMDL
MODEL 15
REMARK VINA RESULT:    -7.115      3.031      5.906
REMARK INTER + INTRA:         -11.690
REMARK INTER:                 -10.343
REMARK INTRA:                  -1.348
REMARK UNBOUND:                -1.456
REMARK SMILES COc1ccc(Nc2nc(NCC(C)C)nc(N)c2[N+](=O)[O-])cc1
REMARK SMILES IDX 8 1 9 2 10 3 16 4 17 5 19 6 7 7 6 9 3 10 4 11 24 12 5 13
REMARK SMILES IDX 23 14 2 15 1 16 20 17 21 18 22 19 11 20 12 22 13 23 14 24
REMARK SMILES IDX 15 25 18 26
REMARK H PARENT 7 8 11 21 18 27 18 28
ROOT
ATOM      1  C   UNL     1       5.914  46.320  52.042  1.00  0.00     0.217 A 
ATOM      2  N   UNL     1       5.588  45.300  51.223  1.00  0.00    -0.188 NA
ATOM      3  C   UNL     1       6.553  44.703  50.518  1.00  0.00     0.227 A 
ATOM      4  N   UNL     1       7.837  45.073  50.556  1.00  0.00    -0.189 NA
ATOM      5  C   UNL     1       8.183  46.098  51.346  1.00  0.00     0.210 A 
ATOM      6  C   UNL     1       7.234  46.736  52.124  1.00  0.00     0.353 A 
ENDROOT
BRANCH   1   7
ATOM      7  N   UNL     1       4.890  46.983  52.765  1.00  0.00    -0.334 N 
ATOM      8  H   UNL     1       5.253  47.828  53.211  1.00  0.00     0.168 HD
BRANCH   7   9
ATOM      9  C   UNL     1       3.795  46.447  53.474  1.00  0.00     0.040 A 
ATOM     10  C   UNL     1       1.558  45.271  54.756  1.00  0.00     0.119 A 
ATOM     11  C   UNL     1       2.789  45.359  55.405  1.00  0.00     0.048 A 
ATOM     12  C   UNL     1       1.448  45.753  53.454  1.00  0.00     0.048 A 
ATOM     13  C   UNL     1       3.896  45.930  54.768  1.00  0.00     0.030 A 
ATOM     14  C   UNL     1       2.559  46.324  52.820  1.00  0.00     0.030 A 
BRANCH  10  15
ATOM     15  O   UNL     1       0.560  44.692  55.490  1.00  0.00    -0.497 OA
ATOM     16  C   UNL     1       0.195  45.339  56.702  1.00  0.00     0.278 C 
ENDBRANCH  10  15
ENDBRANCH   7   9
ENDBRANCH   1   7
BRANCH   6  17
ATOM     17  N   UNL     1       7.605  47.816  52.994  1.00  0.00     0.070 N 
ATOM     18  O   UNL     1       7.970  48.880  52.472  1.00  0.00    -0.258 OA
ATOM     19  O   UNL     1       7.558  47.605  54.216  1.00  0.00    -0.258 OA
ENDBRANCH   6  17
BRANCH   3  20
ATOM     20  N   UNL     1       6.145  43.649  49.724  1.00  0.00    -0.354 N 
ATOM     21  H   UNL     1       6.808  43.550  48.965  1.00  0.00     0.163 HD
BRANCH  20  22
ATOM     22  C   UNL     1       5.728  42.427  50.391  1.00  0.00     0.119 C 
BRANCH  22  23
ATOM     23  C   UNL     1       4.198  42.308  50.524  1.00  0.00     0.002 C 
ATOM     24  C   UNL     1       3.738  42.424  51.979  1.00  0.00     0.009 C 
ATOM     25  C   UNL     1       3.731  40.973  49.939  1.00  0.00     0.009 C 
ENDBRANCH  22  23
ENDBRANCH  20  22
ENDBRANCH   3  20
BRANCH   5  26
ATOM     26  N   UNL     1       9.553  46.392  51.366  1.00  0.00    -0.378 N 
ATOM     27  H   UNL     1       9.721  47.393  51.309  1.00  0.00     0.158 HD
ATOM     28  H   UNL     1      10.030  45.957  50.573  1.00  0.00     0.158 HD
ENDBRANCH   5  26
TORSDOF 8
ENDMDL
MODEL 16
REMARK VINA RESULT:    -7.089      3.843      6.933
REMARK INTER + INTRA:         -11.652
REMARK INTER:                 -10.543
REMARK INTRA:                  -1.109
REMARK UNBOUND:                -1.456
REMARK SMILES COc1ccc(Nc2nc(NCC(C)C)nc(N)c2[N+](=O)[O-])cc1
REMARK SMILES IDX 8 1 9 2 10 3 16 4 17 5 19 6 7 7 6 9 3 10 4 11 24 12 5 13
REMARK SMILES IDX 23 14 2 15 1 16 20 17 21 18 22 19 11 20 12 22 13 23 14 24
REMARK SMILES IDX 15 25 18 26
REMARK H PARENT 7 8 11 21 18 27 18 28
ROOT
ATOM      1  C   UNL     1       2.322  43.509  53.150  1.00  0.00     0.217 A 
ATOM      2  N   UNL     1       3.150  44.262  53.901  1.00  0.00    -0.188 NA
ATOM      3  C   UNL     1       2.626  45.145  54.755  1.00  0.00     0.227 A 
ATOM      4  N   UNL     1       1.313  45.349  54.898  1.00  0.00    -0.189 NA
ATOM      5  C   UNL     1       0.469  44.629  54.147  1.00  0.00     0.210 A 
ATOM      6  C   UNL     1       0.951  43.677  53.267  1.00  0.00     0.353 A 
ENDROOT
BRANCH   1   7
ATOM      7  N   UNL     1       2.872  42.596  52.215  1.00  0.00    -0.334 N 
ATOM      8  H   UNL     1       2.676  41.632  52.494  1.00  0.00     0.168 HD
BRANCH   7   9
ATOM      9  C   UNL     1       4.054  42.688  51.451  1.00  0.00     0.040 A 
ATOM     10  C   UNL     1       6.345  42.787  49.786  1.00  0.00     0.119 A 
ATOM     11  C   UNL     1       5.880  43.932  50.430  1.00  0.00     0.048 A 
ATOM     12  C   UNL     1       5.651  41.591  49.957  1.00  0.00     0.048 A 
ATOM     13  C   UNL     1       4.742  43.886  51.244  1.00  0.00     0.030 A 
ATOM     14  C   UNL     1       4.513  41.549  50.772  1.00  0.00     0.030 A 
BRANCH  10  15
ATOM     15  O   UNL     1       7.463  42.969  49.022  1.00  0.00    -0.497 OA
ATOM     16  C   UNL     1       8.281  44.089  49.336  1.00  0.00     0.278 C 
ENDBRANCH  10  15
ENDBRANCH   7   9
ENDBRANCH   1   7
BRANCH   6  17
ATOM     17  N   UNL     1       0.050  42.881  52.482  1.00  0.00     0.070 N 
ATOM     18  O   UNL     1      -0.646  42.042  53.074  1.00  0.00    -0.258 OA
ATOM     19  O   UNL     1       0.043  43.070  51.255  1.00  0.00    -0.258 OA
ENDBRANCH   6  17
BRANCH   3  20
ATOM     20  N   UNL     1       3.537  45.858  55.509  1.00  0.00    -0.354 N 
ATOM     21  H   UNL     1       3.196  45.898  56.462  1.00  0.00     0.163 HD
BRANCH  20  22
ATOM     22  C   UNL     1       4.946  45.546  55.333  1.00  0.00     0.119 C 
BRANCH  22  23
ATOM     23  C   UNL     1       5.714  46.649  54.581  1.00  0.00     0.002 C 
ATOM     24  C   UNL     1       4.781  47.529  53.745  1.00  0.00     0.009 C 
ATOM     25  C   UNL     1       6.774  46.015  53.675  1.00  0.00     0.009 C 
ENDBRANCH  22  23
ENDBRANCH  20  22
ENDBRANCH   3  20
BRANCH   5  26
ATOM     26  N   UNL     1      -0.891  44.868  54.391  1.00  0.00    -0.378 N 
ATOM     27  H   UNL     1      -1.277  45.536  53.728  1.00  0.00     0.158 HD
ATOM     28  H   UNL     1      -1.030  45.253  55.327  1.00  0.00     0.158 HD
ENDBRANCH   5  26
TORSDOF 8
ENDMDL
MODEL 17
REMARK VINA RESULT:    -7.064      4.269      8.127
REMARK INTER + INTRA:         -11.617
REMARK INTER:                 -10.522
REMARK INTRA:                  -1.095
REMARK UNBOUND:                -1.456
REMARK SMILES COc1ccc(Nc2nc(NCC(C)C)nc(N)c2[N+](=O)[O-])cc1
REMARK SMILES IDX 8 1 9 2 10 3 16 4 17 5 19 6 7 7 6 9 3 10 4 11 24 12 5 13
REMARK SMILES IDX 23 14 2 15 1 16 20 17 21 18 22 19 11 20 12 22 13 23 14 24
REMARK SMILES IDX 15 25 18 26
REMARK H PARENT 7 8 11 21 18 27 18 28
ROOT
ATOM      1  C   UNL     1       4.435  44.596  53.131  1.00  0.00     0.217 A 
ATOM      2  N   UNL     1       5.598  44.705  52.457  1.00  0.00    -0.188 NA
ATOM      3  C   UNL     1       6.289  45.845  52.540  1.00  0.00     0.227 A 
ATOM      4  N   UNL     1       5.884  46.909  53.240  1.00  0.00    -0.189 NA
ATOM      5  C   UNL     1       4.721  46.834  53.901  1.00  0.00     0.210 A 
ATOM      6  C   UNL     1       3.976  45.669  53.879  1.00  0.00     0.353 A 
ENDROOT
BRANCH   1   7
ATOM      7  N   UNL     1       3.678  43.403  53.018  1.00  0.00    -0.334 N 
ATOM      8  H   UNL     1       4.288  42.604  52.833  1.00  0.00     0.168 HD
BRANCH   7   9
ATOM      9  C   UNL     1       2.383  43.202  52.496  1.00  0.00     0.040 A 
ATOM     10  C   UNL     1      -0.284  42.866  51.599  1.00  0.00     0.119 A 
ATOM     11  C   UNL     1       0.673  43.469  50.784  1.00  0.00     0.048 A 
ATOM     12  C   UNL     1       0.086  42.447  52.875  1.00  0.00     0.048 A 
ATOM     13  C   UNL     1       1.988  43.645  51.232  1.00  0.00     0.030 A 
ATOM     14  C   UNL     1       1.403  42.625  53.319  1.00  0.00     0.030 A 
BRANCH  10  15
ATOM     15  O   UNL     1      -1.527  42.756  51.042  1.00  0.00    -0.497 OA
ATOM     16  C   UNL     1      -2.032  43.899  50.364  1.00  0.00     0.278 C 
ENDBRANCH  10  15
ENDBRANCH   7   9
ENDBRANCH   1   7
BRANCH   6  17
ATOM     17  N   UNL     1       2.743  45.573  54.610  1.00  0.00     0.070 N 
ATOM     18  O   UNL     1       2.747  44.925  55.667  1.00  0.00    -0.258 OA
ATOM     19  O   UNL     1       1.746  46.128  54.122  1.00  0.00    -0.258 OA
ENDBRANCH   6  17
BRANCH   3  20
ATOM     20  N   UNL     1       7.483  45.870  51.846  1.00  0.00    -0.354 N 
ATOM     21  H   UNL     1       7.347  45.386  50.967  1.00  0.00     0.163 HD
BRANCH  20  22
ATOM     22  C   UNL     1       8.204  47.131  51.792  1.00  0.00     0.119 C 
BRANCH  22  23
ATOM     23  C   UNL     1       9.660  47.009  52.278  1.00  0.00     0.002 C 
ATOM     24  C   UNL     1      10.359  45.780  51.692  1.00  0.00     0.009 C 
ATOM     25  C   UNL     1       9.690  46.940  53.807  1.00  0.00     0.009 C 
ENDBRANCH  22  23
ENDBRANCH  20  22
ENDBRANCH   3  20
BRANCH   5  26
ATOM     26  N   UNL     1       4.392  47.973  54.649  1.00  0.00    -0.378 N 
ATOM     27  H   UNL     1       4.789  48.815  54.241  1.00  0.00     0.158 HD
ATOM     28  H   UNL     1       4.750  47.898  55.603  1.00  0.00     0.158 HD
ENDBRANCH   5  26
TORSDOF 8
ENDMDL
MODEL 18
REMARK VINA RESULT:    -6.990      3.474      6.420
REMARK INTER + INTRA:         -11.510
REMARK INTER:                 -10.333
REMARK INTRA:                  -1.177
REMARK UNBOUND:                -1.456
REMARK SMILES COc1ccc(Nc2nc(NCC(C)C)nc(N)c2[N+](=O)[O-])cc1
REMARK SMILES IDX 8 1 9 2 10 3 16 4 17 5 19 6 7 7 6 9 3 10 4 11 24 12 5 13
REMARK SMILES IDX 23 14 2 15 1 16 20 17 21 18 22 19 11 20 12 22 13 23 14 24
REMARK SMILES IDX 15 25 18 26
REMARK H PARENT 7 8 11 21 18 27 18 28
ROOT
ATOM      1  C   UNL     1       4.319  45.310  51.687  1.00  0.00     0.217 A 
ATOM      2  N   UNL     1       5.486  45.975  51.571  1.00  0.00    -0.188 NA
ATOM      3  C   UNL     1       6.542  45.342  51.054  1.00  0.00     0.227 A 
ATOM      4  N   UNL     1       6.522  44.065  50.659  1.00  0.00    -0.189 NA
ATOM      5  C   UNL     1       5.380  43.376  50.784  1.00  0.00     0.210 A 
ATOM      6  C   UNL     1       4.244  43.986  51.284  1.00  0.00     0.353 A 
ENDROOT
BRANCH   1   7
ATOM      7  N   UNL     1       3.204  45.964  52.269  1.00  0.00    -0.334 N 
ATOM      8  H   UNL     1       3.215  46.962  52.050  1.00  0.00     0.168 HD
BRANCH   7   9
ATOM      9  C   UNL     1       2.540  45.704  53.486  1.00  0.00     0.040 A 
ATOM     10  C   UNL     1       1.274  45.335  55.995  1.00  0.00     0.119 A 
ATOM     11  C   UNL     1       0.560  45.194  54.807  1.00  0.00     0.048 A 
ATOM     12  C   UNL     1       2.622  45.682  55.933  1.00  0.00     0.048 A 
ATOM     13  C   UNL     1       1.182  45.387  53.568  1.00  0.00     0.030 A 
ATOM     14  C   UNL     1       3.241  45.875  54.691  1.00  0.00     0.030 A 
BRANCH  10  15
ATOM     15  O   UNL     1       0.548  45.119  57.133  1.00  0.00    -0.497 OA
ATOM     16  C   UNL     1      -0.862  45.022  56.987  1.00  0.00     0.278 C 
ENDBRANCH  10  15
ENDBRANCH   7   9
ENDBRANCH   1   7
BRANCH   6  17
ATOM     17  N   UNL     1       3.010  43.260  51.392  1.00  0.00     0.070 N 
ATOM     18  O   UNL     1       2.067  43.611  50.666  1.00  0.00    -0.258 OA
ATOM     19  O   UNL     1       2.959  42.341  52.224  1.00  0.00    -0.258 OA
ENDBRANCH   6  17
BRANCH   3  20
ATOM     20  N   UNL     1       7.693  46.098  50.941  1.00  0.00    -0.354 N 
ATOM     21  H   UNL     1       7.729  46.481  50.004  1.00  0.00     0.163 HD
BRANCH  20  22
ATOM     22  C   UNL     1       8.009  47.008  52.030  1.00  0.00     0.119 C 
BRANCH  22  23
ATOM     23  C   UNL     1       9.519  47.092  52.321  1.00  0.00     0.002 C 
ATOM     24  C   UNL     1      10.289  45.928  51.693  1.00  0.00     0.009 C 
ATOM     25  C   UNL     1       9.754  47.111  53.833  1.00  0.00     0.009 C 
ENDBRANCH  22  23
ENDBRANCH  20  22
ENDBRANCH   3  20
BRANCH   5  26
ATOM     26  N   UNL     1       5.429  42.060  50.304  1.00  0.00    -0.378 N 
ATOM     27  H   UNL     1       4.934  41.967  49.420  1.00  0.00     0.158 HD
ATOM     28  H   UNL     1       4.995  41.415  50.967  1.00  0.00     0.158 HD
ENDBRANCH   5  26
TORSDOF 8
ENDMDL
MODEL 19
REMARK VINA RESULT:    -6.979      3.683      7.413
REMARK INTER + INTRA:         -11.495
REMARK INTER:                 -10.190
REMARK INTRA:                  -1.305
REMARK UNBOUND:                -1.456
REMARK SMILES COc1ccc(Nc2nc(NCC(C)C)nc(N)c2[N+](=O)[O-])cc1
REMARK SMILES IDX 8 1 9 2 10 3 16 4 17 5 19 6 7 7 6 9 3 10 4 11 24 12 5 13
REMARK SMILES IDX 23 14 2 15 1 16 20 17 21 18 22 19 11 20 12 22 13 23 14 24
REMARK SMILES IDX 15 25 18 26
REMARK H PARENT 7 8 11 21 18 27 18 28
ROOT
ATOM      1  C   UNL     1       3.666  43.571  52.789  1.00  0.00     0.217 A 
ATOM      2  N   UNL     1       4.678  44.422  53.049  1.00  0.00    -0.188 NA
ATOM      3  C   UNL     1       4.402  45.603  53.611  1.00  0.00     0.227 A 
ATOM      4  N   UNL     1       3.166  46.009  53.915  1.00  0.00    -0.189 NA
ATOM      5  C   UNL     1       2.140  45.190  53.647  1.00  0.00     0.210 A 
ATOM      6  C   UNL     1       2.365  43.942  53.094  1.00  0.00     0.353 A 
ENDROOT
BRANCH   1   7
ATOM      7  N   UNL     1       3.946  42.332  52.160  1.00  0.00    -0.334 N 
ATOM      8  H   UNL     1       4.239  41.636  52.848  1.00  0.00     0.168 HD
BRANCH   7   9
ATOM      9  C   UNL     1       4.494  42.071  50.887  1.00  0.00     0.040 A 
ATOM     10  C   UNL     1       5.433  41.565  48.261  1.00  0.00     0.119 A 
ATOM     11  C   UNL     1       6.090  42.471  49.093  1.00  0.00     0.048 A 
ATOM     12  C   UNL     1       4.291  40.924  48.734  1.00  0.00     0.048 A 
ATOM     13  C   UNL     1       5.620  42.729  50.386  1.00  0.00     0.030 A 
ATOM     14  C   UNL     1       3.824  41.185  50.029  1.00  0.00     0.030 A 
BRANCH  10  15
ATOM     15  O   UNL     1       5.995  41.407  47.025  1.00  0.00    -0.497 OA
ATOM     16  C   UNL     1       5.141  41.585  45.903  1.00  0.00     0.278 C 
ENDBRANCH  10  15
ENDBRANCH   7   9
ENDBRANCH   1   7
BRANCH   6  17
ATOM     17  N   UNL     1       1.272  43.048  52.832  1.00  0.00     0.070 N 
ATOM     18  O   UNL     1       0.657  42.587  53.805  1.00  0.00    -0.258 OA
ATOM     19  O   UNL     1       1.028  42.777  51.646  1.00  0.00    -0.258 OA
ENDBRANCH   6  17
BRANCH   3  20
ATOM     20  N   UNL     1       5.494  46.407  53.872  1.00  0.00    -0.354 N 
ATOM     21  H   UNL     1       6.155  45.873  54.423  1.00  0.00     0.163 HD
BRANCH  20  22
ATOM     22  C   UNL     1       6.039  47.181  52.768  1.00  0.00     0.119 C 
BRANCH  22  23
ATOM     23  C   UNL     1       7.459  46.736  52.369  1.00  0.00     0.002 C 
ATOM     24  C   UNL     1       8.394  47.929  52.159  1.00  0.00     0.009 C 
ATOM     25  C   UNL     1       7.397  45.896  51.091  1.00  0.00     0.009 C 
ENDBRANCH  22  23
ENDBRANCH  20  22
ENDBRANCH   3  20
BRANCH   5  26
ATOM     26  N   UNL     1       0.883  45.669  54.039  1.00  0.00    -0.378 N 
ATOM     27  H   UNL     1       0.192  44.924  54.070  1.00  0.00     0.158 HD
ATOM     28  H   UNL     1       0.542  46.375  53.383  1.00  0.00     0.158 HD
ENDBRANCH   5  26
TORSDOF 8
ENDMDL
