MODEL 1
REMARK VINA RESULT:    -8.129      0.000      0.000
REMARK INTER + INTRA:         -11.744
REMARK INTER:                 -11.217
REMARK INTRA:                  -0.526
REMARK UNBOUND:                -0.526
REMARK SMILES COc1ccc(Nc2nc(NCCO)nc3c2cnn3C)cc1
REMARK SMILES IDX 8 1 9 2 10 3 15 4 16 5 17 6 18 7 19 8 20 9 21 10 7 11 6 13
REMARK SMILES IDX 3 14 4 15 23 16 5 17 22 18 2 19 1 20 11 21 12 23 13 24 14 25
REMARK H PARENT 7 12 11 22 14 26
ROOT
ATOM      1  C   UNL     1       5.994  44.738  51.521  1.00  0.00     0.147 A 
ATOM      2  N   UNL     1       5.004  44.795  52.452  1.00  0.00    -0.195 NA
ATOM      3  C   UNL     1       4.008  43.891  52.459  1.00  0.00     0.226 A 
ATOM      4  N   UNL     1       3.879  42.865  51.610  1.00  0.00    -0.193 NA
ATOM      5  C   UNL     1       4.861  42.819  50.699  1.00  0.00     0.165 A 
ATOM      6  C   UNL     1       5.925  43.692  50.593  1.00  0.00     0.082 A 
ATOM      7  C   UNL     1       6.662  43.207  49.491  1.00  0.00     0.149 A 
ATOM      8  N   UNL     1       6.120  42.118  48.937  1.00  0.00    -0.179 NA
ATOM      9  N   UNL     1       5.014  41.908  49.691  1.00  0.00    -0.250 N 
ATOM     10  C   UNL     1       4.143  40.801  49.382  1.00  0.00     0.176 C 
ENDROOT
BRANCH   1  11
ATOM     11  N   UNL     1       7.053  45.659  51.508  1.00  0.00    -0.339 N 
ATOM     12  H   UNL     1       7.325  45.953  50.580  1.00  0.00     0.168 HD
BRANCH  11  13
ATOM     13  C   UNL     1       7.749  46.313  52.539  1.00  0.00     0.040 A 
ATOM     14  C   UNL     1       9.289  47.550  54.576  1.00  0.00     0.119 A 
ATOM     15  C   UNL     1       7.911  47.398  54.713  1.00  0.00     0.048 A 
ATOM     16  C   UNL     1       9.904  47.079  53.420  1.00  0.00     0.048 A 
ATOM     17  C   UNL     1       7.151  46.782  53.709  1.00  0.00     0.030 A 
ATOM     18  C   UNL     1       9.140  46.464  52.417  1.00  0.00     0.030 A 
BRANCH  14  19
ATOM     19  O   UNL     1       9.908  48.165  55.627  1.00  0.00    -0.497 OA
ATOM     20  C   UNL     1      11.042  47.509  56.179  1.00  0.00     0.278 C 
ENDBRANCH  14  19
ENDBRANCH  11  13
ENDBRANCH   1  11
BRANCH   3  21
ATOM     21  N   UNL     1       3.066  44.086  53.465  1.00  0.00    -0.352 N 
ATOM     22  H   UNL     1       2.232  43.612  53.132  1.00  0.00     0.163 HD
BRANCH  21  23
ATOM     23  C   UNL     1       2.887  45.475  53.851  1.00  0.00     0.144 C 
BRANCH  23  24
ATOM     24  C   UNL     1       3.211  45.663  55.337  1.00  0.00     0.177 C 
BRANCH  24  25
ATOM     25  O   UNL     1       4.356  44.904  55.715  1.00  0.00    -0.395 OA
ATOM     26  H   UNL     1       5.031  45.529  56.031  1.00  0.00     0.210 HD
ENDBRANCH  24  25
ENDBRANCH  23  24
ENDBRANCH  21  23
ENDBRANCH   3  21
TORSDOF 7
ENDMDL
MODEL 2
REMARK VINA RESULT:    -8.104      1.233      1.313
REMARK INTER + INTRA:         -11.709
REMARK INTER:                 -11.180
REMARK INTRA:                  -0.530
REMARK UNBOUND:                -0.526
REMARK SMILES COc1ccc(Nc2nc(NCCO)nc3c2cnn3C)cc1
REMARK SMILES IDX 8 1 9 2 10 3 15 4 16 5 17 6 18 7 19 8 20 9 21 10 7 11 6 13
REMARK SMILES IDX 3 14 4 15 23 16 5 17 22 18 2 19 1 20 11 21 12 23 13 24 14 25
REMARK H PARENT 7 12 11 22 14 26
ROOT
ATOM      1  C   UNL     1       5.966  44.692  51.621  1.00  0.00     0.147 A 
ATOM      2  N   UNL     1       5.003  44.792  52.575  1.00  0.00    -0.195 NA
ATOM      3  C   UNL     1       3.982  43.917  52.623  1.00  0.00     0.226 A 
ATOM      4  N   UNL     1       3.803  42.882  51.794  1.00  0.00    -0.193 NA
ATOM      5  C   UNL     1       4.758  42.795  50.859  1.00  0.00     0.165 A 
ATOM      6  C   UNL     1       5.844  43.635  50.711  1.00  0.00     0.082 A 
ATOM      7  C   UNL     1       6.537  43.113  49.598  1.00  0.00     0.149 A 
ATOM      8  N   UNL     1       5.950  42.031  49.076  1.00  0.00    -0.179 NA
ATOM      9  N   UNL     1       4.859  41.864  49.861  1.00  0.00    -0.250 N 
ATOM     10  C   UNL     1       3.950  40.778  49.593  1.00  0.00     0.176 C 
ENDROOT
BRANCH   1  11
ATOM     11  N   UNL     1       7.050  45.583  51.565  1.00  0.00    -0.339 N 
ATOM     12  H   UNL     1       7.320  45.837  50.625  1.00  0.00     0.168 HD
BRANCH  11  13
ATOM     13  C   UNL     1       7.774  46.252  52.567  1.00  0.00     0.040 A 
ATOM     14  C   UNL     1       9.365  47.504  54.554  1.00  0.00     0.119 A 
ATOM     15  C   UNL     1       7.976  47.488  54.655  1.00  0.00     0.048 A 
ATOM     16  C   UNL     1       9.966  46.888  53.461  1.00  0.00     0.048 A 
ATOM     17  C   UNL     1       7.190  46.865  53.676  1.00  0.00     0.030 A 
ATOM     18  C   UNL     1       9.176  46.267  52.483  1.00  0.00     0.030 A 
BRANCH  14  19
ATOM     19  O   UNL     1      10.009  48.143  55.576  1.00  0.00    -0.497 OA
ATOM     20  C   UNL     1      11.096  47.455  56.182  1.00  0.00     0.278 C 
ENDBRANCH  14  19
ENDBRANCH  11  13
ENDBRANCH   1  11
BRANCH   3  21
ATOM     21  N   UNL     1       3.073  44.154  53.650  1.00  0.00    -0.352 N 
ATOM     22  H   UNL     1       3.221  43.392  54.304  1.00  0.00     0.163 HD
BRANCH  21  23
ATOM     23  C   UNL     1       1.704  44.339  53.201  1.00  0.00     0.144 C 
BRANCH  23  24
ATOM     24  C   UNL     1       0.795  43.261  53.802  1.00  0.00     0.177 C 
BRANCH  24  25
ATOM     25  O   UNL     1       1.354  41.962  53.631  1.00  0.00    -0.395 OA
ATOM     26  H   UNL     1       2.052  41.852  54.301  1.00  0.00     0.210 HD
ENDBRANCH  24  25
ENDBRANCH  23  24
ENDBRANCH  21  23
ENDBRANCH   3  21
TORSDOF 7
ENDMDL
MODEL 3
REMARK VINA RESULT:    -8.091      2.086      3.783
REMARK INTER + INTRA:         -11.692
REMARK INTER:                 -11.056
REMARK INTRA:                  -0.636
REMARK UNBOUND:                -0.526
REMARK SMILES COc1ccc(Nc2nc(NCCO)nc3c2cnn3C)cc1
REMARK SMILES IDX 8 1 9 2 10 3 15 4 16 5 17 6 18 7 19 8 20 9 21 10 7 11 6 13
REMARK SMILES IDX 3 14 4 15 23 16 5 17 22 18 2 19 1 20 11 21 12 23 13 24 14 25
REMARK H PARENT 7 12 11 22 14 26
ROOT
ATOM      1  C   UNL     1       5.995  44.945  51.161  1.00  0.00     0.147 A 
ATOM      2  N   UNL     1       6.123  43.630  50.835  1.00  0.00    -0.195 NA
ATOM      3  C   UNL     1       5.046  42.830  50.748  1.00  0.00     0.226 A 
ATOM      4  N   UNL     1       3.776  43.207  50.942  1.00  0.00    -0.193 NA
ATOM      5  C   UNL     1       3.663  44.503  51.262  1.00  0.00     0.165 A 
ATOM      6  C   UNL     1       4.694  45.413  51.385  1.00  0.00     0.082 A 
ATOM      7  C   UNL     1       4.051  46.623  51.725  1.00  0.00     0.149 A 
ATOM      8  N   UNL     1       2.722  46.502  51.811  1.00  0.00    -0.179 NA
ATOM      9  N   UNL     1       2.513  45.193  51.532  1.00  0.00    -0.250 N 
ATOM     10  C   UNL     1       1.170  44.670  51.542  1.00  0.00     0.176 C 
ENDROOT
BRANCH   1  11
ATOM     11  N   UNL     1       7.104  45.802  51.239  1.00  0.00    -0.339 N 
ATOM     12  H   UNL     1       7.455  46.095  50.338  1.00  0.00     0.168 HD
BRANCH  11  13
ATOM     13  C   UNL     1       7.764  46.394  52.329  1.00  0.00     0.040 A 
ATOM     14  C   UNL     1       9.237  47.519  54.477  1.00  0.00     0.119 A 
ATOM     15  C   UNL     1       7.868  47.289  54.591  1.00  0.00     0.048 A 
ATOM     16  C   UNL     1       9.878  47.182  53.289  1.00  0.00     0.048 A 
ATOM     17  C   UNL     1       7.141  46.728  53.532  1.00  0.00     0.030 A 
ATOM     18  C   UNL     1       9.147  46.623  52.230  1.00  0.00     0.030 A 
BRANCH  14  19
ATOM     19  O   UNL     1       9.823  48.067  55.583  1.00  0.00    -0.497 OA
ATOM     20  C   UNL     1      10.986  47.420  56.083  1.00  0.00     0.278 C 
ENDBRANCH  14  19
ENDBRANCH  11  13
ENDBRANCH   1  11
BRANCH   3  21
ATOM     21  N   UNL     1       5.338  41.512  50.414  1.00  0.00    -0.352 N 
ATOM     22  H   UNL     1       6.256  41.342  50.814  1.00  0.00     0.163 HD
BRANCH  21  23
ATOM     23  C   UNL     1       5.207  41.213  48.999  1.00  0.00     0.144 C 
BRANCH  23  24
ATOM     24  C   UNL     1       3.920  40.422  48.737  1.00  0.00     0.177 C 
BRANCH  24  25
ATOM     25  O   UNL     1       3.203  40.190  49.945  1.00  0.00    -0.395 OA
ATOM     26  H   UNL     1       3.690  40.627  50.665  1.00  0.00     0.210 HD
ENDBRANCH  24  25
ENDBRANCH  23  24
ENDBRANCH  21  23
ENDBRANCH   3  21
TORSDOF 7
ENDMDL
MODEL 4
REMARK VINA RESULT:    -8.002      2.387      4.104
REMARK INTER + INTRA:         -11.569
REMARK INTER:                 -10.867
REMARK INTRA:                  -0.702
REMARK UNBOUND:                -0.526
REMARK SMILES COc1ccc(Nc2nc(NCCO)nc3c2cnn3C)cc1
REMARK SMILES IDX 8 1 9 2 10 3 15 4 16 5 17 6 18 7 19 8 20 9 21 10 7 11 6 13
REMARK SMILES IDX 3 14 4 15 23 16 5 17 22 18 2 19 1 20 11 21 12 23 13 24 14 25
REMARK H PARENT 7 12 11 22 14 26
ROOT
ATOM      1  C   UNL     1       5.201  45.241  51.371  1.00  0.00     0.147 A 
ATOM      2  N   UNL     1       5.218  43.904  51.123  1.00  0.00    -0.195 NA
ATOM      3  C   UNL     1       4.112  43.156  51.280  1.00  0.00     0.226 A 
ATOM      4  N   UNL     1       2.913  43.608  51.663  1.00  0.00    -0.193 NA
ATOM      5  C   UNL     1       2.908  44.926  51.905  1.00  0.00     0.165 A 
ATOM      6  C   UNL     1       3.979  45.788  51.783  1.00  0.00     0.082 A 
ATOM      7  C   UNL     1       3.454  47.048  52.142  1.00  0.00     0.149 A 
ATOM      8  N   UNL     1       2.157  47.001  52.465  1.00  0.00    -0.179 NA
ATOM      9  N   UNL     1       1.852  45.690  52.320  1.00  0.00    -0.250 N 
ATOM     10  C   UNL     1       0.511  45.237  52.600  1.00  0.00     0.176 C 
ENDROOT
BRANCH   1  11
ATOM     11  N   UNL     1       6.340  46.043  51.195  1.00  0.00    -0.339 N 
ATOM     12  H   UNL     1       6.371  46.514  50.301  1.00  0.00     0.168 HD
BRANCH  11  13
ATOM     13  C   UNL     1       7.398  46.382  52.055  1.00  0.00     0.040 A 
ATOM     14  C   UNL     1       9.631  46.962  53.706  1.00  0.00     0.119 A 
ATOM     15  C   UNL     1       8.331  47.098  54.187  1.00  0.00     0.048 A 
ATOM     16  C   UNL     1       9.821  46.530  52.397  1.00  0.00     0.048 A 
ATOM     17  C   UNL     1       7.228  46.807  53.373  1.00  0.00     0.030 A 
ATOM     18  C   UNL     1       8.714  46.240  51.586  1.00  0.00     0.030 A 
BRANCH  14  19
ATOM     19  O   UNL     1      10.613  47.277  54.602  1.00  0.00    -0.497 OA
ATOM     20  C   UNL     1      10.208  47.935  55.796  1.00  0.00     0.278 C 
ENDBRANCH  14  19
ENDBRANCH  11  13
ENDBRANCH   1  11
BRANCH   3  21
ATOM     21  N   UNL     1       4.290  41.805  50.996  1.00  0.00    -0.352 N 
ATOM     22  H   UNL     1       4.266  41.346  51.901  1.00  0.00     0.163 HD
BRANCH  21  23
ATOM     23  C   UNL     1       5.455  41.518  50.178  1.00  0.00     0.144 C 
BRANCH  23  24
ATOM     24  C   UNL     1       5.026  41.056  48.781  1.00  0.00     0.177 C 
BRANCH  24  25
ATOM     25  O   UNL     1       6.025  41.355  47.810  1.00  0.00    -0.395 OA
ATOM     26  H   UNL     1       5.750  40.947  46.970  1.00  0.00     0.210 HD
ENDBRANCH  24  25
ENDBRANCH  23  24
ENDBRANCH  21  23
ENDBRANCH   3  21
TORSDOF 7
ENDMDL
MODEL 5
REMARK VINA RESULT:    -7.995      2.352      6.449
REMARK INTER + INTRA:         -11.559
REMARK INTER:                 -11.019
REMARK INTRA:                  -0.540
REMARK UNBOUND:                -0.526
REMARK SMILES COc1ccc(Nc2nc(NCCO)nc3c2cnn3C)cc1
REMARK SMILES IDX 8 1 9 2 10 3 15 4 16 5 17 6 18 7 19 8 20 9 21 10 7 11 6 13
REMARK SMILES IDX 3 14 4 15 23 16 5 17 22 18 2 19 1 20 11 21 12 23 13 24 14 25
REMARK H PARENT 7 12 11 22 14 26
ROOT
ATOM      1  C   UNL     1       6.700  45.915  52.195  1.00  0.00     0.147 A 
ATOM      2  N   UNL     1       5.717  46.296  53.055  1.00  0.00    -0.195 NA
ATOM      3  C   UNL     1       6.011  46.897  54.221  1.00  0.00     0.226 A 
ATOM      4  N   UNL     1       7.240  47.199  54.655  1.00  0.00    -0.193 NA
ATOM      5  C   UNL     1       8.199  46.819  53.800  1.00  0.00     0.165 A 
ATOM      6  C   UNL     1       8.016  46.193  52.583  1.00  0.00     0.082 A 
ATOM      7  C   UNL     1       9.324  46.021  52.081  1.00  0.00     0.149 A 
ATOM      8  N   UNL     1      10.266  46.496  52.903  1.00  0.00    -0.179 NA
ATOM      9  N   UNL     1       9.551  46.971  53.950  1.00  0.00    -0.250 N 
ATOM     10  C   UNL     1      10.238  47.563  55.070  1.00  0.00     0.176 C 
ENDROOT
BRANCH   1  11
ATOM     11  N   UNL     1       6.414  45.304  50.964  1.00  0.00    -0.339 N 
ATOM     12  H   UNL     1       6.776  45.807  50.166  1.00  0.00     0.168 HD
BRANCH  11  13
ATOM     13  C   UNL     1       5.794  44.086  50.637  1.00  0.00     0.040 A 
ATOM     14  C   UNL     1       4.468  41.630  50.124  1.00  0.00     0.119 A 
ATOM     15  C   UNL     1       5.683  41.929  49.512  1.00  0.00     0.048 A 
ATOM     16  C   UNL     1       3.913  42.557  51.001  1.00  0.00     0.048 A 
ATOM     17  C   UNL     1       6.341  43.139  49.769  1.00  0.00     0.030 A 
ATOM     18  C   UNL     1       4.574  43.768  51.255  1.00  0.00     0.030 A 
BRANCH  14  19
ATOM     19  O   UNL     1       3.936  40.418  49.788  1.00  0.00    -0.497 OA
ATOM     20  C   UNL     1       3.656  40.198  48.411  1.00  0.00     0.278 C 
ENDBRANCH  14  19
ENDBRANCH  11  13
ENDBRANCH   1  11
BRANCH   3  21
ATOM     21  N   UNL     1       4.900  47.218  54.995  1.00  0.00    -0.352 N 
ATOM     22  H   UNL     1       5.122  46.867  55.922  1.00  0.00     0.163 HD
BRANCH  21  23
ATOM     23  C   UNL     1       3.636  46.765  54.440  1.00  0.00     0.144 C 
BRANCH  23  24
ATOM     24  C   UNL     1       2.972  45.753  55.380  1.00  0.00     0.177 C 
BRANCH  24  25
ATOM     25  O   UNL     1       3.893  44.743  55.783  1.00  0.00    -0.395 OA
ATOM     26  H   UNL     1       4.133  44.231  54.991  1.00  0.00     0.210 HD
ENDBRANCH  24  25
ENDBRANCH  23  24
ENDBRANCH  21  23
ENDBRANCH   3  21
TORSDOF 7
ENDMDL
MODEL 6
REMARK VINA RESULT:    -7.945      2.370      4.220
REMARK INTER + INTRA:         -11.490
REMARK INTER:                 -10.808
REMARK INTRA:                  -0.683
REMARK UNBOUND:                -0.526
REMARK SMILES COc1ccc(Nc2nc(NCCO)nc3c2cnn3C)cc1
REMARK SMILES IDX 8 1 9 2 10 3 15 4 16 5 17 6 18 7 19 8 20 9 21 10 7 11 6 13
REMARK SMILES IDX 3 14 4 15 23 16 5 17 22 18 2 19 1 20 11 21 12 23 13 24 14 25
REMARK H PARENT 7 12 11 22 14 26
ROOT
ATOM      1  C   UNL     1       5.170  45.233  51.412  1.00  0.00     0.147 A 
ATOM      2  N   UNL     1       5.234  43.903  51.132  1.00  0.00    -0.195 NA
ATOM      3  C   UNL     1       4.157  43.112  51.281  1.00  0.00     0.226 A 
ATOM      4  N   UNL     1       2.945  43.510  51.684  1.00  0.00    -0.193 NA
ATOM      5  C   UNL     1       2.895  44.821  51.956  1.00  0.00     0.165 A 
ATOM      6  C   UNL     1       3.932  45.725  51.846  1.00  0.00     0.082 A 
ATOM      7  C   UNL     1       3.364  46.956  52.238  1.00  0.00     0.149 A 
ATOM      8  N   UNL     1       2.073  46.853  52.571  1.00  0.00    -0.179 NA
ATOM      9  N   UNL     1       1.815  45.535  52.398  1.00  0.00    -0.250 N 
ATOM     10  C   UNL     1       0.494  45.028  52.677  1.00  0.00     0.176 C 
ENDROOT
BRANCH   1  11
ATOM     11  N   UNL     1       6.276  46.080  51.245  1.00  0.00    -0.339 N 
ATOM     12  H   UNL     1       6.235  46.643  50.407  1.00  0.00     0.168 HD
BRANCH  11  13
ATOM     13  C   UNL     1       7.385  46.357  52.063  1.00  0.00     0.040 A 
ATOM     14  C   UNL     1       9.529  47.022  53.797  1.00  0.00     0.119 A 
ATOM     15  C   UNL     1       9.771  46.554  52.508  1.00  0.00     0.048 A 
ATOM     16  C   UNL     1       8.213  47.165  54.224  1.00  0.00     0.048 A 
ATOM     17  C   UNL     1       8.712  46.230  51.649  1.00  0.00     0.030 A 
ATOM     18  C   UNL     1       7.156  46.839  53.362  1.00  0.00     0.030 A 
BRANCH  14  19
ATOM     19  O   UNL     1      10.649  47.301  54.528  1.00  0.00    -0.497 OA
ATOM     20  C   UNL     1      10.458  47.638  55.896  1.00  0.00     0.278 C 
ENDBRANCH  14  19
ENDBRANCH  11  13
ENDBRANCH   1  11
BRANCH   3  21
ATOM     21  N   UNL     1       4.381  41.775  50.963  1.00  0.00    -0.352 N 
ATOM     22  H   UNL     1       4.411  41.299  51.859  1.00  0.00     0.163 HD
BRANCH  21  23
ATOM     23  C   UNL     1       5.526  41.554  50.097  1.00  0.00     0.144 C 
BRANCH  23  24
ATOM     24  C   UNL     1       5.065  41.114  48.703  1.00  0.00     0.177 C 
BRANCH  24  25
ATOM     25  O   UNL     1       6.043  41.425  47.715  1.00  0.00    -0.395 OA
ATOM     26  H   UNL     1       5.786  42.268  47.303  1.00  0.00     0.210 HD
ENDBRANCH  24  25
ENDBRANCH  23  24
ENDBRANCH  21  23
ENDBRANCH   3  21
TORSDOF 7
ENDMDL
MODEL 7
REMARK VINA RESULT:    -7.855      3.065      4.286
REMARK INTER + INTRA:         -11.366
REMARK INTER:                 -10.715
REMARK INTRA:                  -0.652
REMARK UNBOUND:                -0.526
REMARK SMILES COc1ccc(Nc2nc(NCCO)nc3c2cnn3C)cc1
REMARK SMILES IDX 8 1 9 2 10 3 15 4 16 5 17 6 18 7 19 8 20 9 21 10 7 11 6 13
REMARK SMILES IDX 3 14 4 15 23 16 5 17 22 18 2 19 1 20 11 21 12 23 13 24 14 25
REMARK H PARENT 7 12 11 22 14 26
ROOT
ATOM      1  C   UNL     1       3.160  45.982  53.406  1.00  0.00     0.147 A 
ATOM      2  N   UNL     1       3.052  46.280  54.728  1.00  0.00    -0.195 NA
ATOM      3  C   UNL     1       2.264  45.553  55.540  1.00  0.00     0.226 A 
ATOM      4  N   UNL     1       1.539  44.489  55.176  1.00  0.00    -0.193 NA
ATOM      5  C   UNL     1       1.654  44.205  53.871  1.00  0.00     0.165 A 
ATOM      6  C   UNL     1       2.425  44.881  52.947  1.00  0.00     0.082 A 
ATOM      7  C   UNL     1       2.204  44.189  51.737  1.00  0.00     0.149 A 
ATOM      8  N   UNL     1       1.366  43.156  51.872  1.00  0.00    -0.179 NA
ATOM      9  N   UNL     1       1.038  43.194  53.185  1.00  0.00    -0.250 N 
ATOM     10  C   UNL     1       0.120  42.218  53.717  1.00  0.00     0.176 C 
ENDROOT
BRANCH   1  11
ATOM     11  N   UNL     1       3.992  46.716  52.545  1.00  0.00    -0.339 N 
ATOM     12  H   UNL     1       3.570  47.567  52.200  1.00  0.00     0.168 HD
BRANCH  11  13
ATOM     13  C   UNL     1       5.325  46.536  52.141  1.00  0.00     0.040 A 
ATOM     14  C   UNL     1       7.974  46.025  51.262  1.00  0.00     0.119 A 
ATOM     15  C   UNL     1       7.729  46.870  52.342  1.00  0.00     0.048 A 
ATOM     16  C   UNL     1       6.895  45.426  50.619  1.00  0.00     0.048 A 
ATOM     17  C   UNL     1       6.421  47.119  52.779  1.00  0.00     0.030 A 
ATOM     18  C   UNL     1       5.587  45.678  51.060  1.00  0.00     0.030 A 
BRANCH  14  19
ATOM     19  O   UNL     1       9.293  45.869  50.941  1.00  0.00    -0.497 OA
ATOM     20  C   UNL     1      10.246  46.314  51.898  1.00  0.00     0.278 C 
ENDBRANCH  14  19
ENDBRANCH  11  13
ENDBRANCH   1  11
BRANCH   3  21
ATOM     21  N   UNL     1       2.251  45.985  56.863  1.00  0.00    -0.352 N 
ATOM     22  H   UNL     1       2.866  45.340  57.350  1.00  0.00     0.163 HD
BRANCH  21  23
ATOM     23  C   UNL     1       0.921  46.132  57.427  1.00  0.00     0.144 C 
BRANCH  23  24
ATOM     24  C   UNL     1       0.974  46.975  58.706  1.00  0.00     0.177 C 
BRANCH  24  25
ATOM     25  O   UNL     1       2.178  46.740  59.430  1.00  0.00    -0.395 OA
ATOM     26  H   UNL     1       2.580  45.928  59.075  1.00  0.00     0.210 HD
ENDBRANCH  24  25
ENDBRANCH  23  24
ENDBRANCH  21  23
ENDBRANCH   3  21
TORSDOF 7
ENDMDL
MODEL 8
REMARK VINA RESULT:    -7.843      2.352      4.349
REMARK INTER + INTRA:         -11.350
REMARK INTER:                 -10.660
REMARK INTRA:                  -0.690
REMARK UNBOUND:                -0.526
REMARK SMILES COc1ccc(Nc2nc(NCCO)nc3c2cnn3C)cc1
REMARK SMILES IDX 8 1 9 2 10 3 15 4 16 5 17 6 18 7 19 8 20 9 21 10 7 11 6 13
REMARK SMILES IDX 3 14 4 15 23 16 5 17 22 18 2 19 1 20 11 21 12 23 13 24 14 25
REMARK H PARENT 7 12 11 22 14 26
ROOT
ATOM      1  C   UNL     1       4.292  44.895  51.825  1.00  0.00     0.147 A 
ATOM      2  N   UNL     1       4.483  43.650  51.311  1.00  0.00    -0.195 NA
ATOM      3  C   UNL     1       3.625  42.651  51.580  1.00  0.00     0.226 A 
ATOM      4  N   UNL     1       2.523  42.750  52.333  1.00  0.00    -0.193 NA
ATOM      5  C   UNL     1       2.346  43.980  52.833  1.00  0.00     0.165 A 
ATOM      6  C   UNL     1       3.160  45.076  52.630  1.00  0.00     0.082 A 
ATOM      7  C   UNL     1       2.537  46.112  53.359  1.00  0.00     0.149 A 
ATOM      8  N   UNL     1       1.419  45.717  53.976  1.00  0.00    -0.179 NA
ATOM      9  N   UNL     1       1.331  44.407  53.645  1.00  0.00    -0.250 N 
ATOM     10  C   UNL     1       0.233  43.619  54.149  1.00  0.00     0.176 C 
ENDROOT
BRANCH   1  11
ATOM     11  N   UNL     1       5.165  45.957  51.541  1.00  0.00    -0.339 N 
ATOM     12  H   UNL     1       4.794  46.621  50.875  1.00  0.00     0.168 HD
BRANCH  11  13
ATOM     13  C   UNL     1       6.416  46.317  52.069  1.00  0.00     0.040 A 
ATOM     14  C   UNL     1       9.013  46.933  53.032  1.00  0.00     0.119 A 
ATOM     15  C   UNL     1       7.889  47.126  53.832  1.00  0.00     0.048 A 
ATOM     16  C   UNL     1       8.844  46.426  51.747  1.00  0.00     0.048 A 
ATOM     17  C   UNL     1       6.606  46.817  53.358  1.00  0.00     0.030 A 
ATOM     18  C   UNL     1       7.559  46.119  51.276  1.00  0.00     0.030 A 
BRANCH  14  19
ATOM     19  O   UNL     1      10.200  47.273  53.616  1.00  0.00    -0.497 OA
ATOM     20  C   UNL     1      10.225  47.335  55.037  1.00  0.00     0.278 C 
ENDBRANCH  14  19
ENDBRANCH  11  13
ENDBRANCH   1  11
BRANCH   3  21
ATOM     21  N   UNL     1       3.958  41.436  50.989  1.00  0.00    -0.352 N 
ATOM     22  H   UNL     1       3.914  40.761  51.746  1.00  0.00     0.163 HD
BRANCH  21  23
ATOM     23  C   UNL     1       5.204  41.459  50.243  1.00  0.00     0.144 C 
BRANCH  23  24
ATOM     24  C   UNL     1       4.961  41.053  48.785  1.00  0.00     0.177 C 
BRANCH  24  25
ATOM     25  O   UNL     1       6.070  41.402  47.961  1.00  0.00    -0.395 OA
ATOM     26  H   UNL     1       6.201  42.363  48.037  1.00  0.00     0.210 HD
ENDBRANCH  24  25
ENDBRANCH  23  24
ENDBRANCH  21  23
ENDBRANCH   3  21
TORSDOF 7
ENDMDL
MODEL 9
REMARK VINA RESULT:    -7.726      2.248      6.281
REMARK INTER + INTRA:         -11.188
REMARK INTER:                 -10.540
REMARK INTRA:                  -0.649
REMARK UNBOUND:                -0.526
REMARK SMILES COc1ccc(Nc2nc(NCCO)nc3c2cnn3C)cc1
REMARK SMILES IDX 8 1 9 2 10 3 15 4 16 5 17 6 18 7 19 8 20 9 21 10 7 11 6 13
REMARK SMILES IDX 3 14 4 15 23 16 5 17 22 18 2 19 1 20 11 21 12 23 13 24 14 25
REMARK H PARENT 7 12 11 22 14 26
ROOT
ATOM      1  C   UNL     1       5.601  46.931  52.594  1.00  0.00     0.147 A 
ATOM      2  N   UNL     1       6.718  47.541  53.072  1.00  0.00    -0.195 NA
ATOM      3  C   UNL     1       7.938  47.212  52.612  1.00  0.00     0.226 A 
ATOM      4  N   UNL     1       8.195  46.304  51.662  1.00  0.00    -0.193 NA
ATOM      5  C   UNL     1       7.086  45.711  51.199  1.00  0.00     0.165 A 
ATOM      6  C   UNL     1       5.790  45.963  51.599  1.00  0.00     0.082 A 
ATOM      7  C   UNL     1       5.007  45.091  50.811  1.00  0.00     0.149 A 
ATOM      8  N   UNL     1       5.737  44.345  49.976  1.00  0.00    -0.179 NA
ATOM      9  N   UNL     1       7.006  44.737  50.241  1.00  0.00    -0.250 N 
ATOM     10  C   UNL     1       8.101  44.130  49.527  1.00  0.00     0.176 C 
ENDROOT
BRANCH   1  11
ATOM     11  N   UNL     1       4.317  47.273  53.047  1.00  0.00    -0.339 N 
ATOM     12  H   UNL     1       4.142  48.268  53.061  1.00  0.00     0.168 HD
BRANCH  11  13
ATOM     13  C   UNL     1       3.203  46.493  53.402  1.00  0.00     0.040 A 
ATOM     14  C   UNL     1       1.056  44.824  54.209  1.00  0.00     0.119 A 
ATOM     15  C   UNL     1       0.996  45.538  53.015  1.00  0.00     0.048 A 
ATOM     16  C   UNL     1       2.192  44.937  55.004  1.00  0.00     0.048 A 
ATOM     17  C   UNL     1       2.059  46.359  52.614  1.00  0.00     0.030 A 
ATOM     18  C   UNL     1       3.253  45.760  54.599  1.00  0.00     0.030 A 
BRANCH  14  19
ATOM     19  O   UNL     1      -0.046  44.062  54.480  1.00  0.00    -0.497 OA
ATOM     20  C   UNL     1      -0.221  42.884  53.702  1.00  0.00     0.278 C 
ENDBRANCH  14  19
ENDBRANCH  11  13
ENDBRANCH   1  11
BRANCH   3  21
ATOM     21  N   UNL     1       8.982  47.916  53.203  1.00  0.00    -0.352 N 
ATOM     22  H   UNL     1       9.351  48.501  52.460  1.00  0.00     0.163 HD
BRANCH  21  23
ATOM     23  C   UNL     1       9.954  47.079  53.884  1.00  0.00     0.144 C 
BRANCH  23  24
ATOM     24  C   UNL     1      10.154  47.556  55.326  1.00  0.00     0.177 C 
BRANCH  24  25
ATOM     25  O   UNL     1       9.247  48.605  55.652  1.00  0.00    -0.395 OA
ATOM     26  H   UNL     1       8.901  48.427  56.544  1.00  0.00     0.210 HD
ENDBRANCH  24  25
ENDBRANCH  23  24
ENDBRANCH  21  23
ENDBRANCH   3  21
TORSDOF 7
ENDMDL
MODEL 10
REMARK VINA RESULT:    -7.673      2.951      4.973
REMARK INTER + INTRA:         -11.115
REMARK INTER:                 -10.567
REMARK INTRA:                  -0.549
REMARK UNBOUND:                -0.526
REMARK SMILES COc1ccc(Nc2nc(NCCO)nc3c2cnn3C)cc1
REMARK SMILES IDX 8 1 9 2 10 3 15 4 16 5 17 6 18 7 19 8 20 9 21 10 7 11 6 13
REMARK SMILES IDX 3 14 4 15 23 16 5 17 22 18 2 19 1 20 11 21 12 23 13 24 14 25
REMARK H PARENT 7 12 11 22 14 26
ROOT
ATOM      1  C   UNL     1       2.813  44.232  53.896  1.00  0.00     0.147 A 
ATOM      2  N   UNL     1       2.859  44.949  55.051  1.00  0.00    -0.195 NA
ATOM      3  C   UNL     1       1.733  45.284  55.704  1.00  0.00     0.226 A 
ATOM      4  N   UNL     1       0.489  44.957  55.332  1.00  0.00    -0.193 NA
ATOM      5  C   UNL     1       0.457  44.251  54.194  1.00  0.00     0.165 A 
ATOM      6  C   UNL     1       1.543  43.857  53.440  1.00  0.00     0.082 A 
ATOM      7  C   UNL     1       0.977  43.143  52.361  1.00  0.00     0.149 A 
ATOM      8  N   UNL     1      -0.357  43.082  52.418  1.00  0.00    -0.179 NA
ATOM      9  N   UNL     1      -0.649  43.776  53.544  1.00  0.00    -0.250 N 
ATOM     10  C   UNL     1      -2.026  43.942  53.939  1.00  0.00     0.176 C 
ENDROOT
BRANCH   1  11
ATOM     11  N   UNL     1       3.978  43.855  53.210  1.00  0.00    -0.339 N 
ATOM     12  H   UNL     1       4.023  42.869  52.994  1.00  0.00     0.168 HD
BRANCH  11  13
ATOM     13  C   UNL     1       5.051  44.601  52.692  1.00  0.00     0.040 A 
ATOM     14  C   UNL     1       7.216  46.006  51.514  1.00  0.00     0.119 A 
ATOM     15  C   UNL     1       7.042  45.988  52.896  1.00  0.00     0.048 A 
ATOM     16  C   UNL     1       6.310  45.317  50.714  1.00  0.00     0.048 A 
ATOM     17  C   UNL     1       5.976  45.290  53.478  1.00  0.00     0.030 A 
ATOM     18  C   UNL     1       5.244  44.620  51.301  1.00  0.00     0.030 A 
BRANCH  14  19
ATOM     19  O   UNL     1       8.295  46.722  51.079  1.00  0.00    -0.497 OA
ATOM     20  C   UNL     1       9.187  47.212  52.073  1.00  0.00     0.278 C 
ENDBRANCH  14  19
ENDBRANCH  11  13
ENDBRANCH   1  11
BRANCH   3  21
ATOM     21  N   UNL     1       1.941  46.024  56.864  1.00  0.00    -0.352 N 
ATOM     22  H   UNL     1       2.712  45.556  57.332  1.00  0.00     0.163 HD
BRANCH  21  23
ATOM     23  C   UNL     1       0.747  46.220  57.667  1.00  0.00     0.144 C 
BRANCH  23  24
ATOM     24  C   UNL     1       1.053  47.126  58.865  1.00  0.00     0.177 C 
BRANCH  24  25
ATOM     25  O   UNL     1       2.249  46.722  59.525  1.00  0.00    -0.395 OA
ATOM     26  H   UNL     1       2.063  45.884  59.985  1.00  0.00     0.210 HD
ENDBRANCH  24  25
ENDBRANCH  23  24
ENDBRANCH  21  23
ENDBRANCH   3  21
TORSDOF 7
ENDMDL
MODEL 11
REMARK VINA RESULT:    -7.401      3.144      6.241
REMARK INTER + INTRA:         -10.740
REMARK INTER:                 -10.285
REMARK INTRA:                  -0.455
REMARK UNBOUND:                -0.526
REMARK SMILES COc1ccc(Nc2nc(NCCO)nc3c2cnn3C)cc1
REMARK SMILES IDX 8 1 9 2 10 3 15 4 16 5 17 6 18 7 19 8 20 9 21 10 7 11 6 13
REMARK SMILES IDX 3 14 4 15 23 16 5 17 22 18 2 19 1 20 11 21 12 23 13 24 14 25
REMARK H PARENT 7 12 11 22 14 26
ROOT
ATOM      1  C   UNL     1       2.295  43.519  53.465  1.00  0.00     0.147 A 
ATOM      2  N   UNL     1       3.096  44.386  54.139  1.00  0.00    -0.195 NA
ATOM      3  C   UNL     1       2.598  45.187  55.098  1.00  0.00     0.226 A 
ATOM      4  N   UNL     1       1.323  45.219  55.502  1.00  0.00    -0.193 NA
ATOM      5  C   UNL     1       0.544  44.361  54.831  1.00  0.00     0.165 A 
ATOM      6  C   UNL     1       0.943  43.499  53.829  1.00  0.00     0.082 A 
ATOM      7  C   UNL     1      -0.239  42.819  53.465  1.00  0.00     0.149 A 
ATOM      8  N   UNL     1      -1.305  43.209  54.172  1.00  0.00    -0.179 NA
ATOM      9  N   UNL     1      -0.799  44.158  54.994  1.00  0.00    -0.250 N 
ATOM     10  C   UNL     1      -1.673  44.836  55.919  1.00  0.00     0.176 C 
ENDROOT
BRANCH   1  11
ATOM     11  N   UNL     1       2.798  42.660  52.474  1.00  0.00    -0.339 N 
ATOM     12  H   UNL     1       2.230  41.840  52.320  1.00  0.00     0.168 HD
BRANCH  11  13
ATOM     13  C   UNL     1       3.893  42.768  51.600  1.00  0.00     0.040 A 
ATOM     14  C   UNL     1       6.142  42.827  49.871  1.00  0.00     0.119 A 
ATOM     15  C   UNL     1       5.661  43.994  50.459  1.00  0.00     0.048 A 
ATOM     16  C   UNL     1       5.504  41.622  50.149  1.00  0.00     0.048 A 
ATOM     17  C   UNL     1       4.553  43.964  51.317  1.00  0.00     0.030 A 
ATOM     18  C   UNL     1       4.395  41.597  51.008  1.00  0.00     0.030 A 
BRANCH  14  19
ATOM     19  O   UNL     1       7.226  42.996  49.058  1.00  0.00    -0.497 OA
ATOM     20  C   UNL     1       8.112  44.062  49.379  1.00  0.00     0.278 C 
ENDBRANCH  14  19
ENDBRANCH  11  13
ENDBRANCH   1  11
BRANCH   3  21
ATOM     21  N   UNL     1       3.539  46.023  55.691  1.00  0.00    -0.352 N 
ATOM     22  H   UNL     1       3.183  46.961  55.536  1.00  0.00     0.163 HD
BRANCH  21  23
ATOM     23  C   UNL     1       4.904  45.790  55.250  1.00  0.00     0.144 C 
BRANCH  23  24
ATOM     24  C   UNL     1       5.456  47.032  54.543  1.00  0.00     0.177 C 
BRANCH  24  25
ATOM     25  O   UNL     1       4.662  48.182  54.823  1.00  0.00    -0.395 OA
ATOM     26  H   UNL     1       5.266  48.936  54.936  1.00  0.00     0.210 HD
ENDBRANCH  24  25
ENDBRANCH  23  24
ENDBRANCH  21  23
ENDBRANCH   3  21
TORSDOF 7
ENDMDL
MODEL 12
REMARK VINA RESULT:    -7.346      3.836      7.582
REMARK INTER + INTRA:         -10.663
REMARK INTER:                 -10.002
REMARK INTRA:                  -0.662
REMARK UNBOUND:                -0.526
REMARK SMILES COc1ccc(Nc2nc(NCCO)nc3c2cnn3C)cc1
REMARK SMILES IDX 8 1 9 2 10 3 15 4 16 5 17 6 18 7 19 8 20 9 21 10 7 11 6 13
REMARK SMILES IDX 3 14 4 15 23 16 5 17 22 18 2 19 1 20 11 21 12 23 13 24 14 25
REMARK H PARENT 7 12 11 22 14 26
ROOT
ATOM      1  C   UNL     1       4.895  42.236  50.609  1.00  0.00     0.147 A 
ATOM      2  N   UNL     1       3.861  41.922  51.435  1.00  0.00    -0.195 NA
ATOM      3  C   UNL     1       3.447  42.780  52.385  1.00  0.00     0.226 A 
ATOM      4  N   UNL     1       3.959  43.994  52.615  1.00  0.00    -0.193 NA
ATOM      5  C   UNL     1       4.976  44.293  51.795  1.00  0.00     0.165 A 
ATOM      6  C   UNL     1       5.487  43.492  50.794  1.00  0.00     0.082 A 
ATOM      7  C   UNL     1       6.528  44.261  50.231  1.00  0.00     0.149 A 
ATOM      8  N   UNL     1       6.673  45.454  50.819  1.00  0.00    -0.179 NA
ATOM      9  N   UNL     1       5.717  45.442  51.778  1.00  0.00    -0.250 N 
ATOM     10  C   UNL     1       5.571  46.582  52.649  1.00  0.00     0.176 C 
ENDROOT
BRANCH   1  11
ATOM     11  N   UNL     1       5.329  41.364  49.599  1.00  0.00    -0.339 N 
ATOM     12  H   UNL     1       6.002  40.679  49.915  1.00  0.00     0.168 HD
BRANCH  11  13
ATOM     13  C   UNL     1       4.944  41.208  48.257  1.00  0.00     0.040 A 
ATOM     14  C   UNL     1       4.095  40.749  45.589  1.00  0.00     0.119 A 
ATOM     15  C   UNL     1       5.219  41.526  45.858  1.00  0.00     0.048 A 
ATOM     16  C   UNL     1       3.393  40.193  46.653  1.00  0.00     0.048 A 
ATOM     17  C   UNL     1       5.642  41.748  47.176  1.00  0.00     0.030 A 
ATOM     18  C   UNL     1       3.818  40.419  47.970  1.00  0.00     0.030 A 
BRANCH  14  19
ATOM     19  O   UNL     1       3.794  40.612  44.263  1.00  0.00    -0.497 OA
ATOM     20  C   UNL     1       3.863  39.299  43.720  1.00  0.00     0.278 C 
ENDBRANCH  14  19
ENDBRANCH  11  13
ENDBRANCH   1  11
BRANCH   3  21
ATOM     21  N   UNL     1       2.386  42.313  53.154  1.00  0.00    -0.352 N 
ATOM     22  H   UNL     1       2.179  41.393  52.776  1.00  0.00     0.163 HD
BRANCH  21  23
ATOM     23  C   UNL     1       1.260  43.227  53.232  1.00  0.00     0.144 C 
BRANCH  23  24
ATOM     24  C   UNL     1      -0.050  42.486  52.947  1.00  0.00     0.177 C 
BRANCH  24  25
ATOM     25  O   UNL     1      -0.075  41.215  53.591  1.00  0.00    -0.395 OA
ATOM     26  H   UNL     1      -1.005  40.994  53.770  1.00  0.00     0.210 HD
ENDBRANCH  24  25
ENDBRANCH  23  24
ENDBRANCH  21  23
ENDBRANCH   3  21
TORSDOF 7
ENDMDL
MODEL 13
REMARK VINA RESULT:    -7.290      3.193      7.276
REMARK INTER + INTRA:         -10.587
REMARK INTER:                  -9.881
REMARK INTRA:                  -0.705
REMARK UNBOUND:                -0.526
REMARK SMILES COc1ccc(Nc2nc(NCCO)nc3c2cnn3C)cc1
REMARK SMILES IDX 8 1 9 2 10 3 15 4 16 5 17 6 18 7 19 8 20 9 21 10 7 11 6 13
REMARK SMILES IDX 3 14 4 15 23 16 5 17 22 18 2 19 1 20 11 21 12 23 13 24 14 25
REMARK H PARENT 7 12 11 22 14 26
ROOT
ATOM      1  C   UNL     1       4.797  44.541  52.817  1.00  0.00     0.147 A 
ATOM      2  N   UNL     1       5.007  43.807  51.693  1.00  0.00    -0.195 NA
ATOM      3  C   UNL     1       5.944  44.163  50.797  1.00  0.00     0.226 A 
ATOM      4  N   UNL     1       6.759  45.220  50.900  1.00  0.00    -0.193 NA
ATOM      5  C   UNL     1       6.543  45.936  52.012  1.00  0.00     0.165 A 
ATOM      6  C   UNL     1       5.609  45.669  52.993  1.00  0.00     0.082 A 
ATOM      7  C   UNL     1       5.791  46.704  53.935  1.00  0.00     0.149 A 
ATOM      8  N   UNL     1       6.757  47.561  53.591  1.00  0.00    -0.179 NA
ATOM      9  N   UNL     1       7.194  47.072  52.406  1.00  0.00    -0.250 N 
ATOM     10  C   UNL     1       8.251  47.755  51.702  1.00  0.00     0.176 C 
ENDROOT
BRANCH   1  11
ATOM     11  N   UNL     1       3.837  44.176  53.774  1.00  0.00    -0.339 N 
ATOM     12  H   UNL     1       4.195  44.143  54.718  1.00  0.00     0.168 HD
BRANCH  11  13
ATOM     13  C   UNL     1       2.456  43.930  53.680  1.00  0.00     0.040 A 
ATOM     14  C   UNL     1      -0.350  43.513  53.635  1.00  0.00     0.119 A 
ATOM     15  C   UNL     1       0.514  42.645  52.970  1.00  0.00     0.048 A 
ATOM     16  C   UNL     1       0.187  44.592  54.331  1.00  0.00     0.048 A 
ATOM     17  C   UNL     1       1.900  42.848  52.997  1.00  0.00     0.030 A 
ATOM     18  C   UNL     1       1.575  44.792  54.354  1.00  0.00     0.030 A 
BRANCH  14  19
ATOM     19  O   UNL     1      -1.675  43.200  53.529  1.00  0.00    -0.497 OA
ATOM     20  C   UNL     1      -2.598  44.092  54.141  1.00  0.00     0.278 C 
ENDBRANCH  14  19
ENDBRANCH  11  13
ENDBRANCH   1  11
BRANCH   3  21
ATOM     21  N   UNL     1       6.035  43.318  49.696  1.00  0.00    -0.352 N 
ATOM     22  H   UNL     1       5.281  43.612  49.083  1.00  0.00     0.163 HD
BRANCH  21  23
ATOM     23  C   UNL     1       6.055  41.904  50.031  1.00  0.00     0.144 C 
BRANCH  23  24
ATOM     24  C   UNL     1       4.749  41.233  49.592  1.00  0.00     0.177 C 
BRANCH  24  25
ATOM     25  O   UNL     1       3.941  40.894  50.715  1.00  0.00    -0.395 OA
ATOM     26  H   UNL     1       4.532  40.780  51.479  1.00  0.00     0.210 HD
ENDBRANCH  24  25
ENDBRANCH  23  24
ENDBRANCH  21  23
ENDBRANCH   3  21
TORSDOF 7
ENDMDL
MODEL 14
REMARK VINA RESULT:    -7.259      2.510      4.719
REMARK INTER + INTRA:         -10.544
REMARK INTER:                 -10.036
REMARK INTRA:                  -0.507
REMARK UNBOUND:                -0.526
REMARK SMILES COc1ccc(Nc2nc(NCCO)nc3c2cnn3C)cc1
REMARK SMILES IDX 8 1 9 2 10 3 15 4 16 5 17 6 18 7 19 8 20 9 21 10 7 11 6 13
REMARK SMILES IDX 3 14 4 15 23 16 5 17 22 18 2 19 1 20 11 21 12 23 13 24 14 25
REMARK H PARENT 7 12 11 22 14 26
ROOT
ATOM      1  C   UNL     1       3.780  44.843  53.274  1.00  0.00     0.147 A 
ATOM      2  N   UNL     1       4.188  43.772  52.541  1.00  0.00    -0.195 NA
ATOM      3  C   UNL     1       3.358  42.744  52.295  1.00  0.00     0.226 A 
ATOM      4  N   UNL     1       2.086  42.653  52.703  1.00  0.00    -0.193 NA
ATOM      5  C   UNL     1       1.696  43.713  53.423  1.00  0.00     0.165 A 
ATOM      6  C   UNL     1       2.459  44.818  53.741  1.00  0.00     0.082 A 
ATOM      7  C   UNL     1       1.591  45.634  54.497  1.00  0.00     0.149 A 
ATOM      8  N   UNL     1       0.375  45.102  54.651  1.00  0.00    -0.179 NA
ATOM      9  N   UNL     1       0.469  43.923  53.992  1.00  0.00    -0.250 N 
ATOM     10  C   UNL     1      -0.670  43.040  53.948  1.00  0.00     0.176 C 
ENDROOT
BRANCH   1  11
ATOM     11  N   UNL     1       4.624  45.935  53.526  1.00  0.00    -0.339 N 
ATOM     12  H   UNL     1       4.184  46.677  54.052  1.00  0.00     0.168 HD
BRANCH  11  13
ATOM     13  C   UNL     1       5.986  46.156  53.259  1.00  0.00     0.040 A 
ATOM     14  C   UNL     1       8.741  46.702  52.855  1.00  0.00     0.119 A 
ATOM     15  C   UNL     1       7.918  46.348  51.789  1.00  0.00     0.048 A 
ATOM     16  C   UNL     1       8.189  46.790  54.129  1.00  0.00     0.048 A 
ATOM     17  C   UNL     1       6.556  46.084  51.988  1.00  0.00     0.030 A 
ATOM     18  C   UNL     1       6.825  46.523  54.324  1.00  0.00     0.030 A 
BRANCH  14  19
ATOM     19  O   UNL     1      10.046  46.933  52.523  1.00  0.00    -0.497 OA
ATOM     20  C   UNL     1      10.652  46.019  51.618  1.00  0.00     0.278 C 
ENDBRANCH  14  19
ENDBRANCH  11  13
ENDBRANCH   1  11
BRANCH   3  21
ATOM     21  N   UNL     1       3.922  41.721  51.539  1.00  0.00    -0.352 N 
ATOM     22  H   UNL     1       4.534  41.231  52.185  1.00  0.00     0.163 HD
BRANCH  21  23
ATOM     23  C   UNL     1       4.542  42.166  50.304  1.00  0.00     0.144 C 
BRANCH  23  24
ATOM     24  C   UNL     1       5.924  41.525  50.138  1.00  0.00     0.177 C 
BRANCH  24  25
ATOM     25  O   UNL     1       6.147  41.125  48.789  1.00  0.00    -0.395 OA
ATOM     26  H   UNL     1       6.711  41.800  48.372  1.00  0.00     0.210 HD
ENDBRANCH  24  25
ENDBRANCH  23  24
ENDBRANCH  21  23
ENDBRANCH   3  21
TORSDOF 7
ENDMDL
MODEL 15
REMARK VINA RESULT:    -7.239      3.335      7.679
REMARK INTER + INTRA:         -10.517
REMARK INTER:                  -9.657
REMARK INTRA:                  -0.860
REMARK UNBOUND:                -0.526
REMARK SMILES COc1ccc(Nc2nc(NCCO)nc3c2cnn3C)cc1
REMARK SMILES IDX 8 1 9 2 10 3 15 4 16 5 17 6 18 7 19 8 20 9 21 10 7 11 6 13
REMARK SMILES IDX 3 14 4 15 23 16 5 17 22 18 2 19 1 20 11 21 12 23 13 24 14 25
REMARK H PARENT 7 12 11 22 14 26
ROOT
ATOM      1  C   UNL     1       6.066  42.979  50.026  1.00  0.00     0.147 A 
ATOM      2  N   UNL     1       6.929  44.028  49.967  1.00  0.00    -0.195 NA
ATOM      3  C   UNL     1       6.819  45.065  50.815  1.00  0.00     0.226 A 
ATOM      4  N   UNL     1       5.907  45.184  51.787  1.00  0.00    -0.193 NA
ATOM      5  C   UNL     1       5.062  44.145  51.835  1.00  0.00     0.165 A 
ATOM      6  C   UNL     1       5.077  43.034  51.016  1.00  0.00     0.082 A 
ATOM      7  C   UNL     1       4.000  42.247  51.479  1.00  0.00     0.149 A 
ATOM      8  N   UNL     1       3.351  42.802  52.507  1.00  0.00    -0.179 NA
ATOM      9  N   UNL     1       4.016  43.966  52.699  1.00  0.00    -0.250 N 
ATOM     10  C   UNL     1       3.587  44.866  53.740  1.00  0.00     0.176 C 
ENDROOT
BRANCH   1  11
ATOM     11  N   UNL     1       6.175  41.878  49.162  1.00  0.00    -0.339 N 
ATOM     12  H   UNL     1       6.915  41.237  49.411  1.00  0.00     0.168 HD
BRANCH  11  13
ATOM     13  C   UNL     1       5.399  41.454  48.070  1.00  0.00     0.040 A 
ATOM     14  C   UNL     1       3.880  40.736  45.783  1.00  0.00     0.119 A 
ATOM     15  C   UNL     1       3.515  40.293  47.053  1.00  0.00     0.048 A 
ATOM     16  C   UNL     1       5.004  41.546  45.652  1.00  0.00     0.048 A 
ATOM     17  C   UNL     1       4.263  40.652  48.183  1.00  0.00     0.030 A 
ATOM     18  C   UNL     1       5.750  41.902  46.786  1.00  0.00     0.030 A 
BRANCH  14  19
ATOM     19  O   UNL     1       3.066  40.315  44.771  1.00  0.00    -0.497 OA
ATOM     20  C   UNL     1       1.812  40.972  44.637  1.00  0.00     0.278 C 
ENDBRANCH  14  19
ENDBRANCH  11  13
ENDBRANCH   1  11
BRANCH   3  21
ATOM     21  N   UNL     1       7.769  46.063  50.625  1.00  0.00    -0.352 N 
ATOM     22  H   UNL     1       8.292  45.768  49.807  1.00  0.00     0.163 HD
BRANCH  21  23
ATOM     23  C   UNL     1       8.565  46.359  51.804  1.00  0.00     0.144 C 
BRANCH  23  24
ATOM     24  C   UNL     1       8.359  47.815  52.236  1.00  0.00     0.177 C 
BRANCH  24  25
ATOM     25  O   UNL     1       7.066  48.007  52.802  1.00  0.00    -0.395 OA
ATOM     26  H   UNL     1       7.119  47.768  53.743  1.00  0.00     0.210 HD
ENDBRANCH  24  25
ENDBRANCH  23  24
ENDBRANCH  21  23
ENDBRANCH   3  21
TORSDOF 7
ENDMDL
MODEL 16
REMARK VINA RESULT:    -7.211      3.006      6.523
REMARK INTER + INTRA:         -10.477
REMARK INTER:                  -9.834
REMARK INTRA:                  -0.643
REMARK UNBOUND:                -0.526
REMARK SMILES COc1ccc(Nc2nc(NCCO)nc3c2cnn3C)cc1
REMARK SMILES IDX 8 1 9 2 10 3 15 4 16 5 17 6 18 7 19 8 20 9 21 10 7 11 6 13
REMARK SMILES IDX 3 14 4 15 23 16 5 17 22 18 2 19 1 20 11 21 12 23 13 24 14 25
REMARK H PARENT 7 12 11 22 14 26
ROOT
ATOM      1  C   UNL     1       5.436  46.062  51.495  1.00  0.00     0.147 A 
ATOM      2  N   UNL     1       5.473  45.014  50.628  1.00  0.00    -0.195 NA
ATOM      3  C   UNL     1       6.643  44.509  50.201  1.00  0.00     0.226 A 
ATOM      4  N   UNL     1       7.857  44.935  50.568  1.00  0.00    -0.193 NA
ATOM      5  C   UNL     1       7.808  45.967  51.422  1.00  0.00     0.165 A 
ATOM      6  C   UNL     1       6.671  46.568  51.921  1.00  0.00     0.082 A 
ATOM      7  C   UNL     1       7.159  47.584  52.770  1.00  0.00     0.149 A 
ATOM      8  N   UNL     1       8.495  47.631  52.815  1.00  0.00    -0.179 NA
ATOM      9  N   UNL     1       8.866  46.637  51.973  1.00  0.00    -0.250 N 
ATOM     10  C   UNL     1      10.267  46.384  51.746  1.00  0.00     0.176 C 
ENDROOT
BRANCH   1  11
ATOM     11  N   UNL     1       4.226  46.592  51.968  1.00  0.00    -0.339 N 
ATOM     12  H   UNL     1       3.958  47.457  51.521  1.00  0.00     0.168 HD
BRANCH  11  13
ATOM     13  C   UNL     1       3.276  46.106  52.883  1.00  0.00     0.040 A 
ATOM     14  C   UNL     1       1.239  45.188  54.632  1.00  0.00     0.119 A 
ATOM     15  C   UNL     1       2.522  45.455  55.105  1.00  0.00     0.048 A 
ATOM     16  C   UNL     1       0.967  45.385  53.282  1.00  0.00     0.048 A 
ATOM     17  C   UNL     1       3.527  45.913  54.242  1.00  0.00     0.030 A 
ATOM     18  C   UNL     1       1.976  45.843  52.421  1.00  0.00     0.030 A 
BRANCH  14  19
ATOM     19  O   UNL     1       0.357  44.749  55.578  1.00  0.00    -0.497 OA
ATOM     20  C   UNL     1       0.472  45.314  56.878  1.00  0.00     0.278 C 
ENDBRANCH  14  19
ENDBRANCH  11  13
ENDBRANCH   1  11
BRANCH   3  21
ATOM     21  N   UNL     1       6.516  43.446  49.312  1.00  0.00    -0.352 N 
ATOM     22  H   UNL     1       5.803  43.744  48.654  1.00  0.00     0.163 HD
BRANCH  21  23
ATOM     23  C   UNL     1       6.284  42.162  49.950  1.00  0.00     0.144 C 
BRANCH  23  24
ATOM     24  C   UNL     1       5.416  41.270  49.055  1.00  0.00     0.177 C 
BRANCH  24  25
ATOM     25  O   UNL     1       5.878  41.287  47.707  1.00  0.00    -0.395 OA
ATOM     26  H   UNL     1       5.602  42.132  47.312  1.00  0.00     0.210 HD
ENDBRANCH  24  25
ENDBRANCH  23  24
ENDBRANCH  21  23
ENDBRANCH   3  21
TORSDOF 7
ENDMDL
MODEL 17
REMARK VINA RESULT:    -7.199      2.402      6.929
REMARK INTER + INTRA:         -10.461
REMARK INTER:                 -10.438
REMARK INTRA:                  -0.023
REMARK UNBOUND:                -0.526
REMARK SMILES COc1ccc(Nc2nc(NCCO)nc3c2cnn3C)cc1
REMARK SMILES IDX 8 1 9 2 10 3 15 4 16 5 17 6 18 7 19 8 20 9 21 10 7 11 6 13
REMARK SMILES IDX 3 14 4 15 23 16 5 17 22 18 2 19 1 20 11 21 12 23 13 24 14 25
REMARK H PARENT 7 12 11 22 14 26
ROOT
ATOM      1  C   UNL     1       6.998  45.672  51.239  1.00  0.00     0.147 A 
ATOM      2  N   UNL     1       8.186  46.106  51.740  1.00  0.00    -0.195 NA
ATOM      3  C   UNL     1       8.230  47.015  52.729  1.00  0.00     0.226 A 
ATOM      4  N   UNL     1       7.169  47.568  53.328  1.00  0.00    -0.193 NA
ATOM      5  C   UNL     1       6.005  47.133  52.827  1.00  0.00     0.165 A 
ATOM      6  C   UNL     1       5.840  46.210  51.814  1.00  0.00     0.082 A 
ATOM      7  C   UNL     1       4.440  46.098  51.672  1.00  0.00     0.149 A 
ATOM      8  N   UNL     1       3.764  46.879  52.521  1.00  0.00    -0.179 NA
ATOM      9  N   UNL     1       4.746  47.507  53.209  1.00  0.00    -0.250 N 
ATOM     10  C   UNL     1       4.398  48.464  54.230  1.00  0.00     0.176 C 
ENDROOT
BRANCH   1  11
ATOM     11  N   UNL     1       6.929  44.708  50.221  1.00  0.00    -0.339 N 
ATOM     12  H   UNL     1       7.616  44.837  49.491  1.00  0.00     0.168 HD
BRANCH  11  13
ATOM     13  C   UNL     1       6.145  43.552  50.066  1.00  0.00     0.040 A 
ATOM     14  C   UNL     1       4.590  41.227  49.591  1.00  0.00     0.119 A 
ATOM     15  C   UNL     1       4.344  42.039  50.696  1.00  0.00     0.048 A 
ATOM     16  C   UNL     1       5.613  41.577  48.715  1.00  0.00     0.048 A 
ATOM     17  C   UNL     1       5.108  43.191  50.928  1.00  0.00     0.030 A 
ATOM     18  C   UNL     1       6.376  42.730  48.952  1.00  0.00     0.030 A 
BRANCH  14  19
ATOM     19  O   UNL     1       3.772  40.139  49.483  1.00  0.00    -0.497 OA
ATOM     20  C   UNL     1       3.403  39.739  48.169  1.00  0.00     0.278 C 
ENDBRANCH  14  19
ENDBRANCH  11  13
ENDBRANCH   1  11
BRANCH   3  21
ATOM     21  N   UNL     1       9.517  47.365  53.128  1.00  0.00    -0.352 N 
ATOM     22  H   UNL     1      10.103  47.146  52.328  1.00  0.00     0.163 HD
BRANCH  21  23
ATOM     23  C   UNL     1       9.930  46.773  54.388  1.00  0.00     0.144 C 
BRANCH  23  24
ATOM     24  C   UNL     1      10.190  47.865  55.431  1.00  0.00     0.177 C 
BRANCH  24  25
ATOM     25  O   UNL     1       9.024  48.650  55.658  1.00  0.00    -0.395 OA
ATOM     26  H   UNL     1       8.294  48.040  55.865  1.00  0.00     0.210 HD
ENDBRANCH  24  25
ENDBRANCH  23  24
ENDBRANCH  21  23
ENDBRANCH   3  21
TORSDOF 7
ENDMDL
MODEL 18
REMARK VINA RESULT:    -7.182      2.990      7.317
REMARK INTER + INTRA:         -10.438
REMARK INTER:                  -9.875
REMARK INTRA:                  -0.563
REMARK UNBOUND:                -0.526
REMARK SMILES COc1ccc(Nc2nc(NCCO)nc3c2cnn3C)cc1
REMARK SMILES IDX 8 1 9 2 10 3 15 4 16 5 17 6 18 7 19 8 20 9 21 10 7 11 6 13
REMARK SMILES IDX 3 14 4 15 23 16 5 17 22 18 2 19 1 20 11 21 12 23 13 24 14 25
REMARK H PARENT 7 12 11 22 14 26
ROOT
ATOM      1  C   UNL     1       4.991  44.677  53.082  1.00  0.00     0.147 A 
ATOM      2  N   UNL     1       5.155  44.262  51.797  1.00  0.00    -0.195 NA
ATOM      3  C   UNL     1       6.147  44.752  51.033  1.00  0.00     0.226 A 
ATOM      4  N   UNL     1       7.061  45.649  51.421  1.00  0.00    -0.193 NA
ATOM      5  C   UNL     1       6.888  46.050  52.688  1.00  0.00     0.165 A 
ATOM      6  C   UNL     1       5.908  45.622  53.559  1.00  0.00     0.082 A 
ATOM      7  C   UNL     1       6.167  46.333  54.750  1.00  0.00     0.149 A 
ATOM      8  N   UNL     1       7.224  47.147  54.653  1.00  0.00    -0.179 NA
ATOM      9  N   UNL     1       7.640  46.960  53.379  1.00  0.00    -0.250 N 
ATOM     10  C   UNL     1       8.779  47.696  52.888  1.00  0.00     0.176 C 
ENDROOT
BRANCH   1  11
ATOM     11  N   UNL     1       3.974  44.164  53.903  1.00  0.00    -0.339 N 
ATOM     12  H   UNL     1       4.303  43.837  54.801  1.00  0.00     0.168 HD
BRANCH  11  13
ATOM     13  C   UNL     1       2.579  44.098  53.748  1.00  0.00     0.040 A 
ATOM     14  C   UNL     1      -0.213  43.881  53.294  1.00  0.00     0.119 A 
ATOM     15  C   UNL     1       0.310  44.933  54.043  1.00  0.00     0.048 A 
ATOM     16  C   UNL     1       0.659  42.935  52.763  1.00  0.00     0.048 A 
ATOM     17  C   UNL     1       1.690  45.043  54.263  1.00  0.00     0.030 A 
ATOM     18  C   UNL     1       2.039  43.049  52.987  1.00  0.00     0.030 A 
BRANCH  14  19
ATOM     19  O   UNL     1      -1.572  43.894  53.155  1.00  0.00    -0.497 OA
ATOM     20  C   UNL     1      -2.317  44.559  54.167  1.00  0.00     0.278 C 
ENDBRANCH  14  19
ENDBRANCH  11  13
ENDBRANCH   1  11
BRANCH   3  21
ATOM     21  N   UNL     1       6.181  44.236  49.740  1.00  0.00    -0.352 N 
ATOM     22  H   UNL     1       5.215  44.004  49.530  1.00  0.00     0.163 HD
BRANCH  21  23
ATOM     23  C   UNL     1       7.139  43.161  49.554  1.00  0.00     0.144 C 
BRANCH  23  24
ATOM     24  C   UNL     1       6.445  41.800  49.676  1.00  0.00     0.177 C 
BRANCH  24  25
ATOM     25  O   UNL     1       7.361  40.789  50.087  1.00  0.00    -0.395 OA
ATOM     26  H   UNL     1       7.687  41.030  50.972  1.00  0.00     0.210 HD
ENDBRANCH  24  25
ENDBRANCH  23  24
ENDBRANCH  21  23
ENDBRANCH   3  21
TORSDOF 7
ENDMDL
MODEL 19
REMARK VINA RESULT:    -7.148      3.718      5.384
REMARK INTER + INTRA:         -10.390
REMARK INTER:                  -9.454
REMARK INTRA:                  -0.937
REMARK UNBOUND:                -0.526
REMARK SMILES COc1ccc(Nc2nc(NCCO)nc3c2cnn3C)cc1
REMARK SMILES IDX 8 1 9 2 10 3 15 4 16 5 17 6 18 7 19 8 20 9 21 10 7 11 6 13
REMARK SMILES IDX 3 14 4 15 23 16 5 17 22 18 2 19 1 20 11 21 12 23 13 24 14 25
REMARK H PARENT 7 12 11 22 14 26
ROOT
ATOM      1  C   UNL     1       1.981  44.822  55.441  1.00  0.00     0.147 A 
ATOM      2  N   UNL     1       1.123  45.282  56.390  1.00  0.00    -0.195 NA
ATOM      3  C   UNL     1      -0.207  45.153  56.242  1.00  0.00     0.226 A 
ATOM      4  N   UNL     1      -0.824  44.571  55.207  1.00  0.00    -0.193 NA
ATOM      5  C   UNL     1       0.032  44.121  54.279  1.00  0.00     0.165 A 
ATOM      6  C   UNL     1       1.409  44.203  54.323  1.00  0.00     0.082 A 
ATOM      7  C   UNL     1       1.831  43.586  53.126  1.00  0.00     0.149 A 
ATOM      8  N   UNL     1       0.814  43.144  52.379  1.00  0.00    -0.179 NA
ATOM      9  N   UNL     1      -0.275  43.493  53.104  1.00  0.00    -0.250 N 
ATOM     10  C   UNL     1      -1.591  43.186  52.602  1.00  0.00     0.176 C 
ENDROOT
BRANCH   1  11
ATOM     11  N   UNL     1       3.374  44.929  55.585  1.00  0.00    -0.339 N 
ATOM     12  H   UNL     1       3.742  44.419  56.376  1.00  0.00     0.168 HD
BRANCH  11  13
ATOM     13  C   UNL     1       4.360  45.539  54.791  1.00  0.00     0.040 A 
ATOM     14  C   UNL     1       6.231  46.858  53.115  1.00  0.00     0.119 A 
ATOM     15  C   UNL     1       6.501  45.593  53.631  1.00  0.00     0.048 A 
ATOM     16  C   UNL     1       5.021  47.469  53.431  1.00  0.00     0.048 A 
ATOM     17  C   UNL     1       5.574  44.939  54.455  1.00  0.00     0.030 A 
ATOM     18  C   UNL     1       4.097  46.811  54.257  1.00  0.00     0.030 A 
BRANCH  14  19
ATOM     19  O   UNL     1       7.217  47.380  52.327  1.00  0.00    -0.497 OA
ATOM     20  C   UNL     1       7.967  46.463  51.540  1.00  0.00     0.278 C 
ENDBRANCH  14  19
ENDBRANCH  11  13
ENDBRANCH   1  11
BRANCH   3  21
ATOM     21  N   UNL     1      -0.953  45.680  57.292  1.00  0.00    -0.352 N 
ATOM     22  H   UNL     1      -1.886  45.301  57.160  1.00  0.00     0.163 HD
BRANCH  21  23
ATOM     23  C   UNL     1      -0.876  47.125  57.411  1.00  0.00     0.144 C 
BRANCH  23  24
ATOM     24  C   UNL     1      -0.243  47.518  58.750  1.00  0.00     0.177 C 
BRANCH  24  25
ATOM     25  O   UNL     1       1.176  47.399  58.704  1.00  0.00    -0.395 OA
ATOM     26  H   UNL     1       1.550  48.133  59.222  1.00  0.00     0.210 HD
ENDBRANCH  24  25
ENDBRANCH  23  24
ENDBRANCH  21  23
ENDBRANCH   3  21
TORSDOF 7
ENDMDL
MODEL 20
REMARK VINA RESULT:    -7.086      3.840      6.502
REMARK INTER + INTRA:         -10.305
REMARK INTER:                  -9.430
REMARK INTRA:                  -0.875
REMARK UNBOUND:                -0.526
REMARK SMILES COc1ccc(Nc2nc(NCCO)nc3c2cnn3C)cc1
REMARK SMILES IDX 8 1 9 2 10 3 15 4 16 5 17 6 18 7 19 8 20 9 21 10 7 11 6 13
REMARK SMILES IDX 3 14 4 15 23 16 5 17 22 18 2 19 1 20 11 21 12 23 13 24 14 25
REMARK H PARENT 7 12 11 22 14 26
ROOT
ATOM      1  C   UNL     1       1.897  44.784  55.474  1.00  0.00     0.147 A 
ATOM      2  N   UNL     1       1.422  44.114  54.389  1.00  0.00    -0.195 NA
ATOM      3  C   UNL     1       0.101  43.985  54.178  1.00  0.00     0.226 A 
ATOM      4  N   UNL     1      -0.866  44.488  54.955  1.00  0.00    -0.193 NA
ATOM      5  C   UNL     1      -0.386  45.146  56.020  1.00  0.00     0.165 A 
ATOM      6  C   UNL     1       0.944  45.335  56.339  1.00  0.00     0.082 A 
ATOM      7  C   UNL     1       0.910  46.086  57.533  1.00  0.00     0.149 A 
ATOM      8  N   UNL     1      -0.332  46.358  57.946  1.00  0.00    -0.179 NA
ATOM      9  N   UNL     1      -1.105  45.763  57.006  1.00  0.00    -0.250 N 
ATOM     10  C   UNL     1      -2.541  45.830  57.121  1.00  0.00     0.176 C 
ENDROOT
BRANCH   1  11
ATOM     11  N   UNL     1       3.273  44.946  55.702  1.00  0.00    -0.339 N 
ATOM     12  H   UNL     1       3.598  44.510  56.554  1.00  0.00     0.168 HD
BRANCH  11  13
ATOM     13  C   UNL     1       4.296  45.524  54.932  1.00  0.00     0.040 A 
ATOM     14  C   UNL     1       6.244  46.771  53.288  1.00  0.00     0.119 A 
ATOM     15  C   UNL     1       6.506  45.553  53.911  1.00  0.00     0.048 A 
ATOM     16  C   UNL     1       5.002  47.369  53.480  1.00  0.00     0.048 A 
ATOM     17  C   UNL     1       5.542  44.935  54.719  1.00  0.00     0.030 A 
ATOM     18  C   UNL     1       4.041  46.747  54.290  1.00  0.00     0.030 A 
BRANCH  14  19
ATOM     19  O   UNL     1       7.268  47.262  52.529  1.00  0.00    -0.497 OA
ATOM     20  C   UNL     1       7.769  46.419  51.500  1.00  0.00     0.278 C 
ENDBRANCH  14  19
ENDBRANCH  11  13
ENDBRANCH   1  11
BRANCH   3  21
ATOM     21  N   UNL     1      -0.229  43.267  53.033  1.00  0.00    -0.352 N 
ATOM     22  H   UNL     1       0.170  42.346  53.183  1.00  0.00     0.163 HD
BRANCH  21  23
ATOM     23  C   UNL     1       0.151  43.920  51.792  1.00  0.00     0.144 C 
BRANCH  23  24
ATOM     24  C   UNL     1       1.089  43.020  50.980  1.00  0.00     0.177 C 
BRANCH  24  25
ATOM     25  O   UNL     1       1.973  42.295  51.831  1.00  0.00    -0.395 OA
ATOM     26  H   UNL     1       2.882  42.497  51.550  1.00  0.00     0.210 HD
ENDBRANCH  24  25
ENDBRANCH  23  24
ENDBRANCH  21  23
ENDBRANCH   3  21
TORSDOF 7
ENDMDL
