MODEL 1
REMARK VINA RESULT:    -9.251      0.000      0.000
REMARK INTER + INTRA:         -13.219
REMARK INTER:                 -12.496
REMARK INTRA:                  -0.723
REMARK UNBOUND:                -0.723
REMARK SMILES Cc1ccccc1Nc1nc(NCc2ccc(Cl)cc2)nc(N(C)C)n1
REMARK SMILES IDX 9 1 10 2 11 3 21 4 22 5 26 6 8 7 7 9 2 10 3 11 4 12 6 13
REMARK SMILES IDX 5 14 1 15 12 16 13 18 14 19 15 20 20 21 16 22 19 23 17 24
REMARK SMILES IDX 18 25 23 26 24 27 25 28
REMARK H PARENT 8 8 12 17
ROOT
ATOM      1  C   UNL     1       3.657  43.716  52.692  1.00  0.00     0.233 A 
ATOM      2  N   UNL     1       4.291  44.851  52.431  1.00  0.00    -0.177 NA
ATOM      3  C   UNL     1       5.145  44.812  51.423  1.00  0.00     0.229 A 
ATOM      4  N   UNL     1       5.392  43.735  50.694  1.00  0.00    -0.177 NA
ATOM      5  C   UNL     1       4.732  42.629  51.021  1.00  0.00     0.231 A 
ATOM      6  N   UNL     1       3.849  42.594  52.012  1.00  0.00    -0.176 NA
ENDROOT
BRANCH   1   7
ATOM      7  N   UNL     1       2.777  43.776  53.774  1.00  0.00    -0.324 N 
ATOM      8  H   UNL     1       3.308  43.957  54.613  1.00  0.00     0.170 HD
BRANCH   7   9
ATOM      9  C   UNL     1       1.379  43.794  53.895  1.00  0.00     0.044 A 
ATOM     10  C   UNL     1       0.774  44.533  54.941  1.00  0.00    -0.027 A 
ATOM     11  C   UNL     1      -0.626  44.531  55.086  1.00  0.00     0.005 A 
ATOM     12  C   UNL     1      -1.431  43.795  54.222  1.00  0.00     0.000 A 
ATOM     13  C   UNL     1       0.543  43.050  53.052  1.00  0.00     0.026 A 
ATOM     14  C   UNL     1      -0.846  43.051  53.206  1.00  0.00     0.002 A 
ATOM     15  C   UNL     1       1.592  45.336  55.918  1.00  0.00     0.046 C 
ENDBRANCH   7   9
ENDBRANCH   1   7
BRANCH   3  16
ATOM     16  N   UNL     1       5.806  46.004  51.150  1.00  0.00    -0.350 N 
ATOM     17  H   UNL     1       5.257  46.492  50.452  1.00  0.00     0.164 HD
BRANCH  16  18
ATOM     18  C   UNL     1       7.206  45.840  50.815  1.00  0.00     0.152 C 
BRANCH  18  19
ATOM     19  C   UNL     1       8.047  46.280  51.992  1.00  0.00    -0.029 A 
ATOM     20  C   UNL     1       9.449  46.259  51.906  1.00  0.00     0.007 A 
ATOM     21  C   UNL     1       7.446  46.695  53.190  1.00  0.00     0.007 A 
ATOM     22  C   UNL     1      10.233  46.655  52.991  1.00  0.00     0.021 A 
ATOM     23  C   UNL     1       8.231  47.092  54.275  1.00  0.00     0.021 A 
ATOM     24  C   UNL     1       9.621  47.071  54.170  1.00  0.00     0.041 A 
ATOM     25  Cl  UNL     1      10.585  47.559  55.509  1.00  0.00    -0.084 Cl
ENDBRANCH  18  19
ENDBRANCH  16  18
ENDBRANCH   3  16
BRANCH   5  26
ATOM     26  N   UNL     1       4.952  41.467  50.270  1.00  0.00    -0.347 N 
ATOM     27  C   UNL     1       6.115  41.531  49.396  1.00  0.00     0.146 C 
ATOM     28  C   UNL     1       3.746  40.880  49.705  1.00  0.00     0.146 C 
ENDBRANCH   5  26
TORSDOF 6
ENDMDL
MODEL 2
REMARK VINA RESULT:    -9.154      2.849      7.442
REMARK INTER + INTRA:         -13.087
REMARK INTER:                 -12.389
REMARK INTRA:                  -0.699
REMARK UNBOUND:                -0.723
REMARK SMILES Cc1ccccc1Nc1nc(NCc2ccc(Cl)cc2)nc(N(C)C)n1
REMARK SMILES IDX 9 1 10 2 11 3 21 4 22 5 26 6 8 7 7 9 2 10 3 11 4 12 6 13
REMARK SMILES IDX 5 14 1 15 12 16 13 18 14 19 15 20 20 21 16 22 19 23 17 24
REMARK SMILES IDX 18 25 23 26 24 27 25 28
REMARK H PARENT 8 8 12 17
ROOT
ATOM      1  C   UNL     1       5.461  44.895  51.762  1.00  0.00     0.233 A 
ATOM      2  N   UNL     1       4.465  44.798  52.634  1.00  0.00    -0.177 NA
ATOM      3  C   UNL     1       3.735  43.699  52.551  1.00  0.00     0.229 A 
ATOM      4  N   UNL     1       3.940  42.731  51.671  1.00  0.00    -0.177 NA
ATOM      5  C   UNL     1       4.945  42.901  50.819  1.00  0.00     0.231 A 
ATOM      6  N   UNL     1       5.729  43.971  50.849  1.00  0.00    -0.176 NA
ENDROOT
BRANCH   1   7
ATOM      7  N   UNL     1       6.203  46.073  51.855  1.00  0.00    -0.324 N 
ATOM      8  H   UNL     1       5.619  46.846  51.573  1.00  0.00     0.170 HD
BRANCH   7   9
ATOM      9  C   UNL     1       7.464  46.393  52.380  1.00  0.00     0.044 A 
ATOM     10  C   UNL     1       7.584  46.764  53.742  1.00  0.00    -0.027 A 
ATOM     11  C   UNL     1       8.842  47.116  54.268  1.00  0.00     0.005 A 
ATOM     12  C   UNL     1       9.975  47.121  53.461  1.00  0.00     0.000 A 
ATOM     13  C   UNL     1       8.621  46.424  51.590  1.00  0.00     0.026 A 
ATOM     14  C   UNL     1       9.865  46.778  52.121  1.00  0.00     0.002 A 
ATOM     15  C   UNL     1       6.391  46.795  54.662  1.00  0.00     0.046 C 
ENDBRANCH   7   9
ENDBRANCH   1   7
BRANCH   3  16
ATOM     16  N   UNL     1       2.695  43.600  53.467  1.00  0.00    -0.350 N 
ATOM     17  H   UNL     1       1.881  43.279  52.955  1.00  0.00     0.164 HD
BRANCH  16  18
ATOM     18  C   UNL     1       2.484  44.798  54.254  1.00  0.00     0.152 C 
BRANCH  18  19
ATOM     19  C   UNL     1       1.171  44.673  54.996  1.00  0.00    -0.029 A 
ATOM     20  C   UNL     1       0.072  44.048  54.386  1.00  0.00     0.007 A 
ATOM     21  C   UNL     1       1.025  45.194  56.290  1.00  0.00     0.007 A 
ATOM     22  C   UNL     1      -1.146  43.936  55.059  1.00  0.00     0.021 A 
ATOM     23  C   UNL     1      -0.194  45.081  56.964  1.00  0.00     0.021 A 
ATOM     24  C   UNL     1      -1.272  44.452  56.346  1.00  0.00     0.041 A 
ATOM     25  Cl  UNL     1      -2.772  44.316  57.179  1.00  0.00    -0.084 Cl
ENDBRANCH  18  19
ENDBRANCH  16  18
ENDBRANCH   3  16
BRANCH   5  26
ATOM     26  N   UNL     1       5.206  41.897  49.878  1.00  0.00    -0.347 N 
ATOM     27  C   UNL     1       4.126  40.933  49.716  1.00  0.00     0.146 C 
ATOM     28  C   UNL     1       6.556  41.357  49.935  1.00  0.00     0.146 C 
ENDBRANCH   5  26
TORSDOF 6
ENDMDL
MODEL 3
REMARK VINA RESULT:    -9.020      3.265      7.788
REMARK INTER + INTRA:         -12.906
REMARK INTER:                 -12.010
REMARK INTRA:                  -0.897
REMARK UNBOUND:                -0.723
REMARK SMILES Cc1ccccc1Nc1nc(NCc2ccc(Cl)cc2)nc(N(C)C)n1
REMARK SMILES IDX 9 1 10 2 11 3 21 4 22 5 26 6 8 7 7 9 2 10 3 11 4 12 6 13
REMARK SMILES IDX 5 14 1 15 12 16 13 18 14 19 15 20 20 21 16 22 19 23 17 24
REMARK SMILES IDX 18 25 23 26 24 27 25 28
REMARK H PARENT 8 8 12 17
ROOT
ATOM      1  C   UNL     1       4.877  44.890  51.690  1.00  0.00     0.233 A 
ATOM      2  N   UNL     1       5.117  43.719  51.115  1.00  0.00    -0.177 NA
ATOM      3  C   UNL     1       4.311  42.731  51.467  1.00  0.00     0.229 A 
ATOM      4  N   UNL     1       3.320  42.851  52.336  1.00  0.00    -0.177 NA
ATOM      5  C   UNL     1       3.146  44.048  52.884  1.00  0.00     0.231 A 
ATOM      6  N   UNL     1       3.907  45.090  52.571  1.00  0.00    -0.176 NA
ENDROOT
BRANCH   1   7
ATOM      7  N   UNL     1       5.754  45.911  51.319  1.00  0.00    -0.324 N 
ATOM      8  H   UNL     1       5.287  46.515  50.660  1.00  0.00     0.170 HD
BRANCH   7   9
ATOM      9  C   UNL     1       7.015  46.326  51.773  1.00  0.00     0.044 A 
ATOM     10  C   UNL     1       8.185  45.849  51.133  1.00  0.00    -0.027 A 
ATOM     11  C   UNL     1       9.453  46.238  51.602  1.00  0.00     0.005 A 
ATOM     12  C   UNL     1       9.579  47.077  52.705  1.00  0.00     0.000 A 
ATOM     13  C   UNL     1       7.174  47.156  52.891  1.00  0.00     0.026 A 
ATOM     14  C   UNL     1       8.439  47.534  53.351  1.00  0.00     0.002 A 
ATOM     15  C   UNL     1       8.115  44.924  49.945  1.00  0.00     0.046 C 
ENDBRANCH   7   9
ENDBRANCH   1   7
BRANCH   3  16
ATOM     16  N   UNL     1       4.563  41.506  50.860  1.00  0.00    -0.350 N 
ATOM     17  H   UNL     1       4.642  40.821  51.603  1.00  0.00     0.164 HD
BRANCH  16  18
ATOM     18  C   UNL     1       5.674  41.525  49.931  1.00  0.00     0.152 C 
BRANCH  18  19
ATOM     19  C   UNL     1       5.150  41.273  48.535  1.00  0.00    -0.029 A 
ATOM     20  C   UNL     1       5.816  41.810  47.421  1.00  0.00     0.007 A 
ATOM     21  C   UNL     1       3.983  40.519  48.331  1.00  0.00     0.007 A 
ATOM     22  C   UNL     1       5.334  41.591  46.130  1.00  0.00     0.021 A 
ATOM     23  C   UNL     1       3.502  40.299  47.037  1.00  0.00     0.021 A 
ATOM     24  C   UNL     1       4.179  40.834  45.944  1.00  0.00     0.041 A 
ATOM     25  Cl  UNL     1       3.582  40.562  44.353  1.00  0.00    -0.084 Cl
ENDBRANCH  18  19
ENDBRANCH  16  18
ENDBRANCH   3  16
BRANCH   5  26
ATOM     26  N   UNL     1       2.102  44.224  53.801  1.00  0.00    -0.347 N 
ATOM     27  C   UNL     1       1.041  43.232  53.697  1.00  0.00     0.146 C 
ATOM     28  C   UNL     1       1.684  45.607  53.976  1.00  0.00     0.146 C 
ENDBRANCH   5  26
TORSDOF 6
ENDMDL
MODEL 4
REMARK VINA RESULT:    -8.998      3.041      7.218
REMARK INTER + INTRA:         -12.877
REMARK INTER:                 -11.954
REMARK INTRA:                  -0.922
REMARK UNBOUND:                -0.723
REMARK SMILES Cc1ccccc1Nc1nc(NCc2ccc(Cl)cc2)nc(N(C)C)n1
REMARK SMILES IDX 9 1 10 2 11 3 21 4 22 5 26 6 8 7 7 9 2 10 3 11 4 12 6 13
REMARK SMILES IDX 5 14 1 15 12 16 13 18 14 19 15 20 20 21 16 22 19 23 17 24
REMARK SMILES IDX 18 25 23 26 24 27 25 28
REMARK H PARENT 8 8 12 17
ROOT
ATOM      1  C   UNL     1       6.444  45.903  51.906  1.00  0.00     0.233 A 
ATOM      2  N   UNL     1       5.422  46.069  52.735  1.00  0.00    -0.177 NA
ATOM      3  C   UNL     1       5.680  46.757  53.834  1.00  0.00     0.229 A 
ATOM      4  N   UNL     1       6.865  47.262  54.137  1.00  0.00    -0.177 NA
ATOM      5  C   UNL     1       7.848  47.044  53.270  1.00  0.00     0.231 A 
ATOM      6  N   UNL     1       7.662  46.374  52.139  1.00  0.00    -0.176 NA
ENDROOT
BRANCH   1   7
ATOM      7  N   UNL     1       6.153  45.155  50.765  1.00  0.00    -0.324 N 
ATOM      8  H   UNL     1       6.403  45.696  49.951  1.00  0.00     0.170 HD
BRANCH   7   9
ATOM      9  C   UNL     1       5.758  43.827  50.543  1.00  0.00     0.044 A 
ATOM     10  C   UNL     1       6.541  42.990  49.712  1.00  0.00    -0.027 A 
ATOM     11  C   UNL     1       6.134  41.666  49.462  1.00  0.00     0.005 A 
ATOM     12  C   UNL     1       4.956  41.167  50.008  1.00  0.00     0.000 A 
ATOM     13  C   UNL     1       4.568  43.300  51.065  1.00  0.00     0.026 A 
ATOM     14  C   UNL     1       4.171  41.985  50.808  1.00  0.00     0.002 A 
ATOM     15  C   UNL     1       7.818  43.477  49.078  1.00  0.00     0.046 C 
ENDBRANCH   7   9
ENDBRANCH   1   7
BRANCH   3  16
ATOM     16  N   UNL     1       4.605  46.932  54.698  1.00  0.00    -0.350 N 
ATOM     17  H   UNL     1       4.795  47.769  55.238  1.00  0.00     0.164 HD
BRANCH  16  18
ATOM     18  C   UNL     1       4.286  45.761  55.488  1.00  0.00     0.152 C 
BRANCH  18  19
ATOM     19  C   UNL     1       2.874  45.323  55.167  1.00  0.00    -0.029 A 
ATOM     20  C   UNL     1       1.821  45.637  56.041  1.00  0.00     0.007 A 
ATOM     21  C   UNL     1       2.598  44.582  54.008  1.00  0.00     0.007 A 
ATOM     22  C   UNL     1       0.516  45.229  55.757  1.00  0.00     0.021 A 
ATOM     23  C   UNL     1       1.292  44.174  53.724  1.00  0.00     0.021 A 
ATOM     24  C   UNL     1       0.257  44.501  54.599  1.00  0.00     0.041 A 
ATOM     25  Cl  UNL     1      -1.350  43.996  54.247  1.00  0.00    -0.084 Cl
ENDBRANCH  18  19
ENDBRANCH  16  18
ENDBRANCH   3  16
BRANCH   5  26
ATOM     26  N   UNL     1       9.116  47.570  53.544  1.00  0.00    -0.347 N 
ATOM     27  C   UNL     1      10.213  46.846  52.917  1.00  0.00     0.146 C 
ATOM     28  C   UNL     1       9.312  47.973  54.929  1.00  0.00     0.146 C 
ENDBRANCH   5  26
TORSDOF 6
ENDMDL
MODEL 5
REMARK VINA RESULT:    -8.977      3.286      7.588
REMARK INTER + INTRA:         -12.848
REMARK INTER:                 -12.050
REMARK INTRA:                  -0.798
REMARK UNBOUND:                -0.723
REMARK SMILES Cc1ccccc1Nc1nc(NCc2ccc(Cl)cc2)nc(N(C)C)n1
REMARK SMILES IDX 9 1 10 2 11 3 21 4 22 5 26 6 8 7 7 9 2 10 3 11 4 12 6 13
REMARK SMILES IDX 5 14 1 15 12 16 13 18 14 19 15 20 20 21 16 22 19 23 17 24
REMARK SMILES IDX 18 25 23 26 24 27 25 28
REMARK H PARENT 8 8 12 17
ROOT
ATOM      1  C   UNL     1       5.079  44.913  51.806  1.00  0.00     0.233 A 
ATOM      2  N   UNL     1       5.474  43.796  51.210  1.00  0.00    -0.177 NA
ATOM      3  C   UNL     1       4.661  42.761  51.336  1.00  0.00     0.229 A 
ATOM      4  N   UNL     1       3.520  42.785  52.006  1.00  0.00    -0.177 NA
ATOM      5  C   UNL     1       3.194  43.932  52.591  1.00  0.00     0.231 A 
ATOM      6  N   UNL     1       3.953  45.018  52.498  1.00  0.00    -0.176 NA
ENDROOT
BRANCH   1   7
ATOM      7  N   UNL     1       5.964  45.985  51.678  1.00  0.00    -0.324 N 
ATOM      8  H   UNL     1       5.475  46.761  51.259  1.00  0.00     0.170 HD
BRANCH   7   9
ATOM      9  C   UNL     1       7.268  46.233  52.134  1.00  0.00     0.044 A 
ATOM     10  C   UNL     1       7.478  46.645  53.473  1.00  0.00    -0.027 A 
ATOM     11  C   UNL     1       8.780  46.924  53.927  1.00  0.00     0.005 A 
ATOM     12  C   UNL     1       9.872  46.819  53.072  1.00  0.00     0.000 A 
ATOM     13  C   UNL     1       8.386  46.152  51.292  1.00  0.00     0.026 A 
ATOM     14  C   UNL     1       9.675  46.436  51.752  1.00  0.00     0.002 A 
ATOM     15  C   UNL     1       6.335  46.793  54.442  1.00  0.00     0.046 C 
ENDBRANCH   7   9
ENDBRANCH   1   7
BRANCH   3  16
ATOM     16  N   UNL     1       5.076  41.592  50.707  1.00  0.00    -0.350 N 
ATOM     17  H   UNL     1       5.393  40.963  51.436  1.00  0.00     0.164 HD
BRANCH  16  18
ATOM     18  C   UNL     1       6.025  41.804  49.634  1.00  0.00     0.152 C 
BRANCH  18  19
ATOM     19  C   UNL     1       5.363  41.459  48.318  1.00  0.00    -0.029 A 
ATOM     20  C   UNL     1       5.870  41.976  47.115  1.00  0.00     0.007 A 
ATOM     21  C   UNL     1       4.225  40.640  48.280  1.00  0.00     0.007 A 
ATOM     22  C   UNL     1       5.260  41.671  45.897  1.00  0.00     0.021 A 
ATOM     23  C   UNL     1       3.614  40.334  47.061  1.00  0.00     0.021 A 
ATOM     24  C   UNL     1       4.135  40.850  45.876  1.00  0.00     0.041 A 
ATOM     25  Cl  UNL     1       3.380  40.472  44.376  1.00  0.00    -0.084 Cl
ENDBRANCH  18  19
ENDBRANCH  16  18
ENDBRANCH   3  16
BRANCH   5  26
ATOM     26  N   UNL     1       1.990  44.007  53.302  1.00  0.00    -0.347 N 
ATOM     27  C   UNL     1       2.067  44.787  54.529  1.00  0.00     0.146 C 
ATOM     28  C   UNL     1       1.258  42.752  53.375  1.00  0.00     0.146 C 
ENDBRANCH   5  26
TORSDOF 6
ENDMDL
MODEL 6
REMARK VINA RESULT:    -8.963      1.636      5.404
REMARK INTER + INTRA:         -12.829
REMARK INTER:                 -12.126
REMARK INTRA:                  -0.703
REMARK UNBOUND:                -0.723
REMARK SMILES Cc1ccccc1Nc1nc(NCc2ccc(Cl)cc2)nc(N(C)C)n1
REMARK SMILES IDX 9 1 10 2 11 3 21 4 22 5 26 6 8 7 7 9 2 10 3 11 4 12 6 13
REMARK SMILES IDX 5 14 1 15 12 16 13 18 14 19 15 20 20 21 16 22 19 23 17 24
REMARK SMILES IDX 18 25 23 26 24 27 25 28
REMARK H PARENT 8 8 12 17
ROOT
ATOM      1  C   UNL     1       3.031  43.909  52.844  1.00  0.00     0.233 A 
ATOM      2  N   UNL     1       4.043  44.616  53.329  1.00  0.00    -0.177 NA
ATOM      3  C   UNL     1       3.798  45.276  54.448  1.00  0.00     0.229 A 
ATOM      4  N   UNL     1       2.634  45.268  55.079  1.00  0.00    -0.177 NA
ATOM      5  C   UNL     1       1.660  44.551  54.529  1.00  0.00     0.231 A 
ATOM      6  N   UNL     1       1.835  43.853  53.414  1.00  0.00    -0.176 NA
ENDROOT
BRANCH   1   7
ATOM      7  N   UNL     1       3.307  43.241  51.650  1.00  0.00    -0.324 N 
ATOM      8  H   UNL     1       2.438  42.932  51.243  1.00  0.00     0.170 HD
BRANCH   7   9
ATOM      9  C   UNL     1       4.464  43.066  50.876  1.00  0.00     0.044 A 
ATOM     10  C   UNL     1       4.639  41.872  50.133  1.00  0.00    -0.027 A 
ATOM     11  C   UNL     1       5.811  41.678  49.379  1.00  0.00     0.005 A 
ATOM     12  C   UNL     1       6.817  42.639  49.363  1.00  0.00     0.000 A 
ATOM     13  C   UNL     1       5.502  44.007  50.853  1.00  0.00     0.026 A 
ATOM     14  C   UNL     1       6.664  43.803  50.103  1.00  0.00     0.002 A 
ATOM     15  C   UNL     1       3.594  40.787  50.124  1.00  0.00     0.046 C 
ENDBRANCH   7   9
ENDBRANCH   1   7
BRANCH   3  16
ATOM     16  N   UNL     1       4.861  46.013  54.956  1.00  0.00    -0.350 N 
ATOM     17  H   UNL     1       4.653  46.198  55.930  1.00  0.00     0.164 HD
BRANCH  16  18
ATOM     18  C   UNL     1       5.194  47.186  54.172  1.00  0.00     0.152 C 
BRANCH  18  19
ATOM     19  C   UNL     1       6.558  46.988  53.549  1.00  0.00    -0.029 A 
ATOM     20  C   UNL     1       6.707  47.014  52.152  1.00  0.00     0.007 A 
ATOM     21  C   UNL     1       7.687  46.755  54.349  1.00  0.00     0.007 A 
ATOM     22  C   UNL     1       7.959  46.823  51.567  1.00  0.00     0.021 A 
ATOM     23  C   UNL     1       8.941  46.565  53.762  1.00  0.00     0.021 A 
ATOM     24  C   UNL     1       9.072  46.601  52.376  1.00  0.00     0.041 A 
ATOM     25  Cl  UNL     1      10.618  46.365  51.658  1.00  0.00    -0.084 Cl
ENDBRANCH  18  19
ENDBRANCH  16  18
ENDBRANCH   3  16
BRANCH   5  26
ATOM     26  N   UNL     1       0.415  44.505  55.168  1.00  0.00    -0.347 N 
ATOM     27  C   UNL     1      -0.724  44.541  54.263  1.00  0.00     0.146 C 
ATOM     28  C   UNL     1       0.323  45.333  56.362  1.00  0.00     0.146 C 
ENDBRANCH   5  26
TORSDOF 6
ENDMDL
MODEL 7
REMARK VINA RESULT:    -8.960      1.296      2.118
REMARK INTER + INTRA:         -12.826
REMARK INTER:                 -11.810
REMARK INTRA:                  -1.016
REMARK UNBOUND:                -0.723
REMARK SMILES Cc1ccccc1Nc1nc(NCc2ccc(Cl)cc2)nc(N(C)C)n1
REMARK SMILES IDX 9 1 10 2 11 3 21 4 22 5 26 6 8 7 7 9 2 10 3 11 4 12 6 13
REMARK SMILES IDX 5 14 1 15 12 16 13 18 14 19 15 20 20 21 16 22 19 23 17 24
REMARK SMILES IDX 18 25 23 26 24 27 25 28
REMARK H PARENT 8 8 12 17
ROOT
ATOM      1  C   UNL     1       4.516  44.766  51.430  1.00  0.00     0.233 A 
ATOM      2  N   UNL     1       5.666  45.400  51.237  1.00  0.00    -0.177 NA
ATOM      3  C   UNL     1       6.604  44.708  50.613  1.00  0.00     0.229 A 
ATOM      4  N   UNL     1       6.457  43.461  50.193  1.00  0.00    -0.177 NA
ATOM      5  C   UNL     1       5.285  42.883  50.434  1.00  0.00     0.231 A 
ATOM      6  N   UNL     1       4.291  43.518  51.044  1.00  0.00    -0.176 NA
ENDROOT
BRANCH   1   7
ATOM      7  N   UNL     1       3.550  45.509  52.110  1.00  0.00    -0.324 N 
ATOM      8  H   UNL     1       3.237  46.259  51.512  1.00  0.00     0.170 HD
BRANCH   7   9
ATOM      9  C   UNL     1       2.857  45.335  53.318  1.00  0.00     0.044 A 
ATOM     10  C   UNL     1       3.322  45.975  54.493  1.00  0.00    -0.027 A 
ATOM     11  C   UNL     1       2.650  45.780  55.714  1.00  0.00     0.005 A 
ATOM     12  C   UNL     1       1.536  44.949  55.790  1.00  0.00     0.000 A 
ATOM     13  C   UNL     1       1.744  44.491  53.430  1.00  0.00     0.026 A 
ATOM     14  C   UNL     1       1.084  44.302  54.648  1.00  0.00     0.002 A 
ATOM     15  C   UNL     1       4.532  46.873  54.479  1.00  0.00     0.046 C 
ENDBRANCH   7   9
ENDBRANCH   1   7
BRANCH   3  16
ATOM     16  N   UNL     1       7.806  45.375  50.409  1.00  0.00    -0.350 N 
ATOM     17  H   UNL     1       8.527  44.829  50.866  1.00  0.00     0.164 HD
BRANCH  16  18
ATOM     18  C   UNL     1       7.775  46.774  50.784  1.00  0.00     0.152 C 
BRANCH  18  19
ATOM     19  C   UNL     1       8.539  46.952  52.078  1.00  0.00    -0.029 A 
ATOM     20  C   UNL     1       7.920  47.552  53.186  1.00  0.00     0.007 A 
ATOM     21  C   UNL     1       9.876  46.542  52.185  1.00  0.00     0.007 A 
ATOM     22  C   UNL     1       8.619  47.729  54.381  1.00  0.00     0.021 A 
ATOM     23  C   UNL     1      10.576  46.719  53.381  1.00  0.00     0.021 A 
ATOM     24  C   UNL     1       9.944  47.309  54.474  1.00  0.00     0.041 A 
ATOM     25  Cl  UNL     1      10.809  47.527  55.945  1.00  0.00    -0.084 Cl
ENDBRANCH  18  19
ENDBRANCH  16  18
ENDBRANCH   3  16
BRANCH   5  26
ATOM     26  N   UNL     1       5.081  41.568  49.998  1.00  0.00    -0.347 N 
ATOM     27  C   UNL     1       5.668  41.270  48.699  1.00  0.00     0.146 C 
ATOM     28  C   UNL     1       3.739  41.058  50.236  1.00  0.00     0.146 C 
ENDBRANCH   5  26
TORSDOF 6
ENDMDL
MODEL 8
REMARK VINA RESULT:    -8.932      3.257      7.924
REMARK INTER + INTRA:         -12.788
REMARK INTER:                 -11.854
REMARK INTRA:                  -0.934
REMARK UNBOUND:                -0.723
REMARK SMILES Cc1ccccc1Nc1nc(NCc2ccc(Cl)cc2)nc(N(C)C)n1
REMARK SMILES IDX 9 1 10 2 11 3 21 4 22 5 26 6 8 7 7 9 2 10 3 11 4 12 6 13
REMARK SMILES IDX 5 14 1 15 12 16 13 18 14 19 15 20 20 21 16 22 19 23 17 24
REMARK SMILES IDX 18 25 23 26 24 27 25 28
REMARK H PARENT 8 8 12 17
ROOT
ATOM      1  C   UNL     1       5.170  45.032  51.602  1.00  0.00     0.233 A 
ATOM      2  N   UNL     1       5.247  43.823  51.061  1.00  0.00    -0.177 NA
ATOM      3  C   UNL     1       4.319  42.963  51.444  1.00  0.00     0.229 A 
ATOM      4  N   UNL     1       3.358  43.239  52.312  1.00  0.00    -0.177 NA
ATOM      5  C   UNL     1       3.350  44.464  52.826  1.00  0.00     0.231 A 
ATOM      6  N   UNL     1       4.241  45.386  52.480  1.00  0.00    -0.176 NA
ENDROOT
BRANCH   1   7
ATOM      7  N   UNL     1       6.173  45.915  51.199  1.00  0.00    -0.324 N 
ATOM      8  H   UNL     1       5.842  46.440  50.404  1.00  0.00     0.170 HD
BRANCH   7   9
ATOM      9  C   UNL     1       7.406  46.304  51.744  1.00  0.00     0.044 A 
ATOM     10  C   UNL     1       8.609  45.793  51.197  1.00  0.00    -0.027 A 
ATOM     11  C   UNL     1       9.848  46.156  51.758  1.00  0.00     0.005 A 
ATOM     12  C   UNL     1       9.911  47.001  52.860  1.00  0.00     0.000 A 
ATOM     13  C   UNL     1       7.502  47.140  52.865  1.00  0.00     0.026 A 
ATOM     14  C   UNL     1       8.737  47.492  53.416  1.00  0.00     0.002 A 
ATOM     15  C   UNL     1       8.605  44.860  50.014  1.00  0.00     0.046 C 
ENDBRANCH   7   9
ENDBRANCH   1   7
BRANCH   3  16
ATOM     16  N   UNL     1       4.400  41.699  50.872  1.00  0.00    -0.350 N 
ATOM     17  H   UNL     1       4.318  41.029  51.628  1.00  0.00     0.164 HD
BRANCH  16  18
ATOM     18  C   UNL     1       5.555  41.511  50.017  1.00  0.00     0.152 C 
BRANCH  18  19
ATOM     19  C   UNL     1       5.081  41.283  48.598  1.00  0.00    -0.029 A 
ATOM     20  C   UNL     1       3.944  40.498  48.351  1.00  0.00     0.007 A 
ATOM     21  C   UNL     1       5.779  41.831  47.512  1.00  0.00     0.007 A 
ATOM     22  C   UNL     1       3.505  40.274  47.045  1.00  0.00     0.021 A 
ATOM     23  C   UNL     1       5.339  41.608  46.204  1.00  0.00     0.021 A 
ATOM     24  C   UNL     1       4.204  40.832  45.977  1.00  0.00     0.041 A 
ATOM     25  Cl  UNL     1       3.666  40.558  44.366  1.00  0.00    -0.084 Cl
ENDBRANCH  18  19
ENDBRANCH  16  18
ENDBRANCH   3  16
BRANCH   5  26
ATOM     26  N   UNL     1       2.345  44.804  53.740  1.00  0.00    -0.347 N 
ATOM     27  C   UNL     1       2.828  45.474  54.939  1.00  0.00     0.146 C 
ATOM     28  C   UNL     1       1.337  43.773  53.933  1.00  0.00     0.146 C 
ENDBRANCH   5  26
TORSDOF 6
ENDMDL
MODEL 9
REMARK VINA RESULT:    -8.908      2.028      5.747
REMARK INTER + INTRA:         -12.756
REMARK INTER:                 -11.474
REMARK INTRA:                  -1.282
REMARK UNBOUND:                -0.723
REMARK SMILES Cc1ccccc1Nc1nc(NCc2ccc(Cl)cc2)nc(N(C)C)n1
REMARK SMILES IDX 9 1 10 2 11 3 21 4 22 5 26 6 8 7 7 9 2 10 3 11 4 12 6 13
REMARK SMILES IDX 5 14 1 15 12 16 13 18 14 19 15 20 20 21 16 22 19 23 17 24
REMARK SMILES IDX 18 25 23 26 24 27 25 28
REMARK H PARENT 8 8 12 17
ROOT
ATOM      1  C   UNL     1       3.256  43.397  51.693  1.00  0.00     0.233 A 
ATOM      2  N   UNL     1       3.621  43.755  52.917  1.00  0.00    -0.177 NA
ATOM      3  C   UNL     1       2.657  44.228  53.688  1.00  0.00     0.229 A 
ATOM      4  N   UNL     1       1.395  44.361  53.309  1.00  0.00    -0.177 NA
ATOM      5  C   UNL     1       1.104  43.996  52.065  1.00  0.00     0.231 A 
ATOM      6  N   UNL     1       2.015  43.501  51.237  1.00  0.00    -0.176 NA
ENDROOT
BRANCH   1   7
ATOM      7  N   UNL     1       4.295  42.922  50.892  1.00  0.00    -0.324 N 
ATOM      8  H   UNL     1       4.010  42.048  50.477  1.00  0.00     0.170 HD
BRANCH   7   9
ATOM      9  C   UNL     1       5.512  43.463  50.451  1.00  0.00     0.044 A 
ATOM     10  C   UNL     1       6.400  42.667  49.687  1.00  0.00    -0.027 A 
ATOM     11  C   UNL     1       7.636  43.194  49.267  1.00  0.00     0.005 A 
ATOM     12  C   UNL     1       8.011  44.489  49.608  1.00  0.00     0.000 A 
ATOM     13  C   UNL     1       5.926  44.758  50.792  1.00  0.00     0.026 A 
ATOM     14  C   UNL     1       7.157  45.271  50.374  1.00  0.00     0.002 A 
ATOM     15  C   UNL     1       6.058  41.251  49.300  1.00  0.00     0.046 C 
ENDBRANCH   7   9
ENDBRANCH   1   7
BRANCH   3  16
ATOM     16  N   UNL     1       3.042  44.600  54.971  1.00  0.00    -0.350 N 
ATOM     17  H   UNL     1       2.369  44.193  55.610  1.00  0.00     0.164 HD
BRANCH  16  18
ATOM     18  C   UNL     1       3.250  46.024  55.135  1.00  0.00     0.152 C 
BRANCH  18  19
ATOM     19  C   UNL     1       4.598  46.393  54.554  1.00  0.00    -0.029 A 
ATOM     20  C   UNL     1       4.689  47.362  53.542  1.00  0.00     0.007 A 
ATOM     21  C   UNL     1       5.769  45.761  54.998  1.00  0.00     0.007 A 
ATOM     22  C   UNL     1       5.926  47.702  52.993  1.00  0.00     0.021 A 
ATOM     23  C   UNL     1       7.008  46.102  54.449  1.00  0.00     0.021 A 
ATOM     24  C   UNL     1       7.081  47.071  53.451  1.00  0.00     0.041 A 
ATOM     25  Cl  UNL     1       8.608  47.488  52.775  1.00  0.00    -0.084 Cl
ENDBRANCH  18  19
ENDBRANCH  16  18
ENDBRANCH   3  16
BRANCH   5  26
ATOM     26  N   UNL     1      -0.221  44.109  51.625  1.00  0.00    -0.347 N 
ATOM     27  C   UNL     1      -0.920  45.285  52.121  1.00  0.00     0.146 C 
ATOM     28  C   UNL     1      -0.965  42.858  51.637  1.00  0.00     0.146 C 
ENDBRANCH   5  26
TORSDOF 6
ENDMDL
MODEL 10
REMARK VINA RESULT:    -8.887      2.772      7.522
REMARK INTER + INTRA:         -12.727
REMARK INTER:                 -12.020
REMARK INTRA:                  -0.706
REMARK UNBOUND:                -0.723
REMARK SMILES Cc1ccccc1Nc1nc(NCc2ccc(Cl)cc2)nc(N(C)C)n1
REMARK SMILES IDX 9 1 10 2 11 3 21 4 22 5 26 6 8 7 7 9 2 10 3 11 4 12 6 13
REMARK SMILES IDX 5 14 1 15 12 16 13 18 14 19 15 20 20 21 16 22 19 23 17 24
REMARK SMILES IDX 18 25 23 26 24 27 25 28
REMARK H PARENT 8 8 12 17
ROOT
ATOM      1  C   UNL     1       5.578  44.585  51.368  1.00  0.00     0.233 A 
ATOM      2  N   UNL     1       4.743  44.675  52.396  1.00  0.00    -0.177 NA
ATOM      3  C   UNL     1       3.962  43.627  52.593  1.00  0.00     0.229 A 
ATOM      4  N   UNL     1       3.969  42.538  51.840  1.00  0.00    -0.177 NA
ATOM      5  C   UNL     1       4.820  42.522  50.820  1.00  0.00     0.231 A 
ATOM      6  N   UNL     1       5.644  43.531  50.566  1.00  0.00    -0.176 NA
ENDROOT
BRANCH   1   7
ATOM      7  N   UNL     1       6.376  45.712  51.167  1.00  0.00    -0.324 N 
ATOM      8  H   UNL     1       5.907  46.330  50.523  1.00  0.00     0.170 HD
BRANCH   7   9
ATOM      9  C   UNL     1       7.549  46.196  51.767  1.00  0.00     0.044 A 
ATOM     10  C   UNL     1       8.812  45.778  51.280  1.00  0.00    -0.027 A 
ATOM     11  C   UNL     1       9.991  46.237  51.896  1.00  0.00     0.005 A 
ATOM     12  C   UNL     1       9.936  47.088  52.995  1.00  0.00     0.000 A 
ATOM     13  C   UNL     1       7.526  47.040  52.885  1.00  0.00     0.026 A 
ATOM     14  C   UNL     1       8.703  47.488  53.492  1.00  0.00     0.002 A 
ATOM     15  C   UNL     1       8.936  44.844  50.104  1.00  0.00     0.046 C 
ENDBRANCH   7   9
ENDBRANCH   1   7
BRANCH   3  16
ATOM     16  N   UNL     1       3.090  43.723  53.672  1.00  0.00    -0.350 N 
ATOM     17  H   UNL     1       2.419  42.970  53.575  1.00  0.00     0.164 HD
BRANCH  16  18
ATOM     18  C   UNL     1       2.508  45.038  53.844  1.00  0.00     0.152 C 
BRANCH  18  19
ATOM     19  C   UNL     1       1.280  44.919  54.720  1.00  0.00    -0.029 A 
ATOM     20  C   UNL     1       0.061  44.487  54.173  1.00  0.00     0.007 A 
ATOM     21  C   UNL     1       1.333  45.255  56.082  1.00  0.00     0.007 A 
ATOM     22  C   UNL     1      -1.079  44.383  54.971  1.00  0.00     0.021 A 
ATOM     23  C   UNL     1       0.192  45.151  56.880  1.00  0.00     0.021 A 
ATOM     24  C   UNL     1      -1.008  44.714  56.323  1.00  0.00     0.041 A 
ATOM     25  Cl  UNL     1      -2.412  44.587  57.309  1.00  0.00    -0.084 Cl
ENDBRANCH  18  19
ENDBRANCH  16  18
ENDBRANCH   3  16
BRANCH   5  26
ATOM     26  N   UNL     1       4.870  41.385  50.004  1.00  0.00    -0.347 N 
ATOM     27  C   UNL     1       5.809  41.485  48.896  1.00  0.00     0.146 C 
ATOM     28  C   UNL     1       3.570  40.805  49.702  1.00  0.00     0.146 C 
ENDBRANCH   5  26
TORSDOF 6
ENDMDL
MODEL 11
REMARK VINA RESULT:    -8.861      1.706      5.298
REMARK INTER + INTRA:         -12.692
REMARK INTER:                 -12.071
REMARK INTRA:                  -0.621
REMARK UNBOUND:                -0.723
REMARK SMILES Cc1ccccc1Nc1nc(NCc2ccc(Cl)cc2)nc(N(C)C)n1
REMARK SMILES IDX 9 1 10 2 11 3 21 4 22 5 26 6 8 7 7 9 2 10 3 11 4 12 6 13
REMARK SMILES IDX 5 14 1 15 12 16 13 18 14 19 15 20 20 21 16 22 19 23 17 24
REMARK SMILES IDX 18 25 23 26 24 27 25 28
REMARK H PARENT 8 8 12 17
ROOT
ATOM      1  C   UNL     1       3.267  44.187  53.091  1.00  0.00     0.233 A 
ATOM      2  N   UNL     1       4.408  44.592  53.634  1.00  0.00    -0.177 NA
ATOM      3  C   UNL     1       4.299  45.243  54.779  1.00  0.00     0.229 A 
ATOM      4  N   UNL     1       3.150  45.505  55.383  1.00  0.00    -0.177 NA
ATOM      5  C   UNL     1       2.046  45.083  54.776  1.00  0.00     0.231 A 
ATOM      6  N   UNL     1       2.077  44.412  53.631  1.00  0.00    -0.176 NA
ENDROOT
BRANCH   1   7
ATOM      7  N   UNL     1       3.406  43.522  51.872  1.00  0.00    -0.324 N 
ATOM      8  H   UNL     1       2.501  43.463  51.430  1.00  0.00     0.170 HD
BRANCH   7   9
ATOM      9  C   UNL     1       4.507  43.090  51.117  1.00  0.00     0.044 A 
ATOM     10  C   UNL     1       5.289  44.037  50.410  1.00  0.00    -0.027 A 
ATOM     11  C   UNL     1       6.376  43.607  49.626  1.00  0.00     0.005 A 
ATOM     12  C   UNL     1       6.688  42.256  49.519  1.00  0.00     0.000 A 
ATOM     13  C   UNL     1       4.836  41.735  50.976  1.00  0.00     0.026 A 
ATOM     14  C   UNL     1       5.916  41.319  50.192  1.00  0.00     0.002 A 
ATOM     15  C   UNL     1       4.991  45.512  50.472  1.00  0.00     0.046 C 
ENDBRANCH   7   9
ENDBRANCH   1   7
BRANCH   3  16
ATOM     16  N   UNL     1       5.496  45.664  55.346  1.00  0.00    -0.350 N 
ATOM     17  H   UNL     1       5.393  45.574  56.351  1.00  0.00     0.164 HD
BRANCH  16  18
ATOM     18  C   UNL     1       5.937  46.968  54.896  1.00  0.00     0.152 C 
BRANCH  18  19
ATOM     19  C   UNL     1       7.189  46.801  54.063  1.00  0.00    -0.029 A 
ATOM     20  C   UNL     1       8.427  47.250  54.550  1.00  0.00     0.007 A 
ATOM     21  C   UNL     1       7.131  46.218  52.788  1.00  0.00     0.007 A 
ATOM     22  C   UNL     1       9.585  47.110  53.785  1.00  0.00     0.021 A 
ATOM     23  C   UNL     1       8.291  46.077  52.022  1.00  0.00     0.021 A 
ATOM     24  C   UNL     1       9.513  46.521  52.524  1.00  0.00     0.041 A 
ATOM     25  Cl  UNL     1      10.939  46.347  51.578  1.00  0.00    -0.084 Cl
ENDBRANCH  18  19
ENDBRANCH  16  18
ENDBRANCH   3  16
BRANCH   5  26
ATOM     26  N   UNL     1       0.808  45.327  55.384  1.00  0.00    -0.347 N 
ATOM     27  C   UNL     1       0.869  45.464  56.832  1.00  0.00     0.146 C 
ATOM     28  C   UNL     1      -0.289  44.532  54.853  1.00  0.00     0.146 C 
ENDBRANCH   5  26
TORSDOF 6
ENDMDL
MODEL 12
REMARK VINA RESULT:    -8.840      0.643      1.768
REMARK INTER + INTRA:         -12.663
REMARK INTER:                 -11.940
REMARK INTRA:                  -0.723
REMARK UNBOUND:                -0.723
REMARK SMILES Cc1ccccc1Nc1nc(NCc2ccc(Cl)cc2)nc(N(C)C)n1
REMARK SMILES IDX 9 1 10 2 11 3 21 4 22 5 26 6 8 7 7 9 2 10 3 11 4 12 6 13
REMARK SMILES IDX 5 14 1 15 12 16 13 18 14 19 15 20 20 21 16 22 19 23 17 24
REMARK SMILES IDX 18 25 23 26 24 27 25 28
REMARK H PARENT 8 8 12 17
ROOT
ATOM      1  C   UNL     1       3.310  43.078  52.512  1.00  0.00     0.233 A 
ATOM      2  N   UNL     1       3.808  44.305  52.592  1.00  0.00    -0.177 NA
ATOM      3  C   UNL     1       4.765  44.594  51.727  1.00  0.00     0.229 A 
ATOM      4  N   UNL     1       5.234  43.748  50.824  1.00  0.00    -0.177 NA
ATOM      5  C   UNL     1       4.700  42.531  50.810  1.00  0.00     0.231 A 
ATOM      6  N   UNL     1       3.727  42.172  51.639  1.00  0.00    -0.176 NA
ENDROOT
BRANCH   1   7
ATOM      7  N   UNL     1       2.317  42.791  53.450  1.00  0.00    -0.324 N 
ATOM      8  H   UNL     1       2.491  41.875  53.835  1.00  0.00     0.170 HD
BRANCH   7   9
ATOM      9  C   UNL     1       1.287  43.539  54.040  1.00  0.00     0.044 A 
ATOM     10  C   UNL     1      -0.053  43.336  53.629  1.00  0.00    -0.027 A 
ATOM     11  C   UNL     1      -1.088  44.104  54.195  1.00  0.00     0.005 A 
ATOM     12  C   UNL     1      -0.811  45.079  55.148  1.00  0.00     0.000 A 
ATOM     13  C   UNL     1       1.535  44.539  54.990  1.00  0.00     0.026 A 
ATOM     14  C   UNL     1       0.501  45.299  55.544  1.00  0.00     0.002 A 
ATOM     15  C   UNL     1      -0.414  42.308  52.589  1.00  0.00     0.046 C 
ENDBRANCH   7   9
ENDBRANCH   1   7
BRANCH   3  16
ATOM     16  N   UNL     1       5.282  45.881  51.812  1.00  0.00    -0.350 N 
ATOM     17  H   UNL     1       4.567  46.510  51.465  1.00  0.00     0.164 HD
BRANCH  16  18
ATOM     18  C   UNL     1       6.581  46.037  51.189  1.00  0.00     0.152 C 
BRANCH  18  19
ATOM     19  C   UNL     1       7.593  46.408  52.251  1.00  0.00    -0.029 A 
ATOM     20  C   UNL     1       7.165  46.762  53.541  1.00  0.00     0.007 A 
ATOM     21  C   UNL     1       8.965  46.425  51.962  1.00  0.00     0.007 A 
ATOM     22  C   UNL     1       8.090  47.116  54.525  1.00  0.00     0.021 A 
ATOM     23  C   UNL     1       9.891  46.778  52.947  1.00  0.00     0.021 A 
ATOM     24  C   UNL     1       9.450  47.120  54.223  1.00  0.00     0.041 A 
ATOM     25  Cl  UNL     1      10.593  47.555  55.434  1.00  0.00    -0.084 Cl
ENDBRANCH  18  19
ENDBRANCH  16  18
ENDBRANCH   3  16
BRANCH   5  26
ATOM     26  N   UNL     1       5.158  41.606  49.863  1.00  0.00    -0.347 N 
ATOM     27  C   UNL     1       6.186  42.122  48.971  1.00  0.00     0.146 C 
ATOM     28  C   UNL     1       4.109  40.805  49.251  1.00  0.00     0.146 C 
ENDBRANCH   5  26
TORSDOF 6
ENDMDL
MODEL 13
REMARK VINA RESULT:    -8.827      2.122      5.568
REMARK INTER + INTRA:         -12.646
REMARK INTER:                 -11.799
REMARK INTRA:                  -0.847
REMARK UNBOUND:                -0.723
REMARK SMILES Cc1ccccc1Nc1nc(NCc2ccc(Cl)cc2)nc(N(C)C)n1
REMARK SMILES IDX 9 1 10 2 11 3 21 4 22 5 26 6 8 7 7 9 2 10 3 11 4 12 6 13
REMARK SMILES IDX 5 14 1 15 12 16 13 18 14 19 15 20 20 21 16 22 19 23 17 24
REMARK SMILES IDX 18 25 23 26 24 27 25 28
REMARK H PARENT 8 8 12 17
ROOT
ATOM      1  C   UNL     1       5.650  42.401  49.658  1.00  0.00     0.233 A 
ATOM      2  N   UNL     1       6.650  43.268  49.563  1.00  0.00    -0.177 NA
ATOM      3  C   UNL     1       6.646  44.248  50.451  1.00  0.00     0.229 A 
ATOM      4  N   UNL     1       5.724  44.402  51.388  1.00  0.00    -0.177 NA
ATOM      5  C   UNL     1       4.744  43.506  51.415  1.00  0.00     0.231 A 
ATOM      6  N   UNL     1       4.687  42.488  50.565  1.00  0.00    -0.176 NA
ENDROOT
BRANCH   1   7
ATOM      7  N   UNL     1       5.664  41.389  48.697  1.00  0.00    -0.324 N 
ATOM      8  H   UNL     1       6.085  40.566  49.100  1.00  0.00     0.170 HD
BRANCH   7   9
ATOM      9  C   UNL     1       5.101  41.249  47.419  1.00  0.00     0.044 A 
ATOM     10  C   UNL     1       3.998  40.381  47.229  1.00  0.00    -0.027 A 
ATOM     11  C   UNL     1       3.448  40.213  45.944  1.00  0.00     0.005 A 
ATOM     12  C   UNL     1       3.984  40.879  44.847  1.00  0.00     0.000 A 
ATOM     13  C   UNL     1       5.628  41.893  46.292  1.00  0.00     0.026 A 
ATOM     14  C   UNL     1       5.076  41.717  45.019  1.00  0.00     0.002 A 
ATOM     15  C   UNL     1       3.385  39.619  48.374  1.00  0.00     0.046 C 
ENDBRANCH   7   9
ENDBRANCH   1   7
BRANCH   3  16
ATOM     16  N   UNL     1       7.697  45.152  50.351  1.00  0.00    -0.350 N 
ATOM     17  H   UNL     1       8.503  44.716  50.782  1.00  0.00     0.164 HD
BRANCH  16  18
ATOM     18  C   UNL     1       7.385  46.476  50.849  1.00  0.00     0.152 C 
BRANCH  18  19
ATOM     19  C   UNL     1       8.221  46.747  52.080  1.00  0.00    -0.029 A 
ATOM     20  C   UNL     1       9.612  46.560  52.044  1.00  0.00     0.007 A 
ATOM     21  C   UNL     1       7.622  47.166  53.277  1.00  0.00     0.007 A 
ATOM     22  C   UNL     1      10.391  46.797  53.178  1.00  0.00     0.021 A 
ATOM     23  C   UNL     1       8.402  47.405  54.412  1.00  0.00     0.021 A 
ATOM     24  C   UNL     1       9.782  47.221  54.357  1.00  0.00     0.041 A 
ATOM     25  Cl  UNL     1      10.739  47.514  55.756  1.00  0.00    -0.084 Cl
ENDBRANCH  18  19
ENDBRANCH  16  18
ENDBRANCH   3  16
BRANCH   5  26
ATOM     26  N   UNL     1       3.752  43.623  52.398  1.00  0.00    -0.347 N 
ATOM     27  C   UNL     1       2.790  42.530  52.411  1.00  0.00     0.146 C 
ATOM     28  C   UNL     1       3.211  44.966  52.547  1.00  0.00     0.146 C 
ENDBRANCH   5  26
TORSDOF 6
ENDMDL
MODEL 14
REMARK VINA RESULT:    -8.691      3.094      7.656
REMARK INTER + INTRA:         -12.462
REMARK INTER:                 -11.754
REMARK INTRA:                  -0.708
REMARK UNBOUND:                -0.723
REMARK SMILES Cc1ccccc1Nc1nc(NCc2ccc(Cl)cc2)nc(N(C)C)n1
REMARK SMILES IDX 9 1 10 2 11 3 21 4 22 5 26 6 8 7 7 9 2 10 3 11 4 12 6 13
REMARK SMILES IDX 5 14 1 15 12 16 13 18 14 19 15 20 20 21 16 22 19 23 17 24
REMARK SMILES IDX 18 25 23 26 24 27 25 28
REMARK H PARENT 8 8 12 17
ROOT
ATOM      1  C   UNL     1       5.450  44.921  51.848  1.00  0.00     0.233 A 
ATOM      2  N   UNL     1       4.525  44.858  52.796  1.00  0.00    -0.177 NA
ATOM      3  C   UNL     1       3.751  43.786  52.771  1.00  0.00     0.229 A 
ATOM      4  N   UNL     1       3.849  42.815  51.877  1.00  0.00    -0.177 NA
ATOM      5  C   UNL     1       4.788  42.951  50.947  1.00  0.00     0.231 A 
ATOM      6  N   UNL     1       5.611  43.993  50.915  1.00  0.00    -0.176 NA
ENDROOT
BRANCH   1   7
ATOM      7  N   UNL     1       6.239  46.072  51.881  1.00  0.00    -0.324 N 
ATOM      8  H   UNL     1       5.690  46.851  51.553  1.00  0.00     0.170 HD
BRANCH   7   9
ATOM      9  C   UNL     1       7.510  46.369  52.398  1.00  0.00     0.044 A 
ATOM     10  C   UNL     1       7.643  46.762  53.752  1.00  0.00    -0.027 A 
ATOM     11  C   UNL     1       8.911  47.090  54.268  1.00  0.00     0.005 A 
ATOM     12  C   UNL     1      10.042  47.052  53.459  1.00  0.00     0.000 A 
ATOM     13  C   UNL     1       8.665  46.356  51.604  1.00  0.00     0.026 A 
ATOM     14  C   UNL     1       9.919  46.687  52.126  1.00  0.00     0.002 A 
ATOM     15  C   UNL     1       6.454  46.839  54.674  1.00  0.00     0.046 C 
ENDBRANCH   7   9
ENDBRANCH   1   7
BRANCH   3  16
ATOM     16  N   UNL     1       2.785  43.721  53.768  1.00  0.00    -0.350 N 
ATOM     17  H   UNL     1       2.168  42.952  53.531  1.00  0.00     0.164 HD
BRANCH  16  18
ATOM     18  C   UNL     1       2.115  44.979  54.024  1.00  0.00     0.152 C 
BRANCH  18  19
ATOM     19  C   UNL     1       0.650  44.835  53.673  1.00  0.00    -0.029 A 
ATOM     20  C   UNL     1      -0.244  44.265  54.594  1.00  0.00     0.007 A 
ATOM     21  C   UNL     1       0.167  45.247  52.422  1.00  0.00     0.007 A 
ATOM     22  C   UNL     1      -1.595  44.119  54.275  1.00  0.00     0.021 A 
ATOM     23  C   UNL     1      -1.186  45.102  52.104  1.00  0.00     0.021 A 
ATOM     24  C   UNL     1      -2.060  44.540  53.031  1.00  0.00     0.041 A 
ATOM     25  Cl  UNL     1      -3.725  44.361  52.636  1.00  0.00    -0.084 Cl
ENDBRANCH  18  19
ENDBRANCH  16  18
ENDBRANCH   3  16
BRANCH   5  26
ATOM     26  N   UNL     1       4.936  41.942  49.987  1.00  0.00    -0.347 N 
ATOM     27  C   UNL     1       3.868  40.953  49.988  1.00  0.00     0.146 C 
ATOM     28  C   UNL     1       6.293  41.432  49.857  1.00  0.00     0.146 C 
ENDBRANCH   5  26
TORSDOF 6
ENDMDL
MODEL 15
REMARK VINA RESULT:    -8.674      1.818      5.105
REMARK INTER + INTRA:         -12.440
REMARK INTER:                 -11.311
REMARK INTRA:                  -1.128
REMARK UNBOUND:                -0.723
REMARK SMILES Cc1ccccc1Nc1nc(NCc2ccc(Cl)cc2)nc(N(C)C)n1
REMARK SMILES IDX 9 1 10 2 11 3 21 4 22 5 26 6 8 7 7 9 2 10 3 11 4 12 6 13
REMARK SMILES IDX 5 14 1 15 12 16 13 18 14 19 15 20 20 21 16 22 19 23 17 24
REMARK SMILES IDX 18 25 23 26 24 27 25 28
REMARK H PARENT 8 8 12 17
ROOT
ATOM      1  C   UNL     1       3.594  42.698  52.172  1.00  0.00     0.233 A 
ATOM      2  N   UNL     1       4.326  43.626  52.775  1.00  0.00    -0.177 NA
ATOM      3  C   UNL     1       3.650  44.558  53.424  1.00  0.00     0.229 A 
ATOM      4  N   UNL     1       2.329  44.610  53.493  1.00  0.00    -0.177 NA
ATOM      5  C   UNL     1       1.659  43.658  52.854  1.00  0.00     0.231 A 
ATOM      6  N   UNL     1       2.268  42.682  52.191  1.00  0.00    -0.176 NA
ENDROOT
BRANCH   1   7
ATOM      7  N   UNL     1       4.329  41.738  51.476  1.00  0.00    -0.324 N 
ATOM      8  H   UNL     1       4.747  41.105  52.140  1.00  0.00     0.170 HD
BRANCH   7   9
ATOM      9  C   UNL     1       4.462  41.407  50.119  1.00  0.00     0.044 A 
ATOM     10  C   UNL     1       5.546  41.929  49.370  1.00  0.00    -0.027 A 
ATOM     11  C   UNL     1       5.668  41.625  48.002  1.00  0.00     0.005 A 
ATOM     12  C   UNL     1       4.725  40.827  47.362  1.00  0.00     0.000 A 
ATOM     13  C   UNL     1       3.520  40.620  49.442  1.00  0.00     0.026 A 
ATOM     14  C   UNL     1       3.649  40.326  48.082  1.00  0.00     0.002 A 
ATOM     15  C   UNL     1       6.589  42.813  50.002  1.00  0.00     0.046 C 
ENDBRANCH   7   9
ENDBRANCH   1   7
BRANCH   3  16
ATOM     16  N   UNL     1       4.420  45.527  54.057  1.00  0.00    -0.350 N 
ATOM     17  H   UNL     1       3.934  45.777  54.911  1.00  0.00     0.164 HD
BRANCH  16  18
ATOM     18  C   UNL     1       4.773  46.647  53.210  1.00  0.00     0.152 C 
BRANCH  18  19
ATOM     19  C   UNL     1       6.242  46.552  52.859  1.00  0.00    -0.029 A 
ATOM     20  C   UNL     1       6.637  46.189  51.562  1.00  0.00     0.007 A 
ATOM     21  C   UNL     1       7.228  46.805  53.825  1.00  0.00     0.007 A 
ATOM     22  C   UNL     1       7.989  46.089  51.232  1.00  0.00     0.021 A 
ATOM     23  C   UNL     1       8.582  46.706  53.494  1.00  0.00     0.021 A 
ATOM     24  C   UNL     1       8.956  46.351  52.200  1.00  0.00     0.041 A 
ATOM     25  Cl  UNL     1      10.625  46.229  51.796  1.00  0.00    -0.084 Cl
ENDBRANCH  18  19
ENDBRANCH  16  18
ENDBRANCH   3  16
BRANCH   5  26
ATOM     26  N   UNL     1       0.259  43.667  52.909  1.00  0.00    -0.347 N 
ATOM     27  C   UNL     1      -0.369  42.467  52.375  1.00  0.00     0.146 C 
ATOM     28  C   UNL     1      -0.348  44.937  52.538  1.00  0.00     0.146 C 
ENDBRANCH   5  26
TORSDOF 6
ENDMDL
MODEL 16
REMARK VINA RESULT:    -8.651      3.127      7.771
REMARK INTER + INTRA:         -12.408
REMARK INTER:                 -11.597
REMARK INTRA:                  -0.811
REMARK UNBOUND:                -0.723
REMARK SMILES Cc1ccccc1Nc1nc(NCc2ccc(Cl)cc2)nc(N(C)C)n1
REMARK SMILES IDX 9 1 10 2 11 3 21 4 22 5 26 6 8 7 7 9 2 10 3 11 4 12 6 13
REMARK SMILES IDX 5 14 1 15 12 16 13 18 14 19 15 20 20 21 16 22 19 23 17 24
REMARK SMILES IDX 18 25 23 26 24 27 25 28
REMARK H PARENT 8 8 12 17
ROOT
ATOM      1  C   UNL     1       6.012  45.006  51.700  1.00  0.00     0.233 A 
ATOM      2  N   UNL     1       5.139  45.065  52.698  1.00  0.00    -0.177 NA
ATOM      3  C   UNL     1       4.263  44.076  52.752  1.00  0.00     0.229 A 
ATOM      4  N   UNL     1       4.215  43.073  51.890  1.00  0.00    -0.177 NA
ATOM      5  C   UNL     1       5.110  43.085  50.908  1.00  0.00     0.231 A 
ATOM      6  N   UNL     1       6.028  44.037  50.795  1.00  0.00    -0.176 NA
ENDROOT
BRANCH   1   7
ATOM      7  N   UNL     1       6.912  46.071  51.651  1.00  0.00    -0.324 N 
ATOM      8  H   UNL     1       6.685  46.650  50.856  1.00  0.00     0.170 HD
BRANCH   7   9
ATOM      9  C   UNL     1       7.901  46.554  52.521  1.00  0.00     0.044 A 
ATOM     10  C   UNL     1       9.268  46.329  52.226  1.00  0.00    -0.027 A 
ATOM     11  C   UNL     1      10.263  46.785  53.110  1.00  0.00     0.005 A 
ATOM     12  C   UNL     1       9.924  47.443  54.288  1.00  0.00     0.000 A 
ATOM     13  C   UNL     1       7.590  47.206  53.723  1.00  0.00     0.026 A 
ATOM     14  C   UNL     1       8.587  47.651  54.596  1.00  0.00     0.002 A 
ATOM     15  C   UNL     1       9.698  45.608  50.976  1.00  0.00     0.046 C 
ENDBRANCH   7   9
ENDBRANCH   1   7
BRANCH   3  16
ATOM     16  N   UNL     1       3.352  44.140  53.800  1.00  0.00    -0.350 N 
ATOM     17  H   UNL     1       3.074  43.187  54.006  1.00  0.00     0.164 HD
BRANCH  16  18
ATOM     18  C   UNL     1       2.253  45.056  53.572  1.00  0.00     0.152 C 
BRANCH  18  19
ATOM     19  C   UNL     1       1.081  44.285  53.006  1.00  0.00    -0.029 A 
ATOM     20  C   UNL     1       0.232  44.883  52.061  1.00  0.00     0.007 A 
ATOM     21  C   UNL     1       0.811  42.974  53.430  1.00  0.00     0.007 A 
ATOM     22  C   UNL     1      -0.858  44.183  51.541  1.00  0.00     0.021 A 
ATOM     23  C   UNL     1      -0.279  42.274  52.908  1.00  0.00     0.021 A 
ATOM     24  C   UNL     1      -1.107  42.880  51.965  1.00  0.00     0.041 A 
ATOM     25  Cl  UNL     1      -2.450  42.014  51.326  1.00  0.00    -0.084 Cl
ENDBRANCH  18  19
ENDBRANCH  16  18
ENDBRANCH   3  16
BRANCH   5  26
ATOM     26  N   UNL     1       5.103  42.037  49.979  1.00  0.00    -0.347 N 
ATOM     27  C   UNL     1       3.972  41.130  50.108  1.00  0.00     0.146 C 
ATOM     28  C   UNL     1       6.405  41.426  49.756  1.00  0.00     0.146 C 
ENDBRANCH   5  26
TORSDOF 6
ENDMDL
MODEL 17
REMARK VINA RESULT:    -8.648      3.336      8.108
REMARK INTER + INTRA:         -12.404
REMARK INTER:                 -11.691
REMARK INTRA:                  -0.714
REMARK UNBOUND:                -0.723
REMARK SMILES Cc1ccccc1Nc1nc(NCc2ccc(Cl)cc2)nc(N(C)C)n1
REMARK SMILES IDX 9 1 10 2 11 3 21 4 22 5 26 6 8 7 7 9 2 10 3 11 4 12 6 13
REMARK SMILES IDX 5 14 1 15 12 16 13 18 14 19 15 20 20 21 16 22 19 23 17 24
REMARK SMILES IDX 18 25 23 26 24 27 25 28
REMARK H PARENT 8 8 12 17
ROOT
ATOM      1  C   UNL     1       4.998  46.269  53.373  1.00  0.00     0.233 A 
ATOM      2  N   UNL     1       4.459  46.537  54.556  1.00  0.00    -0.177 NA
ATOM      3  C   UNL     1       3.448  45.764  54.914  1.00  0.00     0.229 A 
ATOM      4  N   UNL     1       2.963  44.779  54.174  1.00  0.00    -0.177 NA
ATOM      5  C   UNL     1       3.541  44.577  52.995  1.00  0.00     0.231 A 
ATOM      6  N   UNL     1       4.568  45.303  52.573  1.00  0.00    -0.176 NA
ENDROOT
BRANCH   1   7
ATOM      7  N   UNL     1       6.048  47.112  53.009  1.00  0.00    -0.324 N 
ATOM      8  H   UNL     1       5.668  48.010  52.750  1.00  0.00     0.170 HD
BRANCH   7   9
ATOM      9  C   UNL     1       7.446  47.016  53.080  1.00  0.00     0.044 A 
ATOM     10  C   UNL     1       8.168  46.455  51.999  1.00  0.00    -0.027 A 
ATOM     11  C   UNL     1       9.568  46.327  52.077  1.00  0.00     0.005 A 
ATOM     12  C   UNL     1      10.258  46.731  53.215  1.00  0.00     0.000 A 
ATOM     13  C   UNL     1       8.168  47.398  54.220  1.00  0.00     0.026 A 
ATOM     14  C   UNL     1       9.557  47.264  54.289  1.00  0.00     0.002 A 
ATOM     15  C   UNL     1       7.477  45.983  50.746  1.00  0.00     0.046 C 
ENDBRANCH   7   9
ENDBRANCH   1   7
BRANCH   3  16
ATOM     16  N   UNL     1       2.888  46.044  56.154  1.00  0.00    -0.350 N 
ATOM     17  H   UNL     1       3.625  45.937  56.841  1.00  0.00     0.164 HD
BRANCH  16  18
ATOM     18  C   UNL     1       1.680  45.297  56.439  1.00  0.00     0.152 C 
BRANCH  18  19
ATOM     19  C   UNL     1       0.767  46.148  57.295  1.00  0.00    -0.029 A 
ATOM     20  C   UNL     1      -0.579  46.323  56.935  1.00  0.00     0.007 A 
ATOM     21  C   UNL     1       1.253  46.790  58.445  1.00  0.00     0.007 A 
ATOM     22  C   UNL     1      -1.425  47.114  57.713  1.00  0.00     0.021 A 
ATOM     23  C   UNL     1       0.405  47.581  59.224  1.00  0.00     0.021 A 
ATOM     24  C   UNL     1      -0.930  47.738  58.856  1.00  0.00     0.041 A 
ATOM     25  Cl  UNL     1      -1.971  48.714  59.817  1.00  0.00    -0.084 Cl
ENDBRANCH  18  19
ENDBRANCH  16  18
ENDBRANCH   3  16
BRANCH   5  26
ATOM     26  N   UNL     1       3.068  43.538  52.183  1.00  0.00    -0.347 N 
ATOM     27  C   UNL     1       1.926  42.822  52.732  1.00  0.00     0.146 C 
ATOM     28  C   UNL     1       4.114  42.726  51.579  1.00  0.00     0.146 C 
ENDBRANCH   5  26
TORSDOF 6
ENDMDL
MODEL 18
REMARK VINA RESULT:    -8.636      1.140      5.035
REMARK INTER + INTRA:         -12.388
REMARK INTER:                 -11.647
REMARK INTRA:                  -0.741
REMARK UNBOUND:                -0.723
REMARK SMILES Cc1ccccc1Nc1nc(NCc2ccc(Cl)cc2)nc(N(C)C)n1
REMARK SMILES IDX 9 1 10 2 11 3 21 4 22 5 26 6 8 7 7 9 2 10 3 11 4 12 6 13
REMARK SMILES IDX 5 14 1 15 12 16 13 18 14 19 15 20 20 21 16 22 19 23 17 24
REMARK SMILES IDX 18 25 23 26 24 27 25 28
REMARK H PARENT 8 8 12 17
ROOT
ATOM      1  C   UNL     1       4.410  42.947  51.544  1.00  0.00     0.233 A 
ATOM      2  N   UNL     1       5.046  44.095  51.348  1.00  0.00    -0.177 NA
ATOM      3  C   UNL     1       4.580  45.132  52.022  1.00  0.00     0.229 A 
ATOM      4  N   UNL     1       3.545  45.082  52.847  1.00  0.00    -0.177 NA
ATOM      5  C   UNL     1       2.946  43.904  52.983  1.00  0.00     0.231 A 
ATOM      6  N   UNL     1       3.365  42.816  52.349  1.00  0.00    -0.176 NA
ENDROOT
BRANCH   1   7
ATOM      7  N   UNL     1       4.907  41.873  50.804  1.00  0.00    -0.324 N 
ATOM      8  H   UNL     1       5.336  41.215  51.437  1.00  0.00     0.170 HD
BRANCH   7   9
ATOM      9  C   UNL     1       4.793  41.476  49.463  1.00  0.00     0.044 A 
ATOM     10  C   UNL     1       5.733  41.939  48.511  1.00  0.00    -0.027 A 
ATOM     11  C   UNL     1       5.606  41.569  47.159  1.00  0.00     0.005 A 
ATOM     12  C   UNL     1       4.555  40.763  46.736  1.00  0.00     0.000 A 
ATOM     13  C   UNL     1       3.735  40.679  49.003  1.00  0.00     0.026 A 
ATOM     14  C   UNL     1       3.616  40.320  47.658  1.00  0.00     0.002 A 
ATOM     15  C   UNL     1       6.884  42.828  48.904  1.00  0.00     0.046 C 
ENDBRANCH   7   9
ENDBRANCH   1   7
BRANCH   3  16
ATOM     16  N   UNL     1       5.250  46.332  51.817  1.00  0.00    -0.350 N 
ATOM     17  H   UNL     1       4.629  46.929  51.284  1.00  0.00     0.164 HD
BRANCH  16  18
ATOM     18  C   UNL     1       6.576  46.178  51.253  1.00  0.00     0.152 C 
BRANCH  18  19
ATOM     19  C   UNL     1       7.601  46.518  52.313  1.00  0.00    -0.029 A 
ATOM     20  C   UNL     1       8.972  46.452  52.016  1.00  0.00     0.007 A 
ATOM     21  C   UNL     1       7.202  46.883  53.608  1.00  0.00     0.007 A 
ATOM     22  C   UNL     1       9.925  46.753  52.990  1.00  0.00     0.021 A 
ATOM     23  C   UNL     1       8.157  47.186  54.582  1.00  0.00     0.021 A 
ATOM     24  C   UNL     1       9.513  47.122  54.268  1.00  0.00     0.041 A 
ATOM     25  Cl  UNL     1      10.686  47.494  55.471  1.00  0.00    -0.084 Cl
ENDBRANCH  18  19
ENDBRANCH  16  18
ENDBRANCH   3  16
BRANCH   5  26
ATOM     26  N   UNL     1       1.854  43.801  53.854  1.00  0.00    -0.347 N 
ATOM     27  C   UNL     1       0.739  43.027  53.328  1.00  0.00     0.146 C 
ATOM     28  C   UNL     1       1.517  45.039  54.542  1.00  0.00     0.146 C 
ENDBRANCH   5  26
TORSDOF 6
ENDMDL
MODEL 19
REMARK VINA RESULT:    -8.585      2.708      6.618
REMARK INTER + INTRA:         -12.319
REMARK INTER:                 -11.150
REMARK INTRA:                  -1.168
REMARK UNBOUND:                -0.723
REMARK SMILES Cc1ccccc1Nc1nc(NCc2ccc(Cl)cc2)nc(N(C)C)n1
REMARK SMILES IDX 9 1 10 2 11 3 21 4 22 5 26 6 8 7 7 9 2 10 3 11 4 12 6 13
REMARK SMILES IDX 5 14 1 15 12 16 13 18 14 19 15 20 20 21 16 22 19 23 17 24
REMARK SMILES IDX 18 25 23 26 24 27 25 28
REMARK H PARENT 8 8 12 17
ROOT
ATOM      1  C   UNL     1       2.420  45.347  54.857  1.00  0.00     0.233 A 
ATOM      2  N   UNL     1       2.663  44.302  54.077  1.00  0.00    -0.177 NA
ATOM      3  C   UNL     1       1.633  43.505  53.849  1.00  0.00     0.229 A 
ATOM      4  N   UNL     1       0.421  43.690  54.348  1.00  0.00    -0.177 NA
ATOM      5  C   UNL     1       0.253  44.749  55.133  1.00  0.00     0.231 A 
ATOM      6  N   UNL     1       1.236  45.601  55.397  1.00  0.00    -0.176 NA
ENDROOT
BRANCH   1   7
ATOM      7  N   UNL     1       3.527  46.161  55.100  1.00  0.00    -0.324 N 
ATOM      8  H   UNL     1       3.435  46.567  56.019  1.00  0.00     0.170 HD
BRANCH   7   9
ATOM      9  C   UNL     1       4.740  46.384  54.431  1.00  0.00     0.044 A 
ATOM     10  C   UNL     1       4.741  47.049  53.180  1.00  0.00    -0.027 A 
ATOM     11  C   UNL     1       5.950  47.249  52.489  1.00  0.00     0.005 A 
ATOM     12  C   UNL     1       7.154  46.785  53.011  1.00  0.00     0.000 A 
ATOM     13  C   UNL     1       5.966  45.914  54.921  1.00  0.00     0.026 A 
ATOM     14  C   UNL     1       7.162  46.115  54.226  1.00  0.00     0.002 A 
ATOM     15  C   UNL     1       3.468  47.560  52.556  1.00  0.00     0.046 C 
ENDBRANCH   7   9
ENDBRANCH   1   7
BRANCH   3  16
ATOM     16  N   UNL     1       1.890  42.412  53.029  1.00  0.00    -0.350 N 
ATOM     17  H   UNL     1       2.736  41.976  53.377  1.00  0.00     0.164 HD
BRANCH  16  18
ATOM     18  C   UNL     1       1.906  42.726  51.615  1.00  0.00     0.152 C 
BRANCH  18  19
ATOM     19  C   UNL     1       3.340  42.740  51.132  1.00  0.00    -0.029 A 
ATOM     20  C   UNL     1       4.091  43.925  51.183  1.00  0.00     0.007 A 
ATOM     21  C   UNL     1       3.932  41.580  50.609  1.00  0.00     0.007 A 
ATOM     22  C   UNL     1       5.411  43.949  50.730  1.00  0.00     0.021 A 
ATOM     23  C   UNL     1       5.254  41.605  50.157  1.00  0.00     0.021 A 
ATOM     24  C   UNL     1       5.988  42.788  50.221  1.00  0.00     0.041 A 
ATOM     25  Cl  UNL     1       7.615  42.814  49.662  1.00  0.00    -0.084 Cl
ENDBRANCH  18  19
ENDBRANCH  16  18
ENDBRANCH   3  16
BRANCH   5  26
ATOM     26  N   UNL     1      -1.016  44.991  55.674  1.00  0.00    -0.347 N 
ATOM     27  C   UNL     1      -1.022  45.920  56.794  1.00  0.00     0.146 C 
ATOM     28  C   UNL     1      -1.846  43.803  55.811  1.00  0.00     0.146 C 
ENDBRANCH   5  26
TORSDOF 6
ENDMDL
MODEL 20
REMARK VINA RESULT:    -8.494      2.345      5.716
REMARK INTER + INTRA:         -12.196
REMARK INTER:                 -10.751
REMARK INTRA:                  -1.444
REMARK UNBOUND:                -0.723
REMARK SMILES Cc1ccccc1Nc1nc(NCc2ccc(Cl)cc2)nc(N(C)C)n1
REMARK SMILES IDX 9 1 10 2 11 3 21 4 22 5 26 6 8 7 7 9 2 10 3 11 4 12 6 13
REMARK SMILES IDX 5 14 1 15 12 16 13 18 14 19 15 20 20 21 16 22 19 23 17 24
REMARK SMILES IDX 18 25 23 26 24 27 25 28
REMARK H PARENT 8 8 12 17
ROOT
ATOM      1  C   UNL     1       1.485  43.895  52.462  1.00  0.00     0.233 A 
ATOM      2  N   UNL     1       2.170  44.157  53.567  1.00  0.00    -0.177 NA
ATOM      3  C   UNL     1       1.451  44.302  54.667  1.00  0.00     0.229 A 
ATOM      4  N   UNL     1       0.131  44.207  54.714  1.00  0.00    -0.177 NA
ATOM      5  C   UNL     1      -0.491  43.958  53.567  1.00  0.00     0.231 A 
ATOM      6  N   UNL     1       0.163  43.788  52.425  1.00  0.00    -0.176 NA
ENDROOT
BRANCH   1   7
ATOM      7  N   UNL     1       2.263  43.769  51.310  1.00  0.00    -0.324 N 
ATOM      8  H   UNL     1       1.651  43.672  50.514  1.00  0.00     0.170 HD
BRANCH   7   9
ATOM      9  C   UNL     1       3.634  43.903  51.040  1.00  0.00     0.044 A 
ATOM     10  C   UNL     1       4.192  45.192  50.861  1.00  0.00    -0.027 A 
ATOM     11  C   UNL     1       5.560  45.331  50.559  1.00  0.00     0.005 A 
ATOM     12  C   UNL     1       6.376  44.214  50.417  1.00  0.00     0.000 A 
ATOM     13  C   UNL     1       4.478  42.796  50.874  1.00  0.00     0.026 A 
ATOM     14  C   UNL     1       5.834  42.945  50.571  1.00  0.00     0.002 A 
ATOM     15  C   UNL     1       3.357  46.440  50.985  1.00  0.00     0.046 C 
ENDBRANCH   7   9
ENDBRANCH   1   7
BRANCH   3  16
ATOM     16  N   UNL     1       2.172  44.574  55.823  1.00  0.00    -0.350 N 
ATOM     17  H   UNL     1       1.598  44.279  56.605  1.00  0.00     0.164 HD
BRANCH  16  18
ATOM     18  C   UNL     1       2.660  45.935  55.909  1.00  0.00     0.152 C 
BRANCH  18  19
ATOM     19  C   UNL     1       4.000  46.020  55.211  1.00  0.00    -0.029 A 
ATOM     20  C   UNL     1       4.925  44.970  55.328  1.00  0.00     0.007 A 
ATOM     21  C   UNL     1       4.347  47.151  54.457  1.00  0.00     0.007 A 
ATOM     22  C   UNL     1       6.168  45.044  54.696  1.00  0.00     0.021 A 
ATOM     23  C   UNL     1       5.590  47.224  53.823  1.00  0.00     0.021 A 
ATOM     24  C   UNL     1       6.494  46.170  53.944  1.00  0.00     0.041 A 
ATOM     25  Cl  UNL     1       8.025  46.264  53.164  1.00  0.00    -0.084 Cl
ENDBRANCH  18  19
ENDBRANCH  16  18
ENDBRANCH   3  16
BRANCH   5  26
ATOM     26  N   UNL     1      -1.887  43.837  53.572  1.00  0.00    -0.347 N 
ATOM     27  C   UNL     1      -2.457  43.437  52.294  1.00  0.00     0.146 C 
ATOM     28  C   UNL     1      -2.578  44.899  54.287  1.00  0.00     0.146 C 
ENDBRANCH   5  26
TORSDOF 6
ENDMDL
