MODEL 1
REMARK VINA RESULT:    -9.906      0.000      0.000
REMARK INTER + INTRA:         -13.989
REMARK INTER:                 -13.381
REMARK INTRA:                  -0.608
REMARK UNBOUND:                -0.608
REMARK SMILES Cc1ccc(CNc2nc(Nc3ccc4c(c3)OCCO4)nc(N(C)C)n2)cc1
REMARK SMILES IDX 7 1 6 3 5 4 2 5 3 6 29 7 4 8 28 9 1 10 8 11 9 12 27 13 10 14
REMARK SMILES IDX 23 15 22 16 11 17 12 19 13 20 17 21 14 22 16 23 15 24 18 25
REMARK SMILES IDX 21 26 19 27 20 28 24 29 25 30 26 31
REMARK H PARENT 7 2 11 18
ROOT
ATOM      1  N   UNL     1       5.997  45.914  50.935  1.00  0.00    -0.350 N 
ATOM      2  H   UNL     1       5.517  46.381  50.175  1.00  0.00     0.164 HD
ENDROOT
BRANCH   1   3
ATOM      3  C   UNL     1       7.417  45.719  50.733  1.00  0.00     0.152 C 
BRANCH   3   4
ATOM      4  C   UNL     1       8.164  46.225  51.945  1.00  0.00    -0.029 A 
ATOM      5  C   UNL     1       9.570  47.151  54.208  1.00  0.00    -0.051 A 
ATOM      6  C   UNL     1      10.261  46.736  53.064  1.00  0.00     0.004 A 
ATOM      7  C   UNL     1       8.172  47.074  54.222  1.00  0.00     0.004 A 
ATOM      8  C   UNL     1       9.564  46.281  51.942  1.00  0.00     0.006 A 
ATOM      9  C   UNL     1       7.475  46.618  53.101  1.00  0.00     0.006 A 
ATOM     10  C   UNL     1      10.319  47.608  55.423  1.00  0.00     0.044 C 
ENDBRANCH   3   4
ENDBRANCH   1   3
BRANCH   1  11
ATOM     11  C   UNL     1       5.291  44.758  51.234  1.00  0.00     0.229 A 
ATOM     12  N   UNL     1       4.496  44.833  52.287  1.00  0.00    -0.177 NA
ATOM     13  N   UNL     1       5.431  43.678  50.481  1.00  0.00    -0.177 NA
ATOM     14  C   UNL     1       3.834  43.723  52.590  1.00  0.00     0.233 A 
ATOM     15  C   UNL     1       4.729  42.607  50.834  1.00  0.00     0.231 A 
ATOM     16  N   UNL     1       3.919  42.603  51.886  1.00  0.00    -0.176 NA
BRANCH  14  17
ATOM     17  N   UNL     1       3.001  43.830  53.704  1.00  0.00    -0.324 N 
ATOM     18  H   UNL     1       3.571  43.870  54.538  1.00  0.00     0.170 HD
BRANCH  17  19
ATOM     19  C   UNL     1       1.619  43.727  53.899  1.00  0.00     0.045 A 
ATOM     20  C   UNL     1       0.781  42.914  53.127  1.00  0.00     0.030 A 
ATOM     21  C   UNL     1       1.021  44.531  54.885  1.00  0.00     0.076 A 
ATOM     22  C   UNL     1      -0.601  42.872  53.349  1.00  0.00     0.052 A 
ATOM     23  C   UNL     1      -0.358  44.505  55.100  1.00  0.00     0.163 A 
ATOM     24  C   UNL     1      -1.169  43.656  54.347  1.00  0.00     0.161 A 
ATOM     25  O   UNL     1      -0.845  45.338  56.077  1.00  0.00    -0.486 OA
ATOM     26  O   UNL     1      -2.523  43.551  54.524  1.00  0.00    -0.486 OA
ATOM     27  C   UNL     1      -2.267  45.480  55.978  1.00  0.00     0.271 C 
ATOM     28  C   UNL     1      -2.930  44.128  55.771  1.00  0.00     0.271 C 
ENDBRANCH  17  19
ENDBRANCH  14  17
BRANCH  15  29
ATOM     29  N   UNL     1       4.860  41.438  50.079  1.00  0.00    -0.347 N 
ATOM     30  C   UNL     1       5.870  41.493  49.034  1.00  0.00     0.146 C 
ATOM     31  C   UNL     1       3.603  40.786  49.743  1.00  0.00     0.146 C 
ENDBRANCH  15  29
ENDBRANCH   1  11
TORSDOF 6
ENDMDL
MODEL 2
REMARK VINA RESULT:    -9.820      3.867      6.835
REMARK INTER + INTRA:         -13.873
REMARK INTER:                 -13.047
REMARK INTRA:                  -0.826
REMARK UNBOUND:                -0.608
REMARK SMILES Cc1ccc(CNc2nc(Nc3ccc4c(c3)OCCO4)nc(N(C)C)n2)cc1
REMARK SMILES IDX 7 1 6 3 5 4 2 5 3 6 29 7 4 8 28 9 1 10 8 11 9 12 27 13 10 14
REMARK SMILES IDX 23 15 22 16 11 17 12 19 13 20 17 21 14 22 16 23 15 24 18 25
REMARK SMILES IDX 21 26 19 27 20 28 24 29 25 30 26 31
REMARK H PARENT 7 2 11 18
ROOT
ATOM      1  N   UNL     1       7.639  44.986  50.210  1.00  0.00    -0.350 N 
ATOM      2  H   UNL     1       8.485  44.583  50.595  1.00  0.00     0.164 HD
ENDROOT
BRANCH   1   3
ATOM      3  C   UNL     1       7.292  46.292  50.729  1.00  0.00     0.152 C 
BRANCH   3   4
ATOM      4  C   UNL     1       8.128  46.575  51.955  1.00  0.00    -0.029 A 
ATOM      5  C   UNL     1       9.678  47.124  54.247  1.00  0.00    -0.051 A 
ATOM      6  C   UNL     1       8.285  47.262  54.281  1.00  0.00     0.004 A 
ATOM      7  C   UNL     1      10.291  46.736  53.050  1.00  0.00     0.004 A 
ATOM      8  C   UNL     1       7.518  46.987  53.148  1.00  0.00     0.006 A 
ATOM      9  C   UNL     1       9.524  46.461  51.915  1.00  0.00     0.006 A 
ATOM     10  C   UNL     1      10.504  47.452  55.454  1.00  0.00     0.044 C 
ENDBRANCH   3   4
ENDBRANCH   1   3
BRANCH   1  11
ATOM     11  C   UNL     1       6.633  44.035  50.317  1.00  0.00     0.229 A 
ATOM     12  N   UNL     1       6.641  43.092  49.391  1.00  0.00    -0.177 NA
ATOM     13  N   UNL     1       5.752  44.105  51.302  1.00  0.00    -0.177 NA
ATOM     14  C   UNL     1       5.668  42.193  49.475  1.00  0.00     0.233 A 
ATOM     15  C   UNL     1       4.815  43.165  51.335  1.00  0.00     0.231 A 
ATOM     16  N   UNL     1       4.750  42.193  50.432  1.00  0.00    -0.176 NA
BRANCH  14  17
ATOM     17  N   UNL     1       5.700  41.209  48.487  1.00  0.00    -0.324 N 
ATOM     18  H   UNL     1       6.495  40.607  48.649  1.00  0.00     0.170 HD
BRANCH  17  19
ATOM     19  C   UNL     1       4.997  41.005  47.294  1.00  0.00     0.045 A 
ATOM     20  C   UNL     1       5.364  41.567  46.066  1.00  0.00     0.030 A 
ATOM     21  C   UNL     1       3.816  40.243  47.337  1.00  0.00     0.076 A 
ATOM     22  C   UNL     1       4.604  41.351  44.910  1.00  0.00     0.052 A 
ATOM     23  C   UNL     1       3.047  40.038  46.191  1.00  0.00     0.163 A 
ATOM     24  C   UNL     1       3.454  40.573  44.969  1.00  0.00     0.161 A 
ATOM     25  O   UNL     1       1.904  39.291  46.341  1.00  0.00    -0.486 OA
ATOM     26  O   UNL     1       2.770  40.386  43.797  1.00  0.00    -0.486 OA
ATOM     27  C   UNL     1       1.039  39.432  45.208  1.00  0.00     0.271 C 
ATOM     28  C   UNL     1       1.825  39.315  43.913  1.00  0.00     0.271 C 
ENDBRANCH  17  19
ENDBRANCH  14  17
BRANCH  15  29
ATOM     29  N   UNL     1       3.851  43.210  52.347  1.00  0.00    -0.347 N 
ATOM     30  C   UNL     1       2.515  42.807  51.940  1.00  0.00     0.146 C 
ATOM     31  C   UNL     1       3.949  44.363  53.229  1.00  0.00     0.146 C 
ENDBRANCH  15  29
ENDBRANCH   1  11
TORSDOF 6
ENDMDL
MODEL 3
REMARK VINA RESULT:    -9.739      0.780      1.470
REMARK INTER + INTRA:         -13.763
REMARK INTER:                 -13.276
REMARK INTRA:                  -0.488
REMARK UNBOUND:                -0.608
REMARK SMILES Cc1ccc(CNc2nc(Nc3ccc4c(c3)OCCO4)nc(N(C)C)n2)cc1
REMARK SMILES IDX 7 1 6 3 5 4 2 5 3 6 29 7 4 8 28 9 1 10 8 11 9 12 27 13 10 14
REMARK SMILES IDX 23 15 22 16 11 17 12 19 13 20 17 21 14 22 16 23 15 24 18 25
REMARK SMILES IDX 21 26 19 27 20 28 24 29 25 30 26 31
REMARK H PARENT 7 2 11 18
ROOT
ATOM      1  N   UNL     1       5.315  45.707  51.743  1.00  0.00    -0.350 N 
ATOM      2  H   UNL     1       4.573  46.328  51.444  1.00  0.00     0.164 HD
ENDROOT
BRANCH   1   3
ATOM      3  C   UNL     1       6.601  45.945  51.122  1.00  0.00     0.152 C 
BRANCH   3   4
ATOM      4  C   UNL     1       7.595  46.354  52.185  1.00  0.00    -0.029 A 
ATOM      5  C   UNL     1       9.462  47.097  54.163  1.00  0.00    -0.051 A 
ATOM      6  C   UNL     1       9.894  46.715  52.887  1.00  0.00     0.004 A 
ATOM      7  C   UNL     1       8.093  47.078  54.450  1.00  0.00     0.004 A 
ATOM      8  C   UNL     1       8.968  46.351  51.906  1.00  0.00     0.006 A 
ATOM      9  C   UNL     1       7.167  46.713  53.470  1.00  0.00     0.006 A 
ATOM     10  C   UNL     1      10.458  47.456  55.225  1.00  0.00     0.044 C 
ENDBRANCH   3   4
ENDBRANCH   1   3
BRANCH   1  11
ATOM     11  C   UNL     1       4.848  44.405  51.626  1.00  0.00     0.229 A 
ATOM     12  N   UNL     1       3.783  44.115  52.354  1.00  0.00    -0.177 NA
ATOM     13  N   UNL     1       5.457  43.549  50.821  1.00  0.00    -0.177 NA
ATOM     14  C   UNL     1       3.346  42.865  52.262  1.00  0.00     0.233 A 
ATOM     15  C   UNL     1       4.958  42.319  50.768  1.00  0.00     0.231 A 
ATOM     16  N   UNL     1       3.899  41.950  51.478  1.00  0.00    -0.176 NA
BRANCH  14  17
ATOM     17  N   UNL     1       2.221  42.586  53.038  1.00  0.00    -0.324 N 
ATOM     18  H   UNL     1       1.945  41.627  52.884  1.00  0.00     0.170 HD
BRANCH  17  19
ATOM     19  C   UNL     1       1.351  43.369  53.807  1.00  0.00     0.045 A 
ATOM     20  C   UNL     1       1.775  44.375  54.682  1.00  0.00     0.030 A 
ATOM     21  C   UNL     1      -0.026  43.091  53.748  1.00  0.00     0.076 A 
ATOM     22  C   UNL     1       0.859  45.107  55.448  1.00  0.00     0.052 A 
ATOM     23  C   UNL     1      -0.941  43.807  54.521  1.00  0.00     0.163 A 
ATOM     24  C   UNL     1      -0.501  44.834  55.356  1.00  0.00     0.161 A 
ATOM     25  O   UNL     1      -2.261  43.449  54.403  1.00  0.00    -0.486 OA
ATOM     26  O   UNL     1      -1.342  45.601  56.118  1.00  0.00    -0.486 OA
ATOM     27  C   UNL     1      -3.047  44.000  55.466  1.00  0.00     0.271 C 
ATOM     28  C   UNL     1      -2.702  45.463  55.689  1.00  0.00     0.271 C 
ENDBRANCH  17  19
ENDBRANCH  14  17
BRANCH  15  29
ATOM     29  N   UNL     1       5.581  41.376  49.945  1.00  0.00    -0.347 N 
ATOM     30  C   UNL     1       7.034  41.391  49.986  1.00  0.00     0.146 C 
ATOM     31  C   UNL     1       4.963  41.205  48.639  1.00  0.00     0.146 C 
ENDBRANCH  15  29
ENDBRANCH   1  11
TORSDOF 6
ENDMDL
MODEL 4
REMARK VINA RESULT:    -9.669      0.940      1.564
REMARK INTER + INTRA:         -13.669
REMARK INTER:                 -12.904
REMARK INTRA:                  -0.765
REMARK UNBOUND:                -0.608
REMARK SMILES Cc1ccc(CNc2nc(Nc3ccc4c(c3)OCCO4)nc(N(C)C)n2)cc1
REMARK SMILES IDX 7 1 6 3 5 4 2 5 3 6 29 7 4 8 28 9 1 10 8 11 9 12 27 13 10 14
REMARK SMILES IDX 23 15 22 16 11 17 12 19 13 20 17 21 14 22 16 23 15 24 18 25
REMARK SMILES IDX 21 26 19 27 20 28 24 29 25 30 26 31
REMARK H PARENT 7 2 11 18
ROOT
ATOM      1  N   UNL     1       5.825  46.039  51.100  1.00  0.00    -0.350 N 
ATOM      2  H   UNL     1       5.276  46.520  50.398  1.00  0.00     0.164 HD
ENDROOT
BRANCH   1   3
ATOM      3  C   UNL     1       7.228  45.885  50.779  1.00  0.00     0.152 C 
BRANCH   3   4
ATOM      4  C   UNL     1       8.057  46.326  51.963  1.00  0.00    -0.029 A 
ATOM      5  C   UNL     1       9.617  47.129  54.172  1.00  0.00    -0.051 A 
ATOM      6  C   UNL     1      10.229  46.686  52.993  1.00  0.00     0.004 A 
ATOM      7  C   UNL     1       8.219  47.141  54.246  1.00  0.00     0.004 A 
ATOM      8  C   UNL     1       9.457  46.292  51.898  1.00  0.00     0.006 A 
ATOM      9  C   UNL     1       7.446  46.745  53.152  1.00  0.00     0.006 A 
ATOM     10  C   UNL     1      10.446  47.520  55.358  1.00  0.00     0.044 C 
ENDBRANCH   3   4
ENDBRANCH   1   3
BRANCH   1  11
ATOM     11  C   UNL     1       5.170  44.856  51.411  1.00  0.00     0.229 A 
ATOM     12  N   UNL     1       4.365  44.910  52.458  1.00  0.00    -0.177 NA
ATOM     13  N   UNL     1       5.363  43.773  50.675  1.00  0.00    -0.177 NA
ATOM     14  C   UNL     1       3.752  43.775  52.773  1.00  0.00     0.233 A 
ATOM     15  C   UNL     1       4.707  42.677  51.038  1.00  0.00     0.231 A 
ATOM     16  N   UNL     1       3.892  42.650  52.086  1.00  0.00    -0.176 NA
BRANCH  14  17
ATOM     17  N   UNL     1       2.908  43.860  53.881  1.00  0.00    -0.324 N 
ATOM     18  H   UNL     1       3.409  43.547  54.700  1.00  0.00     0.170 HD
BRANCH  17  19
ATOM     19  C   UNL     1       1.541  44.113  54.045  1.00  0.00     0.045 A 
ATOM     20  C   UNL     1       0.983  44.657  55.207  1.00  0.00     0.030 A 
ATOM     21  C   UNL     1       0.664  43.742  53.011  1.00  0.00     0.076 A 
ATOM     22  C   UNL     1      -0.398  44.860  55.326  1.00  0.00     0.052 A 
ATOM     23  C   UNL     1      -0.714  43.929  53.130  1.00  0.00     0.163 A 
ATOM     24  C   UNL     1      -1.245  44.511  54.280  1.00  0.00     0.161 A 
ATOM     25  O   UNL     1      -1.485  43.521  52.070  1.00  0.00    -0.486 OA
ATOM     26  O   UNL     1      -2.581  44.756  54.455  1.00  0.00    -0.486 OA
ATOM     27  C   UNL     1      -2.868  43.443  52.432  1.00  0.00     0.271 C 
ATOM     28  C   UNL     1      -3.290  44.677  53.212  1.00  0.00     0.271 C 
ENDBRANCH  17  19
ENDBRANCH  14  17
BRANCH  15  29
ATOM     29  N   UNL     1       4.896  41.504  50.300  1.00  0.00    -0.347 N 
ATOM     30  C   UNL     1       6.051  41.515  49.417  1.00  0.00     0.146 C 
ATOM     31  C   UNL     1       3.675  40.911  49.778  1.00  0.00     0.146 C 
ENDBRANCH  15  29
ENDBRANCH   1  11
TORSDOF 6
ENDMDL
MODEL 5
REMARK VINA RESULT:    -9.627      1.038      2.010
REMARK INTER + INTRA:         -13.611
REMARK INTER:                 -12.950
REMARK INTRA:                  -0.662
REMARK UNBOUND:                -0.608
REMARK SMILES Cc1ccc(CNc2nc(Nc3ccc4c(c3)OCCO4)nc(N(C)C)n2)cc1
REMARK SMILES IDX 7 1 6 3 5 4 2 5 3 6 29 7 4 8 28 9 1 10 8 11 9 12 27 13 10 14
REMARK SMILES IDX 23 15 22 16 11 17 12 19 13 20 17 21 14 22 16 23 15 24 18 25
REMARK SMILES IDX 21 26 19 27 20 28 24 29 25 30 26 31
REMARK H PARENT 7 2 11 18
ROOT
ATOM      1  N   UNL     1       5.950  45.993  51.017  1.00  0.00    -0.350 N 
ATOM      2  H   UNL     1       5.445  46.506  50.305  1.00  0.00     0.164 HD
ENDROOT
BRANCH   1   3
ATOM      3  C   UNL     1       7.360  45.804  50.752  1.00  0.00     0.152 C 
BRANCH   3   4
ATOM      4  C   UNL     1       8.154  46.245  51.961  1.00  0.00    -0.029 A 
ATOM      5  C   UNL     1       9.621  47.090  54.216  1.00  0.00    -0.051 A 
ATOM      6  C   UNL     1       8.221  47.080  54.242  1.00  0.00     0.004 A 
ATOM      7  C   UNL     1      10.280  46.700  53.045  1.00  0.00     0.004 A 
ATOM      8  C   UNL     1       7.495  46.659  53.127  1.00  0.00     0.006 A 
ATOM      9  C   UNL     1       9.554  46.279  51.928  1.00  0.00     0.006 A 
ATOM     10  C   UNL     1      10.399  47.574  55.403  1.00  0.00     0.044 C 
ENDBRANCH   3   4
ENDBRANCH   1   3
BRANCH   1  11
ATOM     11  C   UNL     1       5.247  44.823  51.271  1.00  0.00     0.229 A 
ATOM     12  N   UNL     1       4.370  44.888  52.258  1.00  0.00    -0.177 NA
ATOM     13  N   UNL     1       5.469  43.741  50.542  1.00  0.00    -0.177 NA
ATOM     14  C   UNL     1       3.711  43.766  52.519  1.00  0.00     0.233 A 
ATOM     15  C   UNL     1       4.765  42.657  50.848  1.00  0.00     0.231 A 
ATOM     16  N   UNL     1       3.875  42.642  51.834  1.00  0.00    -0.176 NA
BRANCH  14  17
ATOM     17  N   UNL     1       2.791  43.863  53.563  1.00  0.00    -0.324 N 
ATOM     18  H   UNL     1       3.289  43.845  54.442  1.00  0.00     0.170 HD
BRANCH  17  19
ATOM     19  C   UNL     1       1.394  43.810  53.637  1.00  0.00     0.045 A 
ATOM     20  C   UNL     1       0.660  44.155  54.777  1.00  0.00     0.030 A 
ATOM     21  C   UNL     1       0.684  43.323  52.526  1.00  0.00     0.076 A 
ATOM     22  C   UNL     1      -0.736  44.054  54.803  1.00  0.00     0.052 A 
ATOM     23  C   UNL     1      -0.706  43.206  52.551  1.00  0.00     0.163 A 
ATOM     24  C   UNL     1      -1.421  43.595  53.684  1.00  0.00     0.161 A 
ATOM     25  O   UNL     1      -1.304  42.705  51.421  1.00  0.00    -0.486 OA
ATOM     26  O   UNL     1      -2.787  43.541  53.770  1.00  0.00    -0.486 OA
ATOM     27  C   UNL     1      -2.658  42.316  51.677  1.00  0.00     0.271 C 
ATOM     28  C   UNL     1      -3.384  43.385  52.477  1.00  0.00     0.271 C 
ENDBRANCH  17  19
ENDBRANCH  14  17
BRANCH  15  29
ATOM     29  N   UNL     1       4.980  41.485  50.116  1.00  0.00    -0.347 N 
ATOM     30  C   UNL     1       6.079  41.549  49.167  1.00  0.00     0.146 C 
ATOM     31  C   UNL     1       3.768  40.813  49.674  1.00  0.00     0.146 C 
ENDBRANCH  15  29
ENDBRANCH   1  11
TORSDOF 6
ENDMDL
MODEL 6
REMARK VINA RESULT:    -9.617      3.473      6.639
REMARK INTER + INTRA:         -13.598
REMARK INTER:                 -12.770
REMARK INTRA:                  -0.828
REMARK UNBOUND:                -0.608
REMARK SMILES Cc1ccc(CNc2nc(Nc3ccc4c(c3)OCCO4)nc(N(C)C)n2)cc1
REMARK SMILES IDX 7 1 6 3 5 4 2 5 3 6 29 7 4 8 28 9 1 10 8 11 9 12 27 13 10 14
REMARK SMILES IDX 23 15 22 16 11 17 12 19 13 20 17 21 14 22 16 23 15 24 18 25
REMARK SMILES IDX 21 26 19 27 20 28 24 29 25 30 26 31
REMARK H PARENT 7 2 11 18
ROOT
ATOM      1  N   UNL     1       5.893  45.958  51.239  1.00  0.00    -0.350 N 
ATOM      2  H   UNL     1       5.402  46.545  50.577  1.00  0.00     0.164 HD
ENDROOT
BRANCH   1   3
ATOM      3  C   UNL     1       7.299  45.758  50.957  1.00  0.00     0.152 C 
BRANCH   3   4
ATOM      4  C   UNL     1       8.113  46.246  52.132  1.00  0.00    -0.029 A 
ATOM      5  C   UNL     1       9.620  47.176  54.327  1.00  0.00    -0.051 A 
ATOM      6  C   UNL     1       8.222  47.153  54.385  1.00  0.00     0.004 A 
ATOM      7  C   UNL     1      10.258  46.756  53.154  1.00  0.00     0.004 A 
ATOM      8  C   UNL     1       7.476  46.689  53.299  1.00  0.00     0.006 A 
ATOM      9  C   UNL     1       9.512  46.293  52.067  1.00  0.00     0.006 A 
ATOM     10  C   UNL     1      10.419  47.706  55.480  1.00  0.00     0.044 C 
ENDBRANCH   3   4
ENDBRANCH   1   3
BRANCH   1  11
ATOM     11  C   UNL     1       5.161  44.788  51.389  1.00  0.00     0.229 A 
ATOM     12  N   UNL     1       5.515  43.790  50.598  1.00  0.00    -0.177 NA
ATOM     13  N   UNL     1       4.188  44.721  52.283  1.00  0.00    -0.177 NA
ATOM     14  C   UNL     1       4.805  42.676  50.721  1.00  0.00     0.233 A 
ATOM     15  C   UNL     1       3.527  43.572  52.363  1.00  0.00     0.231 A 
ATOM     16  N   UNL     1       3.816  42.529  51.593  1.00  0.00    -0.176 NA
BRANCH  14  17
ATOM     17  N   UNL     1       5.200  41.639  49.877  1.00  0.00    -0.324 N 
ATOM     18  H   UNL     1       5.909  41.089  50.341  1.00  0.00     0.170 HD
BRANCH  17  19
ATOM     19  C   UNL     1       4.952  41.330  48.534  1.00  0.00     0.045 A 
ATOM     20  C   UNL     1       5.700  41.837  47.465  1.00  0.00     0.030 A 
ATOM     21  C   UNL     1       3.849  40.513  48.229  1.00  0.00     0.076 A 
ATOM     22  C   UNL     1       5.387  41.516  46.139  1.00  0.00     0.052 A 
ATOM     23  C   UNL     1       3.524  40.202  46.908  1.00  0.00     0.163 A 
ATOM     24  C   UNL     1       4.308  40.685  45.861  1.00  0.00     0.161 A 
ATOM     25  O   UNL     1       2.420  39.408  46.716  1.00  0.00    -0.486 OA
ATOM     26  O   UNL     1       4.070  40.395  44.543  1.00  0.00    -0.486 OA
ATOM     27  C   UNL     1       1.989  39.437  45.350  1.00  0.00     0.271 C 
ATOM     28  C   UNL     1       3.173  39.286  44.409  1.00  0.00     0.271 C 
ENDBRANCH  17  19
ENDBRANCH  14  17
BRANCH  15  29
ATOM     29  N   UNL     1       2.477  43.461  53.281  1.00  0.00    -0.347 N 
ATOM     30  C   UNL     1       1.265  42.854  52.755  1.00  0.00     0.146 C 
ATOM     31  C   UNL     1       2.309  44.612  54.154  1.00  0.00     0.146 C 
ENDBRANCH  15  29
ENDBRANCH   1  11
TORSDOF 6
ENDMDL
MODEL 7
REMARK VINA RESULT:    -9.595      0.937      1.780
REMARK INTER + INTRA:         -13.569
REMARK INTER:                 -12.788
REMARK INTRA:                  -0.780
REMARK UNBOUND:                -0.608
REMARK SMILES Cc1ccc(CNc2nc(Nc3ccc4c(c3)OCCO4)nc(N(C)C)n2)cc1
REMARK SMILES IDX 7 1 6 3 5 4 2 5 3 6 29 7 4 8 28 9 1 10 8 11 9 12 27 13 10 14
REMARK SMILES IDX 23 15 22 16 11 17 12 19 13 20 17 21 14 22 16 23 15 24 18 25
REMARK SMILES IDX 21 26 19 27 20 28 24 29 25 30 26 31
REMARK H PARENT 7 2 11 18
ROOT
ATOM      1  N   UNL     1       6.028  46.081  50.863  1.00  0.00    -0.350 N 
ATOM      2  H   UNL     1       5.699  46.687  50.120  1.00  0.00     0.164 HD
ENDROOT
BRANCH   1   3
ATOM      3  C   UNL     1       7.415  45.680  50.756  1.00  0.00     0.152 C 
BRANCH   3   4
ATOM      4  C   UNL     1       8.167  46.175  51.971  1.00  0.00    -0.029 A 
ATOM      5  C   UNL     1       9.555  47.117  54.237  1.00  0.00    -0.051 A 
ATOM      6  C   UNL     1       8.158  47.023  54.249  1.00  0.00     0.004 A 
ATOM      7  C   UNL     1      10.249  46.763  53.075  1.00  0.00     0.004 A 
ATOM      8  C   UNL     1       7.471  46.552  53.127  1.00  0.00     0.006 A 
ATOM      9  C   UNL     1       9.563  46.294  51.953  1.00  0.00     0.006 A 
ATOM     10  C   UNL     1      10.289  47.653  55.430  1.00  0.00     0.044 C 
ENDBRANCH   3   4
ENDBRANCH   1   3
BRANCH   1  11
ATOM     11  C   UNL     1       5.129  45.030  50.979  1.00  0.00     0.229 A 
ATOM     12  N   UNL     1       3.939  45.349  51.458  1.00  0.00    -0.177 NA
ATOM     13  N   UNL     1       5.483  43.808  50.614  1.00  0.00    -0.177 NA
ATOM     14  C   UNL     1       3.083  44.343  51.591  1.00  0.00     0.233 A 
ATOM     15  C   UNL     1       4.572  42.852  50.762  1.00  0.00     0.231 A 
ATOM     16  N   UNL     1       3.360  43.093  51.248  1.00  0.00    -0.176 NA
BRANCH  14  17
ATOM     17  N   UNL     1       1.835  44.707  52.096  1.00  0.00    -0.324 N 
ATOM     18  H   UNL     1       1.284  45.112  51.352  1.00  0.00     0.170 HD
BRANCH  17  19
ATOM     19  C   UNL     1       1.290  44.779  53.384  1.00  0.00     0.045 A 
ATOM     20  C   UNL     1       2.023  45.135  54.522  1.00  0.00     0.030 A 
ATOM     21  C   UNL     1      -0.055  44.412  53.562  1.00  0.00     0.076 A 
ATOM     22  C   UNL     1       1.431  45.161  55.791  1.00  0.00     0.052 A 
ATOM     23  C   UNL     1      -0.646  44.422  54.826  1.00  0.00     0.163 A 
ATOM     24  C   UNL     1       0.091  44.820  55.940  1.00  0.00     0.161 A 
ATOM     25  O   UNL     1      -1.961  44.033  54.895  1.00  0.00    -0.486 OA
ATOM     26  O   UNL     1      -0.429  44.887  57.206  1.00  0.00    -0.486 OA
ATOM     27  C   UNL     1      -2.352  43.757  56.245  1.00  0.00     0.271 C 
ATOM     28  C   UNL     1      -1.861  44.849  57.181  1.00  0.00     0.271 C 
ENDBRANCH  17  19
ENDBRANCH  14  17
BRANCH  15  29
ATOM     29  N   UNL     1       4.909  41.541  50.408  1.00  0.00    -0.347 N 
ATOM     30  C   UNL     1       6.277  41.363  49.949  1.00  0.00     0.146 C 
ATOM     31  C   UNL     1       3.874  40.823  49.682  1.00  0.00     0.146 C 
ENDBRANCH  15  29
ENDBRANCH   1  11
TORSDOF 6
ENDMDL
MODEL 8
REMARK VINA RESULT:    -9.498      3.217      6.478
REMARK INTER + INTRA:         -13.437
REMARK INTER:                 -12.539
REMARK INTRA:                  -0.898
REMARK UNBOUND:                -0.608
REMARK SMILES Cc1ccc(CNc2nc(Nc3ccc4c(c3)OCCO4)nc(N(C)C)n2)cc1
REMARK SMILES IDX 7 1 6 3 5 4 2 5 3 6 29 7 4 8 28 9 1 10 8 11 9 12 27 13 10 14
REMARK SMILES IDX 23 15 22 16 11 17 12 19 13 20 17 21 14 22 16 23 15 24 18 25
REMARK SMILES IDX 21 26 19 27 20 28 24 29 25 30 26 31
REMARK H PARENT 7 2 11 18
ROOT
ATOM      1  N   UNL     1       3.999  46.368  55.184  1.00  0.00    -0.350 N 
ATOM      2  H   UNL     1       3.746  46.718  56.100  1.00  0.00     0.164 HD
ENDROOT
BRANCH   1   3
ATOM      3  C   UNL     1       4.338  47.386  54.212  1.00  0.00     0.152 C 
BRANCH   3   4
ATOM      4  C   UNL     1       5.791  47.235  53.823  1.00  0.00    -0.029 A 
ATOM      5  C   UNL     1       8.495  46.947  53.076  1.00  0.00    -0.051 A 
ATOM      6  C   UNL     1       7.629  47.741  52.316  1.00  0.00     0.004 A 
ATOM      7  C   UNL     1       7.992  46.276  54.197  1.00  0.00     0.004 A 
ATOM      8  C   UNL     1       6.291  47.887  52.688  1.00  0.00     0.006 A 
ATOM      9  C   UNL     1       6.653  46.420  54.569  1.00  0.00     0.006 A 
ATOM     10  C   UNL     1       9.923  46.764  52.657  1.00  0.00     0.044 C 
ENDBRANCH   3   4
ENDBRANCH   1   3
BRANCH   1  11
ATOM     11  C   UNL     1       3.004  45.490  54.779  1.00  0.00     0.229 A 
ATOM     12  N   UNL     1       3.299  44.740  53.730  1.00  0.00    -0.177 NA
ATOM     13  N   UNL     1       1.856  45.435  55.434  1.00  0.00    -0.177 NA
ATOM     14  C   UNL     1       2.343  43.914  53.325  1.00  0.00     0.233 A 
ATOM     15  C   UNL     1       0.949  44.576  54.983  1.00  0.00     0.231 A 
ATOM     16  N   UNL     1       1.168  43.799  53.928  1.00  0.00    -0.176 NA
BRANCH  14  17
ATOM     17  N   UNL     1       2.681  43.134  52.219  1.00  0.00    -0.324 N 
ATOM     18  H   UNL     1       1.927  42.489  52.029  1.00  0.00     0.170 HD
BRANCH  17  19
ATOM     19  C   UNL     1       3.853  42.960  51.472  1.00  0.00     0.045 A 
ATOM     20  C   UNL     1       4.277  41.728  50.963  1.00  0.00     0.030 A 
ATOM     21  C   UNL     1       4.689  44.073  51.273  1.00  0.00     0.076 A 
ATOM     22  C   UNL     1       5.475  41.609  50.247  1.00  0.00     0.052 A 
ATOM     23  C   UNL     1       5.891  43.957  50.574  1.00  0.00     0.163 A 
ATOM     24  C   UNL     1       6.275  42.727  50.039  1.00  0.00     0.161 A 
ATOM     25  O   UNL     1       6.643  45.098  50.446  1.00  0.00    -0.486 OA
ATOM     26  O   UNL     1       7.422  42.544  49.313  1.00  0.00    -0.486 OA
ATOM     27  C   UNL     1       7.978  44.798  50.025  1.00  0.00     0.271 C 
ATOM     28  C   UNL     1       7.970  43.796  48.882  1.00  0.00     0.271 C 
ENDBRANCH  17  19
ENDBRANCH  14  17
BRANCH  15  29
ATOM     29  N   UNL     1      -0.287  44.498  55.633  1.00  0.00    -0.347 N 
ATOM     30  C   UNL     1      -1.370  43.957  54.827  1.00  0.00     0.146 C 
ATOM     31  C   UNL     1      -0.603  45.640  56.477  1.00  0.00     0.146 C 
ENDBRANCH  15  29
ENDBRANCH   1  11
TORSDOF 6
ENDMDL
MODEL 9
REMARK VINA RESULT:    -9.484      3.506      6.796
REMARK INTER + INTRA:         -13.418
REMARK INTER:                 -12.088
REMARK INTRA:                  -1.330
REMARK UNBOUND:                -0.608
REMARK SMILES Cc1ccc(CNc2nc(Nc3ccc4c(c3)OCCO4)nc(N(C)C)n2)cc1
REMARK SMILES IDX 7 1 6 3 5 4 2 5 3 6 29 7 4 8 28 9 1 10 8 11 9 12 27 13 10 14
REMARK SMILES IDX 23 15 22 16 11 17 12 19 13 20 17 21 14 22 16 23 15 24 18 25
REMARK SMILES IDX 21 26 19 27 20 28 24 29 25 30 26 31
REMARK H PARENT 7 2 11 18
ROOT
ATOM      1  N   UNL     1       1.802  44.256  54.983  1.00  0.00    -0.350 N 
ATOM      2  H   UNL     1       1.069  43.895  55.582  1.00  0.00     0.164 HD
ENDROOT
BRANCH   1   3
ATOM      3  C   UNL     1       2.115  45.656  55.175  1.00  0.00     0.152 C 
BRANCH   3   4
ATOM      4  C   UNL     1       3.550  45.902  54.771  1.00  0.00    -0.029 A 
ATOM      5  C   UNL     1       6.235  46.362  54.040  1.00  0.00    -0.051 A 
ATOM      6  C   UNL     1       5.915  45.384  54.989  1.00  0.00     0.004 A 
ATOM      7  C   UNL     1       5.205  47.126  53.480  1.00  0.00     0.004 A 
ATOM      8  C   UNL     1       4.585  45.154  55.348  1.00  0.00     0.006 A 
ATOM      9  C   UNL     1       3.874  46.897  53.839  1.00  0.00     0.006 A 
ATOM     10  C   UNL     1       7.665  46.631  53.680  1.00  0.00     0.044 C 
ENDBRANCH   3   4
ENDBRANCH   1   3
BRANCH   1  11
ATOM     11  C   UNL     1       1.490  43.907  53.677  1.00  0.00     0.229 A 
ATOM     12  N   UNL     1       2.377  43.140  53.066  1.00  0.00    -0.177 NA
ATOM     13  N   UNL     1       0.365  44.331  53.124  1.00  0.00    -0.177 NA
ATOM     14  C   UNL     1       2.094  42.820  51.809  1.00  0.00     0.233 A 
ATOM     15  C   UNL     1       0.139  43.963  51.868  1.00  0.00     0.231 A 
ATOM     16  N   UNL     1       0.989  43.204  51.185  1.00  0.00    -0.176 NA
BRANCH  14  17
ATOM     17  N   UNL     1       3.045  42.010  51.189  1.00  0.00    -0.324 N 
ATOM     18  H   UNL     1       2.741  41.048  51.241  1.00  0.00     0.170 HD
BRANCH  17  19
ATOM     19  C   UNL     1       4.336  42.229  50.693  1.00  0.00     0.045 A 
ATOM     20  C   UNL     1       5.161  41.216  50.192  1.00  0.00     0.030 A 
ATOM     21  C   UNL     1       4.864  43.530  50.756  1.00  0.00     0.076 A 
ATOM     22  C   UNL     1       6.456  41.490  49.735  1.00  0.00     0.052 A 
ATOM     23  C   UNL     1       6.159  43.807  50.317  1.00  0.00     0.163 A 
ATOM     24  C   UNL     1       6.950  42.789  49.783  1.00  0.00     0.161 A 
ATOM     25  O   UNL     1       6.586  45.106  50.435  1.00  0.00    -0.486 OA
ATOM     26  O   UNL     1       8.216  42.991  49.301  1.00  0.00    -0.486 OA
ATOM     27  C   UNL     1       8.007  45.203  50.280  1.00  0.00     0.271 C 
ATOM     28  C   UNL     1       8.476  44.384  49.089  1.00  0.00     0.271 C 
ENDBRANCH  17  19
ENDBRANCH  14  17
BRANCH  15  29
ATOM     29  N   UNL     1      -1.028  44.404  51.237  1.00  0.00    -0.347 N 
ATOM     30  C   UNL     1      -1.873  45.268  52.046  1.00  0.00     0.146 C 
ATOM     31  C   UNL     1      -1.700  43.398  50.429  1.00  0.00     0.146 C 
ENDBRANCH  15  29
ENDBRANCH   1  11
TORSDOF 6
ENDMDL
MODEL 10
REMARK VINA RESULT:    -9.414      2.556      3.938
REMARK INTER + INTRA:         -13.324
REMARK INTER:                 -12.661
REMARK INTRA:                  -0.663
REMARK UNBOUND:                -0.608
REMARK SMILES Cc1ccc(CNc2nc(Nc3ccc4c(c3)OCCO4)nc(N(C)C)n2)cc1
REMARK SMILES IDX 7 1 6 3 5 4 2 5 3 6 29 7 4 8 28 9 1 10 8 11 9 12 27 13 10 14
REMARK SMILES IDX 23 15 22 16 11 17 12 19 13 20 17 21 14 22 16 23 15 24 18 25
REMARK SMILES IDX 21 26 19 27 20 28 24 29 25 30 26 31
REMARK H PARENT 7 2 11 18
ROOT
ATOM      1  N   UNL     1       7.233  42.208  49.420  1.00  0.00    -0.350 N 
ATOM      2  H   UNL     1       7.475  42.169  50.403  1.00  0.00     0.164 HD
ENDROOT
BRANCH   1   3
ATOM      3  C   UNL     1       7.473  43.484  48.780  1.00  0.00     0.152 C 
BRANCH   3   4
ATOM      4  C   UNL     1       8.029  44.451  49.799  1.00  0.00    -0.029 A 
ATOM      5  C   UNL     1       9.079  46.238  51.712  1.00  0.00    -0.051 A 
ATOM      6  C   UNL     1       9.922  45.357  51.026  1.00  0.00     0.004 A 
ATOM      7  C   UNL     1       7.704  46.199  51.455  1.00  0.00     0.004 A 
ATOM      8  C   UNL     1       9.403  44.475  50.076  1.00  0.00     0.006 A 
ATOM      9  C   UNL     1       7.183  45.316  50.505  1.00  0.00     0.006 A 
ATOM     10  C   UNL     1       9.633  47.161  52.755  1.00  0.00     0.044 C 
ENDBRANCH   3   4
ENDBRANCH   1   3
BRANCH   1  11
ATOM     11  C   UNL     1       5.938  41.728  49.285  1.00  0.00     0.229 A 
ATOM     12  N   UNL     1       5.154  41.902  50.335  1.00  0.00    -0.177 NA
ATOM     13  N   UNL     1       5.556  41.148  48.159  1.00  0.00    -0.177 NA
ATOM     14  C   UNL     1       3.920  41.426  50.220  1.00  0.00     0.233 A 
ATOM     15  C   UNL     1       4.304  40.706  48.107  1.00  0.00     0.231 A 
ATOM     16  N   UNL     1       3.462  40.834  49.125  1.00  0.00    -0.176 NA
BRANCH  14  17
ATOM     17  N   UNL     1       3.115  41.625  51.341  1.00  0.00    -0.324 N 
ATOM     18  H   UNL     1       2.423  40.890  51.383  1.00  0.00     0.170 HD
BRANCH  17  19
ATOM     19  C   UNL     1       2.973  42.668  52.264  1.00  0.00     0.045 A 
ATOM     20  C   UNL     1       1.778  42.962  52.930  1.00  0.00     0.030 A 
ATOM     21  C   UNL     1       4.073  43.511  52.494  1.00  0.00     0.076 A 
ATOM     22  C   UNL     1       1.687  44.037  53.822  1.00  0.00     0.052 A 
ATOM     23  C   UNL     1       3.984  44.593  53.370  1.00  0.00     0.163 A 
ATOM     24  C   UNL     1       2.795  44.844  54.055  1.00  0.00     0.161 A 
ATOM     25  O   UNL     1       5.110  45.365  53.514  1.00  0.00    -0.486 OA
ATOM     26  O   UNL     1       2.642  45.865  54.955  1.00  0.00    -0.486 OA
ATOM     27  C   UNL     1       4.809  46.612  54.152  1.00  0.00     0.271 C 
ATOM     28  C   UNL     1       3.911  46.396  55.359  1.00  0.00     0.271 C 
ENDBRANCH  17  19
ENDBRANCH  14  17
BRANCH  15  29
ATOM     29  N   UNL     1       3.863  40.069  46.942  1.00  0.00    -0.347 N 
ATOM     30  C   UNL     1       3.542  40.962  45.840  1.00  0.00     0.146 C 
ATOM     31  C   UNL     1       2.961  38.950  47.166  1.00  0.00     0.146 C 
ENDBRANCH  15  29
ENDBRANCH   1  11
TORSDOF 6
ENDMDL
MODEL 11
REMARK VINA RESULT:    -9.359      3.403      6.746
REMARK INTER + INTRA:         -13.250
REMARK INTER:                 -12.367
REMARK INTRA:                  -0.883
REMARK UNBOUND:                -0.608
REMARK SMILES Cc1ccc(CNc2nc(Nc3ccc4c(c3)OCCO4)nc(N(C)C)n2)cc1
REMARK SMILES IDX 7 1 6 3 5 4 2 5 3 6 29 7 4 8 28 9 1 10 8 11 9 12 27 13 10 14
REMARK SMILES IDX 23 15 22 16 11 17 12 19 13 20 17 21 14 22 16 23 15 24 18 25
REMARK SMILES IDX 21 26 19 27 20 28 24 29 25 30 26 31
REMARK H PARENT 7 2 11 18
ROOT
ATOM      1  N   UNL     1       2.342  42.502  50.854  1.00  0.00    -0.350 N 
ATOM      2  H   UNL     1       1.691  41.744  50.692  1.00  0.00     0.164 HD
ENDROOT
BRANCH   1   3
ATOM      3  C   UNL     1       3.499  42.156  51.654  1.00  0.00     0.152 C 
BRANCH   3   4
ATOM      4  C   UNL     1       4.749  42.611  50.937  1.00  0.00    -0.029 A 
ATOM      5  C   UNL     1       7.094  43.439  49.606  1.00  0.00    -0.051 A 
ATOM      6  C   UNL     1       6.595  42.143  49.426  1.00  0.00     0.004 A 
ATOM      7  C   UNL     1       6.426  44.307  50.477  1.00  0.00     0.004 A 
ATOM      8  C   UNL     1       5.432  41.734  50.082  1.00  0.00     0.006 A 
ATOM      9  C   UNL     1       5.264  43.899  51.135  1.00  0.00     0.006 A 
ATOM     10  C   UNL     1       8.361  43.865  48.928  1.00  0.00     0.044 C 
ENDBRANCH   3   4
ENDBRANCH   1   3
BRANCH   1  11
ATOM     11  C   UNL     1       1.617  43.588  51.326  1.00  0.00     0.229 A 
ATOM     12  N   UNL     1       2.312  44.486  52.002  1.00  0.00    -0.177 NA
ATOM     13  N   UNL     1       0.319  43.677  51.084  1.00  0.00    -0.177 NA
ATOM     14  C   UNL     1       1.619  45.515  52.474  1.00  0.00     0.233 A 
ATOM     15  C   UNL     1      -0.309  44.740  51.575  1.00  0.00     0.231 A 
ATOM     16  N   UNL     1       0.318  45.678  52.274  1.00  0.00    -0.176 NA
BRANCH  14  17
ATOM     17  N   UNL     1       2.376  46.449  53.182  1.00  0.00    -0.324 N 
ATOM     18  H   UNL     1       1.841  47.299  53.281  1.00  0.00     0.170 HD
BRANCH  17  19
ATOM     19  C   UNL     1       3.710  46.499  53.605  1.00  0.00     0.045 A 
ATOM     20  C   UNL     1       4.132  46.161  54.896  1.00  0.00     0.030 A 
ATOM     21  C   UNL     1       4.679  46.977  52.705  1.00  0.00     0.076 A 
ATOM     22  C   UNL     1       5.477  46.260  55.272  1.00  0.00     0.052 A 
ATOM     23  C   UNL     1       6.019  47.091  53.079  1.00  0.00     0.163 A 
ATOM     24  C   UNL     1       6.424  46.709  54.358  1.00  0.00     0.161 A 
ATOM     25  O   UNL     1       6.884  47.581  52.132  1.00  0.00    -0.486 OA
ATOM     26  O   UNL     1       7.724  46.761  54.785  1.00  0.00    -0.486 OA
ATOM     27  C   UNL     1       8.131  47.970  52.719  1.00  0.00     0.271 C 
ATOM     28  C   UNL     1       8.628  46.905  53.683  1.00  0.00     0.271 C 
ENDBRANCH  17  19
ENDBRANCH  14  17
BRANCH  15  29
ATOM     29  N   UNL     1      -1.686  44.866  51.360  1.00  0.00    -0.347 N 
ATOM     30  C   UNL     1      -2.458  45.237  52.535  1.00  0.00     0.146 C 
ATOM     31  C   UNL     1      -2.261  43.854  50.488  1.00  0.00     0.146 C 
ENDBRANCH  15  29
ENDBRANCH   1  11
TORSDOF 6
ENDMDL
MODEL 12
REMARK VINA RESULT:    -9.332      3.566      7.523
REMARK INTER + INTRA:         -13.213
REMARK INTER:                 -11.748
REMARK INTRA:                  -1.466
REMARK UNBOUND:                -0.608
REMARK SMILES Cc1ccc(CNc2nc(Nc3ccc4c(c3)OCCO4)nc(N(C)C)n2)cc1
REMARK SMILES IDX 7 1 6 3 5 4 2 5 3 6 29 7 4 8 28 9 1 10 8 11 9 12 27 13 10 14
REMARK SMILES IDX 23 15 22 16 11 17 12 19 13 20 17 21 14 22 16 23 15 24 18 25
REMARK SMILES IDX 21 26 19 27 20 28 24 29 25 30 26 31
REMARK H PARENT 7 2 11 18
ROOT
ATOM      1  N   UNL     1       0.709  43.798  52.876  1.00  0.00    -0.350 N 
ATOM      2  H   UNL     1       1.233  42.933  52.916  1.00  0.00     0.164 HD
ENDROOT
BRANCH   1   3
ATOM      3  C   UNL     1       0.988  44.631  51.725  1.00  0.00     0.152 C 
BRANCH   3   4
ATOM      4  C   UNL     1       2.461  44.543  51.397  1.00  0.00    -0.029 A 
ATOM      5  C   UNL     1       5.205  44.390  50.765  1.00  0.00    -0.051 A 
ATOM      6  C   UNL     1       4.547  45.626  50.779  1.00  0.00     0.004 A 
ATOM      7  C   UNL     1       4.474  43.230  51.043  1.00  0.00     0.004 A 
ATOM      8  C   UNL     1       3.189  45.701  51.095  1.00  0.00     0.006 A 
ATOM      9  C   UNL     1       3.116  43.305  51.359  1.00  0.00     0.006 A 
ATOM     10  C   UNL     1       6.655  44.307  50.392  1.00  0.00     0.044 C 
ENDBRANCH   3   4
ENDBRANCH   1   3
BRANCH   1  11
ATOM     11  C   UNL     1       0.854  44.436  54.100  1.00  0.00     0.229 A 
ATOM     12  N   UNL     1       2.053  44.937  54.343  1.00  0.00    -0.177 NA
ATOM     13  N   UNL     1      -0.171  44.518  54.934  1.00  0.00    -0.177 NA
ATOM     14  C   UNL     1       2.203  45.529  55.521  1.00  0.00     0.233 A 
ATOM     15  C   UNL     1       0.046  45.136  56.090  1.00  0.00     0.231 A 
ATOM     16  N   UNL     1       1.226  45.654  56.410  1.00  0.00    -0.176 NA
BRANCH  14  17
ATOM     17  N   UNL     1       3.476  46.050  55.750  1.00  0.00    -0.324 N 
ATOM     18  H   UNL     1       3.435  46.685  56.535  1.00  0.00     0.170 HD
BRANCH  17  19
ATOM     19  C   UNL     1       4.687  46.005  55.048  1.00  0.00     0.045 A 
ATOM     20  C   UNL     1       5.590  44.938  55.118  1.00  0.00     0.030 A 
ATOM     21  C   UNL     1       5.052  47.121  54.274  1.00  0.00     0.076 A 
ATOM     22  C   UNL     1       6.800  44.961  54.415  1.00  0.00     0.052 A 
ATOM     23  C   UNL     1       6.264  47.155  53.584  1.00  0.00     0.163 A 
ATOM     24  C   UNL     1       7.131  46.063  53.635  1.00  0.00     0.161 A 
ATOM     25  O   UNL     1       6.535  48.296  52.869  1.00  0.00    -0.486 OA
ATOM     26  O   UNL     1       8.321  46.011  52.957  1.00  0.00    -0.486 OA
ATOM     27  C   UNL     1       7.915  48.360  52.494  1.00  0.00     0.271 C 
ATOM     28  C   UNL     1       8.387  47.024  51.946  1.00  0.00     0.271 C 
ENDBRANCH  17  19
ENDBRANCH  14  17
BRANCH  15  29
ATOM     29  N   UNL     1      -1.003  45.230  57.010  1.00  0.00    -0.347 N 
ATOM     30  C   UNL     1      -2.059  44.246  56.837  1.00  0.00     0.146 C 
ATOM     31  C   UNL     1      -1.417  46.589  57.324  1.00  0.00     0.146 C 
ENDBRANCH  15  29
ENDBRANCH   1  11
TORSDOF 6
ENDMDL
MODEL 13
REMARK VINA RESULT:    -9.292      3.324      7.527
REMARK INTER + INTRA:         -13.160
REMARK INTER:                 -12.271
REMARK INTRA:                  -0.888
REMARK UNBOUND:                -0.608
REMARK SMILES Cc1ccc(CNc2nc(Nc3ccc4c(c3)OCCO4)nc(N(C)C)n2)cc1
REMARK SMILES IDX 7 1 6 3 5 4 2 5 3 6 29 7 4 8 28 9 1 10 8 11 9 12 27 13 10 14
REMARK SMILES IDX 23 15 22 16 11 17 12 19 13 20 17 21 14 22 16 23 15 24 18 25
REMARK SMILES IDX 21 26 19 27 20 28 24 29 25 30 26 31
REMARK H PARENT 7 2 11 18
ROOT
ATOM      1  N   UNL     1       2.286  42.355  53.052  1.00  0.00    -0.350 N 
ATOM      2  H   UNL     1       3.178  42.030  53.403  1.00  0.00     0.164 HD
ENDROOT
BRANCH   1   3
ATOM      3  C   UNL     1       2.207  42.490  51.613  1.00  0.00     0.152 C 
BRANCH   3   4
ATOM      4  C   UNL     1       3.606  42.562  51.046  1.00  0.00    -0.029 A 
ATOM      5  C   UNL     1       6.210  42.713  49.973  1.00  0.00    -0.051 A 
ATOM      6  C   UNL     1       5.573  43.863  50.456  1.00  0.00     0.004 A 
ATOM      7  C   UNL     1       5.524  41.494  50.005  1.00  0.00     0.004 A 
ATOM      8  C   UNL     1       4.285  43.787  50.991  1.00  0.00     0.006 A 
ATOM      9  C   UNL     1       4.235  41.417  50.539  1.00  0.00     0.006 A 
ATOM     10  C   UNL     1       7.579  42.802  49.369  1.00  0.00     0.044 C 
ENDBRANCH   3   4
ENDBRANCH   1   3
BRANCH   1  11
ATOM     11  C   UNL     1       1.947  43.500  53.760  1.00  0.00     0.229 A 
ATOM     12  N   UNL     1       2.909  44.399  53.884  1.00  0.00    -0.177 NA
ATOM     13  N   UNL     1       0.727  43.641  54.253  1.00  0.00    -0.177 NA
ATOM     14  C   UNL     1       2.596  45.486  54.578  1.00  0.00     0.233 A 
ATOM     15  C   UNL     1       0.479  44.760  54.925  1.00  0.00     0.231 A 
ATOM     16  N   UNL     1       1.397  45.703  55.102  1.00  0.00    -0.176 NA
BRANCH  14  17
ATOM     17  N   UNL     1       3.628  46.417  54.692  1.00  0.00    -0.324 N 
ATOM     18  H   UNL     1       3.349  47.138  55.343  1.00  0.00     0.170 HD
BRANCH  17  19
ATOM     19  C   UNL     1       4.825  46.633  53.999  1.00  0.00     0.045 A 
ATOM     20  C   UNL     1       4.907  46.774  52.609  1.00  0.00     0.030 A 
ATOM     21  C   UNL     1       6.026  46.646  54.729  1.00  0.00     0.076 A 
ATOM     22  C   UNL     1       6.138  46.959  51.967  1.00  0.00     0.052 A 
ATOM     23  C   UNL     1       7.257  46.814  54.093  1.00  0.00     0.163 A 
ATOM     24  C   UNL     1       7.312  46.995  52.711  1.00  0.00     0.161 A 
ATOM     25  O   UNL     1       8.372  46.798  54.893  1.00  0.00    -0.486 OA
ATOM     26  O   UNL     1       8.478  47.199  52.022  1.00  0.00    -0.486 OA
ATOM     27  C   UNL     1       9.566  46.637  54.119  1.00  0.00     0.271 C 
ATOM     28  C   UNL     1       9.549  47.553  52.906  1.00  0.00     0.271 C 
ENDBRANCH  17  19
ENDBRANCH  14  17
BRANCH  15  29
ATOM     29  N   UNL     1      -0.792  44.944  55.480  1.00  0.00    -0.347 N 
ATOM     30  C   UNL     1      -0.804  45.590  56.783  1.00  0.00     0.146 C 
ATOM     31  C   UNL     1      -1.705  43.827  55.293  1.00  0.00     0.146 C 
ENDBRANCH  15  29
ENDBRANCH   1  11
TORSDOF 6
ENDMDL
MODEL 14
REMARK VINA RESULT:    -9.154      1.640      2.239
REMARK INTER + INTRA:         -12.972
REMARK INTER:                 -12.061
REMARK INTRA:                  -0.911
REMARK UNBOUND:                -0.608
REMARK SMILES Cc1ccc(CNc2nc(Nc3ccc4c(c3)OCCO4)nc(N(C)C)n2)cc1
REMARK SMILES IDX 7 1 6 3 5 4 2 5 3 6 29 7 4 8 28 9 1 10 8 11 9 12 27 13 10 14
REMARK SMILES IDX 23 15 22 16 11 17 12 19 13 20 17 21 14 22 16 23 15 24 18 25
REMARK SMILES IDX 21 26 19 27 20 28 24 29 25 30 26 31
REMARK H PARENT 7 2 11 18
ROOT
ATOM      1  N   UNL     1       7.932  45.905  50.506  1.00  0.00    -0.350 N 
ATOM      2  H   UNL     1       8.659  45.330  50.914  1.00  0.00     0.164 HD
ENDROOT
BRANCH   1   3
ATOM      3  C   UNL     1       7.840  47.247  51.039  1.00  0.00     0.152 C 
BRANCH   3   4
ATOM      4  C   UNL     1       8.608  47.315  52.340  1.00  0.00    -0.029 A 
ATOM      5  C   UNL     1      10.036  47.466  54.767  1.00  0.00    -0.051 A 
ATOM      6  C   UNL     1       8.792  48.094  54.635  1.00  0.00     0.004 A 
ATOM      7  C   UNL     1      10.572  46.786  53.667  1.00  0.00     0.004 A 
ATOM      8  C   UNL     1       8.083  48.016  53.434  1.00  0.00     0.006 A 
ATOM      9  C   UNL     1       9.864  46.708  52.466  1.00  0.00     0.006 A 
ATOM     10  C   UNL     1      10.812  47.578  56.045  1.00  0.00     0.044 C 
ENDBRANCH   3   4
ENDBRANCH   1   3
BRANCH   1  11
ATOM     11  C   UNL     1       6.747  45.182  50.553  1.00  0.00     0.229 A 
ATOM     12  N   UNL     1       5.688  45.853  50.972  1.00  0.00    -0.177 NA
ATOM     13  N   UNL     1       6.728  43.911  50.187  1.00  0.00    -0.177 NA
ATOM     14  C   UNL     1       4.557  45.161  51.040  1.00  0.00     0.233 A 
ATOM     15  C   UNL     1       5.560  43.283  50.267  1.00  0.00     0.231 A 
ATOM     16  N   UNL     1       4.455  43.886  50.690  1.00  0.00    -0.176 NA
BRANCH  14  17
ATOM     17  N   UNL     1       3.455  45.892  51.483  1.00  0.00    -0.324 N 
ATOM     18  H   UNL     1       3.547  46.848  51.168  1.00  0.00     0.170 HD
BRANCH  17  19
ATOM     19  C   UNL     1       2.401  45.625  52.365  1.00  0.00     0.045 A 
ATOM     20  C   UNL     1       1.093  45.347  51.954  1.00  0.00     0.030 A 
ATOM     21  C   UNL     1       2.651  45.701  53.746  1.00  0.00     0.076 A 
ATOM     22  C   UNL     1       0.071  45.116  52.884  1.00  0.00     0.052 A 
ATOM     23  C   UNL     1       1.633  45.487  54.677  1.00  0.00     0.163 A 
ATOM     24  C   UNL     1       0.345  45.171  54.246  1.00  0.00     0.161 A 
ATOM     25  O   UNL     1       1.976  45.598  56.002  1.00  0.00    -0.486 OA
ATOM     26  O   UNL     1      -0.696  44.914  55.099  1.00  0.00    -0.486 OA
ATOM     27  C   UNL     1       0.814  45.697  56.833  1.00  0.00     0.271 C 
ATOM     28  C   UNL     1      -0.226  44.666  56.430  1.00  0.00     0.271 C 
ENDBRANCH  17  19
ENDBRANCH  14  17
BRANCH  15  29
ATOM     29  N   UNL     1       5.496  41.932  49.908  1.00  0.00    -0.347 N 
ATOM     30  C   UNL     1       4.342  41.215  50.425  1.00  0.00     0.146 C 
ATOM     31  C   UNL     1       6.771  41.234  49.938  1.00  0.00     0.146 C 
ENDBRANCH  15  29
ENDBRANCH   1  11
TORSDOF 6
ENDMDL
MODEL 15
REMARK VINA RESULT:    -9.148      2.492      3.747
REMARK INTER + INTRA:         -12.965
REMARK INTER:                 -12.177
REMARK INTRA:                  -0.788
REMARK UNBOUND:                -0.608
REMARK SMILES Cc1ccc(CNc2nc(Nc3ccc4c(c3)OCCO4)nc(N(C)C)n2)cc1
REMARK SMILES IDX 7 1 6 3 5 4 2 5 3 6 29 7 4 8 28 9 1 10 8 11 9 12 27 13 10 14
REMARK SMILES IDX 23 15 22 16 11 17 12 19 13 20 17 21 14 22 16 23 15 24 18 25
REMARK SMILES IDX 21 26 19 27 20 28 24 29 25 30 26 31
REMARK H PARENT 7 2 11 18
ROOT
ATOM      1  N   UNL     1       4.490  47.035  53.260  1.00  0.00    -0.350 N 
ATOM      2  H   UNL     1       4.788  46.961  52.295  1.00  0.00     0.164 HD
ENDROOT
BRANCH   1   3
ATOM      3  C   UNL     1       5.560  47.203  54.220  1.00  0.00     0.152 C 
BRANCH   3   4
ATOM      4  C   UNL     1       6.882  46.932  53.539  1.00  0.00    -0.029 A 
ATOM      5  C   UNL     1       9.341  46.406  52.262  1.00  0.00    -0.051 A 
ATOM      6  C   UNL     1       8.132  46.211  51.583  1.00  0.00     0.004 A 
ATOM      7  C   UNL     1       9.309  46.839  53.592  1.00  0.00     0.004 A 
ATOM      8  C   UNL     1       6.915  46.476  52.215  1.00  0.00     0.006 A 
ATOM      9  C   UNL     1       8.092  47.102  54.225  1.00  0.00     0.006 A 
ATOM     10  C   UNL     1      10.645  46.090  51.594  1.00  0.00     0.044 C 
ENDBRANCH   3   4
ENDBRANCH   1   3
BRANCH   1  11
ATOM     11  C   UNL     1       3.641  45.968  53.521  1.00  0.00     0.229 A 
ATOM     12  N   UNL     1       3.090  45.961  54.723  1.00  0.00    -0.177 NA
ATOM     13  N   UNL     1       3.423  45.048  52.595  1.00  0.00    -0.177 NA
ATOM     14  C   UNL     1       2.294  44.932  54.986  1.00  0.00     0.233 A 
ATOM     15  C   UNL     1       2.605  44.053  52.921  1.00  0.00     0.231 A 
ATOM     16  N   UNL     1       2.023  43.971  54.112  1.00  0.00    -0.176 NA
BRANCH  14  17
ATOM     17  N   UNL     1       1.724  44.949  56.259  1.00  0.00    -0.324 N 
ATOM     18  H   UNL     1       2.158  44.232  56.823  1.00  0.00     0.170 HD
BRANCH  17  19
ATOM     19  C   UNL     1       0.623  45.605  56.823  1.00  0.00     0.045 A 
ATOM     20  C   UNL     1      -0.693  45.445  56.374  1.00  0.00     0.030 A 
ATOM     21  C   UNL     1       0.853  46.526  57.860  1.00  0.00     0.076 A 
ATOM     22  C   UNL     1      -1.752  46.150  56.959  1.00  0.00     0.052 A 
ATOM     23  C   UNL     1      -0.197  47.242  58.436  1.00  0.00     0.163 A 
ATOM     24  C   UNL     1      -1.507  47.037  58.001  1.00  0.00     0.161 A 
ATOM     25  O   UNL     1       0.133  48.128  59.432  1.00  0.00    -0.486 OA
ATOM     26  O   UNL     1      -2.591  47.677  58.541  1.00  0.00    -0.486 OA
ATOM     27  C   UNL     1      -0.944  49.031  59.703  1.00  0.00     0.271 C 
ATOM     28  C   UNL     1      -2.263  48.284  59.797  1.00  0.00     0.271 C 
ENDBRANCH  17  19
ENDBRANCH  14  17
BRANCH  15  29
ATOM     29  N   UNL     1       2.360  43.048  51.980  1.00  0.00    -0.347 N 
ATOM     30  C   UNL     1       3.533  42.293  51.571  1.00  0.00     0.146 C 
ATOM     31  C   UNL     1       1.414  43.409  50.936  1.00  0.00     0.146 C 
ENDBRANCH  15  29
ENDBRANCH   1  11
TORSDOF 6
ENDMDL
MODEL 16
REMARK VINA RESULT:    -9.108      3.277      7.954
REMARK INTER + INTRA:         -12.911
REMARK INTER:                 -12.110
REMARK INTRA:                  -0.800
REMARK UNBOUND:                -0.608
REMARK SMILES Cc1ccc(CNc2nc(Nc3ccc4c(c3)OCCO4)nc(N(C)C)n2)cc1
REMARK SMILES IDX 7 1 6 3 5 4 2 5 3 6 29 7 4 8 28 9 1 10 8 11 9 12 27 13 10 14
REMARK SMILES IDX 23 15 22 16 11 17 12 19 13 20 17 21 14 22 16 23 15 24 18 25
REMARK SMILES IDX 21 26 19 27 20 28 24 29 25 30 26 31
REMARK H PARENT 7 2 11 18
ROOT
ATOM      1  N   UNL     1       3.537  41.383  51.077  1.00  0.00    -0.350 N 
ATOM      2  H   UNL     1       3.437  40.914  51.969  1.00  0.00     0.164 HD
ENDROOT
BRANCH   1   3
ATOM      3  C   UNL     1       4.888  41.427  50.558  1.00  0.00     0.152 C 
BRANCH   3   4
ATOM      4  C   UNL     1       4.842  41.325  49.050  1.00  0.00    -0.029 A 
ATOM      5  C   UNL     1       4.754  41.109  46.240  1.00  0.00    -0.051 A 
ATOM      6  C   UNL     1       3.827  40.424  47.034  1.00  0.00     0.004 A 
ATOM      7  C   UNL     1       5.742  41.880  46.863  1.00  0.00     0.004 A 
ATOM      8  C   UNL     1       3.868  40.534  48.425  1.00  0.00     0.006 A 
ATOM      9  C   UNL     1       5.784  41.990  48.255  1.00  0.00     0.006 A 
ATOM     10  C   UNL     1       4.730  40.964  44.748  1.00  0.00     0.044 C 
ENDBRANCH   3   4
ENDBRANCH   1   3
BRANCH   1  11
ATOM     11  C   UNL     1       2.916  42.620  51.179  1.00  0.00     0.229 A 
ATOM     12  N   UNL     1       3.726  43.665  51.183  1.00  0.00    -0.177 NA
ATOM     13  N   UNL     1       1.597  42.699  51.256  1.00  0.00    -0.177 NA
ATOM     14  C   UNL     1       3.138  44.849  51.302  1.00  0.00     0.233 A 
ATOM     15  C   UNL     1       1.075  43.916  51.359  1.00  0.00     0.231 A 
ATOM     16  N   UNL     1       1.825  45.012  51.383  1.00  0.00    -0.176 NA
BRANCH  14  17
ATOM     17  N   UNL     1       4.015  45.934  51.302  1.00  0.00    -0.324 N 
ATOM     18  H   UNL     1       3.532  46.747  50.947  1.00  0.00     0.170 HD
BRANCH  17  19
ATOM     19  C   UNL     1       5.391  46.073  51.519  1.00  0.00     0.045 A 
ATOM     20  C   UNL     1       6.371  45.565  50.659  1.00  0.00     0.030 A 
ATOM     21  C   UNL     1       5.821  46.703  52.700  1.00  0.00     0.076 A 
ATOM     22  C   UNL     1       7.735  45.709  50.943  1.00  0.00     0.052 A 
ATOM     23  C   UNL     1       7.179  46.835  52.995  1.00  0.00     0.163 A 
ATOM     24  C   UNL     1       8.139  46.358  52.103  1.00  0.00     0.161 A 
ATOM     25  O   UNL     1       7.495  47.453  54.180  1.00  0.00    -0.486 OA
ATOM     26  O   UNL     1       9.488  46.482  52.309  1.00  0.00    -0.486 OA
ATOM     27  C   UNL     1       8.865  47.232  54.533  1.00  0.00     0.271 C 
ATOM     28  C   UNL     1       9.771  47.444  53.332  1.00  0.00     0.271 C 
ENDBRANCH  17  19
ENDBRANCH  14  17
BRANCH  15  29
ATOM     29  N   UNL     1      -0.314  44.046  51.463  1.00  0.00    -0.347 N 
ATOM     30  C   UNL     1      -0.767  45.249  52.142  1.00  0.00     0.146 C 
ATOM     31  C   UNL     1      -1.019  42.812  51.772  1.00  0.00     0.146 C 
ENDBRANCH  15  29
ENDBRANCH   1  11
TORSDOF 6
ENDMDL
MODEL 17
REMARK VINA RESULT:    -9.100      2.058      5.569
REMARK INTER + INTRA:         -12.900
REMARK INTER:                 -11.979
REMARK INTRA:                  -0.922
REMARK UNBOUND:                -0.608
REMARK SMILES Cc1ccc(CNc2nc(Nc3ccc4c(c3)OCCO4)nc(N(C)C)n2)cc1
REMARK SMILES IDX 7 1 6 3 5 4 2 5 3 6 29 7 4 8 28 9 1 10 8 11 9 12 27 13 10 14
REMARK SMILES IDX 23 15 22 16 11 17 12 19 13 20 17 21 14 22 16 23 15 24 18 25
REMARK SMILES IDX 21 26 19 27 20 28 24 29 25 30 26 31
REMARK H PARENT 7 2 11 18
ROOT
ATOM      1  N   UNL     1       6.710  45.662  50.315  1.00  0.00    -0.350 N 
ATOM      2  H   UNL     1       5.735  45.651  50.040  1.00  0.00     0.164 HD
ENDROOT
BRANCH   1   3
ATOM      3  C   UNL     1       7.419  44.418  50.103  1.00  0.00     0.152 C 
BRANCH   3   4
ATOM      4  C   UNL     1       6.417  43.307  49.890  1.00  0.00    -0.029 A 
ATOM      5  C   UNL     1       4.542  41.244  49.470  1.00  0.00    -0.051 A 
ATOM      6  C   UNL     1       5.527  41.513  48.513  1.00  0.00     0.004 A 
ATOM      7  C   UNL     1       4.484  42.032  50.625  1.00  0.00     0.004 A 
ATOM      8  C   UNL     1       6.458  42.532  48.723  1.00  0.00     0.006 A 
ATOM      9  C   UNL     1       5.414  43.053  50.835  1.00  0.00     0.006 A 
ATOM     10  C   UNL     1       3.522  40.171  49.229  1.00  0.00     0.044 C 
ENDBRANCH   3   4
ENDBRANCH   1   3
BRANCH   1  11
ATOM     11  C   UNL     1       6.776  46.152  51.612  1.00  0.00     0.229 A 
ATOM     12  N   UNL     1       5.612  46.410  52.184  1.00  0.00    -0.177 NA
ATOM     13  N   UNL     1       7.949  46.327  52.199  1.00  0.00    -0.177 NA
ATOM     14  C   UNL     1       5.671  46.899  53.416  1.00  0.00     0.233 A 
ATOM     15  C   UNL     1       7.934  46.807  53.437  1.00  0.00     0.231 A 
ATOM     16  N   UNL     1       6.805  47.101  54.072  1.00  0.00    -0.176 NA
BRANCH  14  17
ATOM     17  N   UNL     1       4.429  47.160  53.996  1.00  0.00    -0.324 N 
ATOM     18  H   UNL     1       4.473  48.043  54.483  1.00  0.00     0.170 HD
BRANCH  17  19
ATOM     19  C   UNL     1       3.261  46.409  54.172  1.00  0.00     0.045 A 
ATOM     20  C   UNL     1       3.005  45.615  55.296  1.00  0.00     0.030 A 
ATOM     21  C   UNL     1       2.312  46.397  53.134  1.00  0.00     0.076 A 
ATOM     22  C   UNL     1       1.830  44.862  55.404  1.00  0.00     0.052 A 
ATOM     23  C   UNL     1       1.146  45.636  53.230  1.00  0.00     0.163 A 
ATOM     24  C   UNL     1       0.892  44.885  54.378  1.00  0.00     0.161 A 
ATOM     25  O   UNL     1       0.290  45.681  52.158  1.00  0.00    -0.486 OA
ATOM     26  O   UNL     1      -0.244  44.141  54.558  1.00  0.00    -0.486 OA
ATOM     27  C   UNL     1      -0.675  44.625  52.218  1.00  0.00     0.271 C 
ATOM     28  C   UNL     1      -1.259  44.508  53.615  1.00  0.00     0.271 C 
ENDBRANCH  17  19
ENDBRANCH  14  17
BRANCH  15  29
ATOM     29  N   UNL     1       9.151  47.026  54.090  1.00  0.00    -0.347 N 
ATOM     30  C   UNL     1       9.174  48.181  54.973  1.00  0.00     0.146 C 
ATOM     31  C   UNL     1      10.330  46.804  53.268  1.00  0.00     0.146 C 
ENDBRANCH  15  29
ENDBRANCH   1  11
TORSDOF 6
ENDMDL
MODEL 18
REMARK VINA RESULT:    -8.973      3.643      6.646
REMARK INTER + INTRA:         -12.728
REMARK INTER:                 -12.046
REMARK INTRA:                  -0.682
REMARK UNBOUND:                -0.608
REMARK SMILES Cc1ccc(CNc2nc(Nc3ccc4c(c3)OCCO4)nc(N(C)C)n2)cc1
REMARK SMILES IDX 7 1 6 3 5 4 2 5 3 6 29 7 4 8 28 9 1 10 8 11 9 12 27 13 10 14
REMARK SMILES IDX 23 15 22 16 11 17 12 19 13 20 17 21 14 22 16 23 15 24 18 25
REMARK SMILES IDX 21 26 19 27 20 28 24 29 25 30 26 31
REMARK H PARENT 7 2 11 18
ROOT
ATOM      1  N   UNL     1       6.018  46.006  50.847  1.00  0.00    -0.350 N 
ATOM      2  H   UNL     1       5.597  46.441  50.035  1.00  0.00     0.164 HD
ENDROOT
BRANCH   1   3
ATOM      3  C   UNL     1       7.420  45.671  50.705  1.00  0.00     0.152 C 
BRANCH   3   4
ATOM      4  C   UNL     1       8.173  46.170  51.917  1.00  0.00    -0.029 A 
ATOM      5  C   UNL     1       9.592  47.083  54.176  1.00  0.00    -0.051 A 
ATOM      6  C   UNL     1      10.275  46.699  53.016  1.00  0.00     0.004 A 
ATOM      7  C   UNL     1       8.196  46.981  54.207  1.00  0.00     0.004 A 
ATOM      8  C   UNL     1       9.572  46.250  51.896  1.00  0.00     0.006 A 
ATOM      9  C   UNL     1       7.492  46.532  53.087  1.00  0.00     0.006 A 
ATOM     10  C   UNL     1      10.349  47.532  55.389  1.00  0.00     0.044 C 
ENDBRANCH   3   4
ENDBRANCH   1   3
BRANCH   1  11
ATOM     11  C   UNL     1       5.206  44.946  51.227  1.00  0.00     0.229 A 
ATOM     12  N   UNL     1       5.430  43.804  50.600  1.00  0.00    -0.177 NA
ATOM     13  N   UNL     1       4.288  45.114  52.165  1.00  0.00    -0.177 NA
ATOM     14  C   UNL     1       4.642  42.793  50.944  1.00  0.00     0.233 A 
ATOM     15  C   UNL     1       3.543  44.057  52.470  1.00  0.00     0.231 A 
ATOM     16  N   UNL     1       3.701  42.880  51.874  1.00  0.00    -0.176 NA
BRANCH  14  17
ATOM     17  N   UNL     1       4.900  41.601  50.268  1.00  0.00    -0.324 N 
ATOM     18  H   UNL     1       5.633  41.101  50.752  1.00  0.00     0.170 HD
BRANCH  17  19
ATOM     19  C   UNL     1       4.494  41.073  49.037  1.00  0.00     0.045 A 
ATOM     20  C   UNL     1       3.533  40.065  48.899  1.00  0.00     0.030 A 
ATOM     21  C   UNL     1       5.131  41.533  47.870  1.00  0.00     0.076 A 
ATOM     22  C   UNL     1       3.188  39.555  47.641  1.00  0.00     0.052 A 
ATOM     23  C   UNL     1       4.801  41.017  46.616  1.00  0.00     0.163 A 
ATOM     24  C   UNL     1       3.811  40.042  46.498  1.00  0.00     0.161 A 
ATOM     25  O   UNL     1       5.490  41.522  45.541  1.00  0.00    -0.486 OA
ATOM     26  O   UNL     1       3.411  39.513  45.299  1.00  0.00    -0.486 OA
ATOM     27  C   UNL     1       5.321  40.699  44.382  1.00  0.00     0.271 C 
ATOM     28  C   UNL     1       3.862  40.316  44.201  1.00  0.00     0.271 C 
ENDBRANCH  17  19
ENDBRANCH  14  17
BRANCH  15  29
ATOM     29  N   UNL     1       2.547  44.192  53.442  1.00  0.00    -0.347 N 
ATOM     30  C   UNL     1       1.224  44.503  52.924  1.00  0.00     0.146 C 
ATOM     31  C   UNL     1       2.963  44.895  54.645  1.00  0.00     0.146 C 
ENDBRANCH  15  29
ENDBRANCH   1  11
TORSDOF 6
ENDMDL
MODEL 19
REMARK VINA RESULT:    -8.919      3.318      6.537
REMARK INTER + INTRA:         -12.656
REMARK INTER:                 -11.657
REMARK INTRA:                  -0.999
REMARK UNBOUND:                -0.608
REMARK SMILES Cc1ccc(CNc2nc(Nc3ccc4c(c3)OCCO4)nc(N(C)C)n2)cc1
REMARK SMILES IDX 7 1 6 3 5 4 2 5 3 6 29 7 4 8 28 9 1 10 8 11 9 12 27 13 10 14
REMARK SMILES IDX 23 15 22 16 11 17 12 19 13 20 17 21 14 22 16 23 15 24 18 25
REMARK SMILES IDX 21 26 19 27 20 28 24 29 25 30 26 31
REMARK H PARENT 7 2 11 18
ROOT
ATOM      1  N   UNL     1       4.528  45.294  54.037  1.00  0.00    -0.350 N 
ATOM      2  H   UNL     1       4.157  45.510  54.953  1.00  0.00     0.164 HD
ENDROOT
BRANCH   1   3
ATOM      3  C   UNL     1       4.816  46.444  53.206  1.00  0.00     0.152 C 
BRANCH   3   4
ATOM      4  C   UNL     1       6.283  46.436  52.843  1.00  0.00    -0.029 A 
ATOM      5  C   UNL     1       9.018  46.400  52.156  1.00  0.00    -0.051 A 
ATOM      6  C   UNL     1       8.045  46.041  51.216  1.00  0.00     0.004 A 
ATOM      7  C   UNL     1       8.615  46.750  53.449  1.00  0.00     0.004 A 
ATOM      8  C   UNL     1       6.690  46.063  51.555  1.00  0.00     0.006 A 
ATOM      9  C   UNL     1       7.260  46.771  53.790  1.00  0.00     0.006 A 
ATOM     10  C   UNL     1      10.473  46.344  51.801  1.00  0.00     0.044 C 
ENDBRANCH   3   4
ENDBRANCH   1   3
BRANCH   1  11
ATOM     11  C   UNL     1       3.690  44.354  53.452  1.00  0.00     0.229 A 
ATOM     12  N   UNL     1       4.292  43.429  52.725  1.00  0.00    -0.177 NA
ATOM     13  N   UNL     1       2.382  44.416  53.645  1.00  0.00    -0.177 NA
ATOM     14  C   UNL     1       3.494  42.540  52.146  1.00  0.00     0.233 A 
ATOM     15  C   UNL     1       1.644  43.488  53.048  1.00  0.00     0.231 A 
ATOM     16  N   UNL     1       2.176  42.534  52.291  1.00  0.00    -0.176 NA
BRANCH  14  17
ATOM     17  N   UNL     1       4.154  41.575  51.387  1.00  0.00    -0.324 N 
ATOM     18  H   UNL     1       4.584  40.905  52.009  1.00  0.00     0.170 HD
BRANCH  17  19
ATOM     19  C   UNL     1       4.467  41.453  50.027  1.00  0.00     0.045 A 
ATOM     20  C   UNL     1       5.610  42.004  49.437  1.00  0.00     0.030 A 
ATOM     21  C   UNL     1       3.552  40.793  49.188  1.00  0.00     0.076 A 
ATOM     22  C   UNL     1       5.856  41.875  48.065  1.00  0.00     0.052 A 
ATOM     23  C   UNL     1       3.785  40.674  47.817  1.00  0.00     0.163 A 
ATOM     24  C   UNL     1       4.951  41.196  47.257  1.00  0.00     0.161 A 
ATOM     25  O   UNL     1       2.824  40.024  47.083  1.00  0.00    -0.486 OA
ATOM     26  O   UNL     1       5.263  41.088  45.928  1.00  0.00    -0.486 OA
ATOM     27  C   UNL     1       2.995  40.258  45.680  1.00  0.00     0.271 C 
ATOM     28  C   UNL     1       4.453  40.099  45.282  1.00  0.00     0.271 C 
ENDBRANCH  17  19
ENDBRANCH  14  17
BRANCH  15  29
ATOM     29  N   UNL     1       0.255  43.526  53.208  1.00  0.00    -0.347 N 
ATOM     30  C   UNL     1      -0.200  44.070  54.477  1.00  0.00     0.146 C 
ATOM     31  C   UNL     1      -0.447  42.356  52.705  1.00  0.00     0.146 C 
ENDBRANCH  15  29
ENDBRANCH   1  11
TORSDOF 6
ENDMDL
MODEL 20
REMARK VINA RESULT:    -8.889      3.413      7.972
REMARK INTER + INTRA:         -12.615
REMARK INTER:                 -11.772
REMARK INTRA:                  -0.844
REMARK UNBOUND:                -0.608
REMARK SMILES Cc1ccc(CNc2nc(Nc3ccc4c(c3)OCCO4)nc(N(C)C)n2)cc1
REMARK SMILES IDX 7 1 6 3 5 4 2 5 3 6 29 7 4 8 28 9 1 10 8 11 9 12 27 13 10 14
REMARK SMILES IDX 23 15 22 16 11 17 12 19 13 20 17 21 14 22 16 23 15 24 18 25
REMARK SMILES IDX 21 26 19 27 20 28 24 29 25 30 26 31
REMARK H PARENT 7 2 11 18
ROOT
ATOM      1  N   UNL     1       3.526  41.226  50.815  1.00  0.00    -0.350 N 
ATOM      2  H   UNL     1       3.372  40.692  51.661  1.00  0.00     0.164 HD
ENDROOT
BRANCH   1   3
ATOM      3  C   UNL     1       4.883  41.194  50.310  1.00  0.00     0.152 C 
BRANCH   3   4
ATOM      4  C   UNL     1       4.847  41.190  48.799  1.00  0.00    -0.029 A 
ATOM      5  C   UNL     1       4.783  41.207  45.980  1.00  0.00    -0.051 A 
ATOM      6  C   UNL     1       5.769  41.920  46.672  1.00  0.00     0.004 A 
ATOM      7  C   UNL     1       3.814  40.508  46.709  1.00  0.00     0.004 A 
ATOM      8  C   UNL     1       5.803  41.909  48.068  1.00  0.00     0.006 A 
ATOM      9  C   UNL     1       3.847  40.497  48.105  1.00  0.00     0.006 A 
ATOM     10  C   UNL     1       4.727  41.247  44.482  1.00  0.00     0.044 C 
ENDBRANCH   3   4
ENDBRANCH   1   3
BRANCH   1  11
ATOM     11  C   UNL     1       3.016  42.500  51.022  1.00  0.00     0.229 A 
ATOM     12  N   UNL     1       3.911  43.473  51.059  1.00  0.00    -0.177 NA
ATOM     13  N   UNL     1       1.712  42.682  51.159  1.00  0.00    -0.177 NA
ATOM     14  C   UNL     1       3.430  44.691  51.277  1.00  0.00     0.233 A 
ATOM     15  C   UNL     1       1.299  43.928  51.362  1.00  0.00     0.231 A 
ATOM     16  N   UNL     1       2.139  44.955  51.424  1.00  0.00    -0.176 NA
BRANCH  14  17
ATOM     17  N   UNL     1       4.395  45.697  51.310  1.00  0.00    -0.324 N 
ATOM     18  H   UNL     1       4.415  46.162  50.413  1.00  0.00     0.170 HD
BRANCH  17  19
ATOM     19  C   UNL     1       5.396  46.056  52.220  1.00  0.00     0.045 A 
ATOM     20  C   UNL     1       5.143  46.491  53.527  1.00  0.00     0.030 A 
ATOM     21  C   UNL     1       6.732  46.042  51.784  1.00  0.00     0.076 A 
ATOM     22  C   UNL     1       6.184  46.865  54.384  1.00  0.00     0.052 A 
ATOM     23  C   UNL     1       7.773  46.429  52.630  1.00  0.00     0.163 A 
ATOM     24  C   UNL     1       7.501  46.819  53.941  1.00  0.00     0.161 A 
ATOM     25  O   UNL     1       9.041  46.394  52.104  1.00  0.00    -0.486 OA
ATOM     26  O   UNL     1       8.472  47.179  54.839  1.00  0.00    -0.486 OA
ATOM     27  C   UNL     1       9.964  47.119  52.924  1.00  0.00     0.271 C 
ATOM     28  C   UNL     1       9.770  46.771  54.391  1.00  0.00     0.271 C 
ENDBRANCH  17  19
ENDBRANCH  14  17
BRANCH  15  29
ATOM     29  N   UNL     1      -0.069  44.164  51.532  1.00  0.00    -0.347 N 
ATOM     30  C   UNL     1      -0.393  45.342  52.321  1.00  0.00     0.146 C 
ATOM     31  C   UNL     1      -0.867  42.972  51.772  1.00  0.00     0.146 C 
ENDBRANCH  15  29
ENDBRANCH   1  11
TORSDOF 6
ENDMDL
