MODEL 1
REMARK VINA RESULT:    -9.153      0.000      0.000
REMARK INTER + INTRA:         -13.941
REMARK INTER:                 -12.898
REMARK INTRA:                  -1.043
REMARK UNBOUND:                -1.043
REMARK SMILES COc1ccc(Nc2nc(NCc3ccccc3)c3nccnc3n2)c(OC)c1
REMARK SMILES IDX 8 1 9 2 10 3 19 4 20 5 21 6 22 7 23 8 24 9 25 10 7 11 6 13
REMARK SMILES IDX 3 14 4 15 29 16 5 17 26 18 2 19 1 20 27 21 28 22 11 23 12 25
REMARK SMILES IDX 13 26 14 27 18 28 15 29 17 30 16 31
REMARK H PARENT 7 12 11 24
ROOT
ATOM      1  C   UNL     1       5.626  46.913  54.104  1.00  0.00     0.231 A 
ATOM      2  N   UNL     1       5.829  46.296  52.935  1.00  0.00    -0.193 NA
ATOM      3  C   UNL     1       7.097  46.144  52.508  1.00  0.00     0.160 A 
ATOM      4  C   UNL     1       8.198  46.590  53.236  1.00  0.00     0.150 A 
ATOM      5  N   UNL     1       9.493  46.455  52.806  1.00  0.00    -0.247 NA
ATOM      6  C   UNL     1      10.442  46.944  53.623  1.00  0.00     0.132 A 
ATOM      7  C   UNL     1      10.119  47.554  54.813  1.00  0.00     0.133 A 
ATOM      8  N   UNL     1       8.840  47.699  55.226  1.00  0.00    -0.233 NA
ATOM      9  C   UNL     1       7.866  47.219  54.442  1.00  0.00     0.185 A 
ATOM     10  N   UNL     1       6.618  47.378  54.861  1.00  0.00    -0.191 NA
ENDROOT
BRANCH   1  11
ATOM     11  N   UNL     1       4.298  47.040  54.480  1.00  0.00    -0.321 N 
ATOM     12  H   UNL     1       4.109  47.959  54.860  1.00  0.00     0.170 HD
BRANCH  11  13
ATOM     13  C   UNL     1       3.167  46.209  54.419  1.00  0.00     0.084 A 
ATOM     14  C   UNL     1       0.858  44.596  54.192  1.00  0.00     0.122 A 
ATOM     15  C   UNL     1       1.690  44.481  55.301  1.00  0.00     0.049 A 
ATOM     16  C   UNL     1       1.174  45.519  53.190  1.00  0.00     0.095 A 
ATOM     17  C   UNL     1       2.833  45.282  55.411  1.00  0.00     0.034 A 
ATOM     18  C   UNL     1       2.315  46.321  53.295  1.00  0.00     0.146 A 
BRANCH  14  19
ATOM     19  O   UNL     1      -0.284  43.877  53.965  1.00  0.00    -0.497 OA
ATOM     20  C   UNL     1      -0.120  42.521  53.570  1.00  0.00     0.278 C 
ENDBRANCH  14  19
BRANCH  18  21
ATOM     21  O   UNL     1       2.706  47.256  52.361  1.00  0.00    -0.494 OA
ATOM     22  C   UNL     1       3.090  46.770  51.082  1.00  0.00     0.278 C 
ENDBRANCH  18  21
ENDBRANCH  11  13
ENDBRANCH   1  11
BRANCH   3  23
ATOM     23  N   UNL     1       7.331  45.424  51.312  1.00  0.00    -0.364 N 
ATOM     24  H   UNL     1       8.159  45.803  50.853  1.00  0.00     0.162 HD
BRANCH  23  25
ATOM     25  C   UNL     1       6.185  45.310  50.424  1.00  0.00     0.150 C 
BRANCH  25  26
ATOM     26  C   UNL     1       5.710  43.876  50.412  1.00  0.00    -0.029 A 
ATOM     27  C   UNL     1       4.587  43.496  51.163  1.00  0.00     0.005 A 
ATOM     28  C   UNL     1       6.388  42.901  49.666  1.00  0.00     0.005 A 
ATOM     29  C   UNL     1       4.146  42.171  51.160  1.00  0.00     0.000 A 
ATOM     30  C   UNL     1       5.945  41.576  49.664  1.00  0.00     0.000 A 
ATOM     31  C   UNL     1       4.824  41.213  50.409  1.00  0.00     0.000 A 
ENDBRANCH  25  26
ENDBRANCH  23  25
ENDBRANCH   3  23
TORSDOF 7
ENDMDL
MODEL 2
REMARK VINA RESULT:    -9.130      2.244      5.282
REMARK INTER + INTRA:         -13.909
REMARK INTER:                 -12.983
REMARK INTRA:                  -0.927
REMARK UNBOUND:                -1.043
REMARK SMILES COc1ccc(Nc2nc(NCc3ccccc3)c3nccnc3n2)c(OC)c1
REMARK SMILES IDX 8 1 9 2 10 3 19 4 20 5 21 6 22 7 23 8 24 9 25 10 7 11 6 13
REMARK SMILES IDX 3 14 4 15 29 16 5 17 26 18 2 19 1 20 27 21 28 22 11 23 12 25
REMARK SMILES IDX 13 26 14 27 18 28 15 29 17 30 16 31
REMARK H PARENT 7 12 11 24
ROOT
ATOM      1  C   UNL     1       3.570  43.755  52.844  1.00  0.00     0.231 A 
ATOM      2  N   UNL     1       4.201  44.914  52.633  1.00  0.00    -0.193 NA
ATOM      3  C   UNL     1       5.135  44.963  51.664  1.00  0.00     0.160 A 
ATOM      4  C   UNL     1       5.460  43.864  50.872  1.00  0.00     0.150 A 
ATOM      5  N   UNL     1       6.419  43.896  49.892  1.00  0.00    -0.247 NA
ATOM      6  C   UNL     1       6.616  42.748  49.220  1.00  0.00     0.132 A 
ATOM      7  C   UNL     1       5.900  41.612  49.516  1.00  0.00     0.133 A 
ATOM      8  N   UNL     1       4.966  41.581  50.493  1.00  0.00    -0.233 NA
ATOM      9  C   UNL     1       4.736  42.707  51.181  1.00  0.00     0.185 A 
ATOM     10  N   UNL     1       3.821  42.654  52.140  1.00  0.00    -0.191 NA
ENDROOT
BRANCH   1  11
ATOM     11  N   UNL     1       2.626  43.774  53.859  1.00  0.00    -0.321 N 
ATOM     12  H   UNL     1       3.061  43.886  54.766  1.00  0.00     0.170 HD
BRANCH  11  13
ATOM     13  C   UNL     1       1.223  43.713  53.908  1.00  0.00     0.084 A 
ATOM     14  C   UNL     1      -1.595  43.654  54.113  1.00  0.00     0.122 A 
ATOM     15  C   UNL     1      -0.949  42.970  53.087  1.00  0.00     0.049 A 
ATOM     16  C   UNL     1      -0.836  44.371  55.043  1.00  0.00     0.095 A 
ATOM     17  C   UNL     1       0.447  43.001  52.989  1.00  0.00     0.034 A 
ATOM     18  C   UNL     1       0.560  44.405  54.948  1.00  0.00     0.146 A 
BRANCH  14  19
ATOM     19  O   UNL     1      -2.946  43.703  54.320  1.00  0.00    -0.497 OA
ATOM     20  C   UNL     1      -3.384  43.964  55.648  1.00  0.00     0.278 C 
ENDBRANCH  14  19
BRANCH  18  21
ATOM     21  O   UNL     1       1.389  45.082  55.817  1.00  0.00    -0.494 OA
ATOM     22  C   UNL     1       0.811  45.552  57.027  1.00  0.00     0.278 C 
ENDBRANCH  18  21
ENDBRANCH  11  13
ENDBRANCH   1  11
BRANCH   3  23
ATOM     23  N   UNL     1       5.755  46.204  51.377  1.00  0.00    -0.364 N 
ATOM     24  H   UNL     1       6.576  46.038  50.796  1.00  0.00     0.162 HD
BRANCH  23  25
ATOM     25  C   UNL     1       6.032  47.038  52.535  1.00  0.00     0.150 C 
BRANCH  25  26
ATOM     26  C   UNL     1       7.516  47.013  52.818  1.00  0.00    -0.029 A 
ATOM     27  C   UNL     1       8.428  46.744  51.786  1.00  0.00     0.005 A 
ATOM     28  C   UNL     1       8.005  47.243  54.112  1.00  0.00     0.005 A 
ATOM     29  C   UNL     1       9.801  46.714  52.042  1.00  0.00     0.000 A 
ATOM     30  C   UNL     1       9.378  47.214  54.365  1.00  0.00     0.000 A 
ATOM     31  C   UNL     1      10.275  46.951  53.331  1.00  0.00     0.000 A 
ENDBRANCH  25  26
ENDBRANCH  23  25
ENDBRANCH   3  23
TORSDOF 7
ENDMDL
MODEL 3
REMARK VINA RESULT:    -9.079      2.310      5.273
REMARK INTER + INTRA:         -13.838
REMARK INTER:                 -13.076
REMARK INTRA:                  -0.762
REMARK UNBOUND:                -1.043
REMARK SMILES COc1ccc(Nc2nc(NCc3ccccc3)c3nccnc3n2)c(OC)c1
REMARK SMILES IDX 8 1 9 2 10 3 19 4 20 5 21 6 22 7 23 8 24 9 25 10 7 11 6 13
REMARK SMILES IDX 3 14 4 15 29 16 5 17 26 18 2 19 1 20 27 21 28 22 11 23 12 25
REMARK SMILES IDX 13 26 14 27 18 28 15 29 17 30 16 31
REMARK H PARENT 7 12 11 24
ROOT
ATOM      1  C   UNL     1       3.059  43.474  52.573  1.00  0.00     0.231 A 
ATOM      2  N   UNL     1       3.620  44.683  52.468  1.00  0.00    -0.193 NA
ATOM      3  C   UNL     1       4.692  44.818  51.665  1.00  0.00     0.160 A 
ATOM      4  C   UNL     1       5.231  43.759  50.938  1.00  0.00     0.150 A 
ATOM      5  N   UNL     1       6.332  43.879  50.129  1.00  0.00    -0.247 NA
ATOM      6  C   UNL     1       6.729  42.760  49.500  1.00  0.00     0.132 A 
ATOM      7  C   UNL     1       6.069  41.566  49.675  1.00  0.00     0.133 A 
ATOM      8  N   UNL     1       4.993  41.448  50.486  1.00  0.00    -0.233 NA
ATOM      9  C   UNL     1       4.563  42.543  51.126  1.00  0.00     0.185 A 
ATOM     10  N   UNL     1       3.511  42.405  51.921  1.00  0.00    -0.191 NA
ENDROOT
BRANCH   1  11
ATOM     11  N   UNL     1       1.963  43.405  53.419  1.00  0.00    -0.321 N 
ATOM     12  H   UNL     1       1.384  42.602  53.208  1.00  0.00     0.170 HD
BRANCH  11  13
ATOM     13  C   UNL     1       1.503  44.164  54.509  1.00  0.00     0.084 A 
ATOM     14  C   UNL     1       0.463  45.661  56.668  1.00  0.00     0.122 A 
ATOM     15  C   UNL     1       1.830  45.661  56.405  1.00  0.00     0.049 A 
ATOM     16  C   UNL     1      -0.392  44.912  55.853  1.00  0.00     0.095 A 
ATOM     17  C   UNL     1       2.342  44.919  55.333  1.00  0.00     0.034 A 
ATOM     18  C   UNL     1       0.116  44.168  54.782  1.00  0.00     0.146 A 
BRANCH  14  19
ATOM     19  O   UNL     1      -0.161  46.340  57.678  1.00  0.00    -0.497 OA
ATOM     20  C   UNL     1      -1.305  47.108  57.325  1.00  0.00     0.278 C 
ENDBRANCH  14  19
BRANCH  18  21
ATOM     21  O   UNL     1      -0.648  43.403  53.927  1.00  0.00    -0.494 OA
ATOM     22  C   UNL     1      -1.920  43.920  53.559  1.00  0.00     0.278 C 
ENDBRANCH  18  21
ENDBRANCH  11  13
ENDBRANCH   1  11
BRANCH   3  23
ATOM     23  N   UNL     1       5.248  46.108  51.483  1.00  0.00    -0.364 N 
ATOM     24  H   UNL     1       6.014  46.047  50.812  1.00  0.00     0.162 HD
BRANCH  23  25
ATOM     25  C   UNL     1       5.611  46.804  52.706  1.00  0.00     0.150 C 
BRANCH  25  26
ATOM     26  C   UNL     1       7.117  46.886  52.799  1.00  0.00    -0.029 A 
ATOM     27  C   UNL     1       7.737  47.135  54.033  1.00  0.00     0.005 A 
ATOM     28  C   UNL     1       7.917  46.731  51.658  1.00  0.00     0.005 A 
ATOM     29  C   UNL     1       9.128  47.218  54.124  1.00  0.00     0.000 A 
ATOM     30  C   UNL     1       9.308  46.813  51.752  1.00  0.00     0.000 A 
ATOM     31  C   UNL     1       9.912  47.056  52.985  1.00  0.00     0.000 A 
ENDBRANCH  25  26
ENDBRANCH  23  25
ENDBRANCH   3  23
TORSDOF 7
ENDMDL
MODEL 4
REMARK VINA RESULT:    -9.055      2.384      6.905
REMARK INTER + INTRA:         -13.804
REMARK INTER:                 -12.931
REMARK INTRA:                  -0.873
REMARK UNBOUND:                -1.043
REMARK SMILES COc1ccc(Nc2nc(NCc3ccccc3)c3nccnc3n2)c(OC)c1
REMARK SMILES IDX 8 1 9 2 10 3 19 4 20 5 21 6 22 7 23 8 24 9 25 10 7 11 6 13
REMARK SMILES IDX 3 14 4 15 29 16 5 17 26 18 2 19 1 20 27 21 28 22 11 23 12 25
REMARK SMILES IDX 13 26 14 27 18 28 15 29 17 30 16 31
REMARK H PARENT 7 12 11 24
ROOT
ATOM      1  C   UNL     1       6.626  45.125  51.241  1.00  0.00     0.231 A 
ATOM      2  N   UNL     1       5.645  44.834  52.100  1.00  0.00    -0.193 NA
ATOM      3  C   UNL     1       4.906  43.731  51.872  1.00  0.00     0.160 A 
ATOM      4  C   UNL     1       5.129  42.883  50.790  1.00  0.00     0.150 A 
ATOM      5  N   UNL     1       4.375  41.765  50.537  1.00  0.00    -0.247 NA
ATOM      6  C   UNL     1       4.716  41.055  49.448  1.00  0.00     0.132 A 
ATOM      7  C   UNL     1       5.755  41.444  48.635  1.00  0.00     0.133 A 
ATOM      8  N   UNL     1       6.486  42.555  48.878  1.00  0.00    -0.233 NA
ATOM      9  C   UNL     1       6.181  43.286  49.959  1.00  0.00     0.185 A 
ATOM     10  N   UNL     1       6.905  44.375  50.176  1.00  0.00    -0.191 NA
ENDROOT
BRANCH   1  11
ATOM     11  N   UNL     1       7.343  46.275  51.533  1.00  0.00    -0.321 N 
ATOM     12  H   UNL     1       7.242  46.968  50.801  1.00  0.00     0.170 HD
BRANCH  11  13
ATOM     13  C   UNL     1       8.132  46.703  52.613  1.00  0.00     0.084 A 
ATOM     14  C   UNL     1       9.620  47.625  54.832  1.00  0.00     0.122 A 
ATOM     15  C   UNL     1      10.241  46.898  53.820  1.00  0.00     0.049 A 
ATOM     16  C   UNL     1       8.252  47.896  54.740  1.00  0.00     0.095 A 
ATOM     17  C   UNL     1       9.501  46.444  52.722  1.00  0.00     0.034 A 
ATOM     18  C   UNL     1       7.508  47.443  53.645  1.00  0.00     0.146 A 
BRANCH  14  19
ATOM     19  O   UNL     1      10.227  48.125  55.952  1.00  0.00    -0.497 OA
ATOM     20  C   UNL     1      11.310  47.373  56.485  1.00  0.00     0.278 C 
ENDBRANCH  14  19
BRANCH  18  21
ATOM     21  O   UNL     1       6.158  47.662  53.468  1.00  0.00    -0.494 OA
ATOM     22  C   UNL     1       5.309  47.387  54.574  1.00  0.00     0.278 C 
ENDBRANCH  18  21
ENDBRANCH  11  13
ENDBRANCH   1  11
BRANCH   3  23
ATOM     23  N   UNL     1       3.915  43.367  52.817  1.00  0.00    -0.364 N 
ATOM     24  H   UNL     1       3.256  42.727  52.375  1.00  0.00     0.162 HD
BRANCH  23  25
ATOM     25  C   UNL     1       3.270  44.479  53.495  1.00  0.00     0.150 C 
BRANCH  25  26
ATOM     26  C   UNL     1       1.835  44.112  53.790  1.00  0.00    -0.029 A 
ATOM     27  C   UNL     1       1.051  44.929  54.618  1.00  0.00     0.005 A 
ATOM     28  C   UNL     1       1.266  42.946  53.254  1.00  0.00     0.005 A 
ATOM     29  C   UNL     1      -0.275  44.592  54.899  1.00  0.00     0.000 A 
ATOM     30  C   UNL     1      -0.060  42.612  53.535  1.00  0.00     0.000 A 
ATOM     31  C   UNL     1      -0.830  43.435  54.356  1.00  0.00     0.000 A 
ENDBRANCH  25  26
ENDBRANCH  23  25
ENDBRANCH   3  23
TORSDOF 7
ENDMDL
MODEL 5
REMARK VINA RESULT:    -8.960      2.910      6.558
REMARK INTER + INTRA:         -13.670
REMARK INTER:                 -12.596
REMARK INTRA:                  -1.074
REMARK UNBOUND:                -1.043
REMARK SMILES COc1ccc(Nc2nc(NCc3ccccc3)c3nccnc3n2)c(OC)c1
REMARK SMILES IDX 8 1 9 2 10 3 19 4 20 5 21 6 22 7 23 8 24 9 25 10 7 11 6 13
REMARK SMILES IDX 3 14 4 15 29 16 5 17 26 18 2 19 1 20 27 21 28 22 11 23 12 25
REMARK SMILES IDX 13 26 14 27 18 28 15 29 17 30 16 31
REMARK H PARENT 7 12 11 24
ROOT
ATOM      1  C   UNL     1       5.457  45.449  51.179  1.00  0.00     0.231 A 
ATOM      2  N   UNL     1       5.820  44.176  50.994  1.00  0.00    -0.193 NA
ATOM      3  C   UNL     1       4.853  43.240  50.943  1.00  0.00     0.160 A 
ATOM      4  C   UNL     1       3.499  43.545  51.063  1.00  0.00     0.150 A 
ATOM      5  N   UNL     1       2.505  42.600  51.028  1.00  0.00    -0.247 NA
ATOM      6  C   UNL     1       1.249  43.058  51.163  1.00  0.00     0.132 A 
ATOM      7  C   UNL     1       0.988  44.397  51.339  1.00  0.00     0.133 A 
ATOM      8  N   UNL     1       1.971  45.323  51.390  1.00  0.00    -0.233 NA
ATOM      9  C   UNL     1       3.237  44.907  51.252  1.00  0.00     0.185 A 
ATOM     10  N   UNL     1       4.187  45.830  51.311  1.00  0.00    -0.191 NA
ENDROOT
BRANCH   1  11
ATOM     11  N   UNL     1       6.501  46.359  51.227  1.00  0.00    -0.321 N 
ATOM     12  H   UNL     1       6.409  47.065  50.508  1.00  0.00     0.170 HD
BRANCH  11  13
ATOM     13  C   UNL     1       7.619  46.540  52.059  1.00  0.00     0.084 A 
ATOM     14  C   UNL     1       9.794  46.967  53.812  1.00  0.00     0.122 A 
ATOM     15  C   UNL     1       9.995  46.360  52.576  1.00  0.00     0.049 A 
ATOM     16  C   UNL     1       8.505  47.364  54.179  1.00  0.00     0.095 A 
ATOM     17  C   UNL     1       8.915  46.151  51.709  1.00  0.00     0.034 A 
ATOM     18  C   UNL     1       7.423  47.157  53.317  1.00  0.00     0.146 A 
BRANCH  14  19
ATOM     19  O   UNL     1      10.759  47.227  54.746  1.00  0.00    -0.497 OA
ATOM     20  C   UNL     1      10.339  47.870  55.942  1.00  0.00     0.278 C 
ENDBRANCH  14  19
BRANCH  18  21
ATOM     21  O   UNL     1       6.120  47.516  53.591  1.00  0.00    -0.494 OA
ATOM     22  C   UNL     1       5.470  46.824  54.649  1.00  0.00     0.278 C 
ENDBRANCH  18  21
ENDBRANCH  11  13
ENDBRANCH   1  11
BRANCH   3  23
ATOM     23  N   UNL     1       5.217  41.899  50.670  1.00  0.00    -0.364 N 
ATOM     24  H   UNL     1       5.512  41.452  51.537  1.00  0.00     0.162 HD
BRANCH  23  25
ATOM     25  C   UNL     1       6.166  41.725  49.583  1.00  0.00     0.150 C 
BRANCH  25  26
ATOM     26  C   UNL     1       5.410  41.415  48.312  1.00  0.00    -0.029 A 
ATOM     27  C   UNL     1       4.246  40.633  48.354  1.00  0.00     0.005 A 
ATOM     28  C   UNL     1       5.862  41.890  47.072  1.00  0.00     0.005 A 
ATOM     29  C   UNL     1       3.546  40.338  47.183  1.00  0.00     0.000 A 
ATOM     30  C   UNL     1       5.159  41.595  45.902  1.00  0.00     0.000 A 
ATOM     31  C   UNL     1       4.002  40.821  45.958  1.00  0.00     0.000 A 
ENDBRANCH  25  26
ENDBRANCH  23  25
ENDBRANCH   3  23
TORSDOF 7
ENDMDL
MODEL 6
REMARK VINA RESULT:    -8.843      0.948      1.595
REMARK INTER + INTRA:         -13.505
REMARK INTER:                 -12.728
REMARK INTRA:                  -0.777
REMARK UNBOUND:                -1.043
REMARK SMILES COc1ccc(Nc2nc(NCc3ccccc3)c3nccnc3n2)c(OC)c1
REMARK SMILES IDX 8 1 9 2 10 3 19 4 20 5 21 6 22 7 23 8 24 9 25 10 7 11 6 13
REMARK SMILES IDX 3 14 4 15 29 16 5 17 26 18 2 19 1 20 27 21 28 22 11 23 12 25
REMARK SMILES IDX 13 26 14 27 18 28 15 29 17 30 16 31
REMARK H PARENT 7 12 11 24
ROOT
ATOM      1  C   UNL     1       5.463  47.139  53.305  1.00  0.00     0.231 A 
ATOM      2  N   UNL     1       5.838  46.492  52.197  1.00  0.00    -0.193 NA
ATOM      3  C   UNL     1       7.151  46.266  52.006  1.00  0.00     0.160 A 
ATOM      4  C   UNL     1       8.127  46.669  52.915  1.00  0.00     0.150 A 
ATOM      5  N   UNL     1       9.469  46.459  52.726  1.00  0.00    -0.247 NA
ATOM      6  C   UNL     1      10.281  46.913  53.697  1.00  0.00     0.132 A 
ATOM      7  C   UNL     1       9.784  47.560  54.803  1.00  0.00     0.133 A 
ATOM      8  N   UNL     1       8.462  47.778  54.979  1.00  0.00    -0.233 NA
ATOM      9  C   UNL     1       7.619  47.335  54.037  1.00  0.00     0.185 A 
ATOM     10  N   UNL     1       6.327  47.565  54.224  1.00  0.00    -0.191 NA
ENDROOT
BRANCH   1  11
ATOM     11  N   UNL     1       4.098  47.342  53.436  1.00  0.00    -0.321 N 
ATOM     12  H   UNL     1       3.880  48.323  53.553  1.00  0.00     0.170 HD
BRANCH  11  13
ATOM     13  C   UNL     1       2.965  46.510  53.404  1.00  0.00     0.084 A 
ATOM     14  C   UNL     1       0.721  44.794  53.452  1.00  0.00     0.122 A 
ATOM     15  C   UNL     1       0.999  45.558  52.322  1.00  0.00     0.049 A 
ATOM     16  C   UNL     1       1.564  44.882  54.563  1.00  0.00     0.095 A 
ATOM     17  C   UNL     1       2.112  46.407  52.302  1.00  0.00     0.034 A 
ATOM     18  C   UNL     1       2.677  45.729  54.548  1.00  0.00     0.146 A 
BRANCH  14  19
ATOM     19  O   UNL     1      -0.329  43.929  53.599  1.00  0.00    -0.497 OA
ATOM     20  C   UNL     1      -0.034  42.541  53.519  1.00  0.00     0.278 C 
ENDBRANCH  14  19
BRANCH  18  21
ATOM     21  O   UNL     1       3.563  45.882  55.594  1.00  0.00    -0.494 OA
ATOM     22  C   UNL     1       4.617  44.934  55.690  1.00  0.00     0.278 C 
ENDBRANCH  18  21
ENDBRANCH  11  13
ENDBRANCH   1  11
BRANCH   3  23
ATOM     23  N   UNL     1       7.556  45.514  50.877  1.00  0.00    -0.364 N 
ATOM     24  H   UNL     1       8.381  45.950  50.466  1.00  0.00     0.162 HD
BRANCH  23  25
ATOM     25  C   UNL     1       6.508  45.242  49.907  1.00  0.00     0.150 C 
BRANCH  25  26
ATOM     26  C   UNL     1       5.998  43.834  50.114  1.00  0.00    -0.029 A 
ATOM     27  C   UNL     1       4.830  43.608  50.858  1.00  0.00     0.005 A 
ATOM     28  C   UNL     1       6.686  42.735  49.580  1.00  0.00     0.005 A 
ATOM     29  C   UNL     1       4.357  42.309  51.057  1.00  0.00     0.000 A 
ATOM     30  C   UNL     1       6.209  41.437  49.780  1.00  0.00     0.000 A 
ATOM     31  C   UNL     1       5.045  41.225  50.517  1.00  0.00     0.000 A 
ENDBRANCH  25  26
ENDBRANCH  23  25
ENDBRANCH   3  23
TORSDOF 7
ENDMDL
MODEL 7
REMARK VINA RESULT:    -8.808      3.230      7.092
REMARK INTER + INTRA:         -13.456
REMARK INTER:                 -12.487
REMARK INTRA:                  -0.969
REMARK UNBOUND:                -1.043
REMARK SMILES COc1ccc(Nc2nc(NCc3ccccc3)c3nccnc3n2)c(OC)c1
REMARK SMILES IDX 8 1 9 2 10 3 19 4 20 5 21 6 22 7 23 8 24 9 25 10 7 11 6 13
REMARK SMILES IDX 3 14 4 15 29 16 5 17 26 18 2 19 1 20 27 21 28 22 11 23 12 25
REMARK SMILES IDX 13 26 14 27 18 28 15 29 17 30 16 31
REMARK H PARENT 7 12 11 24
ROOT
ATOM      1  C   UNL     1       3.945  42.558  51.921  1.00  0.00     0.231 A 
ATOM      2  N   UNL     1       4.735  43.618  52.116  1.00  0.00    -0.193 NA
ATOM      3  C   UNL     1       4.272  44.624  52.882  1.00  0.00     0.160 A 
ATOM      4  C   UNL     1       3.015  44.600  53.483  1.00  0.00     0.150 A 
ATOM      5  N   UNL     1       2.525  45.623  54.253  1.00  0.00    -0.247 NA
ATOM      6  C   UNL     1       1.292  45.446  54.757  1.00  0.00     0.132 A 
ATOM      7  C   UNL     1       0.568  44.306  54.498  1.00  0.00     0.133 A 
ATOM      8  N   UNL     1       1.048  43.306  53.726  1.00  0.00    -0.233 NA
ATOM      9  C   UNL     1       2.277  43.442  53.210  1.00  0.00     0.185 A 
ATOM     10  N   UNL     1       2.728  42.453  52.450  1.00  0.00    -0.191 NA
ENDROOT
BRANCH   1  11
ATOM     11  N   UNL     1       4.482  41.563  51.119  1.00  0.00    -0.321 N 
ATOM     12  H   UNL     1       4.884  40.818  51.675  1.00  0.00     0.170 HD
BRANCH  11  13
ATOM     13  C   UNL     1       4.558  41.341  49.734  1.00  0.00     0.084 A 
ATOM     14  C   UNL     1       4.817  40.959  46.946  1.00  0.00     0.122 A 
ATOM     15  C   UNL     1       3.683  40.510  47.616  1.00  0.00     0.049 A 
ATOM     16  C   UNL     1       5.828  41.603  47.666  1.00  0.00     0.095 A 
ATOM     17  C   UNL     1       3.557  40.701  48.997  1.00  0.00     0.034 A 
ATOM     18  C   UNL     1       5.707  41.796  49.047  1.00  0.00     0.146 A 
BRANCH  14  19
ATOM     19  O   UNL     1       5.061  40.836  45.606  1.00  0.00    -0.497 OA
ATOM     20  C   UNL     1       5.110  42.038  44.848  1.00  0.00     0.278 C 
ENDBRANCH  14  19
BRANCH  18  21
ATOM     21  O   UNL     1       6.650  42.418  49.838  1.00  0.00    -0.494 OA
ATOM     22  C   UNL     1       7.423  43.446  49.233  1.00  0.00     0.278 C 
ENDBRANCH  18  21
ENDBRANCH  11  13
ENDBRANCH   1  11
BRANCH   3  23
ATOM     23  N   UNL     1       5.128  45.718  53.162  1.00  0.00    -0.364 N 
ATOM     24  H   UNL     1       4.589  46.451  53.621  1.00  0.00     0.162 HD
BRANCH  23  25
ATOM     25  C   UNL     1       5.906  46.198  52.032  1.00  0.00     0.150 C 
BRANCH  25  26
ATOM     26  C   UNL     1       7.304  46.528  52.500  1.00  0.00    -0.029 A 
ATOM     27  C   UNL     1       7.533  46.910  53.831  1.00  0.00     0.005 A 
ATOM     28  C   UNL     1       8.391  46.471  51.615  1.00  0.00     0.005 A 
ATOM     29  C   UNL     1       8.822  47.220  54.268  1.00  0.00     0.000 A 
ATOM     30  C   UNL     1       9.679  46.781  52.055  1.00  0.00     0.000 A 
ATOM     31  C   UNL     1       9.895  47.154  53.381  1.00  0.00     0.000 A 
ENDBRANCH  25  26
ENDBRANCH  23  25
ENDBRANCH   3  23
TORSDOF 7
ENDMDL
MODEL 8
REMARK VINA RESULT:    -8.768      2.259      5.232
REMARK INTER + INTRA:         -13.400
REMARK INTER:                 -12.552
REMARK INTRA:                  -0.848
REMARK UNBOUND:                -1.043
REMARK SMILES COc1ccc(Nc2nc(NCc3ccccc3)c3nccnc3n2)c(OC)c1
REMARK SMILES IDX 8 1 9 2 10 3 19 4 20 5 21 6 22 7 23 8 24 9 25 10 7 11 6 13
REMARK SMILES IDX 3 14 4 15 29 16 5 17 26 18 2 19 1 20 27 21 28 22 11 23 12 25
REMARK SMILES IDX 13 26 14 27 18 28 15 29 17 30 16 31
REMARK H PARENT 7 12 11 24
ROOT
ATOM      1  C   UNL     1       3.314  42.941  52.489  1.00  0.00     0.231 A 
ATOM      2  N   UNL     1       3.713  44.217  52.499  1.00  0.00    -0.193 NA
ATOM      3  C   UNL     1       4.730  44.571  51.690  1.00  0.00     0.160 A 
ATOM      4  C   UNL     1       5.372  43.670  50.843  1.00  0.00     0.150 A 
ATOM      5  N   UNL     1       6.418  44.013  50.027  1.00  0.00    -0.247 NA
ATOM      6  C   UNL     1       6.931  43.024  49.274  1.00  0.00     0.132 A 
ATOM      7  C   UNL     1       6.434  41.744  49.338  1.00  0.00     0.133 A 
ATOM      8  N   UNL     1       5.412  41.405  50.156  1.00  0.00    -0.233 NA
ATOM      9  C   UNL     1       4.870  42.365  50.917  1.00  0.00     0.185 A 
ATOM     10  N   UNL     1       3.874  42.011  51.718  1.00  0.00    -0.191 NA
ENDROOT
BRANCH   1  11
ATOM     11  N   UNL     1       2.267  42.645  53.348  1.00  0.00    -0.321 N 
ATOM     12  H   UNL     1       2.433  41.780  53.847  1.00  0.00     0.170 HD
BRANCH  11  13
ATOM     13  C   UNL     1       1.067  43.283  53.704  1.00  0.00     0.084 A 
ATOM     14  C   UNL     1      -1.284  44.627  54.510  1.00  0.00     0.122 A 
ATOM     15  C   UNL     1      -1.335  43.654  53.516  1.00  0.00     0.049 A 
ATOM     16  C   UNL     1      -0.059  44.933  55.108  1.00  0.00     0.095 A 
ATOM     17  C   UNL     1      -0.168  42.990  53.119  1.00  0.00     0.034 A 
ATOM     18  C   UNL     1       1.110  44.272  54.714  1.00  0.00     0.146 A 
BRANCH  14  19
ATOM     19  O   UNL     1      -2.347  45.345  54.987  1.00  0.00    -0.497 OA
ATOM     20  C   UNL     1      -2.692  45.152  56.352  1.00  0.00     0.278 C 
ENDBRANCH  14  19
BRANCH  18  21
ATOM     21  O   UNL     1       2.361  44.506  55.246  1.00  0.00    -0.494 OA
ATOM     22  C   UNL     1       2.681  45.850  55.578  1.00  0.00     0.278 C 
ENDBRANCH  18  21
ENDBRANCH  11  13
ENDBRANCH   1  11
BRANCH   3  23
ATOM     23  N   UNL     1       5.111  45.934  51.632  1.00  0.00    -0.364 N 
ATOM     24  H   UNL     1       5.818  46.050  50.906  1.00  0.00     0.162 HD
BRANCH  23  25
ATOM     25  C   UNL     1       5.493  46.524  52.904  1.00  0.00     0.150 C 
BRANCH  25  26
ATOM     26  C   UNL     1       6.990  46.725  52.926  1.00  0.00    -0.029 A 
ATOM     27  C   UNL     1       7.704  46.857  51.724  1.00  0.00     0.005 A 
ATOM     28  C   UNL     1       7.692  46.768  54.139  1.00  0.00     0.005 A 
ATOM     29  C   UNL     1       9.088  47.037  51.738  1.00  0.00     0.000 A 
ATOM     30  C   UNL     1       9.077  46.949  54.150  1.00  0.00     0.000 A 
ATOM     31  C   UNL     1       9.774  47.085  52.950  1.00  0.00     0.000 A 
ENDBRANCH  25  26
ENDBRANCH  23  25
ENDBRANCH   3  23
TORSDOF 7
ENDMDL
MODEL 9
REMARK VINA RESULT:    -8.766      1.121      2.008
REMARK INTER + INTRA:         -13.397
REMARK INTER:                 -12.386
REMARK INTRA:                  -1.011
REMARK UNBOUND:                -1.043
REMARK SMILES COc1ccc(Nc2nc(NCc3ccccc3)c3nccnc3n2)c(OC)c1
REMARK SMILES IDX 8 1 9 2 10 3 19 4 20 5 21 6 22 7 23 8 24 9 25 10 7 11 6 13
REMARK SMILES IDX 3 14 4 15 29 16 5 17 26 18 2 19 1 20 27 21 28 22 11 23 12 25
REMARK SMILES IDX 13 26 14 27 18 28 15 29 17 30 16 31
REMARK H PARENT 7 12 11 24
ROOT
ATOM      1  C   UNL     1       5.263  46.889  53.654  1.00  0.00     0.231 A 
ATOM      2  N   UNL     1       5.622  46.279  52.519  1.00  0.00    -0.193 NA
ATOM      3  C   UNL     1       6.935  46.169  52.244  1.00  0.00     0.160 A 
ATOM      4  C   UNL     1       7.928  46.653  53.093  1.00  0.00     0.150 A 
ATOM      5  N   UNL     1       9.269  46.562  52.818  1.00  0.00    -0.247 NA
ATOM      6  C   UNL     1      10.099  47.083  53.738  1.00  0.00     0.132 A 
ATOM      7  C   UNL     1       9.618  47.682  54.879  1.00  0.00     0.133 A 
ATOM      8  N   UNL     1       8.296  47.784  55.139  1.00  0.00    -0.233 NA
ATOM      9  C   UNL     1       7.437  47.271  54.249  1.00  0.00     0.185 A 
ATOM     10  N   UNL     1       6.144  47.387  54.519  1.00  0.00    -0.191 NA
ENDROOT
BRANCH   1  11
ATOM     11  N   UNL     1       3.897  46.971  53.872  1.00  0.00    -0.321 N 
ATOM     12  H   UNL     1       3.661  47.780  54.432  1.00  0.00     0.170 HD
BRANCH  11  13
ATOM     13  C   UNL     1       2.782  46.220  53.465  1.00  0.00     0.084 A 
ATOM     14  C   UNL     1       0.525  44.670  52.764  1.00  0.00     0.122 A 
ATOM     15  C   UNL     1       1.263  45.324  51.781  1.00  0.00     0.049 A 
ATOM     16  C   UNL     1       0.911  44.786  54.102  1.00  0.00     0.095 A 
ATOM     17  C   UNL     1       2.381  46.090  52.132  1.00  0.00     0.034 A 
ATOM     18  C   UNL     1       2.028  45.551  54.458  1.00  0.00     0.146 A 
BRANCH  14  19
ATOM     19  O   UNL     1      -0.582  43.894  52.555  1.00  0.00    -0.497 OA
ATOM     20  C   UNL     1      -0.846  43.498  51.215  1.00  0.00     0.278 C 
ENDBRANCH  14  19
BRANCH  18  21
ATOM     21  O   UNL     1       2.484  45.723  55.747  1.00  0.00    -0.494 OA
ATOM     22  C   UNL     1       1.507  45.739  56.780  1.00  0.00     0.278 C 
ENDBRANCH  18  21
ENDBRANCH  11  13
ENDBRANCH   1  11
BRANCH   3  23
ATOM     23  N   UNL     1       7.331  45.457  51.086  1.00  0.00    -0.364 N 
ATOM     24  H   UNL     1       8.153  45.907  50.685  1.00  0.00     0.162 HD
BRANCH  23  25
ATOM     25  C   UNL     1       6.276  45.219  50.115  1.00  0.00     0.150 C 
BRANCH  25  26
ATOM     26  C   UNL     1       5.805  43.789  50.238  1.00  0.00    -0.029 A 
ATOM     27  C   UNL     1       6.487  42.760  49.570  1.00  0.00     0.005 A 
ATOM     28  C   UNL     1       4.677  43.466  51.007  1.00  0.00     0.005 A 
ATOM     29  C   UNL     1       6.054  41.437  49.675  1.00  0.00     0.000 A 
ATOM     30  C   UNL     1       4.247  42.142  51.111  1.00  0.00     0.000 A 
ATOM     31  C   UNL     1       4.936  41.128  50.447  1.00  0.00     0.000 A 
ENDBRANCH  25  26
ENDBRANCH  23  25
ENDBRANCH   3  23
TORSDOF 7
ENDMDL
MODEL 10
REMARK VINA RESULT:    -8.680      2.441      5.357
REMARK INTER + INTRA:         -13.275
REMARK INTER:                 -12.309
REMARK INTRA:                  -0.966
REMARK UNBOUND:                -1.043
REMARK SMILES COc1ccc(Nc2nc(NCc3ccccc3)c3nccnc3n2)c(OC)c1
REMARK SMILES IDX 8 1 9 2 10 3 19 4 20 5 21 6 22 7 23 8 24 9 25 10 7 11 6 13
REMARK SMILES IDX 3 14 4 15 29 16 5 17 26 18 2 19 1 20 27 21 28 22 11 23 12 25
REMARK SMILES IDX 13 26 14 27 18 28 15 29 17 30 16 31
REMARK H PARENT 7 12 11 24
ROOT
ATOM      1  C   UNL     1       2.234  45.156  52.806  1.00  0.00     0.231 A 
ATOM      2  N   UNL     1       3.263  45.997  52.666  1.00  0.00    -0.193 NA
ATOM      3  C   UNL     1       4.365  45.555  52.031  1.00  0.00     0.160 A 
ATOM      4  C   UNL     1       4.470  44.267  51.510  1.00  0.00     0.150 A 
ATOM      5  N   UNL     1       5.592  43.798  50.875  1.00  0.00    -0.247 NA
ATOM      6  C   UNL     1       5.535  42.529  50.434  1.00  0.00     0.132 A 
ATOM      7  C   UNL     1       4.417  41.753  50.625  1.00  0.00     0.133 A 
ATOM      8  N   UNL     1       3.319  42.214  51.265  1.00  0.00    -0.233 NA
ATOM      9  C   UNL     1       3.334  43.476  51.714  1.00  0.00     0.185 A 
ATOM     10  N   UNL     1       2.250  43.906  52.345  1.00  0.00    -0.191 NA
ENDROOT
BRANCH   1  11
ATOM     11  N   UNL     1       1.135  45.675  53.472  1.00  0.00    -0.321 N 
ATOM     12  H   UNL     1       0.778  46.500  53.009  1.00  0.00     0.170 HD
BRANCH  11  13
ATOM     13  C   UNL     1       0.394  45.297  54.605  1.00  0.00     0.084 A 
ATOM     14  C   UNL     1      -1.190  44.508  56.808  1.00  0.00     0.122 A 
ATOM     15  C   UNL     1       0.068  45.067  57.010  1.00  0.00     0.049 A 
ATOM     16  C   UNL     1      -1.664  44.341  55.504  1.00  0.00     0.095 A 
ATOM     17  C   UNL     1       0.850  45.458  55.916  1.00  0.00     0.034 A 
ATOM     18  C   UNL     1      -0.886  44.729  54.408  1.00  0.00     0.146 A 
BRANCH  14  19
ATOM     19  O   UNL     1      -2.049  44.088  57.786  1.00  0.00    -0.497 OA
ATOM     20  C   UNL     1      -3.057  43.160  57.401  1.00  0.00     0.278 C 
ENDBRANCH  14  19
BRANCH  18  21
ATOM     21  O   UNL     1      -1.269  44.603  53.089  1.00  0.00    -0.494 OA
ATOM     22  C   UNL     1      -2.583  44.120  52.842  1.00  0.00     0.278 C 
ENDBRANCH  18  21
ENDBRANCH  11  13
ENDBRANCH   1  11
BRANCH   3  23
ATOM     23  N   UNL     1       5.432  46.459  51.807  1.00  0.00    -0.364 N 
ATOM     24  H   UNL     1       6.153  45.991  51.259  1.00  0.00     0.162 HD
BRANCH  23  25
ATOM     25  C   UNL     1       5.949  47.112  52.998  1.00  0.00     0.150 C 
BRANCH  25  26
ATOM     26  C   UNL     1       7.457  47.014  52.999  1.00  0.00    -0.029 A 
ATOM     27  C   UNL     1       8.144  46.666  51.825  1.00  0.00     0.005 A 
ATOM     28  C   UNL     1       8.192  47.254  54.169  1.00  0.00     0.005 A 
ATOM     29  C   UNL     1       9.537  46.568  51.821  1.00  0.00     0.000 A 
ATOM     30  C   UNL     1       9.585  47.157  54.161  1.00  0.00     0.000 A 
ATOM     31  C   UNL     1      10.256  46.815  52.988  1.00  0.00     0.000 A 
ENDBRANCH  25  26
ENDBRANCH  23  25
ENDBRANCH   3  23
TORSDOF 7
ENDMDL
MODEL 11
REMARK VINA RESULT:    -8.614      2.166      5.260
REMARK INTER + INTRA:         -13.182
REMARK INTER:                 -12.218
REMARK INTRA:                  -0.964
REMARK UNBOUND:                -1.043
REMARK SMILES COc1ccc(Nc2nc(NCc3ccccc3)c3nccnc3n2)c(OC)c1
REMARK SMILES IDX 8 1 9 2 10 3 19 4 20 5 21 6 22 7 23 8 24 9 25 10 7 11 6 13
REMARK SMILES IDX 3 14 4 15 29 16 5 17 26 18 2 19 1 20 27 21 28 22 11 23 12 25
REMARK SMILES IDX 13 26 14 27 18 28 15 29 17 30 16 31
REMARK H PARENT 7 12 11 24
ROOT
ATOM      1  C   UNL     1       3.656  44.706  52.028  1.00  0.00     0.231 A 
ATOM      2  N   UNL     1       4.879  45.178  51.765  1.00  0.00    -0.193 NA
ATOM      3  C   UNL     1       5.705  44.422  51.018  1.00  0.00     0.160 A 
ATOM      4  C   UNL     1       5.336  43.181  50.503  1.00  0.00     0.150 A 
ATOM      5  N   UNL     1       6.172  42.395  49.753  1.00  0.00    -0.247 NA
ATOM      6  C   UNL     1       5.665  41.222  49.336  1.00  0.00     0.132 A 
ATOM      7  C   UNL     1       4.385  40.839  49.659  1.00  0.00     0.133 A 
ATOM      8  N   UNL     1       3.568  41.610  50.411  1.00  0.00    -0.233 NA
ATOM      9  C   UNL     1       4.035  42.790  50.841  1.00  0.00     0.185 A 
ATOM     10  N   UNL     1       3.222  43.528  51.583  1.00  0.00    -0.191 NA
ENDROOT
BRANCH   1  11
ATOM     11  N   UNL     1       2.860  45.532  52.806  1.00  0.00    -0.321 N 
ATOM     12  H   UNL     1       2.910  46.494  52.493  1.00  0.00     0.170 HD
BRANCH  11  13
ATOM     13  C   UNL     1       1.985  45.333  53.887  1.00  0.00     0.084 A 
ATOM     14  C   UNL     1       0.318  44.967  56.139  1.00  0.00     0.122 A 
ATOM     15  C   UNL     1      -0.129  44.617  54.868  1.00  0.00     0.049 A 
ATOM     16  C   UNL     1       1.600  45.501  56.292  1.00  0.00     0.095 A 
ATOM     17  C   UNL     1       0.701  44.798  53.754  1.00  0.00     0.034 A 
ATOM     18  C   UNL     1       2.432  45.685  55.182  1.00  0.00     0.146 A 
BRANCH  14  19
ATOM     19  O   UNL     1      -0.390  44.840  57.303  1.00  0.00    -0.497 OA
ATOM     20  C   UNL     1      -1.776  44.544  57.183  1.00  0.00     0.278 C 
ENDBRANCH  14  19
BRANCH  18  21
ATOM     21  O   UNL     1       3.709  46.203  55.236  1.00  0.00    -0.494 OA
ATOM     22  C   UNL     1       4.762  45.295  55.531  1.00  0.00     0.278 C 
ENDBRANCH  18  21
ENDBRANCH  11  13
ENDBRANCH   1  11
BRANCH   3  23
ATOM     23  N   UNL     1       6.974  44.944  50.666  1.00  0.00    -0.364 N 
ATOM     24  H   UNL     1       7.697  44.407  51.144  1.00  0.00     0.162 HD
BRANCH  23  25
ATOM     25  C   UNL     1       7.120  46.380  50.833  1.00  0.00     0.150 C 
BRANCH  25  26
ATOM     26  C   UNL     1       8.094  46.650  51.956  1.00  0.00    -0.029 A 
ATOM     27  C   UNL     1       7.646  47.210  53.162  1.00  0.00     0.005 A 
ATOM     28  C   UNL     1       9.459  46.359  51.809  1.00  0.00     0.005 A 
ATOM     29  C   UNL     1       8.543  47.467  54.201  1.00  0.00     0.000 A 
ATOM     30  C   UNL     1      10.353  46.615  52.851  1.00  0.00     0.000 A 
ATOM     31  C   UNL     1       9.895  47.168  54.046  1.00  0.00     0.000 A 
ENDBRANCH  25  26
ENDBRANCH  23  25
ENDBRANCH   3  23
TORSDOF 7
ENDMDL
MODEL 12
REMARK VINA RESULT:    -8.575      3.506      7.587
REMARK INTER + INTRA:         -13.127
REMARK INTER:                 -11.894
REMARK INTRA:                  -1.233
REMARK UNBOUND:                -1.043
REMARK SMILES COc1ccc(Nc2nc(NCc3ccccc3)c3nccnc3n2)c(OC)c1
REMARK SMILES IDX 8 1 9 2 10 3 19 4 20 5 21 6 22 7 23 8 24 9 25 10 7 11 6 13
REMARK SMILES IDX 3 14 4 15 29 16 5 17 26 18 2 19 1 20 27 21 28 22 11 23 12 25
REMARK SMILES IDX 13 26 14 27 18 28 15 29 17 30 16 31
REMARK H PARENT 7 12 11 24
ROOT
ATOM      1  C   UNL     1       1.815  42.912  52.442  1.00  0.00     0.231 A 
ATOM      2  N   UNL     1       2.478  43.477  53.456  1.00  0.00    -0.193 NA
ATOM      3  C   UNL     1       1.764  44.093  54.418  1.00  0.00     0.160 A 
ATOM      4  C   UNL     1       0.372  44.156  54.403  1.00  0.00     0.150 A 
ATOM      5  N   UNL     1      -0.366  44.792  55.367  1.00  0.00    -0.247 NA
ATOM      6  C   UNL     1      -1.700  44.767  55.204  1.00  0.00     0.132 A 
ATOM      7  C   UNL     1      -2.278  44.145  54.122  1.00  0.00     0.133 A 
ATOM      8  N   UNL     1      -1.546  43.532  53.165  1.00  0.00    -0.233 NA
ATOM      9  C   UNL     1      -0.213  43.531  53.295  1.00  0.00     0.185 A 
ATOM     10  N   UNL     1       0.488  42.930  52.343  1.00  0.00    -0.191 NA
ENDROOT
BRANCH   1  11
ATOM     11  N   UNL     1       2.611  42.301  51.486  1.00  0.00    -0.321 N 
ATOM     12  H   UNL     1       2.133  41.523  51.050  1.00  0.00     0.170 HD
BRANCH  11  13
ATOM     13  C   UNL     1       3.896  42.537  50.968  1.00  0.00     0.084 A 
ATOM     14  C   UNL     1       6.477  42.899  49.877  1.00  0.00     0.122 A 
ATOM     15  C   UNL     1       5.922  43.869  50.707  1.00  0.00     0.049 A 
ATOM     16  C   UNL     1       5.747  41.743  49.589  1.00  0.00     0.095 A 
ATOM     17  C   UNL     1       4.643  43.686  51.247  1.00  0.00     0.034 A 
ATOM     18  C   UNL     1       4.468  41.556  50.125  1.00  0.00     0.146 A 
BRANCH  14  19
ATOM     19  O   UNL     1       7.711  42.956  49.289  1.00  0.00    -0.497 OA
ATOM     20  C   UNL     1       8.373  44.214  49.305  1.00  0.00     0.278 C 
ENDBRANCH  14  19
BRANCH  18  21
ATOM     21  O   UNL     1       3.675  40.451  49.898  1.00  0.00    -0.494 OA
ATOM     22  C   UNL     1       3.509  40.043  48.546  1.00  0.00     0.278 C 
ENDBRANCH  18  21
ENDBRANCH  11  13
ENDBRANCH   1  11
BRANCH   3  23
ATOM     23  N   UNL     1       2.448  44.627  55.537  1.00  0.00    -0.364 N 
ATOM     24  H   UNL     1       1.908  44.430  56.380  1.00  0.00     0.162 HD
BRANCH  23  25
ATOM     25  C   UNL     1       2.835  46.022  55.417  1.00  0.00     0.150 C 
BRANCH  25  26
ATOM     26  C   UNL     1       4.175  46.104  54.723  1.00  0.00    -0.029 A 
ATOM     27  C   UNL     1       4.398  47.067  53.726  1.00  0.00     0.005 A 
ATOM     28  C   UNL     1       5.210  45.217  55.051  1.00  0.00     0.005 A 
ATOM     29  C   UNL     1       5.632  47.144  53.077  1.00  0.00     0.000 A 
ATOM     30  C   UNL     1       6.444  45.297  54.401  1.00  0.00     0.000 A 
ATOM     31  C   UNL     1       6.654  46.260  53.417  1.00  0.00     0.000 A 
ENDBRANCH  25  26
ENDBRANCH  23  25
ENDBRANCH   3  23
TORSDOF 7
ENDMDL
MODEL 13
REMARK VINA RESULT:    -8.513      2.881      6.623
REMARK INTER + INTRA:         -13.040
REMARK INTER:                 -11.876
REMARK INTRA:                  -1.163
REMARK UNBOUND:                -1.043
REMARK SMILES COc1ccc(Nc2nc(NCc3ccccc3)c3nccnc3n2)c(OC)c1
REMARK SMILES IDX 8 1 9 2 10 3 19 4 20 5 21 6 22 7 23 8 24 9 25 10 7 11 6 13
REMARK SMILES IDX 3 14 4 15 29 16 5 17 26 18 2 19 1 20 27 21 28 22 11 23 12 25
REMARK SMILES IDX 13 26 14 27 18 28 15 29 17 30 16 31
REMARK H PARENT 7 12 11 24
ROOT
ATOM      1  C   UNL     1       2.692  45.784  52.254  1.00  0.00     0.231 A 
ATOM      2  N   UNL     1       3.083  44.537  51.974  1.00  0.00    -0.193 NA
ATOM      3  C   UNL     1       2.134  43.607  51.754  1.00  0.00     0.160 A 
ATOM      4  C   UNL     1       0.771  43.894  51.796  1.00  0.00     0.150 A 
ATOM      5  N   UNL     1      -0.206  42.955  51.589  1.00  0.00    -0.247 NA
ATOM      6  C   UNL     1      -1.475  43.392  51.669  1.00  0.00     0.132 A 
ATOM      7  C   UNL     1      -1.763  44.706  51.956  1.00  0.00     0.133 A 
ATOM      8  N   UNL     1      -0.797  45.626  52.175  1.00  0.00    -0.233 NA
ATOM      9  C   UNL     1       0.480  45.230  52.097  1.00  0.00     0.185 A 
ATOM     10  N   UNL     1       1.412  46.146  52.322  1.00  0.00    -0.191 NA
ENDROOT
BRANCH   1  11
ATOM     11  N   UNL     1       3.720  46.688  52.474  1.00  0.00    -0.321 N 
ATOM     12  H   UNL     1       3.368  47.634  52.554  1.00  0.00     0.170 HD
BRANCH  11  13
ATOM     13  C   UNL     1       5.110  46.584  52.647  1.00  0.00     0.084 A 
ATOM     14  C   UNL     1       7.890  46.397  53.117  1.00  0.00     0.122 A 
ATOM     15  C   UNL     1       7.389  46.322  51.821  1.00  0.00     0.049 A 
ATOM     16  C   UNL     1       7.006  46.568  54.185  1.00  0.00     0.095 A 
ATOM     17  C   UNL     1       6.010  46.416  51.592  1.00  0.00     0.034 A 
ATOM     18  C   UNL     1       5.628  46.661  53.961  1.00  0.00     0.146 A 
BRANCH  14  19
ATOM     19  O   UNL     1       9.209  46.321  53.474  1.00  0.00    -0.497 OA
ATOM     20  C   UNL     1       9.691  47.315  54.369  1.00  0.00     0.278 C 
ENDBRANCH  14  19
BRANCH  18  21
ATOM     21  O   UNL     1       4.681  46.829  54.950  1.00  0.00    -0.494 OA
ATOM     22  C   UNL     1       4.243  45.661  55.630  1.00  0.00     0.278 C 
ENDBRANCH  18  21
ENDBRANCH  11  13
ENDBRANCH   1  11
BRANCH   3  23
ATOM     23  N   UNL     1       2.533  42.301  51.379  1.00  0.00    -0.364 N 
ATOM     24  H   UNL     1       1.837  41.634  51.710  1.00  0.00     0.162 HD
BRANCH  23  25
ATOM     25  C   UNL     1       3.893  41.942  51.744  1.00  0.00     0.150 C 
BRANCH  25  26
ATOM     26  C   UNL     1       4.773  42.030  50.519  1.00  0.00    -0.029 A 
ATOM     27  C   UNL     1       5.800  42.985  50.454  1.00  0.00     0.005 A 
ATOM     28  C   UNL     1       4.572  41.175  49.426  1.00  0.00     0.005 A 
ATOM     29  C   UNL     1       6.613  43.075  49.322  1.00  0.00     0.000 A 
ATOM     30  C   UNL     1       5.388  41.267  48.296  1.00  0.00     0.000 A 
ATOM     31  C   UNL     1       6.408  42.215  48.246  1.00  0.00     0.000 A 
ENDBRANCH  25  26
ENDBRANCH  23  25
ENDBRANCH   3  23
TORSDOF 7
ENDMDL
MODEL 14
REMARK VINA RESULT:    -8.490      2.953      6.554
REMARK INTER + INTRA:         -13.007
REMARK INTER:                 -11.964
REMARK INTRA:                  -1.043
REMARK UNBOUND:                -1.043
REMARK SMILES COc1ccc(Nc2nc(NCc3ccccc3)c3nccnc3n2)c(OC)c1
REMARK SMILES IDX 8 1 9 2 10 3 19 4 20 5 21 6 22 7 23 8 24 9 25 10 7 11 6 13
REMARK SMILES IDX 3 14 4 15 29 16 5 17 26 18 2 19 1 20 27 21 28 22 11 23 12 25
REMARK SMILES IDX 13 26 14 27 18 28 15 29 17 30 16 31
REMARK H PARENT 7 12 11 24
ROOT
ATOM      1  C   UNL     1       4.218  45.053  52.007  1.00  0.00     0.231 A 
ATOM      2  N   UNL     1       4.209  43.865  51.394  1.00  0.00    -0.193 NA
ATOM      3  C   UNL     1       3.200  43.016  51.666  1.00  0.00     0.160 A 
ATOM      4  C   UNL     1       2.167  43.329  52.548  1.00  0.00     0.150 A 
ATOM      5  N   UNL     1       1.142  42.468  52.846  1.00  0.00    -0.247 NA
ATOM      6  C   UNL     1       0.226  42.920  53.720  1.00  0.00     0.132 A 
ATOM      7  C   UNL     1       0.330  44.169  54.286  1.00  0.00     0.133 A 
ATOM      8  N   UNL     1       1.350  45.008  54.002  1.00  0.00    -0.233 NA
ATOM      9  C   UNL     1       2.280  44.597  53.129  1.00  0.00     0.185 A 
ATOM     10  N   UNL     1       3.277  45.432  52.869  1.00  0.00    -0.191 NA
ENDROOT
BRANCH   1  11
ATOM     11  N   UNL     1       5.288  45.874  51.685  1.00  0.00    -0.321 N 
ATOM     12  H   UNL     1       5.129  46.361  50.812  1.00  0.00     0.170 HD
BRANCH  11  13
ATOM     13  C   UNL     1       6.504  46.206  52.306  1.00  0.00     0.084 A 
ATOM     14  C   UNL     1       9.009  46.838  53.450  1.00  0.00     0.122 A 
ATOM     15  C   UNL     1       7.845  46.928  54.209  1.00  0.00     0.049 A 
ATOM     16  C   UNL     1       8.927  46.431  52.116  1.00  0.00     0.095 A 
ATOM     17  C   UNL     1       6.606  46.613  53.639  1.00  0.00     0.034 A 
ATOM     18  C   UNL     1       7.691  46.116  51.541  1.00  0.00     0.146 A 
BRANCH  14  19
ATOM     19  O   UNL     1      10.276  47.115  53.886  1.00  0.00    -0.497 OA
ATOM     20  C   UNL     1      10.435  47.379  55.274  1.00  0.00     0.278 C 
ENDBRANCH  14  19
BRANCH  18  21
ATOM     21  O   UNL     1       7.512  45.706  50.237  1.00  0.00    -0.494 OA
ATOM     22  C   UNL     1       8.238  44.558  49.816  1.00  0.00     0.278 C 
ENDBRANCH  18  21
ENDBRANCH  11  13
ENDBRANCH   1  11
BRANCH   3  23
ATOM     23  N   UNL     1       3.135  41.787  50.965  1.00  0.00    -0.364 N 
ATOM     24  H   UNL     1       2.515  41.152  51.466  1.00  0.00     0.162 HD
BRANCH  23  25
ATOM     25  C   UNL     1       4.421  41.194  50.637  1.00  0.00     0.150 C 
BRANCH  25  26
ATOM     26  C   UNL     1       4.587  41.175  49.136  1.00  0.00    -0.029 A 
ATOM     27  C   UNL     1       5.638  41.881  48.531  1.00  0.00     0.005 A 
ATOM     28  C   UNL     1       3.691  40.466  48.322  1.00  0.00     0.005 A 
ATOM     29  C   UNL     1       5.794  41.872  47.144  1.00  0.00     0.000 A 
ATOM     30  C   UNL     1       3.849  40.457  46.935  1.00  0.00     0.000 A 
ATOM     31  C   UNL     1       4.901  41.158  46.347  1.00  0.00     0.000 A 
ENDBRANCH  25  26
ENDBRANCH  23  25
ENDBRANCH   3  23
TORSDOF 7
ENDMDL
MODEL 15
REMARK VINA RESULT:    -8.421      1.446      2.206
REMARK INTER + INTRA:         -12.911
REMARK INTER:                 -12.092
REMARK INTRA:                  -0.818
REMARK UNBOUND:                -1.043
REMARK SMILES COc1ccc(Nc2nc(NCc3ccccc3)c3nccnc3n2)c(OC)c1
REMARK SMILES IDX 8 1 9 2 10 3 19 4 20 5 21 6 22 7 23 8 24 9 25 10 7 11 6 13
REMARK SMILES IDX 3 14 4 15 29 16 5 17 26 18 2 19 1 20 27 21 28 22 11 23 12 25
REMARK SMILES IDX 13 26 14 27 18 28 15 29 17 30 16 31
REMARK H PARENT 7 12 11 24
ROOT
ATOM      1  C   UNL     1       5.156  46.245  54.456  1.00  0.00     0.231 A 
ATOM      2  N   UNL     1       5.084  46.104  53.129  1.00  0.00    -0.193 NA
ATOM      3  C   UNL     1       6.194  46.343  52.403  1.00  0.00     0.160 A 
ATOM      4  C   UNL     1       7.406  46.718  52.978  1.00  0.00     0.150 A 
ATOM      5  N   UNL     1       8.539  46.979  52.250  1.00  0.00    -0.247 NA
ATOM      6  C   UNL     1       9.626  47.335  52.956  1.00  0.00     0.132 A 
ATOM      7  C   UNL     1       9.589  47.440  54.326  1.00  0.00     0.133 A 
ATOM      8  N   UNL     1       8.466  47.198  55.039  1.00  0.00    -0.233 NA
ATOM      9  C   UNL     1       7.363  46.834  54.372  1.00  0.00     0.185 A 
ATOM     10  N   UNL     1       6.270  46.607  55.088  1.00  0.00    -0.191 NA
ENDROOT
BRANCH   1  11
ATOM     11  N   UNL     1       3.977  45.989  55.140  1.00  0.00    -0.321 N 
ATOM     12  H   UNL     1       3.979  46.424  56.054  1.00  0.00     0.170 HD
BRANCH  11  13
ATOM     13  C   UNL     1       2.787  45.306  54.840  1.00  0.00     0.084 A 
ATOM     14  C   UNL     1       0.348  43.967  54.349  1.00  0.00     0.122 A 
ATOM     15  C   UNL     1       1.396  43.877  53.438  1.00  0.00     0.049 A 
ATOM     16  C   UNL     1       0.512  44.726  55.511  1.00  0.00     0.095 A 
ATOM     17  C   UNL     1       2.604  44.541  53.685  1.00  0.00     0.034 A 
ATOM     18  C   UNL     1       1.717  45.392  55.762  1.00  0.00     0.146 A 
BRANCH  14  19
ATOM     19  O   UNL     1      -0.877  43.369  54.227  1.00  0.00    -0.497 OA
ATOM     20  C   UNL     1      -1.989  44.064  54.774  1.00  0.00     0.278 C 
ENDBRANCH  14  19
BRANCH  18  21
ATOM     21  O   UNL     1       1.971  46.161  56.878  1.00  0.00    -0.494 OA
ATOM     22  C   UNL     1       0.878  46.416  57.749  1.00  0.00     0.278 C 
ENDBRANCH  18  21
ENDBRANCH  11  13
ENDBRANCH   1  11
BRANCH   3  23
ATOM     23  N   UNL     1       6.154  46.121  51.005  1.00  0.00    -0.364 N 
ATOM     24  H   UNL     1       6.269  47.013  50.525  1.00  0.00     0.162 HD
BRANCH  23  25
ATOM     25  C   UNL     1       5.011  45.357  50.532  1.00  0.00     0.150 C 
BRANCH  25  26
ATOM     26  C   UNL     1       5.420  43.912  50.363  1.00  0.00    -0.029 A 
ATOM     27  C   UNL     1       6.634  43.589  49.738  1.00  0.00     0.005 A 
ATOM     28  C   UNL     1       4.591  42.874  50.811  1.00  0.00     0.005 A 
ATOM     29  C   UNL     1       7.015  42.256  49.573  1.00  0.00     0.000 A 
ATOM     30  C   UNL     1       4.974  41.541  50.646  1.00  0.00     0.000 A 
ATOM     31  C   UNL     1       6.186  41.233  50.029  1.00  0.00     0.000 A 
ENDBRANCH  25  26
ENDBRANCH  23  25
ENDBRANCH   3  23
TORSDOF 7
ENDMDL
MODEL 16
REMARK VINA RESULT:    -8.419      3.029      7.178
REMARK INTER + INTRA:         -12.907
REMARK INTER:                 -12.218
REMARK INTRA:                  -0.689
REMARK UNBOUND:                -1.043
REMARK SMILES COc1ccc(Nc2nc(NCc3ccccc3)c3nccnc3n2)c(OC)c1
REMARK SMILES IDX 8 1 9 2 10 3 19 4 20 5 21 6 22 7 23 8 24 9 25 10 7 11 6 13
REMARK SMILES IDX 3 14 4 15 29 16 5 17 26 18 2 19 1 20 27 21 28 22 11 23 12 25
REMARK SMILES IDX 13 26 14 27 18 28 15 29 17 30 16 31
REMARK H PARENT 7 12 11 24
ROOT
ATOM      1  C   UNL     1       6.418  44.838  51.152  1.00  0.00     0.231 A 
ATOM      2  N   UNL     1       5.444  44.660  52.050  1.00  0.00    -0.193 NA
ATOM      3  C   UNL     1       4.611  43.615  51.885  1.00  0.00     0.160 A 
ATOM      4  C   UNL     1       4.728  42.714  50.829  1.00  0.00     0.150 A 
ATOM      5  N   UNL     1       3.877  41.655  50.641  1.00  0.00    -0.247 NA
ATOM      6  C   UNL     1       4.124  40.881  49.569  1.00  0.00     0.132 A 
ATOM      7  C   UNL     1       5.164  41.154  48.713  1.00  0.00     0.133 A 
ATOM      8  N   UNL     1       5.992  42.207  48.893  1.00  0.00    -0.233 NA
ATOM      9  C   UNL     1       5.782  42.999  49.953  1.00  0.00     0.185 A 
ATOM     10  N   UNL     1       6.600  44.031  50.109  1.00  0.00    -0.191 NA
ENDROOT
BRANCH   1  11
ATOM     11  N   UNL     1       7.236  45.934  51.379  1.00  0.00    -0.321 N 
ATOM     12  H   UNL     1       7.420  46.441  50.523  1.00  0.00     0.170 HD
BRANCH  11  13
ATOM     13  C   UNL     1       7.824  46.512  52.517  1.00  0.00     0.084 A 
ATOM     14  C   UNL     1       9.120  47.653  54.754  1.00  0.00     0.122 A 
ATOM     15  C   UNL     1       7.739  47.477  54.754  1.00  0.00     0.049 A 
ATOM     16  C   UNL     1       9.861  47.260  53.636  1.00  0.00     0.095 A 
ATOM     17  C   UNL     1       7.101  46.910  53.645  1.00  0.00     0.034 A 
ATOM     18  C   UNL     1       9.227  46.693  52.525  1.00  0.00     0.146 A 
BRANCH  14  19
ATOM     19  O   UNL     1       9.861  48.192  55.770  1.00  0.00    -0.497 OA
ATOM     20  C   UNL     1      11.056  47.507  56.126  1.00  0.00     0.278 C 
ENDBRANCH  14  19
BRANCH  18  21
ATOM     21  O   UNL     1       9.874  46.275  51.381  1.00  0.00    -0.494 OA
ATOM     22  C   UNL     1      10.751  45.164  51.504  1.00  0.00     0.278 C 
ENDBRANCH  18  21
ENDBRANCH  11  13
ENDBRANCH   1  11
BRANCH   3  23
ATOM     23  N   UNL     1       3.624  43.369  52.871  1.00  0.00    -0.364 N 
ATOM     24  H   UNL     1       2.886  42.794  52.465  1.00  0.00     0.162 HD
BRANCH  23  25
ATOM     25  C   UNL     1       3.122  44.550  53.551  1.00  0.00     0.150 C 
BRANCH  25  26
ATOM     26  C   UNL     1       1.700  44.297  53.996  1.00  0.00    -0.029 A 
ATOM     27  C   UNL     1       1.109  45.111  54.975  1.00  0.00     0.005 A 
ATOM     28  C   UNL     1       0.954  43.241  53.453  1.00  0.00     0.005 A 
ATOM     29  C   UNL     1      -0.203  44.879  55.393  1.00  0.00     0.000 A 
ATOM     30  C   UNL     1      -0.358  43.011  53.873  1.00  0.00     0.000 A 
ATOM     31  C   UNL     1      -0.936  43.830  54.841  1.00  0.00     0.000 A 
ENDBRANCH  25  26
ENDBRANCH  23  25
ENDBRANCH   3  23
TORSDOF 7
ENDMDL
MODEL 17
REMARK VINA RESULT:    -8.409      2.650      6.434
REMARK INTER + INTRA:         -12.894
REMARK INTER:                 -11.561
REMARK INTRA:                  -1.332
REMARK UNBOUND:                -1.043
REMARK SMILES COc1ccc(Nc2nc(NCc3ccccc3)c3nccnc3n2)c(OC)c1
REMARK SMILES IDX 8 1 9 2 10 3 19 4 20 5 21 6 22 7 23 8 24 9 25 10 7 11 6 13
REMARK SMILES IDX 3 14 4 15 29 16 5 17 26 18 2 19 1 20 27 21 28 22 11 23 12 25
REMARK SMILES IDX 13 26 14 27 18 28 15 29 17 30 16 31
REMARK H PARENT 7 12 11 24
ROOT
ATOM      1  C   UNL     1       2.619  45.455  55.258  1.00  0.00     0.231 A 
ATOM      2  N   UNL     1       2.621  44.561  54.264  1.00  0.00    -0.193 NA
ATOM      3  C   UNL     1       1.489  43.870  54.028  1.00  0.00     0.160 A 
ATOM      4  C   UNL     1       0.323  44.055  54.767  1.00  0.00     0.150 A 
ATOM      5  N   UNL     1      -0.832  43.348  54.548  1.00  0.00    -0.247 NA
ATOM      6  C   UNL     1      -1.868  43.643  55.352  1.00  0.00     0.132 A 
ATOM      7  C   UNL     1      -1.760  44.591  56.342  1.00  0.00     0.133 A 
ATOM      8  N   UNL     1      -0.616  45.276  56.565  1.00  0.00    -0.233 NA
ATOM      9  C   UNL     1       0.438  45.015  55.780  1.00  0.00     0.185 A 
ATOM     10  N   UNL     1       1.553  45.691  56.020  1.00  0.00    -0.191 NA
ENDROOT
BRANCH   1  11
ATOM     11  N   UNL     1       3.817  46.126  55.449  1.00  0.00    -0.321 N 
ATOM     12  H   UNL     1       3.845  46.581  56.353  1.00  0.00     0.170 HD
BRANCH  11  13
ATOM     13  C   UNL     1       4.995  46.281  54.699  1.00  0.00     0.084 A 
ATOM     14  C   UNL     1       7.303  46.672  53.116  1.00  0.00     0.122 A 
ATOM     15  C   UNL     1       7.315  45.755  54.163  1.00  0.00     0.049 A 
ATOM     16  C   UNL     1       6.138  47.398  52.854  1.00  0.00     0.095 A 
ATOM     17  C   UNL     1       6.169  45.563  54.945  1.00  0.00     0.034 A 
ATOM     18  C   UNL     1       4.991  47.211  53.633  1.00  0.00     0.146 A 
BRANCH  14  19
ATOM     19  O   UNL     1       8.350  46.951  52.281  1.00  0.00    -0.497 OA
ATOM     20  C   UNL     1       9.657  46.842  52.830  1.00  0.00     0.278 C 
ENDBRANCH  14  19
BRANCH  18  21
ATOM     21  O   UNL     1       3.799  47.879  53.449  1.00  0.00    -0.494 OA
ATOM     22  C   UNL     1       3.034  47.531  52.303  1.00  0.00     0.278 C 
ENDBRANCH  18  21
ENDBRANCH  11  13
ENDBRANCH   1  11
BRANCH   3  23
ATOM     23  N   UNL     1       1.452  42.978  52.929  1.00  0.00    -0.364 N 
ATOM     24  H   UNL     1       2.036  42.169  53.138  1.00  0.00     0.162 HD
BRANCH  23  25
ATOM     25  C   UNL     1       1.743  43.577  51.637  1.00  0.00     0.150 C 
BRANCH  25  26
ATOM     26  C   UNL     1       3.159  43.231  51.240  1.00  0.00    -0.029 A 
ATOM     27  C   UNL     1       4.151  44.223  51.224  1.00  0.00     0.005 A 
ATOM     28  C   UNL     1       3.503  41.923  50.869  1.00  0.00     0.005 A 
ATOM     29  C   UNL     1       5.461  43.911  50.854  1.00  0.00     0.000 A 
ATOM     30  C   UNL     1       4.814  41.613  50.500  1.00  0.00     0.000 A 
ATOM     31  C   UNL     1       5.792  42.606  50.494  1.00  0.00     0.000 A 
ENDBRANCH  25  26
ENDBRANCH  23  25
ENDBRANCH   3  23
TORSDOF 7
ENDMDL
MODEL 18
REMARK VINA RESULT:    -8.400      3.925      7.900
REMARK INTER + INTRA:         -12.881
REMARK INTER:                 -12.003
REMARK INTRA:                  -0.878
REMARK UNBOUND:                -1.043
REMARK SMILES COc1ccc(Nc2nc(NCc3ccccc3)c3nccnc3n2)c(OC)c1
REMARK SMILES IDX 8 1 9 2 10 3 19 4 20 5 21 6 22 7 23 8 24 9 25 10 7 11 6 13
REMARK SMILES IDX 3 14 4 15 29 16 5 17 26 18 2 19 1 20 27 21 28 22 11 23 12 25
REMARK SMILES IDX 13 26 14 27 18 28 15 29 17 30 16 31
REMARK H PARENT 7 12 11 24
ROOT
ATOM      1  C   UNL     1       4.297  42.008  50.492  1.00  0.00     0.231 A 
ATOM      2  N   UNL     1       5.185  42.877  50.985  1.00  0.00    -0.193 NA
ATOM      3  C   UNL     1       4.778  43.724  51.950  1.00  0.00     0.160 A 
ATOM      4  C   UNL     1       3.481  43.724  52.457  1.00  0.00     0.150 A 
ATOM      5  N   UNL     1       3.049  44.590  53.429  1.00  0.00    -0.247 NA
ATOM      6  C   UNL     1       1.765  44.464  53.806  1.00  0.00     0.132 A 
ATOM      7  C   UNL     1       0.939  43.525  53.235  1.00  0.00     0.133 A 
ATOM      8  N   UNL     1       1.364  42.683  52.266  1.00  0.00    -0.233 NA
ATOM      9  C   UNL     1       2.639  42.773  51.868  1.00  0.00     0.185 A 
ATOM     10  N   UNL     1       3.035  41.943  50.912  1.00  0.00    -0.191 NA
ENDROOT
BRANCH   1  11
ATOM     11  N   UNL     1       4.780  41.171  49.499  1.00  0.00    -0.321 N 
ATOM     12  H   UNL     1       5.130  40.303  49.886  1.00  0.00     0.170 HD
BRANCH  11  13
ATOM     13  C   UNL     1       4.857  41.237  48.098  1.00  0.00     0.084 A 
ATOM     14  C   UNL     1       4.928  41.280  45.273  1.00  0.00     0.122 A 
ATOM     15  C   UNL     1       5.799  42.076  46.011  1.00  0.00     0.049 A 
ATOM     16  C   UNL     1       4.018  40.457  45.942  1.00  0.00     0.095 A 
ATOM     17  C   UNL     1       5.762  42.052  47.411  1.00  0.00     0.034 A 
ATOM     18  C   UNL     1       3.977  40.430  47.341  1.00  0.00     0.146 A 
BRANCH  14  19
ATOM     19  O   UNL     1       4.863  41.211  43.908  1.00  0.00    -0.497 OA
ATOM     20  C   UNL     1       5.657  40.214  43.277  1.00  0.00     0.278 C 
ENDBRANCH  14  19
BRANCH  18  21
ATOM     21  O   UNL     1       3.116  39.652  48.086  1.00  0.00    -0.494 OA
ATOM     22  C   UNL     1       2.677  38.433  47.501  1.00  0.00     0.278 C 
ENDBRANCH  18  21
ENDBRANCH  11  13
ENDBRANCH   1  11
BRANCH   3  23
ATOM     23  N   UNL     1       5.728  44.595  52.537  1.00  0.00    -0.364 N 
ATOM     24  H   UNL     1       5.329  44.998  53.384  1.00  0.00     0.162 HD
BRANCH  23  25
ATOM     25  C   UNL     1       6.292  45.589  51.639  1.00  0.00     0.150 C 
BRANCH  25  26
ATOM     26  C   UNL     1       7.546  46.159  52.259  1.00  0.00    -0.029 A 
ATOM     27  C   UNL     1       8.750  46.169  51.539  1.00  0.00     0.005 A 
ATOM     28  C   UNL     1       7.533  46.673  53.564  1.00  0.00     0.005 A 
ATOM     29  C   UNL     1       9.914  46.690  52.108  1.00  0.00     0.000 A 
ATOM     30  C   UNL     1       8.698  47.195  54.131  1.00  0.00     0.000 A 
ATOM     31  C   UNL     1       9.887  47.204  53.403  1.00  0.00     0.000 A 
ENDBRANCH  25  26
ENDBRANCH  23  25
ENDBRANCH   3  23
TORSDOF 7
ENDMDL
MODEL 19
REMARK VINA RESULT:    -8.374      2.587      5.391
REMARK INTER + INTRA:         -12.843
REMARK INTER:                 -11.908
REMARK INTRA:                  -0.935
REMARK UNBOUND:                -1.043
REMARK SMILES COc1ccc(Nc2nc(NCc3ccccc3)c3nccnc3n2)c(OC)c1
REMARK SMILES IDX 8 1 9 2 10 3 19 4 20 5 21 6 22 7 23 8 24 9 25 10 7 11 6 13
REMARK SMILES IDX 3 14 4 15 29 16 5 17 26 18 2 19 1 20 27 21 28 22 11 23 12 25
REMARK SMILES IDX 13 26 14 27 18 28 15 29 17 30 16 31
REMARK H PARENT 7 12 11 24
ROOT
ATOM      1  C   UNL     1       2.960  44.429  54.012  1.00  0.00     0.231 A 
ATOM      2  N   UNL     1       3.720  45.493  53.735  1.00  0.00    -0.193 NA
ATOM      3  C   UNL     1       4.580  45.408  52.703  1.00  0.00     0.160 A 
ATOM      4  C   UNL     1       4.702  44.267  51.912  1.00  0.00     0.150 A 
ATOM      5  N   UNL     1       5.585  44.161  50.868  1.00  0.00    -0.247 NA
ATOM      6  C   UNL     1       5.582  42.991  50.207  1.00  0.00     0.132 A 
ATOM      7  C   UNL     1       4.747  41.962  50.574  1.00  0.00     0.133 A 
ATOM      8  N   UNL     1       3.889  42.064  51.614  1.00  0.00    -0.233 NA
ATOM      9  C   UNL     1       3.857  43.218  52.294  1.00  0.00     0.185 A 
ATOM     10  N   UNL     1       3.015  43.296  53.315  1.00  0.00    -0.191 NA
ENDROOT
BRANCH   1  11
ATOM     11  N   UNL     1       2.101  44.583  55.090  1.00  0.00    -0.321 N 
ATOM     12  H   UNL     1       2.607  44.590  55.966  1.00  0.00     0.170 HD
BRANCH  11  13
ATOM     13  C   UNL     1       0.715  44.766  55.233  1.00  0.00     0.084 A 
ATOM     14  C   UNL     1      -2.050  45.193  55.630  1.00  0.00     0.122 A 
ATOM     15  C   UNL     1      -1.602  44.440  54.549  1.00  0.00     0.049 A 
ATOM     16  C   UNL     1      -1.118  45.737  56.520  1.00  0.00     0.095 A 
ATOM     17  C   UNL     1      -0.231  44.229  54.356  1.00  0.00     0.034 A 
ATOM     18  C   UNL     1       0.252  45.530  56.330  1.00  0.00     0.146 A 
BRANCH  14  19
ATOM     19  O   UNL     1      -3.355  45.471  55.931  1.00  0.00    -0.497 OA
ATOM     20  C   UNL     1      -3.634  45.883  57.262  1.00  0.00     0.278 C 
ENDBRANCH  14  19
BRANCH  18  21
ATOM     21  O   UNL     1       1.242  46.024  57.153  1.00  0.00    -0.494 OA
ATOM     22  C   UNL     1       0.824  46.758  58.297  1.00  0.00     0.278 C 
ENDBRANCH  18  21
ENDBRANCH  11  13
ENDBRANCH   1  11
BRANCH   3  23
ATOM     23  N   UNL     1       5.335  46.553  52.349  1.00  0.00    -0.364 N 
ATOM     24  H   UNL     1       5.934  46.323  51.556  1.00  0.00     0.162 HD
BRANCH  23  25
ATOM     25  C   UNL     1       6.050  47.185  53.445  1.00  0.00     0.150 C 
BRANCH  25  26
ATOM     26  C   UNL     1       7.536  47.039  53.213  1.00  0.00    -0.029 A 
ATOM     27  C   UNL     1       8.025  46.712  51.939  1.00  0.00     0.005 A 
ATOM     28  C   UNL     1       8.448  47.214  54.264  1.00  0.00     0.005 A 
ATOM     29  C   UNL     1       9.397  46.570  51.720  1.00  0.00     0.000 A 
ATOM     30  C   UNL     1       9.820  47.073  54.042  1.00  0.00     0.000 A 
ATOM     31  C   UNL     1      10.293  46.753  52.771  1.00  0.00     0.000 A 
ENDBRANCH  25  26
ENDBRANCH  23  25
ENDBRANCH   3  23
TORSDOF 7
ENDMDL
MODEL 20
REMARK VINA RESULT:    -8.214      3.384      6.089
REMARK INTER + INTRA:         -12.618
REMARK INTER:                 -11.849
REMARK INTRA:                  -0.769
REMARK UNBOUND:                -1.043
REMARK SMILES COc1ccc(Nc2nc(NCc3ccccc3)c3nccnc3n2)c(OC)c1
REMARK SMILES IDX 8 1 9 2 10 3 19 4 20 5 21 6 22 7 23 8 24 9 25 10 7 11 6 13
REMARK SMILES IDX 3 14 4 15 29 16 5 17 26 18 2 19 1 20 27 21 28 22 11 23 12 25
REMARK SMILES IDX 13 26 14 27 18 28 15 29 17 30 16 31
REMARK H PARENT 7 12 11 24
ROOT
ATOM      1  C   UNL     1       2.048  44.958  55.553  1.00  0.00     0.231 A 
ATOM      2  N   UNL     1       3.076  45.805  55.440  1.00  0.00    -0.193 NA
ATOM      3  C   UNL     1       3.781  45.798  54.292  1.00  0.00     0.160 A 
ATOM      4  C   UNL     1       3.478  44.958  53.224  1.00  0.00     0.150 A 
ATOM      5  N   UNL     1       4.197  44.930  52.056  1.00  0.00    -0.247 NA
ATOM      6  C   UNL     1       3.777  44.057  51.123  1.00  0.00     0.132 A 
ATOM      7  C   UNL     1       2.696  43.236  51.345  1.00  0.00     0.133 A 
ATOM      8  N   UNL     1       2.000  43.255  52.503  1.00  0.00    -0.233 NA
ATOM      9  C   UNL     1       2.383  44.116  53.455  1.00  0.00     0.185 A 
ATOM     10  N   UNL     1       1.692  44.115  54.586  1.00  0.00    -0.191 NA
ENDROOT
BRANCH   1  11
ATOM     11  N   UNL     1       1.370  45.014  56.761  1.00  0.00    -0.321 N 
ATOM     12  H   UNL     1       1.526  44.179  57.311  1.00  0.00     0.170 HD
BRANCH  11  13
ATOM     13  C   UNL     1       0.560  45.969  57.399  1.00  0.00     0.084 A 
ATOM     14  C   UNL     1      -1.160  47.863  58.599  1.00  0.00     0.122 A 
ATOM     15  C   UNL     1       0.155  47.731  59.034  1.00  0.00     0.049 A 
ATOM     16  C   UNL     1      -1.623  47.049  57.560  1.00  0.00     0.095 A 
ATOM     17  C   UNL     1       1.005  46.792  58.436  1.00  0.00     0.034 A 
ATOM     18  C   UNL     1      -0.778  46.109  56.961  1.00  0.00     0.146 A 
BRANCH  14  19
ATOM     19  O   UNL     1      -2.088  48.737  59.096  1.00  0.00    -0.497 OA
ATOM     20  C   UNL     1      -1.593  49.941  59.670  1.00  0.00     0.278 C 
ENDBRANCH  14  19
BRANCH  18  21
ATOM     21  O   UNL     1      -1.145  45.266  55.933  1.00  0.00    -0.494 OA
ATOM     22  C   UNL     1      -2.122  44.277  56.227  1.00  0.00     0.278 C 
ENDBRANCH  18  21
ENDBRANCH  11  13
ENDBRANCH   1  11
BRANCH   3  23
ATOM     23  N   UNL     1       4.823  46.744  54.127  1.00  0.00    -0.364 N 
ATOM     24  H   UNL     1       4.976  46.898  53.131  1.00  0.00     0.162 HD
BRANCH  23  25
ATOM     25  C   UNL     1       6.045  46.450  54.856  1.00  0.00     0.150 C 
BRANCH  25  26
ATOM     26  C   UNL     1       7.230  46.678  53.946  1.00  0.00    -0.029 A 
ATOM     27  C   UNL     1       8.415  47.232  54.453  1.00  0.00     0.005 A 
ATOM     28  C   UNL     1       7.162  46.355  52.583  1.00  0.00     0.005 A 
ATOM     29  C   UNL     1       9.511  47.450  53.616  1.00  0.00     0.000 A 
ATOM     30  C   UNL     1       8.260  46.573  51.748  1.00  0.00     0.000 A 
ATOM     31  C   UNL     1       9.434  47.119  52.265  1.00  0.00     0.000 A 
ENDBRANCH  25  26
ENDBRANCH  23  25
ENDBRANCH   3  23
TORSDOF 7
ENDMDL
