MODEL 1
REMARK VINA RESULT:    -8.113      0.000      0.000
REMARK INTER + INTRA:         -12.219
REMARK INTER:                 -11.433
REMARK INTRA:                  -0.786
REMARK UNBOUND:                -0.786
REMARK SMILES C=CCNc1nc(Nc2ccc(OC)cc2OC)c2cnn(C)c2n1
REMARK SMILES IDX 5 1 6 2 7 3 19 4 20 5 21 6 22 7 23 8 24 9 25 10 4 11 3 13
REMARK SMILES IDX 2 14 1 15 8 16 9 18 10 19 16 20 11 21 15 22 12 23 17 24
REMARK SMILES IDX 18 25 13 26 14 27
REMARK H PARENT 4 12 8 17
ROOT
ATOM      1  C   UNL     1       7.814  47.077  52.161  1.00  0.00     0.226 A 
ATOM      2  N   UNL     1       6.597  47.373  52.654  1.00  0.00    -0.195 NA
ATOM      3  C   UNL     1       5.514  46.628  52.320  1.00  0.00     0.147 A 
ATOM      4  C   UNL     1       5.703  45.594  51.400  1.00  0.00     0.082 A 
ATOM      5  C   UNL     1       4.932  44.651  50.689  1.00  0.00     0.149 A 
ATOM      6  N   UNL     1       5.669  43.863  49.898  1.00  0.00    -0.179 NA
ATOM      7  N   UNL     1       6.924  44.336  50.079  1.00  0.00    -0.250 N 
ATOM      8  C   UNL     1       8.016  43.744  49.349  1.00  0.00     0.176 C 
ATOM      9  C   UNL     1       6.994  45.380  50.959  1.00  0.00     0.165 A 
ATOM     10  N   UNL     1       8.087  46.072  51.319  1.00  0.00    -0.193 NA
ENDROOT
BRANCH   1  11
ATOM     11  N   UNL     1       8.916  47.841  52.523  1.00  0.00    -0.351 N 
ATOM     12  H   UNL     1       9.264  48.240  51.658  1.00  0.00     0.164 HD
BRANCH  11  13
ATOM     13  C   UNL     1       9.914  47.163  53.320  1.00  0.00     0.143 C 
BRANCH  13  14
ATOM     14  C   UNL     1       9.706  47.535  54.757  1.00  0.00    -0.014 C 
ATOM     15  C   UNL     1      10.664  47.525  55.693  1.00  0.00     0.006 C 
ENDBRANCH  13  14
ENDBRANCH  11  13
ENDBRANCH   1  11
BRANCH   3  16
ATOM     16  N   UNL     1       4.291  47.020  52.866  1.00  0.00    -0.336 N 
ATOM     17  H   UNL     1       4.386  47.917  53.335  1.00  0.00     0.168 HD
BRANCH  16  18
ATOM     18  C   UNL     1       3.210  46.281  53.392  1.00  0.00     0.083 A 
ATOM     19  C   UNL     1       2.017  46.070  52.695  1.00  0.00     0.034 A 
ATOM     20  C   UNL     1       3.315  45.780  54.712  1.00  0.00     0.146 A 
ATOM     21  C   UNL     1       0.958  45.379  53.288  1.00  0.00     0.049 A 
ATOM     22  C   UNL     1       2.248  45.085  55.300  1.00  0.00     0.095 A 
ATOM     23  C   UNL     1       1.064  44.888  54.588  1.00  0.00     0.122 A 
BRANCH  20  24
ATOM     24  O   UNL     1       4.527  46.009  55.325  1.00  0.00    -0.494 OA
ATOM     25  C   UNL     1       5.390  44.894  55.503  1.00  0.00     0.278 C 
ENDBRANCH  20  24
BRANCH  23  26
ATOM     26  O   UNL     1      -0.048  44.231  55.039  1.00  0.00    -0.497 OA
ATOM     27  C   UNL     1      -0.811  43.511  54.078  1.00  0.00     0.278 C 
ENDBRANCH  23  26
ENDBRANCH  16  18
ENDBRANCH   3  16
TORSDOF 7
ENDMDL
MODEL 2
REMARK VINA RESULT:    -7.989      2.827      7.015
REMARK INTER + INTRA:         -12.044
REMARK INTER:                 -11.199
REMARK INTRA:                  -0.845
REMARK UNBOUND:                -0.786
REMARK SMILES C=CCNc1nc(Nc2ccc(OC)cc2OC)c2cnn(C)c2n1
REMARK SMILES IDX 5 1 6 2 7 3 19 4 20 5 21 6 22 7 23 8 24 9 25 10 4 11 3 13
REMARK SMILES IDX 2 14 1 15 8 16 9 18 10 19 16 20 11 21 15 22 12 23 17 24
REMARK SMILES IDX 18 25 13 26 14 27
REMARK H PARENT 4 12 8 17
ROOT
ATOM      1  C   UNL     1       3.844  42.636  51.713  1.00  0.00     0.226 A 
ATOM      2  N   UNL     1       4.664  43.690  51.550  1.00  0.00    -0.195 NA
ATOM      3  C   UNL     1       4.337  44.906  52.054  1.00  0.00     0.147 A 
ATOM      4  C   UNL     1       3.096  45.030  52.682  1.00  0.00     0.082 A 
ATOM      5  C   UNL     1       2.288  46.038  53.248  1.00  0.00     0.149 A 
ATOM      6  N   UNL     1       1.129  45.571  53.728  1.00  0.00    -0.179 NA
ATOM      7  N   UNL     1       1.184  44.253  53.429  1.00  0.00    -0.250 N 
ATOM      8  C   UNL     1       0.071  43.403  53.771  1.00  0.00     0.176 C 
ATOM      9  C   UNL     1       2.336  43.882  52.792  1.00  0.00     0.165 A 
ATOM     10  N   UNL     1       2.665  42.659  52.347  1.00  0.00    -0.193 NA
ENDROOT
BRANCH   1  11
ATOM     11  N   UNL     1       4.198  41.393  51.203  1.00  0.00    -0.351 N 
ATOM     12  H   UNL     1       5.153  41.238  51.505  1.00  0.00     0.164 HD
BRANCH  11  13
ATOM     13  C   UNL     1       3.976  41.210  49.786  1.00  0.00     0.143 C 
BRANCH  13  14
ATOM     14  C   UNL     1       5.304  41.238  49.091  1.00  0.00    -0.014 C 
ATOM     15  C   UNL     1       6.488  41.317  49.714  1.00  0.00     0.006 C 
ENDBRANCH  13  14
ENDBRANCH  11  13
ENDBRANCH   1  11
BRANCH   3  16
ATOM     16  N   UNL     1       5.240  45.944  51.822  1.00  0.00    -0.336 N 
ATOM     17  H   UNL     1       5.163  46.271  50.862  1.00  0.00     0.168 HD
BRANCH  16  18
ATOM     18  C   UNL     1       6.518  46.223  52.354  1.00  0.00     0.083 A 
ATOM     19  C   UNL     1       6.724  46.633  53.673  1.00  0.00     0.034 A 
ATOM     20  C   UNL     1       7.638  46.140  51.493  1.00  0.00     0.146 A 
ATOM     21  C   UNL     1       8.005  46.951  54.130  1.00  0.00     0.049 A 
ATOM     22  C   UNL     1       8.922  46.458  51.959  1.00  0.00     0.095 A 
ATOM     23  C   UNL     1       9.107  46.869  53.280  1.00  0.00     0.122 A 
BRANCH  20  24
ATOM     24  O   UNL     1       7.359  45.708  50.215  1.00  0.00    -0.494 OA
ATOM     25  C   UNL     1       8.104  44.603  49.721  1.00  0.00     0.278 C 
ENDBRANCH  20  24
BRANCH  23  26
ATOM     26  O   UNL     1      10.298  47.207  53.861  1.00  0.00    -0.497 OA
ATOM     27  C   UNL     1      10.282  47.496  55.254  1.00  0.00     0.278 C 
ENDBRANCH  23  26
ENDBRANCH  16  18
ENDBRANCH   3  16
TORSDOF 7
ENDMDL
MODEL 3
REMARK VINA RESULT:    -7.931      1.285      1.967
REMARK INTER + INTRA:         -11.963
REMARK INTER:                 -11.122
REMARK INTRA:                  -0.841
REMARK UNBOUND:                -0.786
REMARK SMILES C=CCNc1nc(Nc2ccc(OC)cc2OC)c2cnn(C)c2n1
REMARK SMILES IDX 5 1 6 2 7 3 19 4 20 5 21 6 22 7 23 8 24 9 25 10 4 11 3 13
REMARK SMILES IDX 2 14 1 15 8 16 9 18 10 19 16 20 11 21 15 22 12 23 17 24
REMARK SMILES IDX 18 25 13 26 14 27
REMARK H PARENT 4 12 8 17
ROOT
ATOM      1  C   UNL     1       7.972  47.128  52.475  1.00  0.00     0.226 A 
ATOM      2  N   UNL     1       6.700  47.388  52.830  1.00  0.00    -0.195 NA
ATOM      3  C   UNL     1       5.675  46.671  52.306  1.00  0.00     0.147 A 
ATOM      4  C   UNL     1       5.987  45.709  51.343  1.00  0.00     0.082 A 
ATOM      5  C   UNL     1       5.321  44.823  50.471  1.00  0.00     0.149 A 
ATOM      6  N   UNL     1       6.160  44.096  49.723  1.00  0.00    -0.179 NA
ATOM      7  N   UNL     1       7.377  44.554  50.097  1.00  0.00    -0.250 N 
ATOM      8  C   UNL     1       8.558  44.017  49.469  1.00  0.00     0.176 C 
ATOM      9  C   UNL     1       7.326  45.528  51.055  1.00  0.00     0.165 A 
ATOM     10  N   UNL     1       8.359  46.190  51.601  1.00  0.00    -0.193 NA
ENDROOT
BRANCH   1  11
ATOM     11  N   UNL     1       9.014  47.862  53.029  1.00  0.00    -0.351 N 
ATOM     12  H   UNL     1       9.860  47.487  52.614  1.00  0.00     0.164 HD
BRANCH  11  13
ATOM     13  C   UNL     1       9.030  47.934  54.473  1.00  0.00     0.143 C 
BRANCH  13  14
ATOM     14  C   UNL     1      10.258  47.230  54.969  1.00  0.00    -0.014 C 
ATOM     15  C   UNL     1      10.925  47.557  56.084  1.00  0.00     0.006 C 
ENDBRANCH  13  14
ENDBRANCH  11  13
ENDBRANCH   1  11
BRANCH   3  16
ATOM     16  N   UNL     1       4.389  47.022  52.720  1.00  0.00    -0.336 N 
ATOM     17  H   UNL     1       4.245  48.023  52.612  1.00  0.00     0.168 HD
BRANCH  16  18
ATOM     18  C   UNL     1       3.536  46.487  53.709  1.00  0.00     0.083 A 
ATOM     19  C   UNL     1       3.894  46.385  55.055  1.00  0.00     0.034 A 
ATOM     20  C   UNL     1       2.278  45.975  53.307  1.00  0.00     0.146 A 
ATOM     21  C   UNL     1       3.031  45.794  55.980  1.00  0.00     0.049 A 
ATOM     22  C   UNL     1       1.415  45.385  54.242  1.00  0.00     0.095 A 
ATOM     23  C   UNL     1       1.793  45.290  55.583  1.00  0.00     0.122 A 
BRANCH  20  24
ATOM     24  O   UNL     1       1.988  46.131  51.970  1.00  0.00    -0.494 OA
ATOM     25  C   UNL     1       1.793  44.952  51.201  1.00  0.00     0.278 C 
ENDBRANCH  20  24
BRANCH  23  26
ATOM     26  O   UNL     1       1.053  44.742  56.593  1.00  0.00    -0.497 OA
ATOM     27  C   UNL     1      -0.278  45.217  56.754  1.00  0.00     0.278 C 
ENDBRANCH  23  26
ENDBRANCH  16  18
ENDBRANCH   3  16
TORSDOF 7
ENDMDL
MODEL 4
REMARK VINA RESULT:    -7.890      2.522      6.629
REMARK INTER + INTRA:         -11.905
REMARK INTER:                 -11.175
REMARK INTRA:                  -0.730
REMARK UNBOUND:                -0.786
REMARK SMILES C=CCNc1nc(Nc2ccc(OC)cc2OC)c2cnn(C)c2n1
REMARK SMILES IDX 5 1 6 2 7 3 19 4 20 5 21 6 22 7 23 8 24 9 25 10 4 11 3 13
REMARK SMILES IDX 2 14 1 15 8 16 9 18 10 19 16 20 11 21 15 22 12 23 17 24
REMARK SMILES IDX 18 25 13 26 14 27
REMARK H PARENT 4 12 8 17
ROOT
ATOM      1  C   UNL     1       3.703  42.677  51.516  1.00  0.00     0.226 A 
ATOM      2  N   UNL     1       4.454  43.774  51.308  1.00  0.00    -0.195 NA
ATOM      3  C   UNL     1       4.001  45.001  51.667  1.00  0.00     0.147 A 
ATOM      4  C   UNL     1       2.710  45.083  52.192  1.00  0.00     0.082 A 
ATOM      5  C   UNL     1       1.789  46.071  52.598  1.00  0.00     0.149 A 
ATOM      6  N   UNL     1       0.634  45.558  53.039  1.00  0.00    -0.179 NA
ATOM      7  N   UNL     1       0.808  44.227  52.876  1.00  0.00    -0.250 N 
ATOM      8  C   UNL     1      -0.263  43.325  53.220  1.00  0.00     0.176 C 
ATOM      9  C   UNL     1       2.029  43.893  52.360  1.00  0.00     0.165 A 
ATOM     10  N   UNL     1       2.480  42.664  52.061  1.00  0.00    -0.193 NA
ENDROOT
BRANCH   1  11
ATOM     11  N   UNL     1       4.186  41.424  51.156  1.00  0.00    -0.351 N 
ATOM     12  H   UNL     1       4.848  41.171  51.880  1.00  0.00     0.164 HD
BRANCH  11  13
ATOM     13  C   UNL     1       4.694  41.313  49.807  1.00  0.00     0.143 C 
BRANCH  13  14
ATOM     14  C   UNL     1       6.187  41.438  49.851  1.00  0.00    -0.014 C 
ATOM     15  C   UNL     1       6.875  42.502  49.417  1.00  0.00     0.006 C 
ENDBRANCH  13  14
ENDBRANCH  11  13
ENDBRANCH   1  11
BRANCH   3  16
ATOM     16  N   UNL     1       4.842  46.082  51.398  1.00  0.00    -0.336 N 
ATOM     17  H   UNL     1       4.685  46.425  50.453  1.00  0.00     0.168 HD
BRANCH  16  18
ATOM     18  C   UNL     1       6.139  46.406  51.849  1.00  0.00     0.083 A 
ATOM     19  C   UNL     1       7.302  45.984  51.200  1.00  0.00     0.034 A 
ATOM     20  C   UNL     1       6.270  47.144  53.051  1.00  0.00     0.146 A 
ATOM     21  C   UNL     1       8.561  46.286  51.723  1.00  0.00     0.049 A 
ATOM     22  C   UNL     1       7.538  47.446  53.569  1.00  0.00     0.095 A 
ATOM     23  C   UNL     1       8.688  47.012  52.907  1.00  0.00     0.122 A 
BRANCH  20  24
ATOM     24  O   UNL     1       5.081  47.543  53.620  1.00  0.00    -0.494 OA
ATOM     25  C   UNL     1       4.698  46.919  54.839  1.00  0.00     0.278 C 
ENDBRANCH  20  24
BRANCH  23  26
ATOM     26  O   UNL     1       9.978  47.235  53.300  1.00  0.00    -0.497 OA
ATOM     27  C   UNL     1      10.234  47.270  54.699  1.00  0.00     0.278 C 
ENDBRANCH  23  26
ENDBRANCH  16  18
ENDBRANCH   3  16
TORSDOF 7
ENDMDL
MODEL 5
REMARK VINA RESULT:    -7.849      2.143      6.306
REMARK INTER + INTRA:         -11.847
REMARK INTER:                 -11.091
REMARK INTRA:                  -0.756
REMARK UNBOUND:                -0.786
REMARK SMILES C=CCNc1nc(Nc2ccc(OC)cc2OC)c2cnn(C)c2n1
REMARK SMILES IDX 5 1 6 2 7 3 19 4 20 5 21 6 22 7 23 8 24 9 25 10 4 11 3 13
REMARK SMILES IDX 2 14 1 15 8 16 9 18 10 19 16 20 11 21 15 22 12 23 17 24
REMARK SMILES IDX 18 25 13 26 14 27
REMARK H PARENT 4 12 8 17
ROOT
ATOM      1  C   UNL     1       4.208  43.845  52.025  1.00  0.00     0.226 A 
ATOM      2  N   UNL     1       4.908  44.976  52.233  1.00  0.00    -0.195 NA
ATOM      3  C   UNL     1       5.976  45.282  51.454  1.00  0.00     0.147 A 
ATOM      4  C   UNL     1       6.353  44.352  50.484  1.00  0.00     0.082 A 
ATOM      5  C   UNL     1       7.387  44.157  49.545  1.00  0.00     0.149 A 
ATOM      6  N   UNL     1       7.246  43.028  48.840  1.00  0.00    -0.179 NA
ATOM      7  N   UNL     1       6.127  42.477  49.364  1.00  0.00    -0.250 N 
ATOM      8  C   UNL     1       5.665  41.205  48.868  1.00  0.00     0.176 C 
ATOM      9  C   UNL     1       5.563  43.226  50.359  1.00  0.00     0.165 A 
ATOM     10  N   UNL     1       4.472  42.930  51.083  1.00  0.00    -0.193 NA
ENDROOT
BRANCH   1  11
ATOM     11  N   UNL     1       3.108  43.551  52.821  1.00  0.00    -0.351 N 
ATOM     12  H   UNL     1       2.533  42.924  52.268  1.00  0.00     0.164 HD
BRANCH  11  13
ATOM     13  C   UNL     1       2.406  44.691  53.366  1.00  0.00     0.143 C 
BRANCH  13  14
ATOM     14  C   UNL     1       1.611  44.235  54.552  1.00  0.00    -0.014 C 
ATOM     15  C   UNL     1       1.503  44.912  55.704  1.00  0.00     0.006 C 
ENDBRANCH  13  14
ENDBRANCH  11  13
ENDBRANCH   1  11
BRANCH   3  16
ATOM     16  N   UNL     1       6.650  46.466  51.754  1.00  0.00    -0.336 N 
ATOM     17  H   UNL     1       6.627  47.097  50.956  1.00  0.00     0.168 HD
BRANCH  16  18
ATOM     18  C   UNL     1       7.755  46.740  52.589  1.00  0.00     0.083 A 
ATOM     19  C   UNL     1       9.077  46.485  52.216  1.00  0.00     0.034 A 
ATOM     20  C   UNL     1       7.507  47.241  53.890  1.00  0.00     0.146 A 
ATOM     21  C   UNL     1      10.127  46.722  53.105  1.00  0.00     0.049 A 
ATOM     22  C   UNL     1       8.568  47.480  54.777  1.00  0.00     0.095 A 
ATOM     23  C   UNL     1       9.881  47.215  54.386  1.00  0.00     0.122 A 
BRANCH  20  24
ATOM     24  O   UNL     1       6.183  47.488  54.175  1.00  0.00    -0.494 OA
ATOM     25  C   UNL     1       5.521  46.577  55.043  1.00  0.00     0.278 C 
ENDBRANCH  20  24
BRANCH  23  26
ATOM     26  O   UNL     1      11.002  47.401  55.147  1.00  0.00    -0.497 OA
ATOM     27  C   UNL     1      10.814  47.862  56.479  1.00  0.00     0.278 C 
ENDBRANCH  23  26
ENDBRANCH  16  18
ENDBRANCH   3  16
TORSDOF 7
ENDMDL
MODEL 6
REMARK VINA RESULT:    -7.757      1.644      2.590
REMARK INTER + INTRA:         -11.717
REMARK INTER:                 -10.775
REMARK INTRA:                  -0.942
REMARK UNBOUND:                -0.786
REMARK SMILES C=CCNc1nc(Nc2ccc(OC)cc2OC)c2cnn(C)c2n1
REMARK SMILES IDX 5 1 6 2 7 3 19 4 20 5 21 6 22 7 23 8 24 9 25 10 4 11 3 13
REMARK SMILES IDX 2 14 1 15 8 16 9 18 10 19 16 20 11 21 15 22 12 23 17 24
REMARK SMILES IDX 18 25 13 26 14 27
REMARK H PARENT 4 12 8 17
ROOT
ATOM      1  C   UNL     1       6.950  45.661  51.052  1.00  0.00     0.226 A 
ATOM      2  N   UNL     1       5.939  46.270  51.699  1.00  0.00    -0.195 NA
ATOM      3  C   UNL     1       4.787  45.606  51.965  1.00  0.00     0.147 A 
ATOM      4  C   UNL     1       4.670  44.301  51.483  1.00  0.00     0.082 A 
ATOM      5  C   UNL     1       3.700  43.280  51.405  1.00  0.00     0.149 A 
ATOM      6  N   UNL     1       4.153  42.174  50.801  1.00  0.00    -0.179 NA
ATOM      7  N   UNL     1       5.417  42.510  50.456  1.00  0.00    -0.250 N 
ATOM      8  C   UNL     1       6.231  41.560  49.740  1.00  0.00     0.176 C 
ATOM      9  C   UNL     1       5.770  43.777  50.831  1.00  0.00     0.165 A 
ATOM     10  N   UNL     1       6.937  44.398  50.605  1.00  0.00    -0.193 NA
ENDROOT
BRANCH   1  11
ATOM     11  N   UNL     1       8.130  46.350  50.798  1.00  0.00    -0.351 N 
ATOM     12  H   UNL     1       8.833  45.635  50.647  1.00  0.00     0.164 HD
BRANCH  11  13
ATOM     13  C   UNL     1       8.490  47.355  51.773  1.00  0.00     0.143 C 
BRANCH  13  14
ATOM     14  C   UNL     1       9.654  46.846  52.570  1.00  0.00    -0.014 C 
ATOM     15  C   UNL     1       9.893  47.157  53.851  1.00  0.00     0.006 C 
ENDBRANCH  13  14
ENDBRANCH  11  13
ENDBRANCH   1  11
BRANCH   3  16
ATOM     16  N   UNL     1       3.789  46.323  52.626  1.00  0.00    -0.336 N 
ATOM     17  H   UNL     1       3.988  47.320  52.589  1.00  0.00     0.168 HD
BRANCH  16  18
ATOM     18  C   UNL     1       2.971  46.006  53.732  1.00  0.00     0.083 A 
ATOM     19  C   UNL     1       3.438  45.990  55.048  1.00  0.00     0.034 A 
ATOM     20  C   UNL     1       1.628  45.628  53.490  1.00  0.00     0.146 A 
ATOM     21  C   UNL     1       2.599  45.613  56.098  1.00  0.00     0.049 A 
ATOM     22  C   UNL     1       0.790  45.252  54.550  1.00  0.00     0.095 A 
ATOM     23  C   UNL     1       1.277  45.240  55.858  1.00  0.00     0.122 A 
BRANCH  20  24
ATOM     24  O   UNL     1       1.236  45.689  52.171  1.00  0.00    -0.494 OA
ATOM     25  C   UNL     1       0.206  44.803  51.753  1.00  0.00     0.278 C 
ENDBRANCH  20  24
BRANCH  23  26
ATOM     26  O   UNL     1       0.571  44.897  56.978  1.00  0.00    -0.497 OA
ATOM     27  C   UNL     1      -0.847  44.970  56.900  1.00  0.00     0.278 C 
ENDBRANCH  23  26
ENDBRANCH  16  18
ENDBRANCH   3  16
TORSDOF 7
ENDMDL
MODEL 7
REMARK VINA RESULT:    -7.712      1.437      2.005
REMARK INTER + INTRA:         -11.654
REMARK INTER:                 -10.834
REMARK INTRA:                  -0.820
REMARK UNBOUND:                -0.786
REMARK SMILES C=CCNc1nc(Nc2ccc(OC)cc2OC)c2cnn(C)c2n1
REMARK SMILES IDX 5 1 6 2 7 3 19 4 20 5 21 6 22 7 23 8 24 9 25 10 4 11 3 13
REMARK SMILES IDX 2 14 1 15 8 16 9 18 10 19 16 20 11 21 15 22 12 23 17 24
REMARK SMILES IDX 18 25 13 26 14 27
REMARK H PARENT 4 12 8 17
ROOT
ATOM      1  C   UNL     1       6.827  45.466  50.888  1.00  0.00     0.226 A 
ATOM      2  N   UNL     1       5.820  46.070  51.545  1.00  0.00    -0.195 NA
ATOM      3  C   UNL     1       4.671  45.402  51.817  1.00  0.00     0.147 A 
ATOM      4  C   UNL     1       4.554  44.098  51.331  1.00  0.00     0.082 A 
ATOM      5  C   UNL     1       3.586  43.075  51.256  1.00  0.00     0.149 A 
ATOM      6  N   UNL     1       4.037  41.973  50.645  1.00  0.00    -0.179 NA
ATOM      7  N   UNL     1       5.298  42.313  50.292  1.00  0.00    -0.250 N 
ATOM      8  C   UNL     1       6.109  41.367  49.567  1.00  0.00     0.176 C 
ATOM      9  C   UNL     1       5.650  43.579  50.669  1.00  0.00     0.165 A 
ATOM     10  N   UNL     1       6.815  44.205  50.437  1.00  0.00    -0.193 NA
ENDROOT
BRANCH   1  11
ATOM     11  N   UNL     1       8.004  46.158  50.629  1.00  0.00    -0.351 N 
ATOM     12  H   UNL     1       8.709  45.446  50.476  1.00  0.00     0.164 HD
BRANCH  11  13
ATOM     13  C   UNL     1       8.364  47.166  51.600  1.00  0.00     0.143 C 
BRANCH  13  14
ATOM     14  C   UNL     1       9.647  46.753  52.258  1.00  0.00    -0.014 C 
ATOM     15  C   UNL     1       9.966  47.011  53.533  1.00  0.00     0.006 C 
ENDBRANCH  13  14
ENDBRANCH  11  13
ENDBRANCH   1  11
BRANCH   3  16
ATOM     16  N   UNL     1       3.676  46.114  52.488  1.00  0.00    -0.336 N 
ATOM     17  H   UNL     1       3.861  47.113  52.435  1.00  0.00     0.168 HD
BRANCH  16  18
ATOM     18  C   UNL     1       2.884  45.800  53.614  1.00  0.00     0.083 A 
ATOM     19  C   UNL     1       1.540  45.433  53.524  1.00  0.00     0.034 A 
ATOM     20  C   UNL     1       3.465  45.922  54.899  1.00  0.00     0.146 A 
ATOM     21  C   UNL     1       0.789  45.190  54.676  1.00  0.00     0.049 A 
ATOM     22  C   UNL     1       2.705  45.674  56.052  1.00  0.00     0.095 A 
ATOM     23  C   UNL     1       1.362  45.311  55.942  1.00  0.00     0.122 A 
BRANCH  20  24
ATOM     24  O   UNL     1       4.798  46.267  54.905  1.00  0.00    -0.494 OA
ATOM     25  C   UNL     1       5.724  45.287  55.355  1.00  0.00     0.278 C 
ENDBRANCH  20  24
BRANCH  23  26
ATOM     26  O   UNL     1       0.511  45.042  56.978  1.00  0.00    -0.497 OA
ATOM     27  C   UNL     1      -0.868  44.893  56.664  1.00  0.00     0.278 C 
ENDBRANCH  23  26
ENDBRANCH  16  18
ENDBRANCH   3  16
TORSDOF 7
ENDMDL
MODEL 8
REMARK VINA RESULT:    -7.626      1.825      4.352
REMARK INTER + INTRA:         -11.533
REMARK INTER:                 -10.508
REMARK INTRA:                  -1.025
REMARK UNBOUND:                -0.786
REMARK SMILES C=CCNc1nc(Nc2ccc(OC)cc2OC)c2cnn(C)c2n1
REMARK SMILES IDX 5 1 6 2 7 3 19 4 20 5 21 6 22 7 23 8 24 9 25 10 4 11 3 13
REMARK SMILES IDX 2 14 1 15 8 16 9 18 10 19 16 20 11 21 15 22 12 23 17 24
REMARK SMILES IDX 18 25 13 26 14 27
REMARK H PARENT 4 12 8 17
ROOT
ATOM      1  C   UNL     1       6.555  44.492  50.257  1.00  0.00     0.226 A 
ATOM      2  N   UNL     1       5.420  45.014  50.757  1.00  0.00    -0.195 NA
ATOM      3  C   UNL     1       5.459  46.076  51.601  1.00  0.00     0.147 A 
ATOM      4  C   UNL     1       6.716  46.553  51.977  1.00  0.00     0.082 A 
ATOM      5  C   UNL     1       7.271  47.507  52.855  1.00  0.00     0.149 A 
ATOM      6  N   UNL     1       8.608  47.542  52.811  1.00  0.00    -0.179 NA
ATOM      7  N   UNL     1       8.911  46.569  51.921  1.00  0.00    -0.250 N 
ATOM      8  C   UNL     1      10.293  46.282  51.628  1.00  0.00     0.176 C 
ATOM      9  C   UNL     1       7.813  45.940  51.402  1.00  0.00     0.165 A 
ATOM     10  N   UNL     1       7.794  44.924  50.525  1.00  0.00    -0.193 NA
ENDROOT
BRANCH   1  11
ATOM     11  N   UNL     1       6.499  43.413  49.383  1.00  0.00    -0.351 N 
ATOM     12  H   UNL     1       5.673  43.567  48.816  1.00  0.00     0.164 HD
BRANCH  11  13
ATOM     13  C   UNL     1       6.577  42.106  49.995  1.00  0.00     0.143 C 
BRANCH  13  14
ATOM     14  C   UNL     1       5.229  41.457  49.900  1.00  0.00    -0.014 C 
ATOM     15  C   UNL     1       4.305  41.475  50.870  1.00  0.00     0.006 C 
ENDBRANCH  13  14
ENDBRANCH  11  13
ENDBRANCH   1  11
BRANCH   3  16
ATOM     16  N   UNL     1       4.234  46.539  52.081  1.00  0.00    -0.336 N 
ATOM     17  H   UNL     1       4.128  47.531  51.879  1.00  0.00     0.168 HD
BRANCH  16  18
ATOM     18  C   UNL     1       3.448  46.158  53.190  1.00  0.00     0.083 A 
ATOM     19  C   UNL     1       3.862  46.322  54.514  1.00  0.00     0.034 A 
ATOM     20  C   UNL     1       2.205  45.525  52.947  1.00  0.00     0.146 A 
ATOM     21  C   UNL     1       3.067  45.873  55.571  1.00  0.00     0.049 A 
ATOM     22  C   UNL     1       1.411  45.079  54.014  1.00  0.00     0.095 A 
ATOM     23  C   UNL     1       1.844  45.249  55.330  1.00  0.00     0.122 A 
BRANCH  20  24
ATOM     24  O   UNL     1       1.856  45.419  51.619  1.00  0.00    -0.494 OA
ATOM     25  C   UNL     1       1.465  44.137  51.146  1.00  0.00     0.278 C 
ENDBRANCH  20  24
BRANCH  23  26
ATOM     26  O   UNL     1       1.172  44.864  56.457  1.00  0.00    -0.497 OA
ATOM     27  C   UNL     1       0.484  45.877  57.181  1.00  0.00     0.278 C 
ENDBRANCH  23  26
ENDBRANCH  16  18
ENDBRANCH   3  16
TORSDOF 7
ENDMDL
MODEL 9
REMARK VINA RESULT:    -7.625      2.915      6.259
REMARK INTER + INTRA:         -11.531
REMARK INTER:                 -10.759
REMARK INTRA:                  -0.772
REMARK UNBOUND:                -0.786
REMARK SMILES C=CCNc1nc(Nc2ccc(OC)cc2OC)c2cnn(C)c2n1
REMARK SMILES IDX 5 1 6 2 7 3 19 4 20 5 21 6 22 7 23 8 24 9 25 10 4 11 3 13
REMARK SMILES IDX 2 14 1 15 8 16 9 18 10 19 16 20 11 21 15 22 12 23 17 24
REMARK SMILES IDX 18 25 13 26 14 27
REMARK H PARENT 4 12 8 17
ROOT
ATOM      1  C   UNL     1       4.238  43.783  52.231  1.00  0.00     0.226 A 
ATOM      2  N   UNL     1       5.133  44.788  52.264  1.00  0.00    -0.195 NA
ATOM      3  C   UNL     1       6.092  44.892  51.309  1.00  0.00     0.147 A 
ATOM      4  C   UNL     1       6.151  43.886  50.344  1.00  0.00     0.082 A 
ATOM      5  C   UNL     1       6.971  43.497  49.264  1.00  0.00     0.149 A 
ATOM      6  N   UNL     1       6.539  42.387  48.653  1.00  0.00    -0.179 NA
ATOM      7  N   UNL     1       5.449  42.044  49.378  1.00  0.00    -0.250 N 
ATOM      8  C   UNL     1       4.716  40.852  49.032  1.00  0.00     0.176 C 
ATOM      9  C   UNL     1       5.183  42.902  50.408  1.00  0.00     0.165 A 
ATOM     10  N   UNL     1       4.195  42.811  51.311  1.00  0.00    -0.193 NA
ENDROOT
BRANCH   1  11
ATOM     11  N   UNL     1       3.253  43.696  53.207  1.00  0.00    -0.351 N 
ATOM     12  H   UNL     1       2.631  42.957  52.900  1.00  0.00     0.164 HD
BRANCH  11  13
ATOM     13  C   UNL     1       2.594  44.938  53.545  1.00  0.00     0.143 C 
BRANCH  13  14
ATOM     14  C   UNL     1       2.856  45.235  54.991  1.00  0.00    -0.014 C 
ATOM     15  C   UNL     1       3.855  46.006  55.442  1.00  0.00     0.006 C 
ENDBRANCH  13  14
ENDBRANCH  11  13
ENDBRANCH   1  11
BRANCH   3  16
ATOM     16  N   UNL     1       6.985  45.957  51.433  1.00  0.00    -0.336 N 
ATOM     17  H   UNL     1       7.499  46.089  50.565  1.00  0.00     0.168 HD
BRANCH  16  18
ATOM     18  C   UNL     1       7.708  46.461  52.536  1.00  0.00     0.083 A 
ATOM     19  C   UNL     1       7.100  46.882  53.721  1.00  0.00     0.034 A 
ATOM     20  C   UNL     1       9.112  46.603  52.412  1.00  0.00     0.146 A 
ATOM     21  C   UNL     1       7.860  47.427  54.758  1.00  0.00     0.049 A 
ATOM     22  C   UNL     1       9.869  47.149  53.459  1.00  0.00     0.095 A 
ATOM     23  C   UNL     1       9.242  47.567  54.634  1.00  0.00     0.122 A 
BRANCH  20  24
ATOM     24  O   UNL     1       9.640  46.147  51.225  1.00  0.00    -0.494 OA
ATOM     25  C   UNL     1      10.532  45.042  51.288  1.00  0.00     0.278 C 
ENDBRANCH  20  24
BRANCH  23  26
ATOM     26  O   UNL     1       9.857  48.113  55.727  1.00  0.00    -0.497 OA
ATOM     27  C   UNL     1      11.048  47.484  56.184  1.00  0.00     0.278 C 
ENDBRANCH  23  26
ENDBRANCH  16  18
ENDBRANCH   3  16
TORSDOF 7
ENDMDL
MODEL 10
REMARK VINA RESULT:    -7.569      1.417      3.833
REMARK INTER + INTRA:         -11.452
REMARK INTER:                 -10.555
REMARK INTRA:                  -0.898
REMARK UNBOUND:                -0.786
REMARK SMILES C=CCNc1nc(Nc2ccc(OC)cc2OC)c2cnn(C)c2n1
REMARK SMILES IDX 5 1 6 2 7 3 19 4 20 5 21 6 22 7 23 8 24 9 25 10 4 11 3 13
REMARK SMILES IDX 2 14 1 15 8 16 9 18 10 19 16 20 11 21 15 22 12 23 17 24
REMARK SMILES IDX 18 25 13 26 14 27
REMARK H PARENT 4 12 8 17
ROOT
ATOM      1  C   UNL     1       6.461  44.870  50.427  1.00  0.00     0.226 A 
ATOM      2  N   UNL     1       5.419  45.447  51.054  1.00  0.00    -0.195 NA
ATOM      3  C   UNL     1       5.619  46.439  51.957  1.00  0.00     0.147 A 
ATOM      4  C   UNL     1       6.939  46.783  52.255  1.00  0.00     0.082 A 
ATOM      5  C   UNL     1       7.644  47.623  53.142  1.00  0.00     0.149 A 
ATOM      6  N   UNL     1       8.971  47.550  52.987  1.00  0.00    -0.179 NA
ATOM      7  N   UNL     1       9.115  46.622  52.014  1.00  0.00    -0.250 N 
ATOM      8  C   UNL     1      10.439  46.242  51.587  1.00  0.00     0.176 C 
ATOM      9  C   UNL     1       7.928  46.124  51.552  1.00  0.00     0.165 A 
ATOM     10  N   UNL     1       7.750  45.178  50.616  1.00  0.00    -0.193 NA
ENDROOT
BRANCH   1  11
ATOM     11  N   UNL     1       6.240  43.864  49.494  1.00  0.00    -0.351 N 
ATOM     12  H   UNL     1       5.233  43.758  49.442  1.00  0.00     0.164 HD
BRANCH  11  13
ATOM     13  C   UNL     1       6.967  42.633  49.715  1.00  0.00     0.143 C 
BRANCH  13  14
ATOM     14  C   UNL     1       5.984  41.501  49.734  1.00  0.00    -0.014 C 
ATOM     15  C   UNL     1       4.871  41.470  50.479  1.00  0.00     0.006 C 
ENDBRANCH  13  14
ENDBRANCH  11  13
ENDBRANCH   1  11
BRANCH   3  16
ATOM     16  N   UNL     1       4.481  46.967  52.569  1.00  0.00    -0.336 N 
ATOM     17  H   UNL     1       4.706  47.843  53.036  1.00  0.00     0.168 HD
BRANCH  16  18
ATOM     18  C   UNL     1       3.350  46.356  53.150  1.00  0.00     0.083 A 
ATOM     19  C   UNL     1       2.145  46.172  52.468  1.00  0.00     0.034 A 
ATOM     20  C   UNL     1       3.421  45.963  54.509  1.00  0.00     0.146 A 
ATOM     21  C   UNL     1       1.039  45.613  53.112  1.00  0.00     0.049 A 
ATOM     22  C   UNL     1       2.307  45.399  55.148  1.00  0.00     0.095 A 
ATOM     23  C   UNL     1       1.110  45.227  54.450  1.00  0.00     0.122 A 
BRANCH  20  24
ATOM     24  O   UNL     1       4.647  46.155  55.106  1.00  0.00    -0.494 OA
ATOM     25  C   UNL     1       5.424  44.999  55.390  1.00  0.00     0.278 C 
ENDBRANCH  20  24
BRANCH  23  26
ATOM     26  O   UNL     1      -0.046  44.694  54.949  1.00  0.00    -0.497 OA
ATOM     27  C   UNL     1      -0.593  45.301  56.112  1.00  0.00     0.278 C 
ENDBRANCH  23  26
ENDBRANCH  16  18
ENDBRANCH   3  16
TORSDOF 7
ENDMDL
MODEL 11
REMARK VINA RESULT:    -7.535      1.942      2.432
REMARK INTER + INTRA:         -11.404
REMARK INTER:                 -10.466
REMARK INTRA:                  -0.938
REMARK UNBOUND:                -0.786
REMARK SMILES C=CCNc1nc(Nc2ccc(OC)cc2OC)c2cnn(C)c2n1
REMARK SMILES IDX 5 1 6 2 7 3 19 4 20 5 21 6 22 7 23 8 24 9 25 10 4 11 3 13
REMARK SMILES IDX 2 14 1 15 8 16 9 18 10 19 16 20 11 21 15 22 12 23 17 24
REMARK SMILES IDX 18 25 13 26 14 27
REMARK H PARENT 4 12 8 17
ROOT
ATOM      1  C   UNL     1       6.431  46.253  52.167  1.00  0.00     0.226 A 
ATOM      2  N   UNL     1       5.393  45.641  52.767  1.00  0.00    -0.195 NA
ATOM      3  C   UNL     1       4.992  44.408  52.367  1.00  0.00     0.147 A 
ATOM      4  C   UNL     1       5.652  43.839  51.276  1.00  0.00     0.082 A 
ATOM      5  C   UNL     1       5.557  42.695  50.456  1.00  0.00     0.149 A 
ATOM      6  N   UNL     1       6.497  42.654  49.505  1.00  0.00    -0.179 NA
ATOM      7  N   UNL     1       7.177  43.808  49.698  1.00  0.00    -0.250 N 
ATOM      8  C   UNL     1       8.272  44.139  48.821  1.00  0.00     0.176 C 
ATOM      9  C   UNL     1       6.702  44.557  50.739  1.00  0.00     0.165 A 
ATOM     10  N   UNL     1       7.148  45.753  51.153  1.00  0.00    -0.193 NA
ENDROOT
BRANCH   1  11
ATOM     11  N   UNL     1       6.839  47.511  52.596  1.00  0.00    -0.351 N 
ATOM     12  H   UNL     1       6.116  48.150  52.285  1.00  0.00     0.164 HD
BRANCH  11  13
ATOM     13  C   UNL     1       8.183  47.893  52.225  1.00  0.00     0.143 C 
BRANCH  13  14
ATOM     14  C   UNL     1       9.063  47.761  53.432  1.00  0.00    -0.014 C 
ATOM     15  C   UNL     1       9.944  46.771  53.627  1.00  0.00     0.006 C 
ENDBRANCH  13  14
ENDBRANCH  11  13
ENDBRANCH   1  11
BRANCH   3  16
ATOM     16  N   UNL     1       3.897  43.858  53.035  1.00  0.00    -0.336 N 
ATOM     17  H   UNL     1       4.180  43.029  53.553  1.00  0.00     0.168 HD
BRANCH  16  18
ATOM     18  C   UNL     1       2.521  43.821  52.725  1.00  0.00     0.083 A 
ATOM     19  C   UNL     1       1.975  42.960  51.770  1.00  0.00     0.034 A 
ATOM     20  C   UNL     1       1.661  44.744  53.369  1.00  0.00     0.146 A 
ATOM     21  C   UNL     1       0.614  43.007  51.462  1.00  0.00     0.049 A 
ATOM     22  C   UNL     1       0.294  44.783  53.056  1.00  0.00     0.095 A 
ATOM     23  C   UNL     1      -0.231  43.916  52.097  1.00  0.00     0.122 A 
BRANCH  20  24
ATOM     24  O   UNL     1       2.267  45.543  54.311  1.00  0.00    -0.494 OA
ATOM     25  C   UNL     1       1.927  45.321  55.673  1.00  0.00     0.278 C 
ENDBRANCH  20  24
BRANCH  23  26
ATOM     26  O   UNL     1      -1.538  43.849  51.698  1.00  0.00    -0.497 OA
ATOM     27  C   UNL     1      -1.806  43.207  50.458  1.00  0.00     0.278 C 
ENDBRANCH  23  26
ENDBRANCH  16  18
ENDBRANCH   3  16
TORSDOF 7
ENDMDL
MODEL 12
REMARK VINA RESULT:    -7.478      2.837      5.855
REMARK INTER + INTRA:         -11.325
REMARK INTER:                 -10.737
REMARK INTRA:                  -0.588
REMARK UNBOUND:                -0.786
REMARK SMILES C=CCNc1nc(Nc2ccc(OC)cc2OC)c2cnn(C)c2n1
REMARK SMILES IDX 5 1 6 2 7 3 19 4 20 5 21 6 22 7 23 8 24 9 25 10 4 11 3 13
REMARK SMILES IDX 2 14 1 15 8 16 9 18 10 19 16 20 11 21 15 22 12 23 17 24
REMARK SMILES IDX 18 25 13 26 14 27
REMARK H PARENT 4 12 8 17
ROOT
ATOM      1  C   UNL     1       5.899  46.936  54.176  1.00  0.00     0.226 A 
ATOM      2  N   UNL     1       5.741  46.377  52.962  1.00  0.00    -0.195 NA
ATOM      3  C   UNL     1       6.817  46.090  52.187  1.00  0.00     0.147 A 
ATOM      4  C   UNL     1       8.075  46.457  52.670  1.00  0.00     0.082 A 
ATOM      5  C   UNL     1       9.416  46.474  52.235  1.00  0.00     0.149 A 
ATOM      6  N   UNL     1      10.258  46.962  53.154  1.00  0.00    -0.179 NA
ATOM      7  N   UNL     1       9.435  47.296  54.174  1.00  0.00    -0.250 N 
ATOM      8  C   UNL     1       9.988  47.899  55.361  1.00  0.00     0.176 C 
ATOM      9  C   UNL     1       8.118  47.025  53.928  1.00  0.00     0.165 A 
ATOM     10  N   UNL     1       7.071  47.268  54.732  1.00  0.00    -0.193 NA
ENDROOT
BRANCH   1  11
ATOM     11  N   UNL     1       4.789  47.213  54.964  1.00  0.00    -0.351 N 
ATOM     12  H   UNL     1       5.037  46.906  55.898  1.00  0.00     0.164 HD
BRANCH  11  13
ATOM     13  C   UNL     1       3.529  46.699  54.474  1.00  0.00     0.143 C 
BRANCH  13  14
ATOM     14  C   UNL     1       3.128  45.535  55.330  1.00  0.00    -0.014 C 
ATOM     15  C   UNL     1       1.968  44.873  55.220  1.00  0.00     0.006 C 
ENDBRANCH  13  14
ENDBRANCH  11  13
ENDBRANCH   1  11
BRANCH   3  16
ATOM     16  N   UNL     1       6.557  45.527  50.937  1.00  0.00    -0.336 N 
ATOM     17  H   UNL     1       6.315  46.253  50.267  1.00  0.00     0.168 HD
BRANCH  16  18
ATOM     18  C   UNL     1       6.016  44.280  50.555  1.00  0.00     0.083 A 
ATOM     19  C   UNL     1       4.887  43.720  51.158  1.00  0.00     0.034 A 
ATOM     20  C   UNL     1       6.685  43.534  49.555  1.00  0.00     0.146 A 
ATOM     21  C   UNL     1       4.429  42.456  50.779  1.00  0.00     0.049 A 
ATOM     22  C   UNL     1       6.218  42.267  49.177  1.00  0.00     0.095 A 
ATOM     23  C   UNL     1       5.090  41.723  49.794  1.00  0.00     0.122 A 
BRANCH  20  24
ATOM     24  O   UNL     1       7.775  44.162  48.993  1.00  0.00    -0.494 OA
ATOM     25  C   UNL     1       9.049  43.889  49.560  1.00  0.00     0.278 C 
ENDBRANCH  20  24
BRANCH  23  26
ATOM     26  O   UNL     1       4.531  40.504  49.523  1.00  0.00    -0.497 OA
ATOM     27  C   UNL     1       3.655  40.425  48.405  1.00  0.00     0.278 C 
ENDBRANCH  23  26
ENDBRANCH  16  18
ENDBRANCH   3  16
TORSDOF 7
ENDMDL
MODEL 13
REMARK VINA RESULT:    -7.456      1.783      3.960
REMARK INTER + INTRA:         -11.293
REMARK INTER:                 -10.441
REMARK INTRA:                  -0.852
REMARK UNBOUND:                -0.786
REMARK SMILES C=CCNc1nc(Nc2ccc(OC)cc2OC)c2cnn(C)c2n1
REMARK SMILES IDX 5 1 6 2 7 3 19 4 20 5 21 6 22 7 23 8 24 9 25 10 4 11 3 13
REMARK SMILES IDX 2 14 1 15 8 16 9 18 10 19 16 20 11 21 15 22 12 23 17 24
REMARK SMILES IDX 18 25 13 26 14 27
REMARK H PARENT 4 12 8 17
ROOT
ATOM      1  C   UNL     1       7.237  45.647  50.805  1.00  0.00     0.226 A 
ATOM      2  N   UNL     1       5.913  45.728  51.034  1.00  0.00    -0.195 NA
ATOM      3  C   UNL     1       5.441  46.256  52.191  1.00  0.00     0.147 A 
ATOM      4  C   UNL     1       6.378  46.643  53.151  1.00  0.00     0.082 A 
ATOM      5  C   UNL     1       6.404  47.123  54.477  1.00  0.00     0.149 A 
ATOM      6  N   UNL     1       7.645  47.334  54.932  1.00  0.00    -0.179 NA
ATOM      7  N   UNL     1       8.421  46.947  53.894  1.00  0.00    -0.250 N 
ATOM      8  C   UNL     1       9.856  47.001  54.024  1.00  0.00     0.176 C 
ATOM      9  C   UNL     1       7.710  46.514  52.809  1.00  0.00     0.165 A 
ATOM     10  N   UNL     1       8.197  46.044  51.650  1.00  0.00    -0.193 NA
ENDROOT
BRANCH   1  11
ATOM     11  N   UNL     1       7.705  45.116  49.609  1.00  0.00    -0.351 N 
ATOM     12  H   UNL     1       7.037  45.407  48.904  1.00  0.00     0.164 HD
BRANCH  11  13
ATOM     13  C   UNL     1       7.992  43.699  49.622  1.00  0.00     0.143 C 
BRANCH  13  14
ATOM     14  C   UNL     1       6.751  42.961  49.218  1.00  0.00    -0.014 C 
ATOM     15  C   UNL     1       6.055  42.144  50.020  1.00  0.00     0.006 C 
ENDBRANCH  13  14
ENDBRANCH  11  13
ENDBRANCH   1  11
BRANCH   3  16
ATOM     16  N   UNL     1       4.055  46.284  52.347  1.00  0.00    -0.336 N 
ATOM     17  H   UNL     1       3.790  47.007  53.012  1.00  0.00     0.168 HD
BRANCH  16  18
ATOM     18  C   UNL     1       3.074  45.271  52.278  1.00  0.00     0.083 A 
ATOM     19  C   UNL     1       2.380  44.959  51.107  1.00  0.00     0.034 A 
ATOM     20  C   UNL     1       2.736  44.579  53.466  1.00  0.00     0.146 A 
ATOM     21  C   UNL     1       1.378  43.986  51.109  1.00  0.00     0.049 A 
ATOM     22  C   UNL     1       1.731  43.600  53.460  1.00  0.00     0.095 A 
ATOM     23  C   UNL     1       1.046  43.305  52.280  1.00  0.00     0.122 A 
BRANCH  20  24
ATOM     24  O   UNL     1       3.479  44.926  54.572  1.00  0.00    -0.494 OA
ATOM     25  C   UNL     1       2.818  45.648  55.603  1.00  0.00     0.278 C 
ENDBRANCH  20  24
BRANCH  23  26
ATOM     26  O   UNL     1       0.050  42.379  52.135  1.00  0.00    -0.497 OA
ATOM     27  C   UNL     1      -1.223  42.855  51.717  1.00  0.00     0.278 C 
ENDBRANCH  23  26
ENDBRANCH  16  18
ENDBRANCH   3  16
TORSDOF 7
ENDMDL
MODEL 14
REMARK VINA RESULT:    -7.419      1.778      2.705
REMARK INTER + INTRA:         -11.241
REMARK INTER:                 -10.715
REMARK INTRA:                  -0.527
REMARK UNBOUND:                -0.786
REMARK SMILES C=CCNc1nc(Nc2ccc(OC)cc2OC)c2cnn(C)c2n1
REMARK SMILES IDX 5 1 6 2 7 3 19 4 20 5 21 6 22 7 23 8 24 9 25 10 4 11 3 13
REMARK SMILES IDX 2 14 1 15 8 16 9 18 10 19 16 20 11 21 15 22 12 23 17 24
REMARK SMILES IDX 18 25 13 26 14 27
REMARK H PARENT 4 12 8 17
ROOT
ATOM      1  C   UNL     1       6.195  46.108  52.262  1.00  0.00     0.226 A 
ATOM      2  N   UNL     1       5.153  45.469  52.824  1.00  0.00    -0.195 NA
ATOM      3  C   UNL     1       4.776  44.241  52.387  1.00  0.00     0.147 A 
ATOM      4  C   UNL     1       5.465  43.707  51.296  1.00  0.00     0.082 A 
ATOM      5  C   UNL     1       5.401  42.583  50.447  1.00  0.00     0.149 A 
ATOM      6  N   UNL     1       6.361  42.577  49.514  1.00  0.00    -0.179 NA
ATOM      7  N   UNL     1       7.022  43.734  49.750  1.00  0.00    -0.250 N 
ATOM      8  C   UNL     1       8.131  44.100  48.904  1.00  0.00     0.176 C 
ATOM      9  C   UNL     1       6.516  44.451  50.798  1.00  0.00     0.165 A 
ATOM     10  N   UNL     1       6.938  45.642  51.250  1.00  0.00    -0.193 NA
ENDROOT
BRANCH   1  11
ATOM     11  N   UNL     1       6.578  47.359  52.729  1.00  0.00    -0.351 N 
ATOM     12  H   UNL     1       5.788  47.969  52.550  1.00  0.00     0.164 HD
BRANCH  11  13
ATOM     13  C   UNL     1       7.844  47.852  52.235  1.00  0.00     0.143 C 
BRANCH  13  14
ATOM     14  C   UNL     1       8.839  47.810  53.357  1.00  0.00    -0.014 C 
ATOM     15  C   UNL     1       9.932  47.035  53.377  1.00  0.00     0.006 C 
ENDBRANCH  13  14
ENDBRANCH  11  13
ENDBRANCH   1  11
BRANCH   3  16
ATOM     16  N   UNL     1       3.675  43.662  53.019  1.00  0.00    -0.336 N 
ATOM     17  H   UNL     1       3.365  42.840  52.504  1.00  0.00     0.168 HD
BRANCH  16  18
ATOM     18  C   UNL     1       2.622  44.214  53.779  1.00  0.00     0.083 A 
ATOM     19  C   UNL     1       2.829  44.964  54.940  1.00  0.00     0.034 A 
ATOM     20  C   UNL     1       1.290  43.946  53.380  1.00  0.00     0.146 A 
ATOM     21  C   UNL     1       1.747  45.437  55.686  1.00  0.00     0.049 A 
ATOM     22  C   UNL     1       0.209  44.428  54.132  1.00  0.00     0.095 A 
ATOM     23  C   UNL     1       0.437  45.172  55.291  1.00  0.00     0.122 A 
BRANCH  20  24
ATOM     24  O   UNL     1       1.168  43.221  52.216  1.00  0.00    -0.494 OA
ATOM     25  C   UNL     1       0.351  43.767  51.189  1.00  0.00     0.278 C 
ENDBRANCH  20  24
BRANCH  23  26
ATOM     26  O   UNL     1      -0.521  45.699  56.113  1.00  0.00    -0.497 OA
ATOM     27  C   UNL     1      -1.357  44.781  56.808  1.00  0.00     0.278 C 
ENDBRANCH  23  26
ENDBRANCH  16  18
ENDBRANCH   3  16
TORSDOF 7
ENDMDL
MODEL 15
REMARK VINA RESULT:    -7.367      3.439      6.813
REMARK INTER + INTRA:         -11.167
REMARK INTER:                 -10.643
REMARK INTRA:                  -0.525
REMARK UNBOUND:                -0.786
REMARK SMILES C=CCNc1nc(Nc2ccc(OC)cc2OC)c2cnn(C)c2n1
REMARK SMILES IDX 5 1 6 2 7 3 19 4 20 5 21 6 22 7 23 8 24 9 25 10 4 11 3 13
REMARK SMILES IDX 2 14 1 15 8 16 9 18 10 19 16 20 11 21 15 22 12 23 17 24
REMARK SMILES IDX 18 25 13 26 14 27
REMARK H PARENT 4 12 8 17
ROOT
ATOM      1  C   UNL     1       2.964  45.308  54.516  1.00  0.00     0.226 A 
ATOM      2  N   UNL     1       3.466  44.555  53.520  1.00  0.00    -0.195 NA
ATOM      3  C   UNL     1       2.688  43.648  52.877  1.00  0.00     0.147 A 
ATOM      4  C   UNL     1       1.379  43.485  53.333  1.00  0.00     0.082 A 
ATOM      5  C   UNL     1       0.266  42.654  53.091  1.00  0.00     0.149 A 
ATOM      6  N   UNL     1      -0.787  42.953  53.861  1.00  0.00    -0.179 NA
ATOM      7  N   UNL     1      -0.325  43.964  54.632  1.00  0.00    -0.250 N 
ATOM      8  C   UNL     1      -1.186  44.542  55.633  1.00  0.00     0.176 C 
ATOM      9  C   UNL     1       0.970  44.310  54.363  1.00  0.00     0.165 A 
ATOM     10  N   UNL     1       1.707  45.249  54.976  1.00  0.00    -0.193 NA
ENDROOT
BRANCH   1  11
ATOM     11  N   UNL     1       3.769  46.241  55.157  1.00  0.00    -0.351 N 
ATOM     12  H   UNL     1       3.149  46.755  55.774  1.00  0.00     0.164 HD
BRANCH  11  13
ATOM     13  C   UNL     1       4.580  47.068  54.292  1.00  0.00     0.143 C 
BRANCH  13  14
ATOM     14  C   UNL     1       6.023  46.801  54.598  1.00  0.00    -0.014 C 
ATOM     15  C   UNL     1       6.942  46.447  53.689  1.00  0.00     0.006 C 
ENDBRANCH  13  14
ENDBRANCH  11  13
ENDBRANCH   1  11
BRANCH   3  16
ATOM     16  N   UNL     1       3.299  42.902  51.869  1.00  0.00    -0.336 N 
ATOM     17  H   UNL     1       3.056  41.918  51.961  1.00  0.00     0.168 HD
BRANCH  16  18
ATOM     18  C   UNL     1       4.522  43.062  51.182  1.00  0.00     0.083 A 
ATOM     19  C   UNL     1       5.249  44.255  51.183  1.00  0.00     0.034 A 
ATOM     20  C   UNL     1       5.005  41.981  50.407  1.00  0.00     0.146 A 
ATOM     21  C   UNL     1       6.424  44.376  50.438  1.00  0.00     0.049 A 
ATOM     22  C   UNL     1       6.188  42.107  49.663  1.00  0.00     0.095 A 
ATOM     23  C   UNL     1       6.898  43.309  49.674  1.00  0.00     0.122 A 
BRANCH  20  24
ATOM     24  O   UNL     1       4.247  40.833  50.474  1.00  0.00    -0.494 OA
ATOM     25  C   UNL     1       3.543  40.445  49.303  1.00  0.00     0.278 C 
ENDBRANCH  20  24
BRANCH  23  26
ATOM     26  O   UNL     1       8.059  43.567  48.999  1.00  0.00    -0.497 OA
ATOM     27  C   UNL     1       9.013  44.402  49.643  1.00  0.00     0.278 C 
ENDBRANCH  23  26
ENDBRANCH  16  18
ENDBRANCH   3  16
TORSDOF 7
ENDMDL
MODEL 16
REMARK VINA RESULT:    -7.358      2.045      4.494
REMARK INTER + INTRA:         -11.155
REMARK INTER:                 -10.245
REMARK INTRA:                  -0.911
REMARK UNBOUND:                -0.786
REMARK SMILES C=CCNc1nc(Nc2ccc(OC)cc2OC)c2cnn(C)c2n1
REMARK SMILES IDX 5 1 6 2 7 3 19 4 20 5 21 6 22 7 23 8 24 9 25 10 4 11 3 13
REMARK SMILES IDX 2 14 1 15 8 16 9 18 10 19 16 20 11 21 15 22 12 23 17 24
REMARK SMILES IDX 18 25 13 26 14 27
REMARK H PARENT 4 12 8 17
ROOT
ATOM      1  C   UNL     1       6.006  44.537  50.923  1.00  0.00     0.226 A 
ATOM      2  N   UNL     1       5.114  44.007  51.781  1.00  0.00    -0.195 NA
ATOM      3  C   UNL     1       4.884  44.586  52.986  1.00  0.00     0.147 A 
ATOM      4  C   UNL     1       5.652  45.702  53.321  1.00  0.00     0.082 A 
ATOM      5  C   UNL     1       5.861  46.556  54.425  1.00  0.00     0.149 A 
ATOM      6  N   UNL     1       6.765  47.512  54.182  1.00  0.00    -0.179 NA
ATOM      7  N   UNL     1       7.166  47.240  52.919  1.00  0.00    -0.250 N 
ATOM      8  C   UNL     1       8.184  48.058  52.307  1.00  0.00     0.176 C 
ATOM      9  C   UNL     1       6.538  46.159  52.365  1.00  0.00     0.165 A 
ATOM     10  N   UNL     1       6.743  45.633  51.147  1.00  0.00    -0.193 NA
ENDROOT
BRANCH   1  11
ATOM     11  N   UNL     1       6.222  43.941  49.687  1.00  0.00    -0.351 N 
ATOM     12  H   UNL     1       5.304  43.668  49.354  1.00  0.00     0.164 HD
BRANCH  11  13
ATOM     13  C   UNL     1       7.211  42.886  49.664  1.00  0.00     0.143 C 
BRANCH  13  14
ATOM     14  C   UNL     1       6.500  41.569  49.753  1.00  0.00    -0.014 C 
ATOM     15  C   UNL     1       5.416  41.239  49.038  1.00  0.00     0.006 C 
ENDBRANCH  13  14
ENDBRANCH  11  13
ENDBRANCH   1  11
BRANCH   3  16
ATOM     16  N   UNL     1       3.954  43.958  53.815  1.00  0.00    -0.336 N 
ATOM     17  H   UNL     1       4.110  42.952  53.822  1.00  0.00     0.168 HD
BRANCH  16  18
ATOM     18  C   UNL     1       2.617  44.268  54.143  1.00  0.00     0.083 A 
ATOM     19  C   UNL     1       2.266  45.170  55.151  1.00  0.00     0.034 A 
ATOM     20  C   UNL     1       1.581  43.589  53.458  1.00  0.00     0.146 A 
ATOM     21  C   UNL     1       0.926  45.395  55.471  1.00  0.00     0.049 A 
ATOM     22  C   UNL     1       0.237  43.822  53.783  1.00  0.00     0.095 A 
ATOM     23  C   UNL     1      -0.093  44.725  54.796  1.00  0.00     0.122 A 
BRANCH  20  24
ATOM     24  O   UNL     1       2.004  42.734  52.464  1.00  0.00    -0.494 OA
ATOM     25  C   UNL     1       1.600  43.027  51.134  1.00  0.00     0.278 C 
ENDBRANCH  20  24
BRANCH  23  26
ATOM     26  O   UNL     1      -1.356  45.045  55.212  1.00  0.00    -0.497 OA
ATOM     27  C   UNL     1      -1.693  44.739  56.559  1.00  0.00     0.278 C 
ENDBRANCH  23  26
ENDBRANCH  16  18
ENDBRANCH   3  16
TORSDOF 7
ENDMDL
MODEL 17
REMARK VINA RESULT:    -7.312      2.903      6.783
REMARK INTER + INTRA:         -11.090
REMARK INTER:                 -10.201
REMARK INTRA:                  -0.889
REMARK UNBOUND:                -0.786
REMARK SMILES C=CCNc1nc(Nc2ccc(OC)cc2OC)c2cnn(C)c2n1
REMARK SMILES IDX 5 1 6 2 7 3 19 4 20 5 21 6 22 7 23 8 24 9 25 10 4 11 3 13
REMARK SMILES IDX 2 14 1 15 8 16 9 18 10 19 16 20 11 21 15 22 12 23 17 24
REMARK SMILES IDX 18 25 13 26 14 27
REMARK H PARENT 4 12 8 17
ROOT
ATOM      1  C   UNL     1       1.976  45.123  54.888  1.00  0.00     0.226 A 
ATOM      2  N   UNL     1       2.829  45.855  54.147  1.00  0.00    -0.195 NA
ATOM      3  C   UNL     1       2.917  45.668  52.806  1.00  0.00     0.147 A 
ATOM      4  C   UNL     1       2.145  44.648  52.246  1.00  0.00     0.082 A 
ATOM      5  C   UNL     1       1.962  44.018  50.998  1.00  0.00     0.149 A 
ATOM      6  N   UNL     1       1.047  43.042  51.034  1.00  0.00    -0.179 NA
ATOM      7  N   UNL     1       0.669  43.026  52.333  1.00  0.00    -0.250 N 
ATOM      8  C   UNL     1      -0.306  42.060  52.775  1.00  0.00     0.176 C 
ATOM      9  C   UNL     1       1.307  43.960  53.101  1.00  0.00     0.165 A 
ATOM     10  N   UNL     1       1.165  44.166  54.420  1.00  0.00    -0.193 NA
ENDROOT
BRANCH   1  11
ATOM     11  N   UNL     1       1.886  45.335  56.258  1.00  0.00    -0.351 N 
ATOM     12  H   UNL     1       2.554  44.696  56.675  1.00  0.00     0.164 HD
BRANCH  11  13
ATOM     13  C   UNL     1       0.554  45.267  56.816  1.00  0.00     0.143 C 
BRANCH  13  14
ATOM     14  C   UNL     1       0.358  46.450  57.717  1.00  0.00    -0.014 C 
ATOM     15  C   UNL     1       1.241  46.862  58.636  1.00  0.00     0.006 C 
ENDBRANCH  13  14
ENDBRANCH  11  13
ENDBRANCH   1  11
BRANCH   3  16
ATOM     16  N   UNL     1       3.839  46.461  52.122  1.00  0.00    -0.336 N 
ATOM     17  H   UNL     1       3.364  47.046  51.439  1.00  0.00     0.168 HD
BRANCH  16  18
ATOM     18  C   UNL     1       5.186  46.246  51.759  1.00  0.00     0.083 A 
ATOM     19  C   UNL     1       5.568  45.460  50.669  1.00  0.00     0.034 A 
ATOM     20  C   UNL     1       6.201  46.804  52.574  1.00  0.00     0.146 A 
ATOM     21  C   UNL     1       6.918  45.234  50.391  1.00  0.00     0.049 A 
ATOM     22  C   UNL     1       7.554  46.575  52.287  1.00  0.00     0.095 A 
ATOM     23  C   UNL     1       7.915  45.784  51.195  1.00  0.00     0.122 A 
BRANCH  20  24
ATOM     24  O   UNL     1       5.746  47.583  53.615  1.00  0.00    -0.494 OA
ATOM     25  C   UNL     1       6.007  47.126  54.936  1.00  0.00     0.278 C 
ENDBRANCH  20  24
BRANCH  23  26
ATOM     26  O   UNL     1       9.191  45.482  50.804  1.00  0.00    -0.497 OA
ATOM     27  C   UNL     1      10.252  45.972  51.614  1.00  0.00     0.278 C 
ENDBRANCH  23  26
ENDBRANCH  16  18
ENDBRANCH   3  16
TORSDOF 7
ENDMDL
MODEL 18
REMARK VINA RESULT:    -7.305      2.121      4.594
REMARK INTER + INTRA:         -11.080
REMARK INTER:                 -10.416
REMARK INTRA:                  -0.664
REMARK UNBOUND:                -0.786
REMARK SMILES C=CCNc1nc(Nc2ccc(OC)cc2OC)c2cnn(C)c2n1
REMARK SMILES IDX 5 1 6 2 7 3 19 4 20 5 21 6 22 7 23 8 24 9 25 10 4 11 3 13
REMARK SMILES IDX 2 14 1 15 8 16 9 18 10 19 16 20 11 21 15 22 12 23 17 24
REMARK SMILES IDX 18 25 13 26 14 27
REMARK H PARENT 4 12 8 17
ROOT
ATOM      1  C   UNL     1       5.933  44.080  50.792  1.00  0.00     0.226 A 
ATOM      2  N   UNL     1       4.987  43.750  51.690  1.00  0.00    -0.195 NA
ATOM      3  C   UNL     1       4.746  44.543  52.765  1.00  0.00     0.147 A 
ATOM      4  C   UNL     1       5.559  45.666  52.932  1.00  0.00     0.082 A 
ATOM      5  C   UNL     1       5.775  46.690  53.877  1.00  0.00     0.149 A 
ATOM      6  N   UNL     1       6.735  47.547  53.509  1.00  0.00    -0.179 NA
ATOM      7  N   UNL     1       7.164  47.038  52.331  1.00  0.00    -0.250 N 
ATOM      8  C   UNL     1       8.242  47.688  51.629  1.00  0.00     0.176 C 
ATOM      9  C   UNL     1       6.500  45.906  51.948  1.00  0.00     0.165 A 
ATOM     10  N   UNL     1       6.718  45.164  50.852  1.00  0.00    -0.193 NA
ENDROOT
BRANCH   1  11
ATOM     11  N   UNL     1       6.160  43.265  49.690  1.00  0.00    -0.351 N 
ATOM     12  H   UNL     1       5.492  43.566  48.989  1.00  0.00     0.164 HD
BRANCH  11  13
ATOM     13  C   UNL     1       6.161  41.843  49.951  1.00  0.00     0.143 C 
BRANCH  13  14
ATOM     14  C   UNL     1       5.042  41.218  49.174  1.00  0.00    -0.014 C 
ATOM     15  C   UNL     1       3.848  40.891  49.687  1.00  0.00     0.006 C 
ENDBRANCH  13  14
ENDBRANCH  11  13
ENDBRANCH   1  11
BRANCH   3  16
ATOM     16  N   UNL     1       3.758  44.114  53.651  1.00  0.00    -0.336 N 
ATOM     17  H   UNL     1       4.177  43.617  54.433  1.00  0.00     0.168 HD
BRANCH  16  18
ATOM     18  C   UNL     1       2.418  43.715  53.453  1.00  0.00     0.083 A 
ATOM     19  C   UNL     1       1.999  42.963  52.353  1.00  0.00     0.034 A 
ATOM     20  C   UNL     1       1.442  44.149  54.383  1.00  0.00     0.146 A 
ATOM     21  C   UNL     1       0.650  42.646  52.178  1.00  0.00     0.049 A 
ATOM     22  C   UNL     1       0.090  43.824  54.202  1.00  0.00     0.095 A 
ATOM     23  C   UNL     1      -0.309  43.075  53.094  1.00  0.00     0.122 A 
BRANCH  20  24
ATOM     24  O   UNL     1       1.935  44.866  55.451  1.00  0.00    -0.494 OA
ATOM     25  C   UNL     1       1.004  45.296  56.434  1.00  0.00     0.278 C 
ENDBRANCH  20  24
BRANCH  23  26
ATOM     26  O   UNL     1      -1.588  42.690  52.799  1.00  0.00    -0.497 OA
ATOM     27  C   UNL     1      -2.607  43.674  52.920  1.00  0.00     0.278 C 
ENDBRANCH  23  26
ENDBRANCH  16  18
ENDBRANCH   3  16
TORSDOF 7
ENDMDL
MODEL 19
REMARK VINA RESULT:    -7.301      2.990      6.978
REMARK INTER + INTRA:         -11.075
REMARK INTER:                 -10.341
REMARK INTRA:                  -0.734
REMARK UNBOUND:                -0.786
REMARK SMILES C=CCNc1nc(Nc2ccc(OC)cc2OC)c2cnn(C)c2n1
REMARK SMILES IDX 5 1 6 2 7 3 19 4 20 5 21 6 22 7 23 8 24 9 25 10 4 11 3 13
REMARK SMILES IDX 2 14 1 15 8 16 9 18 10 19 16 20 11 21 15 22 12 23 17 24
REMARK SMILES IDX 18 25 13 26 14 27
REMARK H PARENT 4 12 8 17
ROOT
ATOM      1  C   UNL     1       2.169  45.353  55.357  1.00  0.00     0.226 A 
ATOM      2  N   UNL     1       3.124  45.981  54.646  1.00  0.00    -0.195 NA
ATOM      3  C   UNL     1       3.397  45.606  53.371  1.00  0.00     0.147 A 
ATOM      4  C   UNL     1       2.701  44.509  52.859  1.00  0.00     0.082 A 
ATOM      5  C   UNL     1       2.688  43.706  51.700  1.00  0.00     0.149 A 
ATOM      6  N   UNL     1       1.767  42.737  51.746  1.00  0.00    -0.179 NA
ATOM      7  N   UNL     1       1.211  42.901  52.968  1.00  0.00    -0.250 N 
ATOM      8  C   UNL     1       0.174  41.998  53.402  1.00  0.00     0.176 C 
ATOM      9  C   UNL     1       1.744  43.941  53.678  1.00  0.00     0.165 A 
ATOM     10  N   UNL     1       1.421  44.331  54.921  1.00  0.00    -0.193 NA
ENDROOT
BRANCH   1  11
ATOM     11  N   UNL     1       1.890  45.757  56.657  1.00  0.00    -0.351 N 
ATOM     12  H   UNL     1       2.559  45.269  57.241  1.00  0.00     0.164 HD
BRANCH  11  13
ATOM     13  C   UNL     1       0.512  45.621  57.073  1.00  0.00     0.143 C 
BRANCH  13  14
ATOM     14  C   UNL     1       0.151  46.809  57.914  1.00  0.00    -0.014 C 
ATOM     15  C   UNL     1       0.845  47.224  58.983  1.00  0.00     0.006 C 
ENDBRANCH  13  14
ENDBRANCH  11  13
ENDBRANCH   1  11
BRANCH   3  16
ATOM     16  N   UNL     1       4.414  46.303  52.718  1.00  0.00    -0.336 N 
ATOM     17  H   UNL     1       4.196  46.401  51.729  1.00  0.00     0.168 HD
BRANCH  16  18
ATOM     18  C   UNL     1       5.806  46.376  52.942  1.00  0.00     0.083 A 
ATOM     19  C   UNL     1       6.364  46.805  54.149  1.00  0.00     0.034 A 
ATOM     20  C   UNL     1       6.678  46.055  51.874  1.00  0.00     0.146 A 
ATOM     21  C   UNL     1       7.749  46.913  54.295  1.00  0.00     0.049 A 
ATOM     22  C   UNL     1       8.067  46.163  52.029  1.00  0.00     0.095 A 
ATOM     23  C   UNL     1       8.606  46.597  53.241  1.00  0.00     0.122 A 
BRANCH  20  24
ATOM     24  O   UNL     1       6.054  45.620  50.726  1.00  0.00    -0.494 OA
ATOM     25  C   UNL     1       6.247  44.262  50.352  1.00  0.00     0.278 C 
ENDBRANCH  20  24
BRANCH  23  26
ATOM     26  O   UNL     1       9.935  46.747  53.527  1.00  0.00    -0.497 OA
ATOM     27  C   UNL     1      10.270  47.260  54.810  1.00  0.00     0.278 C 
ENDBRANCH  23  26
ENDBRANCH  16  18
ENDBRANCH   3  16
TORSDOF 7
ENDMDL
