MODEL 1
REMARK VINA RESULT:    -9.095      0.000      0.000
REMARK INTER + INTRA:         -13.097
REMARK INTER:                 -12.285
REMARK INTRA:                  -0.811
REMARK UNBOUND:                -0.811
REMARK SMILES c1ccc(Nc2nc(NCc3cccnc3)nc(N3CCCC3)n2)cc1
REMARK SMILES IDX 6 1 7 2 8 3 17 4 18 5 24 6 5 7 4 9 1 10 2 11 26 12 3 13
REMARK SMILES IDX 25 14 9 15 10 17 11 18 12 19 16 20 13 21 15 22 14 23 19 24
REMARK SMILES IDX 20 25 23 26 21 27 22 28
REMARK H PARENT 5 8 9 16
ROOT
ATOM      1  C   UNL     1       5.687  44.826  51.410  1.00  0.00     0.233 A 
ATOM      2  N   UNL     1       5.818  43.651  50.805  1.00  0.00    -0.177 NA
ATOM      3  C   UNL     1       4.847  42.779  51.023  1.00  0.00     0.229 A 
ATOM      4  N   UNL     1       3.793  43.011  51.789  1.00  0.00    -0.177 NA
ATOM      5  C   UNL     1       3.727  44.210  52.354  1.00  0.00     0.231 A 
ATOM      6  N   UNL     1       4.662  45.136  52.192  1.00  0.00    -0.176 NA
ENDROOT
BRANCH   1   7
ATOM      7  N   UNL     1       6.717  45.730  51.155  1.00  0.00    -0.324 N 
ATOM      8  H   UNL     1       6.644  46.054  50.203  1.00  0.00     0.170 HD
BRANCH   7   9
ATOM      9  C   UNL     1       7.796  46.214  51.902  1.00  0.00     0.041 A 
ATOM     10  C   UNL     1       9.884  47.215  53.524  1.00  0.00     0.000 A 
ATOM     11  C   UNL     1       8.558  47.414  53.894  1.00  0.00     0.002 A 
ATOM     12  C   UNL     1      10.174  46.521  52.354  1.00  0.00     0.002 A 
ATOM     13  C   UNL     1       7.528  46.914  53.091  1.00  0.00     0.026 A 
ATOM     14  C   UNL     1       9.138  46.023  51.555  1.00  0.00     0.026 A 
ENDBRANCH   7   9
ENDBRANCH   1   7
BRANCH   3  15
ATOM     15  N   UNL     1       4.991  41.552  50.384  1.00  0.00    -0.350 N 
ATOM     16  H   UNL     1       4.054  41.214  50.190  1.00  0.00     0.164 HD
BRANCH  15  17
ATOM     17  C   UNL     1       5.879  41.585  49.238  1.00  0.00     0.153 C 
BRANCH  17  18
ATOM     18  C   UNL     1       5.103  41.263  47.988  1.00  0.00    -0.010 A 
ATOM     19  C   UNL     1       5.533  41.689  46.726  1.00  0.00     0.009 A 
ATOM     20  C   UNL     1       3.909  40.552  48.046  1.00  0.00     0.116 A 
ATOM     21  C   UNL     1       4.778  41.386  45.597  1.00  0.00     0.020 A 
ATOM     22  N   UNL     1       3.154  40.243  46.966  1.00  0.00    -0.264 NA
ATOM     23  C   UNL     1       3.607  40.666  45.768  1.00  0.00     0.111 A 
ENDBRANCH  17  18
ENDBRANCH  15  17
ENDBRANCH   3  15
BRANCH   5  24
ATOM     24  N   UNL     1       2.658  44.491  53.168  1.00  0.00    -0.341 N 
ATOM     25  C   UNL     1       2.814  45.384  54.308  1.00  0.00     0.120 C 
ATOM     26  C   UNL     1       1.634  43.487  53.397  1.00  0.00     0.120 C 
ATOM     27  C   UNL     1       1.811  44.854  55.335  1.00  0.00     0.023 C 
ATOM     28  C   UNL     1       0.779  44.121  54.490  1.00  0.00     0.023 C 
ENDBRANCH   5  24
TORSDOF 6
ENDMDL
MODEL 2
REMARK VINA RESULT:    -9.000      2.230      6.178
REMARK INTER + INTRA:         -12.969
REMARK INTER:                 -12.226
REMARK INTRA:                  -0.743
REMARK UNBOUND:                -0.811
REMARK SMILES c1ccc(Nc2nc(NCc3cccnc3)nc(N3CCCC3)n2)cc1
REMARK SMILES IDX 6 1 7 2 8 3 17 4 18 5 24 6 5 7 4 9 1 10 2 11 26 12 3 13
REMARK SMILES IDX 25 14 9 15 10 17 11 18 12 19 16 20 13 21 15 22 14 23 19 24
REMARK SMILES IDX 20 25 23 26 21 27 22 28
REMARK H PARENT 5 8 9 16
ROOT
ATOM      1  C   UNL     1       3.647  44.061  52.861  1.00  0.00     0.233 A 
ATOM      2  N   UNL     1       4.767  44.541  53.391  1.00  0.00    -0.177 NA
ATOM      3  C   UNL     1       4.622  45.246  54.501  1.00  0.00     0.229 A 
ATOM      4  N   UNL     1       3.461  45.491  55.085  1.00  0.00    -0.177 NA
ATOM      5  C   UNL     1       2.387  44.972  54.502  1.00  0.00     0.231 A 
ATOM      6  N   UNL     1       2.446  44.261  53.384  1.00  0.00    -0.176 NA
ENDROOT
BRANCH   1   7
ATOM      7  N   UNL     1       3.828  43.313  51.699  1.00  0.00    -0.324 N 
ATOM      8  H   UNL     1       2.956  42.875  51.448  1.00  0.00     0.170 HD
BRANCH   7   9
ATOM      9  C   UNL     1       4.930  43.031  50.883  1.00  0.00     0.041 A 
ATOM     10  C   UNL     1       7.204  42.598  49.261  1.00  0.00     0.000 A 
ATOM     11  C   UNL     1       6.864  43.888  49.654  1.00  0.00     0.002 A 
ATOM     12  C   UNL     1       6.420  41.526  49.673  1.00  0.00     0.002 A 
ATOM     13  C   UNL     1       5.740  44.099  50.459  1.00  0.00     0.026 A 
ATOM     14  C   UNL     1       5.296  41.743  50.479  1.00  0.00     0.026 A 
ENDBRANCH   7   9
ENDBRANCH   1   7
BRANCH   3  15
ATOM     15  N   UNL     1       5.799  45.742  55.051  1.00  0.00    -0.350 N 
ATOM     16  H   UNL     1       6.498  45.014  54.949  1.00  0.00     0.164 HD
BRANCH  15  17
ATOM     17  C   UNL     1       6.190  47.040  54.536  1.00  0.00     0.153 C 
BRANCH  17  18
ATOM     18  C   UNL     1       7.523  46.930  53.844  1.00  0.00    -0.010 A 
ATOM     19  C   UNL     1       8.717  47.269  54.492  1.00  0.00     0.009 A 
ATOM     20  C   UNL     1       7.614  46.513  52.521  1.00  0.00     0.116 A 
ATOM     21  C   UNL     1       9.927  47.170  53.811  1.00  0.00     0.020 A 
ATOM     22  N   UNL     1       8.775  46.407  51.834  1.00  0.00    -0.264 NA
ATOM     23  C   UNL     1       9.904  46.737  52.496  1.00  0.00     0.111 A 
ENDBRANCH  17  18
ENDBRANCH  15  17
ENDBRANCH   3  15
BRANCH   5  24
ATOM     24  N   UNL     1       1.157  45.212  55.064  1.00  0.00    -0.341 N 
ATOM     25  C   UNL     1       1.044  45.533  56.480  1.00  0.00     0.120 C 
ATOM     26  C   UNL     1      -0.018  44.520  54.564  1.00  0.00     0.120 C 
ATOM     27  C   UNL     1      -0.315  44.955  56.883  1.00  0.00     0.023 C 
ATOM     28  C   UNL     1      -1.092  44.908  55.575  1.00  0.00     0.023 C 
ENDBRANCH   5  24
TORSDOF 6
ENDMDL
MODEL 3
REMARK VINA RESULT:    -8.958      1.542      6.372
REMARK INTER + INTRA:         -12.912
REMARK INTER:                 -12.188
REMARK INTRA:                  -0.724
REMARK UNBOUND:                -0.811
REMARK SMILES c1ccc(Nc2nc(NCc3cccnc3)nc(N3CCCC3)n2)cc1
REMARK SMILES IDX 6 1 7 2 8 3 17 4 18 5 24 6 5 7 4 9 1 10 2 11 26 12 3 13
REMARK SMILES IDX 25 14 9 15 10 17 11 18 12 19 16 20 13 21 15 22 14 23 19 24
REMARK SMILES IDX 20 25 23 26 21 27 22 28
REMARK H PARENT 5 8 9 16
ROOT
ATOM      1  C   UNL     1       5.380  45.118  51.992  1.00  0.00     0.233 A 
ATOM      2  N   UNL     1       4.539  45.184  53.017  1.00  0.00    -0.177 NA
ATOM      3  C   UNL     1       3.734  44.145  53.169  1.00  0.00     0.229 A 
ATOM      4  N   UNL     1       3.725  43.085  52.378  1.00  0.00    -0.177 NA
ATOM      5  C   UNL     1       4.600  43.086  51.380  1.00  0.00     0.231 A 
ATOM      6  N   UNL     1       5.434  44.092  51.154  1.00  0.00    -0.176 NA
ENDROOT
BRANCH   1   7
ATOM      7  N   UNL     1       6.224  46.220  51.861  1.00  0.00    -0.324 N 
ATOM      8  H   UNL     1       5.806  46.882  51.225  1.00  0.00     0.170 HD
BRANCH   7   9
ATOM      9  C   UNL     1       7.484  46.549  52.373  1.00  0.00     0.041 A 
ATOM     10  C   UNL     1       9.968  47.220  53.542  1.00  0.00     0.000 A 
ATOM     11  C   UNL     1       8.792  47.379  54.266  1.00  0.00     0.002 A 
ATOM     12  C   UNL     1       9.913  46.729  52.241  1.00  0.00     0.002 A 
ATOM     13  C   UNL     1       7.565  47.043  53.686  1.00  0.00     0.026 A 
ATOM     14  C   UNL     1       8.681  46.394  51.666  1.00  0.00     0.026 A 
ENDBRANCH   7   9
ENDBRANCH   1   7
BRANCH   3  15
ATOM     15  N   UNL     1       2.857  44.220  54.247  1.00  0.00    -0.350 N 
ATOM     16  H   UNL     1       3.427  44.222  55.086  1.00  0.00     0.164 HD
BRANCH  15  17
ATOM     17  C   UNL     1       1.902  45.307  54.155  1.00  0.00     0.153 C 
BRANCH  17  18
ATOM     18  C   UNL     1       0.748  45.047  55.087  1.00  0.00    -0.010 A 
ATOM     19  C   UNL     1      -0.448  44.477  54.635  1.00  0.00     0.009 A 
ATOM     20  C   UNL     1       0.819  45.393  56.432  1.00  0.00     0.116 A 
ATOM     21  C   UNL     1      -1.497  44.269  55.525  1.00  0.00     0.020 A 
ATOM     22  N   UNL     1      -0.184  45.203  57.320  1.00  0.00    -0.264 NA
ATOM     23  C   UNL     1      -1.318  44.645  56.846  1.00  0.00     0.111 A 
ENDBRANCH  17  18
ENDBRANCH  15  17
ENDBRANCH   3  15
BRANCH   5  24
ATOM     24  N   UNL     1       4.618  42.013  50.523  1.00  0.00    -0.341 N 
ATOM     25  C   UNL     1       5.707  41.847  49.572  1.00  0.00     0.120 C 
ATOM     26  C   UNL     1       3.370  41.456  50.030  1.00  0.00     0.120 C 
ATOM     27  C   UNL     1       5.053  41.150  48.377  1.00  0.00     0.023 C 
ATOM     28  C   UNL     1       3.842  40.453  48.981  1.00  0.00     0.023 C 
ENDBRANCH   5  24
TORSDOF 6
ENDMDL
MODEL 4
REMARK VINA RESULT:    -8.805      2.273      6.267
REMARK INTER + INTRA:         -12.705
REMARK INTER:                 -12.058
REMARK INTRA:                  -0.647
REMARK UNBOUND:                -0.811
REMARK SMILES c1ccc(Nc2nc(NCc3cccnc3)nc(N3CCCC3)n2)cc1
REMARK SMILES IDX 6 1 7 2 8 3 17 4 18 5 24 6 5 7 4 9 1 10 2 11 26 12 3 13
REMARK SMILES IDX 25 14 9 15 10 17 11 18 12 19 16 20 13 21 15 22 14 23 19 24
REMARK SMILES IDX 20 25 23 26 21 27 22 28
REMARK H PARENT 5 8 9 16
ROOT
ATOM      1  C   UNL     1       3.474  44.014  52.713  1.00  0.00     0.233 A 
ATOM      2  N   UNL     1       4.384  44.945  52.977  1.00  0.00    -0.177 NA
ATOM      3  C   UNL     1       4.129  45.722  54.016  1.00  0.00     0.229 A 
ATOM      4  N   UNL     1       3.050  45.623  54.776  1.00  0.00    -0.177 NA
ATOM      5  C   UNL     1       2.189  44.665  54.456  1.00  0.00     0.231 A 
ATOM      6  N   UNL     1       2.368  43.850  53.425  1.00  0.00    -0.176 NA
ENDROOT
BRANCH   1   7
ATOM      7  N   UNL     1       3.772  43.202  51.620  1.00  0.00    -0.324 N 
ATOM      8  H   UNL     1       2.954  42.665  51.374  1.00  0.00     0.170 HD
BRANCH   7   9
ATOM      9  C   UNL     1       4.928  42.967  50.867  1.00  0.00     0.041 A 
ATOM     10  C   UNL     1       7.306  42.629  49.377  1.00  0.00     0.000 A 
ATOM     11  C   UNL     1       6.901  43.902  49.765  1.00  0.00     0.002 A 
ATOM     12  C   UNL     1       6.534  41.526  49.730  1.00  0.00     0.002 A 
ATOM     13  C   UNL     1       5.726  44.065  50.504  1.00  0.00     0.026 A 
ATOM     14  C   UNL     1       5.358  41.696  50.470  1.00  0.00     0.026 A 
ENDBRANCH   7   9
ENDBRANCH   1   7
BRANCH   3  15
ATOM     15  N   UNL     1       5.088  46.692  54.287  1.00  0.00    -0.350 N 
ATOM     16  H   UNL     1       5.741  46.280  54.945  1.00  0.00     0.164 HD
BRANCH  15  17
ATOM     17  C   UNL     1       5.696  47.267  53.103  1.00  0.00     0.153 C 
BRANCH  17  18
ATOM     18  C   UNL     1       7.196  47.186  53.214  1.00  0.00    -0.010 A 
ATOM     19  C   UNL     1       8.013  47.084  52.082  1.00  0.00     0.009 A 
ATOM     20  C   UNL     1       7.825  47.180  54.455  1.00  0.00     0.116 A 
ATOM     21  C   UNL     1       9.394  46.994  52.229  1.00  0.00     0.020 A 
ATOM     22  N   UNL     1       9.164  47.093  54.628  1.00  0.00    -0.264 NA
ATOM     23  C   UNL     1       9.917  47.003  53.511  1.00  0.00     0.111 A 
ENDBRANCH  17  18
ENDBRANCH  15  17
ENDBRANCH   3  15
BRANCH   5  24
ATOM     24  N   UNL     1       1.048  44.533  55.208  1.00  0.00    -0.341 N 
ATOM     25  C   UNL     1      -0.222  44.218  54.571  1.00  0.00     0.120 C 
ATOM     26  C   UNL     1       0.874  45.328  56.411  1.00  0.00     0.120 C 
ATOM     27  C   UNL     1      -1.263  44.911  55.453  1.00  0.00     0.023 C 
ATOM     28  C   UNL     1      -0.570  45.033  56.803  1.00  0.00     0.023 C 
ENDBRANCH   5  24
TORSDOF 6
ENDMDL
MODEL 5
REMARK VINA RESULT:    -8.794      1.189      7.115
REMARK INTER + INTRA:         -12.690
REMARK INTER:                 -11.854
REMARK INTRA:                  -0.836
REMARK UNBOUND:                -0.811
REMARK SMILES c1ccc(Nc2nc(NCc3cccnc3)nc(N3CCCC3)n2)cc1
REMARK SMILES IDX 6 1 7 2 8 3 17 4 18 5 24 6 5 7 4 9 1 10 2 11 26 12 3 13
REMARK SMILES IDX 25 14 9 15 10 17 11 18 12 19 16 20 13 21 15 22 14 23 19 24
REMARK SMILES IDX 20 25 23 26 21 27 22 28
REMARK H PARENT 5 8 9 16
ROOT
ATOM      1  C   UNL     1       5.051  42.343  50.309  1.00  0.00     0.233 A 
ATOM      2  N   UNL     1       5.974  43.295  50.241  1.00  0.00    -0.177 NA
ATOM      3  C   UNL     1       5.851  44.281  51.114  1.00  0.00     0.229 A 
ATOM      4  N   UNL     1       4.887  44.363  52.017  1.00  0.00    -0.177 NA
ATOM      5  C   UNL     1       4.005  43.371  52.030  1.00  0.00     0.231 A 
ATOM      6  N   UNL     1       4.054  42.352  51.183  1.00  0.00    -0.176 NA
ENDROOT
BRANCH   1   7
ATOM      7  N   UNL     1       5.210  41.311  49.385  1.00  0.00    -0.324 N 
ATOM      8  H   UNL     1       5.707  40.550  49.822  1.00  0.00     0.170 HD
BRANCH   7   9
ATOM      9  C   UNL     1       4.876  41.151  48.036  1.00  0.00     0.041 A 
ATOM     10  C   UNL     1       4.069  40.775  45.353  1.00  0.00     0.000 A 
ATOM     11  C   UNL     1       3.347  40.187  46.387  1.00  0.00     0.002 A 
ATOM     12  C   UNL     1       5.186  41.549  45.650  1.00  0.00     0.002 A 
ATOM     13  C   UNL     1       3.747  40.378  47.713  1.00  0.00     0.026 A 
ATOM     14  C   UNL     1       5.582  41.736  46.979  1.00  0.00     0.026 A 
ENDBRANCH   7   9
ENDBRANCH   1   7
BRANCH   3  15
ATOM     15  N   UNL     1       6.823  45.273  51.038  1.00  0.00    -0.350 N 
ATOM     16  H   UNL     1       6.992  45.440  50.052  1.00  0.00     0.164 HD
BRANCH  15  17
ATOM     17  C   UNL     1       6.518  46.458  51.815  1.00  0.00     0.153 C 
BRANCH  17  18
ATOM     18  C   UNL     1       7.682  46.790  52.712  1.00  0.00    -0.010 A 
ATOM     19  C   UNL     1       9.003  46.721  52.256  1.00  0.00     0.009 A 
ATOM     20  C   UNL     1       7.486  47.149  54.041  1.00  0.00     0.116 A 
ATOM     21  C   UNL     1      10.052  47.018  53.121  1.00  0.00     0.020 A 
ATOM     22  N   UNL     1       8.485  47.443  54.905  1.00  0.00    -0.264 NA
ATOM     23  C   UNL     1       9.744  47.371  54.425  1.00  0.00     0.111 A 
ENDBRANCH  17  18
ENDBRANCH  15  17
ENDBRANCH   3  15
BRANCH   5  24
ATOM     24  N   UNL     1       2.978  43.420  52.940  1.00  0.00    -0.341 N 
ATOM     25  C   UNL     1       1.717  42.748  52.665  1.00  0.00     0.120 C 
ATOM     26  C   UNL     1       2.801  44.597  53.773  1.00  0.00     0.120 C 
ATOM     27  C   UNL     1       0.672  43.614  53.373  1.00  0.00     0.023 C 
ATOM     28  C   UNL     1       1.466  44.324  54.461  1.00  0.00     0.023 C 
ENDBRANCH   5  24
TORSDOF 6
ENDMDL
MODEL 6
REMARK VINA RESULT:    -8.764      1.704      5.290
REMARK INTER + INTRA:         -12.650
REMARK INTER:                 -11.677
REMARK INTRA:                  -0.973
REMARK UNBOUND:                -0.811
REMARK SMILES c1ccc(Nc2nc(NCc3cccnc3)nc(N3CCCC3)n2)cc1
REMARK SMILES IDX 6 1 7 2 8 3 17 4 18 5 24 6 5 7 4 9 1 10 2 11 26 12 3 13
REMARK SMILES IDX 25 14 9 15 10 17 11 18 12 19 16 20 13 21 15 22 14 23 19 24
REMARK SMILES IDX 20 25 23 26 21 27 22 28
REMARK H PARENT 5 8 9 16
ROOT
ATOM      1  C   UNL     1       5.155  45.250  52.277  1.00  0.00     0.233 A 
ATOM      2  N   UNL     1       4.255  45.313  53.251  1.00  0.00    -0.177 NA
ATOM      3  C   UNL     1       3.460  44.262  53.369  1.00  0.00     0.229 A 
ATOM      4  N   UNL     1       3.513  43.193  52.590  1.00  0.00    -0.177 NA
ATOM      5  C   UNL     1       4.444  43.199  51.644  1.00  0.00     0.231 A 
ATOM      6  N   UNL     1       5.274  44.217  51.456  1.00  0.00    -0.176 NA
ENDROOT
BRANCH   1   7
ATOM      7  N   UNL     1       5.987  46.365  52.182  1.00  0.00    -0.324 N 
ATOM      8  H   UNL     1       5.479  47.120  51.748  1.00  0.00     0.170 HD
BRANCH   7   9
ATOM      9  C   UNL     1       7.324  46.614  52.511  1.00  0.00     0.041 A 
ATOM     10  C   UNL     1       9.988  47.109  53.317  1.00  0.00     0.000 A 
ATOM     11  C   UNL     1       8.951  47.206  54.239  1.00  0.00     0.002 A 
ATOM     12  C   UNL     1       9.704  46.764  51.999  1.00  0.00     0.002 A 
ATOM     13  C   UNL     1       7.635  46.958  53.837  1.00  0.00     0.026 A 
ATOM     14  C   UNL     1       8.385  46.517  51.603  1.00  0.00     0.026 A 
ENDBRANCH   7   9
ENDBRANCH   1   7
BRANCH   3  15
ATOM     15  N   UNL     1       2.521  44.334  54.393  1.00  0.00    -0.350 N 
ATOM     16  H   UNL     1       3.039  44.484  55.252  1.00  0.00     0.164 HD
BRANCH  15  17
ATOM     17  C   UNL     1       1.454  45.285  54.148  1.00  0.00     0.153 C 
BRANCH  17  18
ATOM     18  C   UNL     1       0.340  44.611  53.390  1.00  0.00    -0.010 A 
ATOM     19  C   UNL     1      -0.220  45.184  52.243  1.00  0.00     0.009 A 
ATOM     20  C   UNL     1      -0.196  43.403  53.825  1.00  0.00     0.116 A 
ATOM     21  C   UNL     1      -1.260  44.537  51.582  1.00  0.00     0.020 A 
ATOM     22  N   UNL     1      -1.207  42.752  53.203  1.00  0.00    -0.264 NA
ATOM     23  C   UNL     1      -1.714  43.334  52.096  1.00  0.00     0.111 A 
ENDBRANCH  17  18
ENDBRANCH  15  17
ENDBRANCH   3  15
BRANCH   5  24
ATOM     24  N   UNL     1       4.529  42.118  50.803  1.00  0.00    -0.341 N 
ATOM     25  C   UNL     1       5.733  41.887  50.017  1.00  0.00     0.120 C 
ATOM     26  C   UNL     1       3.338  41.618  50.138  1.00  0.00     0.120 C 
ATOM     27  C   UNL     1       5.220  41.212  48.743  1.00  0.00     0.023 C 
ATOM     28  C   UNL     1       3.902  40.582  49.171  1.00  0.00     0.023 C 
ENDBRANCH   5  24
TORSDOF 6
ENDMDL
MODEL 7
REMARK VINA RESULT:    -8.745      3.037      7.357
REMARK INTER + INTRA:         -12.624
REMARK INTER:                 -11.896
REMARK INTRA:                  -0.728
REMARK UNBOUND:                -0.811
REMARK SMILES c1ccc(Nc2nc(NCc3cccnc3)nc(N3CCCC3)n2)cc1
REMARK SMILES IDX 6 1 7 2 8 3 17 4 18 5 24 6 5 7 4 9 1 10 2 11 26 12 3 13
REMARK SMILES IDX 25 14 9 15 10 17 11 18 12 19 16 20 13 21 15 22 14 23 19 24
REMARK SMILES IDX 20 25 23 26 21 27 22 28
REMARK H PARENT 5 8 9 16
ROOT
ATOM      1  C   UNL     1       5.099  46.573  53.754  1.00  0.00     0.233 A 
ATOM      2  N   UNL     1       4.482  46.670  54.927  1.00  0.00    -0.177 NA
ATOM      3  C   UNL     1       3.404  45.918  55.075  1.00  0.00     0.229 A 
ATOM      4  N   UNL     1       2.927  45.106  54.146  1.00  0.00    -0.177 NA
ATOM      5  C   UNL     1       3.600  45.055  53.004  1.00  0.00     0.231 A 
ATOM      6  N   UNL     1       4.685  45.784  52.774  1.00  0.00    -0.176 NA
ENDROOT
BRANCH   1   7
ATOM      7  N   UNL     1       6.237  47.368  53.629  1.00  0.00    -0.324 N 
ATOM      8  H   UNL     1       5.999  48.323  53.845  1.00  0.00     0.170 HD
BRANCH   7   9
ATOM      9  C   UNL     1       7.559  47.122  53.240  1.00  0.00     0.041 A 
ATOM     10  C   UNL     1      10.263  46.610  52.598  1.00  0.00     0.000 A 
ATOM     11  C   UNL     1       9.900  46.895  53.910  1.00  0.00     0.002 A 
ATOM     12  C   UNL     1       9.287  46.577  51.607  1.00  0.00     0.002 A 
ATOM     13  C   UNL     1       8.562  47.145  54.224  1.00  0.00     0.026 A 
ATOM     14  C   UNL     1       7.948  46.828  51.929  1.00  0.00     0.026 A 
ENDBRANCH   7   9
ENDBRANCH   1   7
BRANCH   3  15
ATOM     15  N   UNL     1       2.766  46.024  56.306  1.00  0.00    -0.350 N 
ATOM     16  H   UNL     1       2.694  47.014  56.513  1.00  0.00     0.164 HD
BRANCH  15  17
ATOM     17  C   UNL     1       1.517  45.291  56.387  1.00  0.00     0.153 C 
BRANCH  17  18
ATOM     18  C   UNL     1       0.511  46.090  57.174  1.00  0.00    -0.010 A 
ATOM     19  C   UNL     1      -0.828  46.178  56.779  1.00  0.00     0.009 A 
ATOM     20  C   UNL     1       0.888  46.798  58.311  1.00  0.00     0.116 A 
ATOM     21  C   UNL     1      -1.722  46.942  57.525  1.00  0.00     0.020 A 
ATOM     22  N   UNL     1       0.042  47.548  59.055  1.00  0.00    -0.264 NA
ATOM     23  C   UNL     1      -1.243  47.601  58.644  1.00  0.00     0.111 A 
ENDBRANCH  17  18
ENDBRANCH  15  17
ENDBRANCH   3  15
BRANCH   5  24
ATOM     24  N   UNL     1       3.134  44.237  52.005  1.00  0.00    -0.341 N 
ATOM     25  C   UNL     1       1.987  44.634  51.201  1.00  0.00     0.120 C 
ATOM     26  C   UNL     1       3.233  42.794  52.141  1.00  0.00     0.120 C 
ATOM     27  C   UNL     1       1.310  43.310  50.841  1.00  0.00     0.023 C 
ATOM     28  C   UNL     1       2.433  42.287  50.946  1.00  0.00     0.023 C 
ENDBRANCH   5  24
TORSDOF 6
ENDMDL
MODEL 8
REMARK VINA RESULT:    -8.732      1.827      6.560
REMARK INTER + INTRA:         -12.606
REMARK INTER:                 -11.951
REMARK INTRA:                  -0.656
REMARK UNBOUND:                -0.811
REMARK SMILES c1ccc(Nc2nc(NCc3cccnc3)nc(N3CCCC3)n2)cc1
REMARK SMILES IDX 6 1 7 2 8 3 17 4 18 5 24 6 5 7 4 9 1 10 2 11 26 12 3 13
REMARK SMILES IDX 25 14 9 15 10 17 11 18 12 19 16 20 13 21 15 22 14 23 19 24
REMARK SMILES IDX 20 25 23 26 21 27 22 28
REMARK H PARENT 5 8 9 16
ROOT
ATOM      1  C   UNL     1       3.476  43.638  52.699  1.00  0.00     0.233 A 
ATOM      2  N   UNL     1       4.357  44.594  52.425  1.00  0.00    -0.177 NA
ATOM      3  C   UNL     1       4.106  45.778  52.958  1.00  0.00     0.229 A 
ATOM      4  N   UNL     1       3.059  46.048  53.720  1.00  0.00    -0.177 NA
ATOM      5  C   UNL     1       2.227  45.041  53.957  1.00  0.00     0.231 A 
ATOM      6  N   UNL     1       2.403  43.827  53.453  1.00  0.00    -0.176 NA
ENDROOT
BRANCH   1   7
ATOM      7  N   UNL     1       3.770  42.398  52.134  1.00  0.00    -0.324 N 
ATOM      8  H   UNL     1       3.576  41.673  52.808  1.00  0.00     0.170 HD
BRANCH   7   9
ATOM      9  C   UNL     1       4.293  41.987  50.903  1.00  0.00     0.041 A 
ATOM     10  C   UNL     1       5.214  41.112  48.378  1.00  0.00     0.000 A 
ATOM     11  C   UNL     1       3.963  40.716  48.839  1.00  0.00     0.002 A 
ATOM     12  C   UNL     1       6.005  41.941  49.167  1.00  0.00     0.002 A 
ATOM     13  C   UNL     1       3.509  41.152  50.087  1.00  0.00     0.026 A 
ATOM     14  C   UNL     1       5.545  42.376  50.415  1.00  0.00     0.026 A 
ENDBRANCH   7   9
ENDBRANCH   1   7
BRANCH   3  15
ATOM     15  N   UNL     1       5.034  46.773  52.668  1.00  0.00    -0.350 N 
ATOM     16  H   UNL     1       5.238  47.244  53.542  1.00  0.00     0.164 HD
BRANCH  15  17
ATOM     17  C   UNL     1       6.197  46.301  51.942  1.00  0.00     0.153 C 
BRANCH  17  18
ATOM     18  C   UNL     1       7.448  46.679  52.690  1.00  0.00    -0.010 A 
ATOM     19  C   UNL     1       8.712  46.607  52.092  1.00  0.00     0.009 A 
ATOM     20  C   UNL     1       7.395  47.087  54.018  1.00  0.00     0.116 A 
ATOM     21  C   UNL     1       9.845  46.949  52.823  1.00  0.00     0.020 A 
ATOM     22  N   UNL     1       8.480  47.426  54.754  1.00  0.00    -0.264 NA
ATOM     23  C   UNL     1       9.679  47.349  54.139  1.00  0.00     0.111 A 
ENDBRANCH  17  18
ENDBRANCH  15  17
ENDBRANCH   3  15
BRANCH   5  24
ATOM     24  N   UNL     1       1.118  45.277  54.732  1.00  0.00    -0.341 N 
ATOM     25  C   UNL     1       1.259  45.577  56.149  1.00  0.00     0.120 C 
ATOM     26  C   UNL     1      -0.132  44.597  54.438  1.00  0.00     0.120 C 
ATOM     27  C   UNL     1      -0.010  44.999  56.779  1.00  0.00     0.023 C 
ATOM     28  C   UNL     1      -1.007  44.974  55.629  1.00  0.00     0.023 C 
ENDBRANCH   5  24
TORSDOF 6
ENDMDL
MODEL 9
REMARK VINA RESULT:    -8.696      1.435      7.626
REMARK INTER + INTRA:         -12.558
REMARK INTER:                 -11.923
REMARK INTRA:                  -0.635
REMARK UNBOUND:                -0.811
REMARK SMILES c1ccc(Nc2nc(NCc3cccnc3)nc(N3CCCC3)n2)cc1
REMARK SMILES IDX 6 1 7 2 8 3 17 4 18 5 24 6 5 7 4 9 1 10 2 11 26 12 3 13
REMARK SMILES IDX 25 14 9 15 10 17 11 18 12 19 16 20 13 21 15 22 14 23 19 24
REMARK SMILES IDX 20 25 23 26 21 27 22 28
REMARK H PARENT 5 8 9 16
ROOT
ATOM      1  C   UNL     1       3.799  44.174  53.134  1.00  0.00     0.233 A 
ATOM      2  N   UNL     1       4.544  45.240  52.868  1.00  0.00    -0.177 NA
ATOM      3  C   UNL     1       5.286  45.166  51.775  1.00  0.00     0.229 A 
ATOM      4  N   UNL     1       5.322  44.120  50.966  1.00  0.00    -0.177 NA
ATOM      5  C   UNL     1       4.544  43.095  51.292  1.00  0.00     0.231 A 
ATOM      6  N   UNL     1       3.778  43.088  52.375  1.00  0.00    -0.176 NA
ENDROOT
BRANCH   1   7
ATOM      7  N   UNL     1       3.019  44.282  54.285  1.00  0.00    -0.324 N 
ATOM      8  H   UNL     1       3.623  44.340  55.089  1.00  0.00     0.170 HD
BRANCH   7   9
ATOM      9  C   UNL     1       1.642  44.281  54.532  1.00  0.00     0.041 A 
ATOM     10  C   UNL     1      -1.150  44.151  54.961  1.00  0.00     0.000 A 
ATOM     11  C   UNL     1      -0.545  43.300  54.041  1.00  0.00     0.002 A 
ATOM     12  C   UNL     1      -0.371  45.063  55.667  1.00  0.00     0.002 A 
ATOM     13  C   UNL     1       0.836  43.365  53.834  1.00  0.00     0.026 A 
ATOM     14  C   UNL     1       1.011  45.123  55.455  1.00  0.00     0.026 A 
ENDBRANCH   7   9
ENDBRANCH   1   7
BRANCH   3  15
ATOM     15  N   UNL     1       6.063  46.287  51.502  1.00  0.00    -0.350 N 
ATOM     16  H   UNL     1       5.840  46.975  52.214  1.00  0.00     0.164 HD
BRANCH  15  17
ATOM     17  C   UNL     1       7.476  46.002  51.349  1.00  0.00     0.153 C 
BRANCH  17  18
ATOM     18  C   UNL     1       8.234  46.547  52.532  1.00  0.00    -0.010 A 
ATOM     19  C   UNL     1       9.631  46.512  52.588  1.00  0.00     0.009 A 
ATOM     20  C   UNL     1       7.565  47.080  53.629  1.00  0.00     0.116 A 
ATOM     21  C   UNL     1      10.293  47.009  53.707  1.00  0.00     0.020 A 
ATOM     22  N   UNL     1       8.181  47.572  54.729  1.00  0.00    -0.264 NA
ATOM     23  C   UNL     1       9.530  47.525  54.742  1.00  0.00     0.111 A 
ENDBRANCH  17  18
ENDBRANCH  15  17
ENDBRANCH   3  15
BRANCH   5  24
ATOM     24  N   UNL     1       4.559  41.981  50.490  1.00  0.00    -0.341 N 
ATOM     25  C   UNL     1       5.644  41.769  49.542  1.00  0.00     0.120 C 
ATOM     26  C   UNL     1       3.309  41.400  50.030  1.00  0.00     0.120 C 
ATOM     27  C   UNL     1       4.984  41.014  48.386  1.00  0.00     0.023 C 
ATOM     28  C   UNL     1       3.777  40.347  49.029  1.00  0.00     0.023 C 
ENDBRANCH   5  24
TORSDOF 6
ENDMDL
MODEL 10
REMARK VINA RESULT:    -8.642      2.433      3.350
REMARK INTER + INTRA:         -12.485
REMARK INTER:                 -11.500
REMARK INTRA:                  -0.985
REMARK UNBOUND:                -0.811
REMARK SMILES c1ccc(Nc2nc(NCc3cccnc3)nc(N3CCCC3)n2)cc1
REMARK SMILES IDX 6 1 7 2 8 3 17 4 18 5 24 6 5 7 4 9 1 10 2 11 26 12 3 13
REMARK SMILES IDX 25 14 9 15 10 17 11 18 12 19 16 20 13 21 15 22 14 23 19 24
REMARK SMILES IDX 20 25 23 26 21 27 22 28
REMARK H PARENT 5 8 9 16
ROOT
ATOM      1  C   UNL     1       4.716  45.914  54.142  1.00  0.00     0.233 A 
ATOM      2  N   UNL     1       4.966  44.900  53.321  1.00  0.00    -0.177 NA
ATOM      3  C   UNL     1       3.957  44.074  53.102  1.00  0.00     0.229 A 
ATOM      4  N   UNL     1       2.756  44.201  53.642  1.00  0.00    -0.177 NA
ATOM      5  C   UNL     1       2.578  45.243  54.446  1.00  0.00     0.231 A 
ATOM      6  N   UNL     1       3.541  46.112  54.723  1.00  0.00    -0.176 NA
ENDROOT
BRANCH   1   7
ATOM      7  N   UNL     1       5.792  46.776  54.347  1.00  0.00    -0.324 N 
ATOM      8  H   UNL     1       5.589  47.378  55.130  1.00  0.00     0.170 HD
BRANCH   7   9
ATOM      9  C   UNL     1       7.010  46.987  53.691  1.00  0.00     0.041 A 
ATOM     10  C   UNL     1       9.524  47.299  52.437  1.00  0.00     0.000 A 
ATOM     11  C   UNL     1       9.396  46.470  53.546  1.00  0.00     0.002 A 
ATOM     12  C   UNL     1       8.407  47.970  51.950  1.00  0.00     0.002 A 
ATOM     13  C   UNL     1       8.151  46.316  54.162  1.00  0.00     0.026 A 
ATOM     14  C   UNL     1       7.163  47.811  52.571  1.00  0.00     0.026 A 
ENDBRANCH   7   9
ENDBRANCH   1   7
BRANCH   3  15
ATOM     15  N   UNL     1       4.227  43.016  52.240  1.00  0.00    -0.350 N 
ATOM     16  H   UNL     1       3.586  42.269  52.486  1.00  0.00     0.164 HD
BRANCH  15  17
ATOM     17  C   UNL     1       4.227  43.384  50.838  1.00  0.00     0.153 C 
BRANCH  17  18
ATOM     18  C   UNL     1       5.643  43.605  50.372  1.00  0.00    -0.010 A 
ATOM     19  C   UNL     1       6.269  44.850  50.490  1.00  0.00     0.009 A 
ATOM     20  C   UNL     1       6.371  42.579  49.779  1.00  0.00     0.116 A 
ATOM     21  C   UNL     1       7.573  45.016  50.031  1.00  0.00     0.020 A 
ATOM     22  N   UNL     1       7.639  42.711  49.324  1.00  0.00    -0.264 NA
ATOM     23  C   UNL     1       8.210  43.926  49.462  1.00  0.00     0.111 A 
ENDBRANCH  17  18
ENDBRANCH  15  17
ENDBRANCH   3  15
BRANCH   5  24
ATOM     24  N   UNL     1       1.352  45.408  55.041  1.00  0.00    -0.341 N 
ATOM     25  C   UNL     1       1.257  45.708  56.462  1.00  0.00     0.120 C 
ATOM     26  C   UNL     1       0.204  44.658  54.561  1.00  0.00     0.120 C 
ATOM     27  C   UNL     1      -0.058  45.053  56.892  1.00  0.00     0.023 C 
ATOM     28  C   UNL     1      -0.864  44.976  55.603  1.00  0.00     0.023 C 
ENDBRANCH   5  24
TORSDOF 6
ENDMDL
MODEL 11
REMARK VINA RESULT:    -8.613      2.115      7.809
REMARK INTER + INTRA:         -12.446
REMARK INTER:                 -11.928
REMARK INTRA:                  -0.517
REMARK UNBOUND:                -0.811
REMARK SMILES c1ccc(Nc2nc(NCc3cccnc3)nc(N3CCCC3)n2)cc1
REMARK SMILES IDX 6 1 7 2 8 3 17 4 18 5 24 6 5 7 4 9 1 10 2 11 26 12 3 13
REMARK SMILES IDX 25 14 9 15 10 17 11 18 12 19 16 20 13 21 15 22 14 23 19 24
REMARK SMILES IDX 20 25 23 26 21 27 22 28
REMARK H PARENT 5 8 9 16
ROOT
ATOM      1  C   UNL     1       3.149  44.114  53.196  1.00  0.00     0.233 A 
ATOM      2  N   UNL     1       3.688  45.224  53.687  1.00  0.00    -0.177 NA
ATOM      3  C   UNL     1       4.788  45.646  53.085  1.00  0.00     0.229 A 
ATOM      4  N   UNL     1       5.358  45.038  52.058  1.00  0.00    -0.177 NA
ATOM      5  C   UNL     1       4.757  43.939  51.616  1.00  0.00     0.231 A 
ATOM      6  N   UNL     1       3.657  43.447  52.170  1.00  0.00    -0.176 NA
ENDROOT
BRANCH   1   7
ATOM      7  N   UNL     1       1.986  43.698  53.841  1.00  0.00    -0.324 N 
ATOM      8  H   UNL     1       1.735  42.779  53.509  1.00  0.00     0.170 HD
BRANCH   7   9
ATOM      9  C   UNL     1       1.124  44.287  54.772  1.00  0.00     0.041 A 
ATOM     10  C   UNL     1      -0.729  45.404  56.592  1.00  0.00     0.000 A 
ATOM     11  C   UNL     1      -1.181  44.743  55.455  1.00  0.00     0.002 A 
ATOM     12  C   UNL     1       0.638  45.509  56.827  1.00  0.00     0.002 A 
ATOM     13  C   UNL     1      -0.262  44.190  54.558  1.00  0.00     0.026 A 
ATOM     14  C   UNL     1       1.554  44.952  55.925  1.00  0.00     0.026 A 
ENDBRANCH   7   9
ENDBRANCH   1   7
BRANCH   3  15
ATOM     15  N   UNL     1       5.345  46.810  53.605  1.00  0.00    -0.350 N 
ATOM     16  H   UNL     1       5.764  46.561  54.494  1.00  0.00     0.164 HD
BRANCH  15  17
ATOM     17  C   UNL     1       6.229  47.501  52.686  1.00  0.00     0.153 C 
BRANCH  17  18
ATOM     18  C   UNL     1       7.659  47.314  53.122  1.00  0.00    -0.010 A 
ATOM     19  C   UNL     1       8.671  47.003  52.208  1.00  0.00     0.009 A 
ATOM     20  C   UNL     1       8.020  47.416  54.462  1.00  0.00     0.116 A 
ATOM     21  C   UNL     1       9.977  46.821  52.655  1.00  0.00     0.020 A 
ATOM     22  N   UNL     1       9.280  47.245  54.925  1.00  0.00    -0.264 NA
ATOM     23  C   UNL     1      10.229  46.952  54.010  1.00  0.00     0.111 A 
ENDBRANCH  17  18
ENDBRANCH  15  17
ENDBRANCH   3  15
BRANCH   5  24
ATOM     24  N   UNL     1       5.320  43.265  50.560  1.00  0.00    -0.341 N 
ATOM     25  C   UNL     1       5.222  41.815  50.474  1.00  0.00     0.120 C 
ATOM     26  C   UNL     1       6.533  43.770  49.939  1.00  0.00     0.120 C 
ATOM     27  C   UNL     1       6.510  41.398  49.760  1.00  0.00     0.023 C 
ATOM     28  C   UNL     1       6.914  42.643  48.983  1.00  0.00     0.023 C 
ENDBRANCH   5  24
TORSDOF 6
ENDMDL
MODEL 12
REMARK VINA RESULT:    -8.543      2.381      8.149
REMARK INTER + INTRA:         -12.351
REMARK INTER:                 -11.939
REMARK INTRA:                  -0.412
REMARK UNBOUND:                -0.811
REMARK SMILES c1ccc(Nc2nc(NCc3cccnc3)nc(N3CCCC3)n2)cc1
REMARK SMILES IDX 6 1 7 2 8 3 17 4 18 5 24 6 5 7 4 9 1 10 2 11 26 12 3 13
REMARK SMILES IDX 25 14 9 15 10 17 11 18 12 19 16 20 13 21 15 22 14 23 19 24
REMARK SMILES IDX 20 25 23 26 21 27 22 28
REMARK H PARENT 5 8 9 16
ROOT
ATOM      1  C   UNL     1       4.420  44.676  53.059  1.00  0.00     0.233 A 
ATOM      2  N   UNL     1       3.614  44.853  54.099  1.00  0.00    -0.177 NA
ATOM      3  C   UNL     1       3.969  45.804  54.948  1.00  0.00     0.229 A 
ATOM      4  N   UNL     1       5.048  46.557  54.817  1.00  0.00    -0.177 NA
ATOM      5  C   UNL     1       5.802  46.328  53.749  1.00  0.00     0.231 A 
ATOM      6  N   UNL     1       5.520  45.388  52.856  1.00  0.00    -0.176 NA
ENDROOT
BRANCH   1   7
ATOM      7  N   UNL     1       4.018  43.676  52.175  1.00  0.00    -0.324 N 
ATOM      8  H   UNL     1       3.077  43.394  52.401  1.00  0.00     0.170 HD
BRANCH   7   9
ATOM      9  C   UNL     1       4.643  42.995  51.125  1.00  0.00     0.041 A 
ATOM     10  C   UNL     1       5.786  41.536  48.990  1.00  0.00     0.000 A 
ATOM     11  C   UNL     1       4.644  41.061  49.626  1.00  0.00     0.002 A 
ATOM     12  C   UNL     1       6.359  42.732  49.410  1.00  0.00     0.002 A 
ATOM     13  C   UNL     1       4.080  41.787  50.680  1.00  0.00     0.026 A 
ATOM     14  C   UNL     1       5.789  43.454  50.465  1.00  0.00     0.026 A 
ENDBRANCH   7   9
ENDBRANCH   1   7
BRANCH   3  15
ATOM     15  N   UNL     1       3.118  45.985  56.033  1.00  0.00    -0.350 N 
ATOM     16  H   UNL     1       2.829  46.957  56.018  1.00  0.00     0.164 HD
BRANCH  15  17
ATOM     17  C   UNL     1       2.032  45.026  56.097  1.00  0.00     0.153 C 
BRANCH  17  18
ATOM     18  C   UNL     1       0.818  45.675  56.710  1.00  0.00    -0.010 A 
ATOM     19  C   UNL     1      -0.461  45.496  56.172  1.00  0.00     0.009 A 
ATOM     20  C   UNL     1       0.932  46.504  57.820  1.00  0.00     0.116 A 
ATOM     21  C   UNL     1      -1.554  46.128  56.758  1.00  0.00     0.020 A 
ATOM     22  N   UNL     1      -0.112  47.131  58.412  1.00  0.00    -0.264 NA
ATOM     23  C   UNL     1      -1.330  46.928  57.866  1.00  0.00     0.111 A 
ENDBRANCH  17  18
ENDBRANCH  15  17
ENDBRANCH   3  15
BRANCH   5  24
ATOM     24  N   UNL     1       6.941  47.075  53.578  1.00  0.00    -0.341 N 
ATOM     25  C   UNL     1       7.371  47.470  52.245  1.00  0.00     0.120 C 
ATOM     26  C   UNL     1       8.061  46.912  54.489  1.00  0.00     0.120 C 
ATOM     27  C   UNL     1       8.898  47.522  52.348  1.00  0.00     0.023 C 
ATOM     28  C   UNL     1       9.154  47.749  53.831  1.00  0.00     0.023 C 
ENDBRANCH   5  24
TORSDOF 6
ENDMDL
MODEL 13
REMARK VINA RESULT:    -8.444      1.317      5.452
REMARK INTER + INTRA:         -12.217
REMARK INTER:                 -11.292
REMARK INTRA:                  -0.925
REMARK UNBOUND:                -0.811
REMARK SMILES c1ccc(Nc2nc(NCc3cccnc3)nc(N3CCCC3)n2)cc1
REMARK SMILES IDX 6 1 7 2 8 3 17 4 18 5 24 6 5 7 4 9 1 10 2 11 26 12 3 13
REMARK SMILES IDX 25 14 9 15 10 17 11 18 12 19 16 20 13 21 15 22 14 23 19 24
REMARK SMILES IDX 20 25 23 26 21 27 22 28
REMARK H PARENT 5 8 9 16
ROOT
ATOM      1  C   UNL     1       5.010  43.943  51.863  1.00  0.00     0.233 A 
ATOM      2  N   UNL     1       5.223  43.162  50.809  1.00  0.00    -0.177 NA
ATOM      3  C   UNL     1       6.246  43.498  50.041  1.00  0.00     0.229 A 
ATOM      4  N   UNL     1       7.036  44.536  50.261  1.00  0.00    -0.177 NA
ATOM      5  C   UNL     1       6.767  45.265  51.337  1.00  0.00     0.231 A 
ATOM      6  N   UNL     1       5.755  45.000  52.152  1.00  0.00    -0.176 NA
ENDROOT
BRANCH   1   7
ATOM      7  N   UNL     1       3.932  43.561  52.661  1.00  0.00    -0.324 N 
ATOM      8  H   UNL     1       4.282  43.157  53.516  1.00  0.00     0.170 HD
BRANCH   7   9
ATOM      9  C   UNL     1       2.543  43.586  52.499  1.00  0.00     0.041 A 
ATOM     10  C   UNL     1      -0.246  43.734  52.065  1.00  0.00     0.000 A 
ATOM     11  C   UNL     1       0.597  44.692  51.513  1.00  0.00     0.002 A 
ATOM     12  C   UNL     1       0.293  42.704  52.829  1.00  0.00     0.002 A 
ATOM     13  C   UNL     1       1.976  44.614  51.727  1.00  0.00     0.026 A 
ATOM     14  C   UNL     1       1.674  42.631  53.040  1.00  0.00     0.026 A 
ENDBRANCH   7   9
ENDBRANCH   1   7
BRANCH   3  15
ATOM     15  N   UNL     1       6.465  42.674  48.942  1.00  0.00    -0.350 N 
ATOM     16  H   UNL     1       7.469  42.619  48.815  1.00  0.00     0.164 HD
BRANCH  15  17
ATOM     17  C   UNL     1       5.787  41.395  49.021  1.00  0.00     0.153 C 
BRANCH  17  18
ATOM     18  C   UNL     1       5.009  41.155  47.753  1.00  0.00    -0.010 A 
ATOM     19  C   UNL     1       5.454  41.635  46.516  1.00  0.00     0.009 A 
ATOM     20  C   UNL     1       3.799  40.471  47.772  1.00  0.00     0.116 A 
ATOM     21  C   UNL     1       4.696  41.407  45.371  1.00  0.00     0.020 A 
ATOM     22  N   UNL     1       3.041  40.234  46.676  1.00  0.00    -0.264 NA
ATOM     23  C   UNL     1       3.508  40.708  45.502  1.00  0.00     0.111 A 
ENDBRANCH  17  18
ENDBRANCH  15  17
ENDBRANCH   3  15
BRANCH   5  24
ATOM     24  N   UNL     1       7.551  46.361  51.599  1.00  0.00    -0.341 N 
ATOM     25  C   UNL     1       9.002  46.244  51.609  1.00  0.00     0.120 C 
ATOM     26  C   UNL     1       7.079  47.394  52.505  1.00  0.00     0.120 C 
ATOM     27  C   UNL     1       9.451  47.282  52.640  1.00  0.00     0.023 C 
ATOM     28  C   UNL     1       8.307  48.285  52.668  1.00  0.00     0.023 C 
ENDBRANCH   5  24
TORSDOF 6
ENDMDL
MODEL 14
REMARK VINA RESULT:    -8.422      1.749      7.087
REMARK INTER + INTRA:         -12.187
REMARK INTER:                 -11.259
REMARK INTRA:                  -0.929
REMARK UNBOUND:                -0.811
REMARK SMILES c1ccc(Nc2nc(NCc3cccnc3)nc(N3CCCC3)n2)cc1
REMARK SMILES IDX 6 1 7 2 8 3 17 4 18 5 24 6 5 7 4 9 1 10 2 11 26 12 3 13
REMARK SMILES IDX 25 14 9 15 10 17 11 18 12 19 16 20 13 21 15 22 14 23 19 24
REMARK SMILES IDX 20 25 23 26 21 27 22 28
REMARK H PARENT 5 8 9 16
ROOT
ATOM      1  C   UNL     1       6.054  44.398  50.985  1.00  0.00     0.233 A 
ATOM      2  N   UNL     1       4.829  44.889  50.836  1.00  0.00    -0.177 NA
ATOM      3  C   UNL     1       4.624  46.090  51.351  1.00  0.00     0.229 A 
ATOM      4  N   UNL     1       5.543  46.797  51.987  1.00  0.00    -0.177 NA
ATOM      5  C   UNL     1       6.746  46.245  52.091  1.00  0.00     0.231 A 
ATOM      6  N   UNL     1       7.030  45.042  51.609  1.00  0.00    -0.176 NA
ENDROOT
BRANCH   1   7
ATOM      7  N   UNL     1       6.247  43.136  50.424  1.00  0.00    -0.324 N 
ATOM      8  H   UNL     1       7.219  42.883  50.504  1.00  0.00     0.170 HD
BRANCH   7   9
ATOM      9  C   UNL     1       5.412  42.224  49.769  1.00  0.00     0.041 A 
ATOM     10  C   UNL     1       3.827  40.371  48.338  1.00  0.00     0.000 A 
ATOM     11  C   UNL     1       4.902  40.996  47.716  1.00  0.00     0.002 A 
ATOM     12  C   UNL     1       3.540  40.664  49.668  1.00  0.00     0.002 A 
ATOM     13  C   UNL     1       5.686  41.909  48.427  1.00  0.00     0.026 A 
ATOM     14  C   UNL     1       4.328  41.579  50.375  1.00  0.00     0.026 A 
ENDBRANCH   7   9
ENDBRANCH   1   7
BRANCH   3  15
ATOM     15  N   UNL     1       3.340  46.599  51.188  1.00  0.00    -0.350 N 
ATOM     16  H   UNL     1       2.793  45.872  50.739  1.00  0.00     0.164 HD
BRANCH  15  17
ATOM     17  C   UNL     1       2.760  47.137  52.404  1.00  0.00     0.153 C 
BRANCH  17  18
ATOM     18  C   UNL     1       2.049  46.040  53.154  1.00  0.00    -0.010 A 
ATOM     19  C   UNL     1       0.961  45.357  52.599  1.00  0.00     0.009 A 
ATOM     20  C   UNL     1       2.433  45.687  54.443  1.00  0.00     0.116 A 
ATOM     21  C   UNL     1       0.321  44.362  53.332  1.00  0.00     0.020 A 
ATOM     22  N   UNL     1       1.830  44.725  55.179  1.00  0.00    -0.264 NA
ATOM     23  C   UNL     1       0.789  44.085  54.606  1.00  0.00     0.111 A 
ENDBRANCH  17  18
ENDBRANCH  15  17
ENDBRANCH   3  15
BRANCH   5  24
ATOM     24  N   UNL     1       7.729  46.936  52.755  1.00  0.00    -0.341 N 
ATOM     25  C   UNL     1       9.044  47.108  52.154  1.00  0.00     0.120 C 
ATOM     26  C   UNL     1       7.791  46.897  54.206  1.00  0.00     0.120 C 
ATOM     27  C   UNL     1       9.997  47.148  53.351  1.00  0.00     0.023 C 
ATOM     28  C   UNL     1       9.112  47.600  54.504  1.00  0.00     0.023 C 
ENDBRANCH   5  24
TORSDOF 6
ENDMDL
MODEL 15
REMARK VINA RESULT:    -8.383      1.594      5.505
REMARK INTER + INTRA:         -12.135
REMARK INTER:                 -11.158
REMARK INTRA:                  -0.977
REMARK UNBOUND:                -0.811
REMARK SMILES c1ccc(Nc2nc(NCc3cccnc3)nc(N3CCCC3)n2)cc1
REMARK SMILES IDX 6 1 7 2 8 3 17 4 18 5 24 6 5 7 4 9 1 10 2 11 26 12 3 13
REMARK SMILES IDX 25 14 9 15 10 17 11 18 12 19 16 20 13 21 15 22 14 23 19 24
REMARK SMILES IDX 20 25 23 26 21 27 22 28
REMARK H PARENT 5 8 9 16
ROOT
ATOM      1  C   UNL     1       4.900  46.123  51.644  1.00  0.00     0.233 A 
ATOM      2  N   UNL     1       5.181  45.272  50.663  1.00  0.00    -0.177 NA
ATOM      3  C   UNL     1       6.466  45.050  50.444  1.00  0.00     0.229 A 
ATOM      4  N   UNL     1       7.449  45.615  51.125  1.00  0.00    -0.177 NA
ATOM      5  C   UNL     1       7.092  46.447  52.096  1.00  0.00     0.231 A 
ATOM      6  N   UNL     1       5.826  46.729  52.373  1.00  0.00    -0.176 NA
ENDROOT
BRANCH   1   7
ATOM      7  N   UNL     1       3.539  46.331  51.862  1.00  0.00    -0.324 N 
ATOM      8  H   UNL     1       3.206  47.036  51.223  1.00  0.00     0.170 HD
BRANCH   7   9
ATOM      9  C   UNL     1       2.608  45.815  52.770  1.00  0.00     0.041 A 
ATOM     10  C   UNL     1       0.636  44.749  54.492  1.00  0.00     0.000 A 
ATOM     11  C   UNL     1       0.309  45.090  53.184  1.00  0.00     0.002 A 
ATOM     12  C   UNL     1       1.938  44.934  54.944  1.00  0.00     0.002 A 
ATOM     13  C   UNL     1       1.287  45.614  52.334  1.00  0.00     0.026 A 
ATOM     14  C   UNL     1       2.914  45.459  54.088  1.00  0.00     0.026 A 
ENDBRANCH   7   9
ENDBRANCH   1   7
BRANCH   3  15
ATOM     15  N   UNL     1       6.752  44.157  49.417  1.00  0.00    -0.350 N 
ATOM     16  H   UNL     1       7.497  44.572  48.868  1.00  0.00     0.164 HD
BRANCH  15  17
ATOM     17  C   UNL     1       7.007  42.802  49.868  1.00  0.00     0.153 C 
BRANCH  17  18
ATOM     18  C   UNL     1       5.808  41.938  49.579  1.00  0.00    -0.010 A 
ATOM     19  C   UNL     1       5.494  41.527  48.278  1.00  0.00     0.009 A 
ATOM     20  C   UNL     1       4.947  41.540  50.597  1.00  0.00     0.116 A 
ATOM     21  C   UNL     1       4.366  40.743  48.052  1.00  0.00     0.020 A 
ATOM     22  N   UNL     1       3.845  40.778  50.407  1.00  0.00    -0.264 NA
ATOM     23  C   UNL     1       3.581  40.398  49.139  1.00  0.00     0.111 A 
ENDBRANCH  17  18
ENDBRANCH  15  17
ENDBRANCH   3  15
BRANCH   5  24
ATOM     24  N   UNL     1       8.078  47.068  52.822  1.00  0.00    -0.341 N 
ATOM     25  C   UNL     1       9.470  46.972  52.407  1.00  0.00     0.120 C 
ATOM     26  C   UNL     1       7.944  47.205  54.262  1.00  0.00     0.120 C 
ATOM     27  C   UNL     1      10.253  47.026  53.721  1.00  0.00     0.023 C 
ATOM     28  C   UNL     1       9.310  47.743  54.676  1.00  0.00     0.023 C 
ENDBRANCH   5  24
TORSDOF 6
ENDMDL
MODEL 16
REMARK VINA RESULT:    -8.344      1.342      7.469
REMARK INTER + INTRA:         -12.083
REMARK INTER:                 -11.250
REMARK INTRA:                  -0.832
REMARK UNBOUND:                -0.811
REMARK SMILES c1ccc(Nc2nc(NCc3cccnc3)nc(N3CCCC3)n2)cc1
REMARK SMILES IDX 6 1 7 2 8 3 17 4 18 5 24 6 5 7 4 9 1 10 2 11 26 12 3 13
REMARK SMILES IDX 25 14 9 15 10 17 11 18 12 19 16 20 13 21 15 22 14 23 19 24
REMARK SMILES IDX 20 25 23 26 21 27 22 28
REMARK H PARENT 5 8 9 16
ROOT
ATOM      1  C   UNL     1       5.017  42.177  50.427  1.00  0.00     0.233 A 
ATOM      2  N   UNL     1       4.027  41.866  51.256  1.00  0.00    -0.177 NA
ATOM      3  C   UNL     1       3.781  42.745  52.214  1.00  0.00     0.229 A 
ATOM      4  N   UNL     1       4.449  43.874  52.382  1.00  0.00    -0.177 NA
ATOM      5  C   UNL     1       5.420  44.120  51.510  1.00  0.00     0.231 A 
ATOM      6  N   UNL     1       5.734  43.287  50.527  1.00  0.00    -0.176 NA
ENDROOT
BRANCH   1   7
ATOM      7  N   UNL     1       5.248  41.240  49.421  1.00  0.00    -0.324 N 
ATOM      8  H   UNL     1       5.793  40.479  49.797  1.00  0.00     0.170 HD
BRANCH   7   9
ATOM      9  C   UNL     1       4.929  41.172  48.061  1.00  0.00     0.041 A 
ATOM     10  C   UNL     1       4.153  40.981  45.349  1.00  0.00     0.000 A 
ATOM     11  C   UNL     1       3.418  40.328  46.332  1.00  0.00     0.002 A 
ATOM     12  C   UNL     1       5.270  41.729  45.710  1.00  0.00     0.002 A 
ATOM     13  C   UNL     1       3.802  40.427  47.672  1.00  0.00     0.026 A 
ATOM     14  C   UNL     1       5.650  41.824  47.054  1.00  0.00     0.026 A 
ENDBRANCH   7   9
ENDBRANCH   1   7
BRANCH   3  15
ATOM     15  N   UNL     1       2.741  42.414  53.076  1.00  0.00    -0.350 N 
ATOM     16  H   UNL     1       3.093  42.539  54.019  1.00  0.00     0.164 HD
BRANCH  15  17
ATOM     17  C   UNL     1       1.498  43.104  52.793  1.00  0.00     0.153 C 
BRANCH  17  18
ATOM     18  C   UNL     1       1.039  43.846  54.021  1.00  0.00    -0.010 A 
ATOM     19  C   UNL     1      -0.306  43.870  54.405  1.00  0.00     0.009 A 
ATOM     20  C   UNL     1       1.938  44.563  54.804  1.00  0.00     0.116 A 
ATOM     21  C   UNL     1      -0.691  44.583  55.537  1.00  0.00     0.020 A 
ATOM     22  N   UNL     1       1.593  45.264  55.909  1.00  0.00    -0.264 NA
ATOM     23  C   UNL     1       0.287  45.257  56.250  1.00  0.00     0.111 A 
ENDBRANCH  17  18
ENDBRANCH  15  17
ENDBRANCH   3  15
BRANCH   5  24
ATOM     24  N   UNL     1       6.151  45.273  51.653  1.00  0.00    -0.341 N 
ATOM     25  C   UNL     1       7.204  45.601  50.702  1.00  0.00     0.120 C 
ATOM     26  C   UNL     1       6.427  45.800  52.979  1.00  0.00     0.120 C 
ATOM     27  C   UNL     1       8.229  46.374  51.536  1.00  0.00     0.023 C 
ATOM     28  C   UNL     1       7.411  46.930  52.693  1.00  0.00     0.023 C 
ENDBRANCH   5  24
TORSDOF 6
ENDMDL
MODEL 17
REMARK VINA RESULT:    -8.343      1.490      5.943
REMARK INTER + INTRA:         -12.080
REMARK INTER:                 -11.185
REMARK INTRA:                  -0.895
REMARK UNBOUND:                -0.811
REMARK SMILES c1ccc(Nc2nc(NCc3cccnc3)nc(N3CCCC3)n2)cc1
REMARK SMILES IDX 6 1 7 2 8 3 17 4 18 5 24 6 5 7 4 9 1 10 2 11 26 12 3 13
REMARK SMILES IDX 25 14 9 15 10 17 11 18 12 19 16 20 13 21 15 22 14 23 19 24
REMARK SMILES IDX 20 25 23 26 21 27 22 28
REMARK H PARENT 5 8 9 16
ROOT
ATOM      1  C   UNL     1       6.170  44.028  50.542  1.00  0.00     0.233 A 
ATOM      2  N   UNL     1       5.509  44.129  51.690  1.00  0.00    -0.177 NA
ATOM      3  C   UNL     1       4.583  43.209  51.904  1.00  0.00     0.229 A 
ATOM      4  N   UNL     1       4.292  42.231  51.061  1.00  0.00    -0.177 NA
ATOM      5  C   UNL     1       4.999  42.189  49.939  1.00  0.00     0.231 A 
ATOM      6  N   UNL     1       5.939  43.079  49.646  1.00  0.00    -0.176 NA
ENDROOT
BRANCH   1   7
ATOM      7  N   UNL     1       7.147  45.002  50.346  1.00  0.00    -0.324 N 
ATOM      8  H   UNL     1       7.388  45.036  49.367  1.00  0.00     0.170 HD
BRANCH   7   9
ATOM      9  C   UNL     1       7.849  45.863  51.196  1.00  0.00     0.041 A 
ATOM     10  C   UNL     1       9.393  47.554  52.854  1.00  0.00     0.000 A 
ATOM     11  C   UNL     1      10.007  46.535  52.133  1.00  0.00     0.002 A 
ATOM     12  C   UNL     1       8.018  47.734  52.752  1.00  0.00     0.002 A 
ATOM     13  C   UNL     1       9.241  45.703  51.312  1.00  0.00     0.026 A 
ATOM     14  C   UNL     1       7.256  46.897  51.928  1.00  0.00     0.026 A 
ENDBRANCH   7   9
ENDBRANCH   1   7
BRANCH   3  15
ATOM     15  N   UNL     1       3.897  43.320  53.109  1.00  0.00    -0.350 N 
ATOM     16  H   UNL     1       4.593  43.498  53.825  1.00  0.00     0.164 HD
BRANCH  15  17
ATOM     17  C   UNL     1       2.799  44.266  53.077  1.00  0.00     0.153 C 
BRANCH  17  18
ATOM     18  C   UNL     1       3.316  45.653  53.356  1.00  0.00    -0.010 A 
ATOM     19  C   UNL     1       4.152  45.919  54.446  1.00  0.00     0.009 A 
ATOM     20  C   UNL     1       2.956  46.729  52.552  1.00  0.00     0.116 A 
ATOM     21  C   UNL     1       4.594  47.218  54.679  1.00  0.00     0.020 A 
ATOM     22  N   UNL     1       3.370  48.002  52.754  1.00  0.00    -0.264 NA
ATOM     23  C   UNL     1       4.180  48.216  53.812  1.00  0.00     0.111 A 
ENDBRANCH  17  18
ENDBRANCH  15  17
ENDBRANCH   3  15
BRANCH   5  24
ATOM     24  N   UNL     1       4.723  41.201  49.028  1.00  0.00    -0.341 N 
ATOM     25  C   UNL     1       5.152  41.334  47.643  1.00  0.00     0.120 C 
ATOM     26  C   UNL     1       3.505  40.418  49.151  1.00  0.00     0.120 C 
ATOM     27  C   UNL     1       4.077  40.587  46.848  1.00  0.00     0.023 C 
ATOM     28  C   UNL     1       3.494  39.608  47.858  1.00  0.00     0.023 C 
ENDBRANCH   5  24
TORSDOF 6
ENDMDL
MODEL 18
REMARK VINA RESULT:    -8.334      1.368      7.172
REMARK INTER + INTRA:         -12.069
REMARK INTER:                 -11.328
REMARK INTRA:                  -0.742
REMARK UNBOUND:                -0.811
REMARK SMILES c1ccc(Nc2nc(NCc3cccnc3)nc(N3CCCC3)n2)cc1
REMARK SMILES IDX 6 1 7 2 8 3 17 4 18 5 24 6 5 7 4 9 1 10 2 11 26 12 3 13
REMARK SMILES IDX 25 14 9 15 10 17 11 18 12 19 16 20 13 21 15 22 14 23 19 24
REMARK SMILES IDX 20 25 23 26 21 27 22 28
REMARK H PARENT 5 8 9 16
ROOT
ATOM      1  C   UNL     1       5.932  42.920  50.105  1.00  0.00     0.233 A 
ATOM      2  N   UNL     1       4.965  42.633  50.968  1.00  0.00    -0.177 NA
ATOM      3  C   UNL     1       4.761  43.526  51.923  1.00  0.00     0.229 A 
ATOM      4  N   UNL     1       5.449  44.648  52.055  1.00  0.00    -0.177 NA
ATOM      5  C   UNL     1       6.395  44.871  51.150  1.00  0.00     0.231 A 
ATOM      6  N   UNL     1       6.666  44.021  50.168  1.00  0.00    -0.176 NA
ENDROOT
BRANCH   1   7
ATOM      7  N   UNL     1       6.119  41.968  49.103  1.00  0.00    -0.324 N 
ATOM      8  H   UNL     1       7.034  41.556  49.206  1.00  0.00     0.170 HD
BRANCH   7   9
ATOM      9  C   UNL     1       5.349  41.529  48.021  1.00  0.00     0.041 A 
ATOM     10  C   UNL     1       3.903  40.683  45.744  1.00  0.00     0.000 A 
ATOM     11  C   UNL     1       5.027  41.489  45.596  1.00  0.00     0.002 A 
ATOM     12  C   UNL     1       3.499  40.297  47.017  1.00  0.00     0.002 A 
ATOM     13  C   UNL     1       5.742  41.903  46.724  1.00  0.00     0.026 A 
ATOM     14  C   UNL     1       4.218  40.714  48.143  1.00  0.00     0.026 A 
ENDBRANCH   7   9
ENDBRANCH   1   7
BRANCH   3  15
ATOM     15  N   UNL     1       3.745  43.219  52.821  1.00  0.00    -0.350 N 
ATOM     16  H   UNL     1       3.676  44.003  53.462  1.00  0.00     0.164 HD
BRANCH  15  17
ATOM     17  C   UNL     1       2.497  42.834  52.191  1.00  0.00     0.153 C 
BRANCH  17  18
ATOM     18  C   UNL     1       1.343  43.205  53.086  1.00  0.00    -0.010 A 
ATOM     19  C   UNL     1       1.388  44.332  53.914  1.00  0.00     0.009 A 
ATOM     20  C   UNL     1       0.197  42.419  53.142  1.00  0.00     0.116 A 
ATOM     21  C   UNL     1       0.306  44.630  54.738  1.00  0.00     0.020 A 
ATOM     22  N   UNL     1      -0.870  42.683  53.933  1.00  0.00    -0.264 NA
ATOM     23  C   UNL     1      -0.789  43.783  54.711  1.00  0.00     0.111 A 
ENDBRANCH  17  18
ENDBRANCH  15  17
ENDBRANCH   3  15
BRANCH   5  24
ATOM     24  N   UNL     1       7.145  46.016  51.256  1.00  0.00    -0.341 N 
ATOM     25  C   UNL     1       8.570  45.993  50.958  1.00  0.00     0.120 C 
ATOM     26  C   UNL     1       6.810  47.015  52.256  1.00  0.00     0.120 C 
ATOM     27  C   UNL     1       9.160  47.058  51.886  1.00  0.00     0.023 C 
ATOM     28  C   UNL     1       7.985  47.984  52.169  1.00  0.00     0.023 C 
ENDBRANCH   5  24
TORSDOF 6
ENDMDL
