MODEL 1
REMARK VINA RESULT:    -8.415      0.000      0.000
REMARK INTER + INTRA:         -12.325
REMARK INTER:                 -11.367
REMARK INTRA:                  -0.957
REMARK UNBOUND:                -0.957
REMARK SMILES COCCNc1nc(Nc2ccc(F)c(F)c2F)c2cnn(C)c2n1
REMARK SMILES IDX 5 1 4 3 3 4 2 5 1 6 6 7 7 8 25 9 8 10 24 11 19 12 22 13
REMARK SMILES IDX 20 14 21 15 23 16 9 17 10 19 11 20 17 21 12 22 15 23 13 24
REMARK SMILES IDX 18 25 16 26 14 27
REMARK H PARENT 5 2 9 18
ROOT
ATOM      1  N   UNL     1       2.583  45.336  52.438  1.00  0.00    -0.352 N 
ATOM      2  H   UNL     1       2.092  44.517  52.784  1.00  0.00     0.163 HD
ENDROOT
BRANCH   1   3
ATOM      3  C   UNL     1       2.822  46.353  53.456  1.00  0.00     0.144 C 
BRANCH   3   4
ATOM      4  C   UNL     1       3.200  45.730  54.809  1.00  0.00     0.181 C 
BRANCH   4   5
ATOM      5  O   UNL     1       4.535  46.071  55.213  1.00  0.00    -0.383 OA
ATOM      6  C   UNL     1       5.402  44.947  55.288  1.00  0.00     0.194 C 
ENDBRANCH   4   5
ENDBRANCH   3   4
ENDBRANCH   1   3
BRANCH   1   7
ATOM      7  C   UNL     1       3.702  44.863  51.767  1.00  0.00     0.226 A 
ATOM      8  N   UNL     1       4.776  45.662  51.616  1.00  0.00    -0.195 NA
ATOM      9  N   UNL     1       3.606  43.602  51.328  1.00  0.00    -0.193 NA
ATOM     10  C   UNL     1       5.872  45.238  50.936  1.00  0.00     0.147 A 
ATOM     11  C   UNL     1       4.700  43.195  50.669  1.00  0.00     0.165 A 
ATOM     12  C   UNL     1       5.843  43.932  50.437  1.00  0.00     0.082 A 
ATOM     13  N   UNL     1       4.915  41.972  50.094  1.00  0.00    -0.250 N 
ATOM     14  C   UNL     1       6.681  43.059  49.713  1.00  0.00     0.149 A 
ATOM     15  N   UNL     1       6.129  41.859  49.505  1.00  0.00    -0.179 NA
ATOM     16  C   UNL     1       4.004  40.855  50.066  1.00  0.00     0.176 C 
BRANCH  10  17
ATOM     17  N   UNL     1       7.005  46.056  50.806  1.00  0.00    -0.337 N 
ATOM     18  H   UNL     1       7.244  46.284  49.852  1.00  0.00     0.168 HD
BRANCH  17  19
ATOM     19  C   UNL     1       7.942  46.452  51.777  1.00  0.00     0.079 A 
ATOM     20  C   UNL     1       9.290  46.094  51.581  1.00  0.00     0.032 A 
ATOM     21  C   UNL     1       7.608  47.119  52.970  1.00  0.00     0.185 A 
ATOM     22  C   UNL     1      10.264  46.391  52.539  1.00  0.00     0.045 A 
ATOM     23  C   UNL     1       8.578  47.414  53.924  1.00  0.00     0.196 A 
ATOM     24  C   UNL     1       9.898  47.048  53.707  1.00  0.00     0.162 A 
ATOM     25  F   UNL     1       6.358  47.556  53.187  1.00  0.00    -0.201 F 
ATOM     26  F   UNL     1       8.240  48.062  55.048  1.00  0.00    -0.200 F 
ATOM     27  F   UNL     1      10.835  47.329  54.622  1.00  0.00    -0.204 F 
ENDBRANCH  17  19
ENDBRANCH  10  17
ENDBRANCH   1   7
TORSDOF 6
ENDMDL
MODEL 2
REMARK VINA RESULT:    -8.365      2.290      4.409
REMARK INTER + INTRA:         -12.256
REMARK INTER:                 -11.354
REMARK INTRA:                  -0.902
REMARK UNBOUND:                -0.957
REMARK SMILES COCCNc1nc(Nc2ccc(F)c(F)c2F)c2cnn(C)c2n1
REMARK SMILES IDX 5 1 4 3 3 4 2 5 1 6 6 7 7 8 25 9 8 10 24 11 19 12 22 13
REMARK SMILES IDX 20 14 21 15 23 16 9 17 10 19 11 20 17 21 12 22 15 23 13 24
REMARK SMILES IDX 18 25 16 26 14 27
REMARK H PARENT 5 2 9 18
ROOT
ATOM      1  N   UNL     1       4.236  41.758  50.843  1.00  0.00    -0.352 N 
ATOM      2  H   UNL     1       3.541  41.711  50.103  1.00  0.00     0.163 HD
ENDROOT
BRANCH   1   3
ATOM      3  C   UNL     1       5.602  41.536  50.384  1.00  0.00     0.144 C 
BRANCH   3   4
ATOM      4  C   UNL     1       5.689  41.479  48.851  1.00  0.00     0.181 C 
BRANCH   4   5
ATOM      5  O   UNL     1       6.373  42.614  48.300  1.00  0.00    -0.383 OA
ATOM      6  C   UNL     1       7.402  43.113  49.144  1.00  0.00     0.194 C 
ENDBRANCH   4   5
ENDBRANCH   3   4
ENDBRANCH   1   3
BRANCH   1   7
ATOM      7  C   UNL     1       3.999  42.947  51.520  1.00  0.00     0.226 A 
ATOM      8  N   UNL     1       4.846  43.983  51.362  1.00  0.00    -0.195 NA
ATOM      9  N   UNL     1       2.901  42.953  52.284  1.00  0.00    -0.193 NA
ATOM     10  C   UNL     1       4.659  45.147  52.036  1.00  0.00     0.147 A 
ATOM     11  C   UNL     1       2.724  44.112  52.934  1.00  0.00     0.165 A 
ATOM     12  C   UNL     1       3.535  45.226  52.864  1.00  0.00     0.082 A 
ATOM     13  N   UNL     1       1.709  44.435  53.793  1.00  0.00    -0.250 N 
ATOM     14  C   UNL     1       2.919  46.161  53.722  1.00  0.00     0.149 A 
ATOM     15  N   UNL     1       1.801  45.693  54.287  1.00  0.00    -0.179 NA
ATOM     16  C   UNL     1       0.611  43.593  54.193  1.00  0.00     0.176 C 
BRANCH  10  17
ATOM     17  N   UNL     1       5.520  46.238  51.848  1.00  0.00    -0.337 N 
ATOM     18  H   UNL     1       5.222  46.881  51.128  1.00  0.00     0.168 HD
BRANCH  17  19
ATOM     19  C   UNL     1       6.802  46.473  52.379  1.00  0.00     0.079 A 
ATOM     20  C   UNL     1       6.901  46.836  53.736  1.00  0.00     0.032 A 
ATOM     21  C   UNL     1       7.986  46.441  51.621  1.00  0.00     0.185 A 
ATOM     22  C   UNL     1       8.135  47.154  54.311  1.00  0.00     0.045 A 
ATOM     23  C   UNL     1       9.214  46.758  52.193  1.00  0.00     0.196 A 
ATOM     24  C   UNL     1       9.284  47.116  53.532  1.00  0.00     0.162 A 
ATOM     25  F   UNL     1       7.975  46.031  50.343  1.00  0.00    -0.201 F 
ATOM     26  F   UNL     1      10.334  46.708  51.456  1.00  0.00    -0.200 F 
ATOM     27  F   UNL     1      10.463  47.422  54.088  1.00  0.00    -0.204 F 
ENDBRANCH  17  19
ENDBRANCH  10  17
ENDBRANCH   1   7
TORSDOF 6
ENDMDL
MODEL 3
REMARK VINA RESULT:    -8.327      1.968      2.598
REMARK INTER + INTRA:         -12.205
REMARK INTER:                 -11.212
REMARK INTRA:                  -0.994
REMARK UNBOUND:                -0.957
REMARK SMILES COCCNc1nc(Nc2ccc(F)c(F)c2F)c2cnn(C)c2n1
REMARK SMILES IDX 5 1 4 3 3 4 2 5 1 6 6 7 7 8 25 9 8 10 24 11 19 12 22 13
REMARK SMILES IDX 20 14 21 15 23 16 9 17 10 19 11 20 17 21 12 22 15 23 13 24
REMARK SMILES IDX 18 25 16 26 14 27
REMARK H PARENT 5 2 9 18
ROOT
ATOM      1  N   UNL     1       2.485  44.177  53.999  1.00  0.00    -0.352 N 
ATOM      2  H   UNL     1       2.949  44.051  54.894  1.00  0.00     0.163 HD
ENDROOT
BRANCH   1   3
ATOM      3  C   UNL     1       1.539  45.287  53.975  1.00  0.00     0.144 C 
BRANCH   3   4
ATOM      4  C   UNL     1       0.706  45.300  52.684  1.00  0.00     0.181 C 
BRANCH   4   5
ATOM      5  O   UNL     1      -0.050  44.093  52.509  1.00  0.00    -0.383 OA
ATOM      6  C   UNL     1       0.063  43.545  51.203  1.00  0.00     0.194 C 
ENDBRANCH   4   5
ENDBRANCH   3   4
ENDBRANCH   1   3
BRANCH   1   7
ATOM      7  C   UNL     1       3.490  44.204  53.042  1.00  0.00     0.226 A 
ATOM      8  N   UNL     1       4.314  45.268  52.971  1.00  0.00    -0.195 NA
ATOM      9  N   UNL     1       3.554  43.120  52.260  1.00  0.00    -0.193 NA
ATOM     10  C   UNL     1       5.285  45.338  52.024  1.00  0.00     0.147 A 
ATOM     11  C   UNL     1       4.524  43.199  51.338  1.00  0.00     0.165 A 
ATOM     12  C   UNL     1       5.408  44.245  51.161  1.00  0.00     0.082 A 
ATOM     13  N   UNL     1       4.845  42.268  50.389  1.00  0.00    -0.250 N 
ATOM     14  C   UNL     1       6.215  43.841  50.077  1.00  0.00     0.149 A 
ATOM     15  N   UNL     1       5.886  42.633  49.604  1.00  0.00    -0.179 NA
ATOM     16  C   UNL     1       4.201  40.997  50.168  1.00  0.00     0.176 C 
BRANCH  10  17
ATOM     17  N   UNL     1       6.165  46.429  51.969  1.00  0.00    -0.337 N 
ATOM     18  H   UNL     1       5.924  47.120  51.273  1.00  0.00     0.168 HD
BRANCH  17  19
ATOM     19  C   UNL     1       7.406  46.614  52.603  1.00  0.00     0.079 A 
ATOM     20  C   UNL     1       7.410  47.132  53.913  1.00  0.00     0.032 A 
ATOM     21  C   UNL     1       8.649  46.386  51.985  1.00  0.00     0.185 A 
ATOM     22  C   UNL     1       8.609  47.410  54.577  1.00  0.00     0.045 A 
ATOM     23  C   UNL     1       9.842  46.663  52.646  1.00  0.00     0.196 A 
ATOM     24  C   UNL     1       9.819  47.175  53.935  1.00  0.00     0.162 A 
ATOM     25  F   UNL     1       8.719  45.824  50.769  1.00  0.00    -0.201 F 
ATOM     26  F   UNL     1      11.017  46.425  52.043  1.00  0.00    -0.200 F 
ATOM     27  F   UNL     1      10.963  47.443  54.575  1.00  0.00    -0.204 F 
ENDBRANCH  17  19
ENDBRANCH  10  17
ENDBRANCH   1   7
TORSDOF 6
ENDMDL
MODEL 4
REMARK VINA RESULT:    -8.239      3.240      6.022
REMARK INTER + INTRA:         -12.086
REMARK INTER:                 -11.642
REMARK INTRA:                  -0.445
REMARK UNBOUND:                -0.957
REMARK SMILES COCCNc1nc(Nc2ccc(F)c(F)c2F)c2cnn(C)c2n1
REMARK SMILES IDX 5 1 4 3 3 4 2 5 1 6 6 7 7 8 25 9 8 10 24 11 19 12 22 13
REMARK SMILES IDX 20 14 21 15 23 16 9 17 10 19 11 20 17 21 12 22 15 23 13 24
REMARK SMILES IDX 18 25 16 26 14 27
REMARK H PARENT 5 2 9 18
ROOT
ATOM      1  N   UNL     1       4.678  47.162  54.856  1.00  0.00    -0.352 N 
ATOM      2  H   UNL     1       4.126  47.800  54.290  1.00  0.00     0.163 HD
ENDROOT
BRANCH   1   3
ATOM      3  C   UNL     1       3.922  46.027  55.373  1.00  0.00     0.144 C 
BRANCH   3   4
ATOM      4  C   UNL     1       2.697  45.709  54.501  1.00  0.00     0.181 C 
BRANCH   4   5
ATOM      5  O   UNL     1       2.423  46.746  53.547  1.00  0.00    -0.383 OA
ATOM      6  C   UNL     1       2.106  46.248  52.253  1.00  0.00     0.194 C 
ENDBRANCH   4   5
ENDBRANCH   3   4
ENDBRANCH   1   3
BRANCH   1   7
ATOM      7  C   UNL     1       5.807  46.858  54.108  1.00  0.00     0.226 A 
ATOM      8  N   UNL     1       5.676  46.205  52.937  1.00  0.00    -0.195 NA
ATOM      9  N   UNL     1       6.963  47.274  54.638  1.00  0.00    -0.193 NA
ATOM     10  C   UNL     1       6.764  45.866  52.200  1.00  0.00     0.147 A 
ATOM     11  C   UNL     1       8.028  46.942  53.893  1.00  0.00     0.165 A 
ATOM     12  C   UNL     1       8.012  46.258  52.694  1.00  0.00     0.082 A 
ATOM     13  N   UNL     1       9.343  47.211  54.158  1.00  0.00    -0.250 N 
ATOM     14  C   UNL     1       9.370  46.167  52.326  1.00  0.00     0.149 A 
ATOM     15  N   UNL     1      10.190  46.753  53.206  1.00  0.00    -0.179 NA
ATOM     16  C   UNL     1       9.871  47.907  55.304  1.00  0.00     0.176 C 
BRANCH  10  17
ATOM     17  N   UNL     1       6.628  45.215  50.964  1.00  0.00    -0.337 N 
ATOM     18  H   UNL     1       6.963  45.749  50.176  1.00  0.00     0.168 HD
BRANCH  17  19
ATOM     19  C   UNL     1       5.944  44.027  50.646  1.00  0.00     0.079 A 
ATOM     20  C   UNL     1       4.767  43.729  51.359  1.00  0.00     0.032 A 
ATOM     21  C   UNL     1       6.403  43.081  49.712  1.00  0.00     0.185 A 
ATOM     22  C   UNL     1       4.076  42.532  51.146  1.00  0.00     0.045 A 
ATOM     23  C   UNL     1       5.715  41.889  49.501  1.00  0.00     0.196 A 
ATOM     24  C   UNL     1       4.559  41.618  50.218  1.00  0.00     0.162 A 
ATOM     25  F   UNL     1       7.474  43.334  48.945  1.00  0.00    -0.201 F 
ATOM     26  F   UNL     1       6.162  41.005  48.596  1.00  0.00    -0.200 F 
ATOM     27  F   UNL     1       3.894  40.473  50.019  1.00  0.00    -0.204 F 
ENDBRANCH  17  19
ENDBRANCH  10  17
ENDBRANCH   1   7
TORSDOF 6
ENDMDL
MODEL 5
REMARK VINA RESULT:    -8.215      2.323      4.325
REMARK INTER + INTRA:         -12.054
REMARK INTER:                 -11.212
REMARK INTRA:                  -0.842
REMARK UNBOUND:                -0.957
REMARK SMILES COCCNc1nc(Nc2ccc(F)c(F)c2F)c2cnn(C)c2n1
REMARK SMILES IDX 5 1 4 3 3 4 2 5 1 6 6 7 7 8 25 9 8 10 24 11 19 12 22 13
REMARK SMILES IDX 20 14 21 15 23 16 9 17 10 19 11 20 17 21 12 22 15 23 13 24
REMARK SMILES IDX 18 25 16 26 14 27
REMARK H PARENT 5 2 9 18
ROOT
ATOM      1  N   UNL     1       5.124  41.547  50.599  1.00  0.00    -0.352 N 
ATOM      2  H   UNL     1       4.223  41.080  50.566  1.00  0.00     0.163 HD
ENDROOT
BRANCH   1   3
ATOM      3  C   UNL     1       5.978  41.266  49.451  1.00  0.00     0.144 C 
BRANCH   3   4
ATOM      4  C   UNL     1       5.170  41.170  48.147  1.00  0.00     0.181 C 
BRANCH   4   5
ATOM      5  O   UNL     1       5.796  41.873  47.064  1.00  0.00    -0.383 OA
ATOM      6  C   UNL     1       5.263  41.531  45.791  1.00  0.00     0.194 C 
ENDBRANCH   4   5
ENDBRANCH   3   4
ENDBRANCH   1   3
BRANCH   1   7
ATOM      7  C   UNL     1       4.857  42.886  50.853  1.00  0.00     0.226 A 
ATOM      8  N   UNL     1       5.847  43.794  50.751  1.00  0.00    -0.195 NA
ATOM      9  N   UNL     1       3.586  43.156  51.174  1.00  0.00    -0.193 NA
ATOM     10  C   UNL     1       5.623  45.105  51.025  1.00  0.00     0.147 A 
ATOM     11  C   UNL     1       3.379  44.456  51.430  1.00  0.00     0.165 A 
ATOM     12  C   UNL     1       4.319  45.465  51.379  1.00  0.00     0.082 A 
ATOM     13  N   UNL     1       2.202  45.053  51.791  1.00  0.00    -0.250 N 
ATOM     14  C   UNL     1       3.603  46.629  51.728  1.00  0.00     0.149 A 
ATOM     15  N   UNL     1       2.309  46.391  51.973  1.00  0.00    -0.179 NA
ATOM     16  C   UNL     1       0.926  44.410  51.982  1.00  0.00     0.176 C 
BRANCH  10  17
ATOM     17  N   UNL     1       6.644  46.057  50.888  1.00  0.00    -0.337 N 
ATOM     18  H   UNL     1       6.733  46.437  49.956  1.00  0.00     0.168 HD
BRANCH  17  19
ATOM     19  C   UNL     1       7.657  46.425  51.791  1.00  0.00     0.079 A 
ATOM     20  C   UNL     1       8.987  46.098  51.463  1.00  0.00     0.032 A 
ATOM     21  C   UNL     1       7.420  47.031  53.038  1.00  0.00     0.185 A 
ATOM     22  C   UNL     1      10.037  46.367  52.347  1.00  0.00     0.045 A 
ATOM     23  C   UNL     1       8.465  47.298  53.917  1.00  0.00     0.196 A 
ATOM     24  C   UNL     1       9.766  46.964  53.571  1.00  0.00     0.162 A 
ATOM     25  F   UNL     1       6.188  47.436  53.382  1.00  0.00    -0.201 F 
ATOM     26  F   UNL     1       8.219  47.889  55.096  1.00  0.00    -0.200 F 
ATOM     27  F   UNL     1      10.776  47.219  54.413  1.00  0.00    -0.204 F 
ENDBRANCH  17  19
ENDBRANCH  10  17
ENDBRANCH   1   7
TORSDOF 6
ENDMDL
MODEL 6
REMARK VINA RESULT:    -8.157      1.281      1.476
REMARK INTER + INTRA:         -11.976
REMARK INTER:                 -11.250
REMARK INTRA:                  -0.725
REMARK UNBOUND:                -0.957
REMARK SMILES COCCNc1nc(Nc2ccc(F)c(F)c2F)c2cnn(C)c2n1
REMARK SMILES IDX 5 1 4 3 3 4 2 5 1 6 6 7 7 8 25 9 8 10 24 11 19 12 22 13
REMARK SMILES IDX 20 14 21 15 23 16 9 17 10 19 11 20 17 21 12 22 15 23 13 24
REMARK SMILES IDX 18 25 16 26 14 27
REMARK H PARENT 5 2 9 18
ROOT
ATOM      1  N   UNL     1       3.521  43.757  53.388  1.00  0.00    -0.352 N 
ATOM      2  H   UNL     1       4.014  44.167  54.176  1.00  0.00     0.163 HD
ENDROOT
BRANCH   1   3
ATOM      3  C   UNL     1       2.205  44.338  53.149  1.00  0.00     0.144 C 
BRANCH   3   4
ATOM      4  C   UNL     1       2.060  45.719  53.807  1.00  0.00     0.181 C 
BRANCH   4   5
ATOM      5  O   UNL     1       1.806  46.757  52.850  1.00  0.00    -0.383 OA
ATOM      6  C   UNL     1       2.977  47.195  52.174  1.00  0.00     0.194 C 
ENDBRANCH   4   5
ENDBRANCH   3   4
ENDBRANCH   1   3
BRANCH   1   7
ATOM      7  C   UNL     1       4.408  43.784  52.320  1.00  0.00     0.226 A 
ATOM      8  N   UNL     1       5.279  44.805  52.202  1.00  0.00    -0.195 NA
ATOM      9  N   UNL     1       4.318  42.742  51.485  1.00  0.00    -0.193 NA
ATOM     10  C   UNL     1       6.135  44.876  51.151  1.00  0.00     0.147 A 
ATOM     11  C   UNL     1       5.178  42.820  50.459  1.00  0.00     0.165 A 
ATOM     12  C   UNL     1       6.094  43.826  50.228  1.00  0.00     0.082 A 
ATOM     13  N   UNL     1       5.331  41.926  49.436  1.00  0.00    -0.250 N 
ATOM     14  C   UNL     1       6.745  43.440  49.038  1.00  0.00     0.149 A 
ATOM     15  N   UNL     1       6.294  42.278  48.551  1.00  0.00    -0.179 NA
ATOM     16  C   UNL     1       4.593  40.704  49.233  1.00  0.00     0.176 C 
BRANCH  10  17
ATOM     17  N   UNL     1       7.065  45.921  51.043  1.00  0.00    -0.337 N 
ATOM     18  H   UNL     1       7.161  46.295  50.110  1.00  0.00     0.168 HD
BRANCH  17  19
ATOM     19  C   UNL     1       7.993  46.398  51.986  1.00  0.00     0.079 A 
ATOM     20  C   UNL     1       9.354  46.096  51.786  1.00  0.00     0.032 A 
ATOM     21  C   UNL     1       7.642  47.093  53.157  1.00  0.00     0.185 A 
ATOM     22  C   UNL     1      10.324  46.475  52.720  1.00  0.00     0.045 A 
ATOM     23  C   UNL     1       8.607  47.469  54.086  1.00  0.00     0.196 A 
ATOM     24  C   UNL     1       9.940  47.157  53.867  1.00  0.00     0.162 A 
ATOM     25  F   UNL     1       6.375  47.479  53.374  1.00  0.00    -0.201 F 
ATOM     26  F   UNL     1       8.252  48.144  55.190  1.00  0.00    -0.200 F 
ATOM     27  F   UNL     1      10.873  47.517  54.758  1.00  0.00    -0.204 F 
ENDBRANCH  17  19
ENDBRANCH  10  17
ENDBRANCH   1   7
TORSDOF 6
ENDMDL
MODEL 7
REMARK VINA RESULT:    -8.135      1.128      1.291
REMARK INTER + INTRA:         -11.946
REMARK INTER:                 -11.159
REMARK INTRA:                  -0.787
REMARK UNBOUND:                -0.957
REMARK SMILES COCCNc1nc(Nc2ccc(F)c(F)c2F)c2cnn(C)c2n1
REMARK SMILES IDX 5 1 4 3 3 4 2 5 1 6 6 7 7 8 25 9 8 10 24 11 19 12 22 13
REMARK SMILES IDX 20 14 21 15 23 16 9 17 10 19 11 20 17 21 12 22 15 23 13 24
REMARK SMILES IDX 18 25 16 26 14 27
REMARK H PARENT 5 2 9 18
ROOT
ATOM      1  N   UNL     1       2.364  45.712  51.683  1.00  0.00    -0.352 N 
ATOM      2  H   UNL     1       1.645  45.003  51.572  1.00  0.00     0.163 HD
ENDROOT
BRANCH   1   3
ATOM      3  C   UNL     1       2.375  46.339  52.999  1.00  0.00     0.144 C 
BRANCH   3   4
ATOM      4  C   UNL     1       1.553  45.539  54.022  1.00  0.00     0.181 C 
BRANCH   4   5
ATOM      5  O   UNL     1       1.995  44.178  54.133  1.00  0.00    -0.383 OA
ATOM      6  C   UNL     1       0.985  43.232  53.809  1.00  0.00     0.194 C 
ENDBRANCH   4   5
ENDBRANCH   3   4
ENDBRANCH   1   3
BRANCH   1   7
ATOM      7  C   UNL     1       3.553  45.125  51.272  1.00  0.00     0.226 A 
ATOM      8  N   UNL     1       4.667  45.876  51.173  1.00  0.00    -0.195 NA
ATOM      9  N   UNL     1       3.477  43.814  51.015  1.00  0.00    -0.193 NA
ATOM     10  C   UNL     1       5.837  45.338  50.742  1.00  0.00     0.147 A 
ATOM     11  C   UNL     1       4.642  43.295  50.602  1.00  0.00     0.165 A 
ATOM     12  C   UNL     1       5.834  43.972  50.445  1.00  0.00     0.082 A 
ATOM     13  N   UNL     1       4.896  41.996  50.255  1.00  0.00    -0.250 N 
ATOM     14  C   UNL     1       6.739  42.987  49.997  1.00  0.00     0.149 A 
ATOM     15  N   UNL     1       6.180  41.777  49.886  1.00  0.00    -0.179 NA
ATOM     16  C   UNL     1       3.958  40.901  50.252  1.00  0.00     0.176 C 
BRANCH  10  17
ATOM     17  N   UNL     1       7.006  46.111  50.671  1.00  0.00    -0.337 N 
ATOM     18  H   UNL     1       7.303  46.326  49.729  1.00  0.00     0.168 HD
BRANCH  17  19
ATOM     19  C   UNL     1       7.907  46.473  51.688  1.00  0.00     0.079 A 
ATOM     20  C   UNL     1       9.266  46.144  51.517  1.00  0.00     0.032 A 
ATOM     21  C   UNL     1       7.526  47.076  52.901  1.00  0.00     0.185 A 
ATOM     22  C   UNL     1      10.205  46.409  52.519  1.00  0.00     0.045 A 
ATOM     23  C   UNL     1       8.461  47.338  53.898  1.00  0.00     0.196 A 
ATOM     24  C   UNL     1       9.793  47.002  53.705  1.00  0.00     0.162 A 
ATOM     25  F   UNL     1       6.263  47.483  53.099  1.00  0.00    -0.201 F 
ATOM     26  F   UNL     1       8.079  47.926  55.041  1.00  0.00    -0.200 F 
ATOM     27  F   UNL     1      10.697  47.252  54.661  1.00  0.00    -0.204 F 
ENDBRANCH  17  19
ENDBRANCH  10  17
ENDBRANCH   1   7
TORSDOF 6
ENDMDL
MODEL 8
REMARK VINA RESULT:    -8.105      2.036      4.175
REMARK INTER + INTRA:         -11.906
REMARK INTER:                 -11.072
REMARK INTRA:                  -0.834
REMARK UNBOUND:                -0.957
REMARK SMILES COCCNc1nc(Nc2ccc(F)c(F)c2F)c2cnn(C)c2n1
REMARK SMILES IDX 5 1 4 3 3 4 2 5 1 6 6 7 7 8 25 9 8 10 24 11 19 12 22 13
REMARK SMILES IDX 20 14 21 15 23 16 9 17 10 19 11 20 17 21 12 22 15 23 13 24
REMARK SMILES IDX 18 25 16 26 14 27
REMARK H PARENT 5 2 9 18
ROOT
ATOM      1  N   UNL     1       4.259  41.416  51.226  1.00  0.00    -0.352 N 
ATOM      2  H   UNL     1       3.823  40.747  51.854  1.00  0.00     0.163 HD
ENDROOT
BRANCH   1   3
ATOM      3  C   UNL     1       3.993  41.164  49.815  1.00  0.00     0.144 C 
BRANCH   3   4
ATOM      4  C   UNL     1       5.280  41.189  48.976  1.00  0.00     0.181 C 
BRANCH   4   5
ATOM      5  O   UNL     1       6.442  41.479  49.767  1.00  0.00    -0.383 OA
ATOM      6  C   UNL     1       7.100  42.678  49.379  1.00  0.00     0.194 C 
ENDBRANCH   4   5
ENDBRANCH   3   4
ENDBRANCH   1   3
BRANCH   1   7
ATOM      7  C   UNL     1       3.913  42.674  51.702  1.00  0.00     0.226 A 
ATOM      8  N   UNL     1       4.702  43.731  51.425  1.00  0.00    -0.195 NA
ATOM      9  N   UNL     1       2.776  42.719  52.405  1.00  0.00    -0.193 NA
ATOM     10  C   UNL     1       4.407  44.967  51.904  1.00  0.00     0.147 A 
ATOM     11  C   UNL     1       2.493  43.947  52.861  1.00  0.00     0.165 A 
ATOM     12  C   UNL     1       3.237  45.092  52.658  1.00  0.00     0.082 A 
ATOM     13  N   UNL     1       1.414  44.325  53.613  1.00  0.00    -0.250 N 
ATOM     14  C   UNL     1       2.518  46.100  53.334  1.00  0.00     0.149 A 
ATOM     15  N   UNL     1       1.401  45.646  53.912  1.00  0.00    -0.179 NA
ATOM     16  C   UNL     1       0.349  43.478  54.088  1.00  0.00     0.176 C 
BRANCH  10  17
ATOM     17  N   UNL     1       5.209  46.075  51.590  1.00  0.00    -0.337 N 
ATOM     18  H   UNL     1       4.848  46.648  50.841  1.00  0.00     0.168 HD
BRANCH  17  19
ATOM     19  C   UNL     1       6.504  46.401  52.032  1.00  0.00     0.079 A 
ATOM     20  C   UNL     1       7.585  46.133  51.170  1.00  0.00     0.032 A 
ATOM     21  C   UNL     1       6.795  46.908  53.311  1.00  0.00     0.185 A 
ATOM     22  C   UNL     1       8.904  46.364  51.572  1.00  0.00     0.045 A 
ATOM     23  C   UNL     1       8.108  47.136  53.711  1.00  0.00     0.196 A 
ATOM     24  C   UNL     1       9.156  46.862  52.844  1.00  0.00     0.162 A 
ATOM     25  F   UNL     1       5.811  47.255  54.154  1.00  0.00    -0.201 F 
ATOM     26  F   UNL     1       8.364  47.633  54.931  1.00  0.00    -0.200 F 
ATOM     27  F   UNL     1      10.421  47.081  53.224  1.00  0.00    -0.204 F 
ENDBRANCH  17  19
ENDBRANCH  10  17
ENDBRANCH   1   7
TORSDOF 6
ENDMDL
MODEL 9
REMARK VINA RESULT:    -7.899      2.518      3.465
REMARK INTER + INTRA:         -11.626
REMARK INTER:                 -10.907
REMARK INTRA:                  -0.720
REMARK UNBOUND:                -0.957
REMARK SMILES COCCNc1nc(Nc2ccc(F)c(F)c2F)c2cnn(C)c2n1
REMARK SMILES IDX 5 1 4 3 3 4 2 5 1 6 6 7 7 8 25 9 8 10 24 11 19 12 22 13
REMARK SMILES IDX 20 14 21 15 23 16 9 17 10 19 11 20 17 21 12 22 15 23 13 24
REMARK SMILES IDX 18 25 16 26 14 27
REMARK H PARENT 5 2 9 18
ROOT
ATOM      1  N   UNL     1       2.774  46.065  56.459  1.00  0.00    -0.352 N 
ATOM      2  H   UNL     1       2.961  47.041  56.672  1.00  0.00     0.163 HD
ENDROOT
BRANCH   1   3
ATOM      3  C   UNL     1       1.393  45.663  56.702  1.00  0.00     0.144 C 
BRANCH   3   4
ATOM      4  C   UNL     1       0.769  46.437  57.873  1.00  0.00     0.181 C 
BRANCH   4   5
ATOM      5  O   UNL     1      -0.661  46.317  57.907  1.00  0.00    -0.383 OA
ATOM      6  C   UNL     1      -1.329  47.572  57.928  1.00  0.00     0.194 C 
ENDBRANCH   4   5
ENDBRANCH   3   4
ENDBRANCH   1   3
BRANCH   1   7
ATOM      7  C   UNL     1       3.261  45.848  55.177  1.00  0.00     0.226 A 
ATOM      8  N   UNL     1       4.228  46.648  54.688  1.00  0.00    -0.195 NA
ATOM      9  N   UNL     1       2.710  44.814  54.532  1.00  0.00    -0.193 NA
ATOM     10  C   UNL     1       4.702  46.481  53.426  1.00  0.00     0.147 A 
ATOM     11  C   UNL     1       3.196  44.654  53.292  1.00  0.00     0.165 A 
ATOM     12  C   UNL     1       4.166  45.424  52.684  1.00  0.00     0.082 A 
ATOM     13  N   UNL     1       2.839  43.702  52.377  1.00  0.00    -0.250 N 
ATOM     14  C   UNL     1       4.316  44.850  51.404  1.00  0.00     0.149 A 
ATOM     15  N   UNL     1       3.518  43.794  51.210  1.00  0.00    -0.179 NA
ATOM     16  C   UNL     1       1.854  42.663  52.546  1.00  0.00     0.176 C 
BRANCH  10  17
ATOM     17  N   UNL     1       5.732  47.292  52.926  1.00  0.00    -0.337 N 
ATOM     18  H   UNL     1       5.416  48.169  52.538  1.00  0.00     0.168 HD
BRANCH  17  19
ATOM     19  C   UNL     1       7.092  46.995  52.726  1.00  0.00     0.079 A 
ATOM     20  C   UNL     1       7.497  46.578  51.443  1.00  0.00     0.032 A 
ATOM     21  C   UNL     1       8.061  47.015  53.745  1.00  0.00     0.185 A 
ATOM     22  C   UNL     1       8.818  46.197  51.190  1.00  0.00     0.045 A 
ATOM     23  C   UNL     1       9.376  46.635  53.493  1.00  0.00     0.196 A 
ATOM     24  C   UNL     1       9.749  46.226  52.221  1.00  0.00     0.162 A 
ATOM     25  F   UNL     1       7.762  47.472  54.970  1.00  0.00    -0.201 F 
ATOM     26  F   UNL     1      10.288  46.674  54.476  1.00  0.00    -0.200 F 
ATOM     27  F   UNL     1      11.013  45.859  51.973  1.00  0.00    -0.204 F 
ENDBRANCH  17  19
ENDBRANCH  10  17
ENDBRANCH   1   7
TORSDOF 6
ENDMDL
MODEL 10
REMARK VINA RESULT:    -7.820      2.888      5.952
REMARK INTER + INTRA:         -11.520
REMARK INTER:                 -10.862
REMARK INTRA:                  -0.658
REMARK UNBOUND:                -0.957
REMARK SMILES COCCNc1nc(Nc2ccc(F)c(F)c2F)c2cnn(C)c2n1
REMARK SMILES IDX 5 1 4 3 3 4 2 5 1 6 6 7 7 8 25 9 8 10 24 11 19 12 22 13
REMARK SMILES IDX 20 14 21 15 23 16 9 17 10 19 11 20 17 21 12 22 15 23 13 24
REMARK SMILES IDX 18 25 16 26 14 27
REMARK H PARENT 5 2 9 18
ROOT
ATOM      1  N   UNL     1       8.779  47.926  52.558  1.00  0.00    -0.352 N 
ATOM      2  H   UNL     1       8.450  48.677  53.157  1.00  0.00     0.163 HD
ENDROOT
BRANCH   1   3
ATOM      3  C   UNL     1       9.903  47.178  53.111  1.00  0.00     0.144 C 
BRANCH   3   4
ATOM      4  C   UNL     1       9.663  46.786  54.577  1.00  0.00     0.181 C 
BRANCH   4   5
ATOM      5  O   UNL     1       9.968  47.854  55.486  1.00  0.00    -0.383 OA
ATOM      6  C   UNL     1      11.063  47.564  56.345  1.00  0.00     0.194 C 
ENDBRANCH   4   5
ENDBRANCH   3   4
ENDBRANCH   1   3
BRANCH   1   7
ATOM      7  C   UNL     1       7.656  47.185  52.216  1.00  0.00     0.226 A 
ATOM      8  N   UNL     1       6.455  47.519  52.727  1.00  0.00    -0.195 NA
ATOM      9  N   UNL     1       7.883  46.176  51.366  1.00  0.00    -0.193 NA
ATOM     10  C   UNL     1       5.345  46.794  52.437  1.00  0.00     0.147 A 
ATOM     11  C   UNL     1       6.776  45.477  51.080  1.00  0.00     0.165 A 
ATOM     12  C   UNL     1       5.504  45.715  51.561  1.00  0.00     0.082 A 
ATOM     13  N   UNL     1       6.671  44.390  50.256  1.00  0.00    -0.250 N 
ATOM     14  C   UNL     1       4.711  44.712  50.965  1.00  0.00     0.149 A 
ATOM     15  N   UNL     1       5.410  43.904  50.161  1.00  0.00    -0.179 NA
ATOM     16  C   UNL     1       7.734  43.754  49.520  1.00  0.00     0.176 C 
BRANCH  10  17
ATOM     17  N   UNL     1       4.089  47.160  52.941  1.00  0.00    -0.337 N 
ATOM     18  H   UNL     1       3.987  48.149  53.121  1.00  0.00     0.168 HD
BRANCH  17  19
ATOM     19  C   UNL     1       3.031  46.350  53.393  1.00  0.00     0.079 A 
ATOM     20  C   UNL     1       1.904  46.207  52.561  1.00  0.00     0.032 A 
ATOM     21  C   UNL     1       2.995  45.733  54.657  1.00  0.00     0.185 A 
ATOM     22  C   UNL     1       0.786  45.477  52.977  1.00  0.00     0.045 A 
ATOM     23  C   UNL     1       1.883  45.007  55.070  1.00  0.00     0.196 A 
ATOM     24  C   UNL     1       0.784  44.884  54.233  1.00  0.00     0.162 A 
ATOM     25  F   UNL     1       4.063  45.766  55.469  1.00  0.00    -0.201 F 
ATOM     26  F   UNL     1       1.874  44.416  56.275  1.00  0.00    -0.200 F 
ATOM     27  F   UNL     1      -0.290  44.186  54.626  1.00  0.00    -0.204 F 
ENDBRANCH  17  19
ENDBRANCH  10  17
ENDBRANCH   1   7
TORSDOF 6
ENDMDL
MODEL 11
REMARK VINA RESULT:    -7.713      2.781      3.772
REMARK INTER + INTRA:         -11.375
REMARK INTER:                 -10.640
REMARK INTRA:                  -0.736
REMARK UNBOUND:                -0.957
REMARK SMILES COCCNc1nc(Nc2ccc(F)c(F)c2F)c2cnn(C)c2n1
REMARK SMILES IDX 5 1 4 3 3 4 2 5 1 6 6 7 7 8 25 9 8 10 24 11 19 12 22 13
REMARK SMILES IDX 20 14 21 15 23 16 9 17 10 19 11 20 17 21 12 22 15 23 13 24
REMARK SMILES IDX 18 25 16 26 14 27
REMARK H PARENT 5 2 9 18
ROOT
ATOM      1  N   UNL     1       1.896  45.756  56.330  1.00  0.00    -0.352 N 
ATOM      2  H   UNL     1       2.011  46.756  56.197  1.00  0.00     0.163 HD
ENDROOT
BRANCH   1   3
ATOM      3  C   UNL     1       0.538  45.359  56.686  1.00  0.00     0.144 C 
BRANCH   3   4
ATOM      4  C   UNL     1      -0.152  46.410  57.569  1.00  0.00     0.181 C 
BRANCH   4   5
ATOM      5  O   UNL     1       0.647  46.782  58.702  1.00  0.00    -0.383 OA
ATOM      6  C   UNL     1       0.108  47.873  59.436  1.00  0.00     0.194 C 
ENDBRANCH   4   5
ENDBRANCH   3   4
ENDBRANCH   1   3
BRANCH   1   7
ATOM      7  C   UNL     1       2.438  45.151  55.204  1.00  0.00     0.226 A 
ATOM      8  N   UNL     1       3.770  45.184  55.005  1.00  0.00    -0.195 NA
ATOM      9  N   UNL     1       1.549  44.559  54.398  1.00  0.00    -0.193 NA
ATOM     10  C   UNL     1       4.326  44.631  53.897  1.00  0.00     0.147 A 
ATOM     11  C   UNL     1       2.113  44.007  53.315  1.00  0.00     0.165 A 
ATOM     12  C   UNL     1       3.457  44.000  53.001  1.00  0.00     0.082 A 
ATOM     13  N   UNL     1       1.485  43.337  52.301  1.00  0.00    -0.250 N 
ATOM     14  C   UNL     1       3.527  43.302  51.777  1.00  0.00     0.149 A 
ATOM     15  N   UNL     1       2.331  42.886  51.345  1.00  0.00    -0.179 NA
ATOM     16  C   UNL     1       0.071  43.085  52.174  1.00  0.00     0.176 C 
BRANCH  10  17
ATOM     17  N   UNL     1       5.715  44.635  53.705  1.00  0.00    -0.337 N 
ATOM     18  H   UNL     1       6.207  43.925  54.229  1.00  0.00     0.168 HD
BRANCH  17  19
ATOM     19  C   UNL     1       6.528  45.574  53.045  1.00  0.00     0.079 A 
ATOM     20  C   UNL     1       6.694  45.443  51.652  1.00  0.00     0.032 A 
ATOM     21  C   UNL     1       7.246  46.592  53.697  1.00  0.00     0.185 A 
ATOM     22  C   UNL     1       7.544  46.296  50.942  1.00  0.00     0.045 A 
ATOM     23  C   UNL     1       8.093  47.440  52.990  1.00  0.00     0.196 A 
ATOM     24  C   UNL     1       8.241  47.289  51.619  1.00  0.00     0.162 A 
ATOM     25  F   UNL     1       7.077  46.821  55.009  1.00  0.00    -0.201 F 
ATOM     26  F   UNL     1       8.759  48.414  53.630  1.00  0.00    -0.200 F 
ATOM     27  F   UNL     1       9.054  48.102  50.934  1.00  0.00    -0.204 F 
ENDBRANCH  17  19
ENDBRANCH  10  17
ENDBRANCH   1   7
TORSDOF 6
ENDMDL
MODEL 12
REMARK VINA RESULT:    -7.712      3.026      4.246
REMARK INTER + INTRA:         -11.375
REMARK INTER:                 -10.596
REMARK INTRA:                  -0.779
REMARK UNBOUND:                -0.957
REMARK SMILES COCCNc1nc(Nc2ccc(F)c(F)c2F)c2cnn(C)c2n1
REMARK SMILES IDX 5 1 4 3 3 4 2 5 1 6 6 7 7 8 25 9 8 10 24 11 19 12 22 13
REMARK SMILES IDX 20 14 21 15 23 16 9 17 10 19 11 20 17 21 12 22 15 23 13 24
REMARK SMILES IDX 18 25 16 26 14 27
REMARK H PARENT 5 2 9 18
ROOT
ATOM      1  N   UNL     1       2.166  45.664  56.397  1.00  0.00    -0.352 N 
ATOM      2  H   UNL     1       2.414  46.645  56.485  1.00  0.00     0.163 HD
ENDROOT
BRANCH   1   3
ATOM      3  C   UNL     1       0.901  45.315  57.032  1.00  0.00     0.144 C 
BRANCH   3   4
ATOM      4  C   UNL     1       0.179  46.553  57.587  1.00  0.00     0.181 C 
BRANCH   4   5
ATOM      5  O   UNL     1       0.662  46.932  58.884  1.00  0.00    -0.383 OA
ATOM      6  C   UNL     1      -0.093  47.977  59.481  1.00  0.00     0.194 C 
ENDBRANCH   4   5
ENDBRANCH   3   4
ENDBRANCH   1   3
BRANCH   1   7
ATOM      7  C   UNL     1       2.283  45.356  55.048  1.00  0.00     0.226 A 
ATOM      8  N   UNL     1       3.111  46.079  54.269  1.00  0.00    -0.195 NA
ATOM      9  N   UNL     1       1.542  44.319  54.640  1.00  0.00    -0.193 NA
ATOM     10  C   UNL     1       3.222  45.822  52.940  1.00  0.00     0.147 A 
ATOM     11  C   UNL     1       1.671  44.071  53.328  1.00  0.00     0.165 A 
ATOM     12  C   UNL     1       2.469  44.757  52.436  1.00  0.00     0.082 A 
ATOM     13  N   UNL     1       1.048  43.092  52.604  1.00  0.00    -0.250 N 
ATOM     14  C   UNL     1       2.249  44.110  51.201  1.00  0.00     0.149 A 
ATOM     15  N   UNL     1       1.391  43.088  51.294  1.00  0.00    -0.179 NA
ATOM     16  C   UNL     1       0.108  42.116  53.095  1.00  0.00     0.176 C 
BRANCH  10  17
ATOM     17  N   UNL     1       4.108  46.551  52.133  1.00  0.00    -0.337 N 
ATOM     18  H   UNL     1       3.655  47.181  51.486  1.00  0.00     0.168 HD
BRANCH  17  19
ATOM     19  C   UNL     1       5.498  46.410  51.969  1.00  0.00     0.079 A 
ATOM     20  C   UNL     1       6.343  47.133  52.834  1.00  0.00     0.032 A 
ATOM     21  C   UNL     1       6.098  45.651  50.949  1.00  0.00     0.185 A 
ATOM     22  C   UNL     1       7.733  47.096  52.682  1.00  0.00     0.045 A 
ATOM     23  C   UNL     1       7.481  45.616  50.798  1.00  0.00     0.196 A 
ATOM     24  C   UNL     1       8.291  46.339  51.661  1.00  0.00     0.162 A 
ATOM     25  F   UNL     1       5.357  44.880  50.138  1.00  0.00    -0.201 F 
ATOM     26  F   UNL     1       8.034  44.875  49.826  1.00  0.00    -0.200 F 
ATOM     27  F   UNL     1       9.623  46.309  51.521  1.00  0.00    -0.204 F 
ENDBRANCH  17  19
ENDBRANCH  10  17
ENDBRANCH   1   7
TORSDOF 6
ENDMDL
MODEL 13
REMARK VINA RESULT:    -7.652      4.575      7.108
REMARK INTER + INTRA:         -11.293
REMARK INTER:                 -10.329
REMARK INTRA:                  -0.964
REMARK UNBOUND:                -0.957
REMARK SMILES COCCNc1nc(Nc2ccc(F)c(F)c2F)c2cnn(C)c2n1
REMARK SMILES IDX 5 1 4 3 3 4 2 5 1 6 6 7 7 8 25 9 8 10 24 11 19 12 22 13
REMARK SMILES IDX 20 14 21 15 23 16 9 17 10 19 11 20 17 21 12 22 15 23 13 24
REMARK SMILES IDX 18 25 16 26 14 27
REMARK H PARENT 5 2 9 18
ROOT
ATOM      1  N   UNL     1       2.705  42.308  53.043  1.00  0.00    -0.352 N 
ATOM      2  H   UNL     1       3.122  42.183  53.961  1.00  0.00     0.163 HD
ENDROOT
BRANCH   1   3
ATOM      3  C   UNL     1       1.526  43.165  53.042  1.00  0.00     0.144 C 
BRANCH   3   4
ATOM      4  C   UNL     1       0.963  43.362  51.625  1.00  0.00     0.181 C 
BRANCH   4   5
ATOM      5  O   UNL     1       0.953  44.741  51.228  1.00  0.00    -0.383 OA
ATOM      6  C   UNL     1       1.072  45.641  52.321  1.00  0.00     0.194 C 
ENDBRANCH   4   5
ENDBRANCH   3   4
ENDBRANCH   1   3
BRANCH   1   7
ATOM      7  C   UNL     1       3.739  42.684  52.196  1.00  0.00     0.226 A 
ATOM      8  N   UNL     1       4.155  41.837  51.234  1.00  0.00    -0.195 NA
ATOM      9  N   UNL     1       4.234  43.907  52.418  1.00  0.00    -0.193 NA
ATOM     10  C   UNL     1       5.186  42.164  50.413  1.00  0.00     0.147 A 
ATOM     11  C   UNL     1       5.243  44.220  51.592  1.00  0.00     0.165 A 
ATOM     12  C   UNL     1       5.762  43.425  50.591  1.00  0.00     0.082 A 
ATOM     13  N   UNL     1       5.962  45.383  51.564  1.00  0.00    -0.250 N 
ATOM     14  C   UNL     1       6.792  44.205  50.024  1.00  0.00     0.149 A 
ATOM     15  N   UNL     1       6.917  45.404  50.604  1.00  0.00    -0.179 NA
ATOM     16  C   UNL     1       5.796  46.527  52.425  1.00  0.00     0.176 C 
BRANCH  10  17
ATOM     17  N   UNL     1       5.598  41.297  49.390  1.00  0.00    -0.337 N 
ATOM     18  H   UNL     1       6.476  40.831  49.571  1.00  0.00     0.168 HD
BRANCH  17  19
ATOM     19  C   UNL     1       5.072  41.119  48.097  1.00  0.00     0.079 A 
ATOM     20  C   UNL     1       5.715  41.769  47.026  1.00  0.00     0.032 A 
ATOM     21  C   UNL     1       3.901  40.393  47.816  1.00  0.00     0.185 A 
ATOM     22  C   UNL     1       5.205  41.695  45.725  1.00  0.00     0.045 A 
ATOM     23  C   UNL     1       3.394  40.320  46.523  1.00  0.00     0.196 A 
ATOM     24  C   UNL     1       4.044  40.972  45.485  1.00  0.00     0.162 A 
ATOM     25  F   UNL     1       3.282  39.688  48.776  1.00  0.00    -0.201 F 
ATOM     26  F   UNL     1       2.282  39.611  46.274  1.00  0.00    -0.200 F 
ATOM     27  F   UNL     1       3.560  40.905  44.238  1.00  0.00    -0.204 F 
ENDBRANCH  17  19
ENDBRANCH  10  17
ENDBRANCH   1   7
TORSDOF 6
ENDMDL
MODEL 14
REMARK VINA RESULT:    -7.633      2.951      5.980
REMARK INTER + INTRA:         -11.268
REMARK INTER:                 -10.558
REMARK INTRA:                  -0.710
REMARK UNBOUND:                -0.957
REMARK SMILES COCCNc1nc(Nc2ccc(F)c(F)c2F)c2cnn(C)c2n1
REMARK SMILES IDX 5 1 4 3 3 4 2 5 1 6 6 7 7 8 25 9 8 10 24 11 19 12 22 13
REMARK SMILES IDX 20 14 21 15 23 16 9 17 10 19 11 20 17 21 12 22 15 23 13 24
REMARK SMILES IDX 18 25 16 26 14 27
REMARK H PARENT 5 2 9 18
ROOT
ATOM      1  N   UNL     1       5.477  47.045  54.924  1.00  0.00    -0.352 N 
ATOM      2  H   UNL     1       5.373  47.261  55.911  1.00  0.00     0.163 HD
ENDROOT
BRANCH   1   3
ATOM      3  C   UNL     1       6.770  46.466  54.578  1.00  0.00     0.144 C 
BRANCH   3   4
ATOM      4  C   UNL     1       7.455  47.237  53.438  1.00  0.00     0.181 C 
BRANCH   4   5
ATOM      5  O   UNL     1       8.474  48.127  53.916  1.00  0.00    -0.383 OA
ATOM      6  C   UNL     1       9.627  47.452  54.402  1.00  0.00     0.194 C 
ENDBRANCH   4   5
ENDBRANCH   3   4
ENDBRANCH   1   3
BRANCH   1   7
ATOM      7  C   UNL     1       4.357  46.303  54.570  1.00  0.00     0.226 A 
ATOM      8  N   UNL     1       4.299  45.722  53.356  1.00  0.00    -0.195 NA
ATOM      9  N   UNL     1       3.412  46.223  55.514  1.00  0.00    -0.193 NA
ATOM     10  C   UNL     1       3.204  45.018  52.970  1.00  0.00     0.147 A 
ATOM     11  C   UNL     1       2.343  45.516  55.122  1.00  0.00     0.165 A 
ATOM     12  C   UNL     1       2.167  44.899  53.900  1.00  0.00     0.082 A 
ATOM     13  N   UNL     1       1.210  45.255  55.844  1.00  0.00    -0.250 N 
ATOM     14  C   UNL     1       0.895  44.297  53.992  1.00  0.00     0.149 A 
ATOM     15  N   UNL     1       0.306  44.501  55.176  1.00  0.00    -0.179 NA
ATOM     16  C   UNL     1       0.917  45.693  57.186  1.00  0.00     0.176 C 
BRANCH  10  17
ATOM     17  N   UNL     1       3.155  44.385  51.719  1.00  0.00    -0.337 N 
ATOM     18  H   UNL     1       2.260  44.452  51.256  1.00  0.00     0.168 HD
BRANCH  17  19
ATOM     19  C   UNL     1       4.093  43.535  51.105  1.00  0.00     0.079 A 
ATOM     20  C   UNL     1       3.852  42.148  51.142  1.00  0.00     0.032 A 
ATOM     21  C   UNL     1       5.294  43.977  50.522  1.00  0.00     0.185 A 
ATOM     22  C   UNL     1       4.777  41.240  50.616  1.00  0.00     0.045 A 
ATOM     23  C   UNL     1       6.214  43.073  50.000  1.00  0.00     0.196 A 
ATOM     24  C   UNL     1       5.955  41.711  50.051  1.00  0.00     0.162 A 
ATOM     25  F   UNL     1       5.551  45.287  50.386  1.00  0.00    -0.201 F 
ATOM     26  F   UNL     1       7.348  43.516  49.436  1.00  0.00    -0.200 F 
ATOM     27  F   UNL     1       6.836  40.837  49.549  1.00  0.00    -0.204 F 
ENDBRANCH  17  19
ENDBRANCH  10  17
ENDBRANCH   1   7
TORSDOF 6
ENDMDL
MODEL 15
REMARK VINA RESULT:    -7.612      3.182      5.996
REMARK INTER + INTRA:         -11.239
REMARK INTER:                 -10.565
REMARK INTRA:                  -0.674
REMARK UNBOUND:                -0.957
REMARK SMILES COCCNc1nc(Nc2ccc(F)c(F)c2F)c2cnn(C)c2n1
REMARK SMILES IDX 5 1 4 3 3 4 2 5 1 6 6 7 7 8 25 9 8 10 24 11 19 12 22 13
REMARK SMILES IDX 20 14 21 15 23 16 9 17 10 19 11 20 17 21 12 22 15 23 13 24
REMARK SMILES IDX 18 25 16 26 14 27
REMARK H PARENT 5 2 9 18
ROOT
ATOM      1  N   UNL     1       4.697  46.051  55.591  1.00  0.00    -0.352 N 
ATOM      2  H   UNL     1       5.051  46.679  56.307  1.00  0.00     0.163 HD
ENDROOT
BRANCH   1   3
ATOM      3  C   UNL     1       3.315  46.313  55.206  1.00  0.00     0.144 C 
BRANCH   3   4
ATOM      4  C   UNL     1       2.422  45.078  55.403  1.00  0.00     0.181 C 
BRANCH   4   5
ATOM      5  O   UNL     1       1.397  44.980  54.404  1.00  0.00    -0.383 OA
ATOM      6  C   UNL     1       1.057  43.639  54.077  1.00  0.00     0.194 C 
ENDBRANCH   4   5
ENDBRANCH   3   4
ENDBRANCH   1   3
BRANCH   1   7
ATOM      7  C   UNL     1       5.634  46.064  54.567  1.00  0.00     0.226 A 
ATOM      8  N   UNL     1       5.348  45.465  53.395  1.00  0.00    -0.195 NA
ATOM      9  N   UNL     1       6.772  46.709  54.851  1.00  0.00    -0.193 NA
ATOM     10  C   UNL     1       6.257  45.433  52.386  1.00  0.00     0.147 A 
ATOM     11  C   UNL     1       7.654  46.679  53.842  1.00  0.00     0.165 A 
ATOM     12  C   UNL     1       7.476  46.079  52.612  1.00  0.00     0.082 A 
ATOM     13  N   UNL     1       8.904  47.234  53.815  1.00  0.00    -0.250 N 
ATOM     14  C   UNL     1       8.682  46.330  51.923  1.00  0.00     0.149 A 
ATOM     15  N   UNL     1       9.555  47.041  52.644  1.00  0.00    -0.179 NA
ATOM     16  C   UNL     1       9.549  47.968  54.875  1.00  0.00     0.176 C 
BRANCH  10  17
ATOM     17  N   UNL     1       5.949  44.838  51.153  1.00  0.00    -0.337 N 
ATOM     18  H   UNL     1       6.139  45.425  50.352  1.00  0.00     0.168 HD
BRANCH  17  19
ATOM     19  C   UNL     1       5.264  43.641  50.879  1.00  0.00     0.079 A 
ATOM     20  C   UNL     1       5.981  42.593  50.269  1.00  0.00     0.032 A 
ATOM     21  C   UNL     1       3.890  43.449  51.108  1.00  0.00     0.185 A 
ATOM     22  C   UNL     1       5.347  41.401  49.903  1.00  0.00     0.045 A 
ATOM     23  C   UNL     1       3.259  42.264  50.742  1.00  0.00     0.196 A 
ATOM     24  C   UNL     1       3.987  41.248  50.140  1.00  0.00     0.162 A 
ATOM     25  F   UNL     1       3.164  44.376  51.752  1.00  0.00    -0.201 F 
ATOM     26  F   UNL     1       1.950  42.096  50.981  1.00  0.00    -0.200 F 
ATOM     27  F   UNL     1       3.385  40.105  49.786  1.00  0.00    -0.204 F 
ENDBRANCH  17  19
ENDBRANCH  10  17
ENDBRANCH   1   7
TORSDOF 6
ENDMDL
MODEL 16
REMARK VINA RESULT:    -7.607      3.158      6.617
REMARK INTER + INTRA:         -11.232
REMARK INTER:                 -10.385
REMARK INTRA:                  -0.847
REMARK UNBOUND:                -0.957
REMARK SMILES COCCNc1nc(Nc2ccc(F)c(F)c2F)c2cnn(C)c2n1
REMARK SMILES IDX 5 1 4 3 3 4 2 5 1 6 6 7 7 8 25 9 8 10 24 11 19 12 22 13
REMARK SMILES IDX 20 14 21 15 23 16 9 17 10 19 11 20 17 21 12 22 15 23 13 24
REMARK SMILES IDX 18 25 16 26 14 27
REMARK H PARENT 5 2 9 18
ROOT
ATOM      1  N   UNL     1       7.964  45.233  49.469  1.00  0.00    -0.352 N 
ATOM      2  H   UNL     1       8.771  45.823  49.290  1.00  0.00     0.163 HD
ENDROOT
BRANCH   1   3
ATOM      3  C   UNL     1       8.239  43.805  49.356  1.00  0.00     0.144 C 
BRANCH   3   4
ATOM      4  C   UNL     1       6.973  43.003  49.015  1.00  0.00     0.181 C 
BRANCH   4   5
ATOM      5  O   UNL     1       6.487  42.246  50.133  1.00  0.00    -0.383 OA
ATOM      6  C   UNL     1       5.301  41.518  49.845  1.00  0.00     0.194 C 
ENDBRANCH   4   5
ENDBRANCH   3   4
ENDBRANCH   1   3
BRANCH   1   7
ATOM      7  C   UNL     1       7.431  45.662  50.677  1.00  0.00     0.226 A 
ATOM      8  N   UNL     1       6.095  45.672  50.851  1.00  0.00    -0.195 NA
ATOM      9  N   UNL     1       8.334  46.028  51.594  1.00  0.00    -0.193 NA
ATOM     10  C   UNL     1       5.543  46.117  52.008  1.00  0.00     0.147 A 
ATOM     11  C   UNL     1       7.775  46.454  52.736  1.00  0.00     0.165 A 
ATOM     12  C   UNL     1       6.425  46.527  53.014  1.00  0.00     0.082 A 
ATOM     13  N   UNL     1       8.416  46.900  53.858  1.00  0.00    -0.250 N 
ATOM     14  C   UNL     1       6.365  47.032  54.329  1.00  0.00     0.149 A 
ATOM     15  N   UNL     1       7.574  47.255  54.857  1.00  0.00    -0.179 NA
ATOM     16  C   UNL     1       9.840  47.017  54.055  1.00  0.00     0.176 C 
BRANCH  10  17
ATOM     17  N   UNL     1       4.154  46.097  52.203  1.00  0.00    -0.337 N 
ATOM     18  H   UNL     1       3.709  46.998  52.105  1.00  0.00     0.168 HD
BRANCH  17  19
ATOM     19  C   UNL     1       3.329  45.062  52.681  1.00  0.00     0.079 A 
ATOM     20  C   UNL     1       3.237  43.883  51.917  1.00  0.00     0.032 A 
ATOM     21  C   UNL     1       2.532  45.159  53.835  1.00  0.00     0.185 A 
ATOM     22  C   UNL     1       2.381  42.843  52.293  1.00  0.00     0.045 A 
ATOM     23  C   UNL     1       1.680  44.124  54.209  1.00  0.00     0.196 A 
ATOM     24  C   UNL     1       1.605  42.974  53.438  1.00  0.00     0.162 A 
ATOM     25  F   UNL     1       2.626  46.222  54.649  1.00  0.00    -0.201 F 
ATOM     26  F   UNL     1       0.937  44.232  55.321  1.00  0.00    -0.200 F 
ATOM     27  F   UNL     1       0.787  41.975  53.792  1.00  0.00    -0.204 F 
ENDBRANCH  17  19
ENDBRANCH  10  17
ENDBRANCH   1   7
TORSDOF 6
ENDMDL
MODEL 17
REMARK VINA RESULT:    -7.578      3.374      5.897
REMARK INTER + INTRA:         -11.193
REMARK INTER:                 -10.841
REMARK INTRA:                  -0.352
REMARK UNBOUND:                -0.957
REMARK SMILES COCCNc1nc(Nc2ccc(F)c(F)c2F)c2cnn(C)c2n1
REMARK SMILES IDX 5 1 4 3 3 4 2 5 1 6 6 7 7 8 25 9 8 10 24 11 19 12 22 13
REMARK SMILES IDX 20 14 21 15 23 16 9 17 10 19 11 20 17 21 12 22 15 23 13 24
REMARK SMILES IDX 18 25 16 26 14 27
REMARK H PARENT 5 2 9 18
ROOT
ATOM      1  N   UNL     1       4.252  45.792  55.708  1.00  0.00    -0.352 N 
ATOM      2  H   UNL     1       4.102  45.523  56.676  1.00  0.00     0.163 HD
ENDROOT
BRANCH   1   3
ATOM      3  C   UNL     1       5.626  45.618  55.253  1.00  0.00     0.144 C 
BRANCH   3   4
ATOM      4  C   UNL     1       6.108  46.816  54.419  1.00  0.00     0.181 C 
BRANCH   4   5
ATOM      5  O   UNL     1       7.297  47.413  54.956  1.00  0.00    -0.383 OA
ATOM      6  C   UNL     1       8.454  47.167  54.169  1.00  0.00     0.194 C 
ENDBRANCH   4   5
ENDBRANCH   3   4
ENDBRANCH   1   3
BRANCH   1   7
ATOM      7  C   UNL     1       3.272  45.141  54.970  1.00  0.00     0.226 A 
ATOM      8  N   UNL     1       3.608  44.513  53.826  1.00  0.00    -0.195 NA
ATOM      9  N   UNL     1       2.043  45.192  55.494  1.00  0.00    -0.193 NA
ATOM     10  C   UNL     1       2.667  43.896  53.066  1.00  0.00     0.147 A 
ATOM     11  C   UNL     1       1.127  44.568  54.739  1.00  0.00     0.165 A 
ATOM     12  C   UNL     1       1.353  43.914  53.545  1.00  0.00     0.082 A 
ATOM     13  N   UNL     1      -0.212  44.446  54.989  1.00  0.00    -0.250 N 
ATOM     14  C   UNL     1       0.082  43.438  53.161  1.00  0.00     0.149 A 
ATOM     15  N   UNL     1      -0.878  43.749  54.039  1.00  0.00    -0.179 NA
ATOM     16  C   UNL     1      -0.933  44.970  56.122  1.00  0.00     0.176 C 
BRANCH  10  17
ATOM     17  N   UNL     1       3.019  43.213  51.892  1.00  0.00    -0.337 N 
ATOM     18  H   UNL     1       2.317  42.564  51.565  1.00  0.00     0.168 HD
BRANCH  17  19
ATOM     19  C   UNL     1       4.251  43.166  51.215  1.00  0.00     0.079 A 
ATOM     20  C   UNL     1       4.955  44.373  51.038  1.00  0.00     0.032 A 
ATOM     21  C   UNL     1       4.789  42.002  50.637  1.00  0.00     0.185 A 
ATOM     22  C   UNL     1       6.150  44.413  50.312  1.00  0.00     0.045 A 
ATOM     23  C   UNL     1       5.977  42.043  49.914  1.00  0.00     0.196 A 
ATOM     24  C   UNL     1       6.651  43.245  49.752  1.00  0.00     0.162 A 
ATOM     25  F   UNL     1       4.210  40.807  50.830  1.00  0.00    -0.201 F 
ATOM     26  F   UNL     1       6.481  40.919  49.382  1.00  0.00    -0.200 F 
ATOM     27  F   UNL     1       7.795  43.290  49.058  1.00  0.00    -0.204 F 
ENDBRANCH  17  19
ENDBRANCH  10  17
ENDBRANCH   1   7
TORSDOF 6
ENDMDL
MODEL 18
REMARK VINA RESULT:    -7.505      3.350      5.687
REMARK INTER + INTRA:         -11.095
REMARK INTER:                 -10.311
REMARK INTRA:                  -0.784
REMARK UNBOUND:                -0.957
REMARK SMILES COCCNc1nc(Nc2ccc(F)c(F)c2F)c2cnn(C)c2n1
REMARK SMILES IDX 5 1 4 3 3 4 2 5 1 6 6 7 7 8 25 9 8 10 24 11 19 12 22 13
REMARK SMILES IDX 20 14 21 15 23 16 9 17 10 19 11 20 17 21 12 22 15 23 13 24
REMARK SMILES IDX 18 25 16 26 14 27
REMARK H PARENT 5 2 9 18
ROOT
ATOM      1  N   UNL     1       8.055  46.340  50.813  1.00  0.00    -0.352 N 
ATOM      2  H   UNL     1       7.957  46.849  49.939  1.00  0.00     0.163 HD
ENDROOT
BRANCH   1   3
ATOM      3  C   UNL     1       8.509  47.163  51.928  1.00  0.00     0.144 C 
BRANCH   3   4
ATOM      4  C   UNL     1       9.909  46.749  52.411  1.00  0.00     0.181 C 
BRANCH   4   5
ATOM      5  O   UNL     1       9.903  46.289  53.770  1.00  0.00    -0.383 OA
ATOM      6  C   UNL     1      10.019  47.341  54.719  1.00  0.00     0.194 C 
ENDBRANCH   4   5
ENDBRANCH   3   4
ENDBRANCH   1   3
BRANCH   1   7
ATOM      7  C   UNL     1       6.859  45.659  51.000  1.00  0.00     0.226 A 
ATOM      8  N   UNL     1       5.815  46.290  51.571  1.00  0.00    -0.195 NA
ATOM      9  N   UNL     1       6.857  44.394  50.563  1.00  0.00    -0.193 NA
ATOM     10  C   UNL     1       4.644  45.640  51.796  1.00  0.00     0.147 A 
ATOM     11  C   UNL     1       5.691  43.769  50.782  1.00  0.00     0.165 A 
ATOM     12  C   UNL     1       4.567  44.309  51.375  1.00  0.00     0.082 A 
ATOM     13  N   UNL     1       5.368  42.479  50.463  1.00  0.00    -0.250 N 
ATOM     14  C   UNL     1       3.628  43.256  51.366  1.00  0.00     0.149 A 
ATOM     15  N   UNL     1       4.102  42.139  50.804  1.00  0.00    -0.179 NA
ATOM     16  C   UNL     1       6.218  41.504  49.828  1.00  0.00     0.176 C 
BRANCH  10  17
ATOM     17  N   UNL     1       3.544  46.304  52.360  1.00  0.00    -0.337 N 
ATOM     18  H   UNL     1       3.346  47.203  51.944  1.00  0.00     0.168 HD
BRANCH  17  19
ATOM     19  C   UNL     1       2.802  45.992  53.513  1.00  0.00     0.079 A 
ATOM     20  C   UNL     1       3.471  45.998  54.753  1.00  0.00     0.032 A 
ATOM     21  C   UNL     1       1.451  45.602  53.499  1.00  0.00     0.185 A 
ATOM     22  C   UNL     1       2.814  45.628  55.930  1.00  0.00     0.045 A 
ATOM     23  C   UNL     1       0.797  45.234  54.671  1.00  0.00     0.196 A 
ATOM     24  C   UNL     1       1.480  45.244  55.879  1.00  0.00     0.162 A 
ATOM     25  F   UNL     1       0.734  45.647  52.366  1.00  0.00    -0.201 F 
ATOM     26  F   UNL     1      -0.496  44.878  54.638  1.00  0.00    -0.200 F 
ATOM     27  F   UNL     1       0.856  44.891  57.010  1.00  0.00    -0.204 F 
ENDBRANCH  17  19
ENDBRANCH  10  17
ENDBRANCH   1   7
TORSDOF 6
ENDMDL
MODEL 19
REMARK VINA RESULT:    -7.457      3.420      6.210
REMARK INTER + INTRA:         -11.030
REMARK INTER:                 -10.128
REMARK INTRA:                  -0.902
REMARK UNBOUND:                -0.957
REMARK SMILES COCCNc1nc(Nc2ccc(F)c(F)c2F)c2cnn(C)c2n1
REMARK SMILES IDX 5 1 4 3 3 4 2 5 1 6 6 7 7 8 25 9 8 10 24 11 19 12 22 13
REMARK SMILES IDX 20 14 21 15 23 16 9 17 10 19 11 20 17 21 12 22 15 23 13 24
REMARK SMILES IDX 18 25 16 26 14 27
REMARK H PARENT 5 2 9 18
ROOT
ATOM      1  N   UNL     1       6.566  43.371  49.323  1.00  0.00    -0.352 N 
ATOM      2  H   UNL     1       7.430  43.417  48.791  1.00  0.00     0.163 HD
ENDROOT
BRANCH   1   3
ATOM      3  C   UNL     1       6.294  42.057  49.894  1.00  0.00     0.144 C 
BRANCH   3   4
ATOM      4  C   UNL     1       5.397  41.210  48.977  1.00  0.00     0.181 C 
BRANCH   4   5
ATOM      5  O   UNL     1       4.124  40.920  49.574  1.00  0.00    -0.383 OA
ATOM      6  C   UNL     1       3.949  41.530  50.846  1.00  0.00     0.194 C 
ENDBRANCH   4   5
ENDBRANCH   3   4
ENDBRANCH   1   3
BRANCH   1   7
ATOM      7  C   UNL     1       6.605  44.433  50.216  1.00  0.00     0.226 A 
ATOM      8  N   UNL     1       5.453  44.947  50.691  1.00  0.00    -0.195 NA
ATOM      9  N   UNL     1       7.833  44.852  50.543  1.00  0.00    -0.193 NA
ATOM     10  C   UNL     1       5.458  46.006  51.540  1.00  0.00     0.147 A 
ATOM     11  C   UNL     1       7.822  45.890  51.390  1.00  0.00     0.165 A 
ATOM     12  C   UNL     1       6.707  46.507  51.921  1.00  0.00     0.082 A 
ATOM     13  N   UNL     1       8.902  46.551  51.908  1.00  0.00    -0.250 N 
ATOM     14  C   UNL     1       7.230  47.528  52.742  1.00  0.00     0.149 A 
ATOM     15  N   UNL     1       8.567  47.558  52.748  1.00  0.00    -0.179 NA
ATOM     16  C   UNL     1      10.293  46.277  51.646  1.00  0.00     0.176 C 
BRANCH  10  17
ATOM     17  N   UNL     1       4.262  46.522  52.062  1.00  0.00    -0.337 N 
ATOM     18  H   UNL     1       4.010  47.430  51.699  1.00  0.00     0.168 HD
BRANCH  17  19
ATOM     19  C   UNL     1       3.470  46.052  53.125  1.00  0.00     0.079 A 
ATOM     20  C   UNL     1       3.884  46.344  54.439  1.00  0.00     0.032 A 
ATOM     21  C   UNL     1       2.330  45.244  52.961  1.00  0.00     0.185 A 
ATOM     22  C   UNL     1       3.186  45.849  55.544  1.00  0.00     0.045 A 
ATOM     23  C   UNL     1       1.636  44.750  54.062  1.00  0.00     0.196 A 
ATOM     24  C   UNL     1       2.066  45.051  55.346  1.00  0.00     0.162 A 
ATOM     25  F   UNL     1       1.837  44.989  51.740  1.00  0.00    -0.201 F 
ATOM     26  F   UNL     1       0.543  43.992  53.883  1.00  0.00    -0.200 F 
ATOM     27  F   UNL     1       1.402  44.578  56.408  1.00  0.00    -0.204 F 
ENDBRANCH  17  19
ENDBRANCH  10  17
ENDBRANCH   1   7
TORSDOF 6
ENDMDL
