MODEL 1
REMARK VINA RESULT:    -8.560      0.000      0.000
REMARK INTER + INTRA:         -12.538
REMARK INTER:                 -11.813
REMARK INTRA:                  -0.725
REMARK UNBOUND:                -0.725
REMARK SMILES COCCNc1nc(Nc2cc(C)ccc2O)c2cnn(C)c2n1
REMARK SMILES IDX 6 1 7 2 8 3 18 4 19 5 20 6 21 7 22 8 23 9 24 10 5 11 4 13
REMARK SMILES IDX 3 14 2 15 1 16 9 17 10 19 11 20 16 21 12 22 15 23 14 24
REMARK SMILES IDX 13 25 17 26
REMARK H PARENT 5 12 9 18 17 27
ROOT
ATOM      1  C   UNL     1       3.289  44.132  53.158  1.00  0.00     0.226 A 
ATOM      2  N   UNL     1       4.070  45.230  53.149  1.00  0.00    -0.195 NA
ATOM      3  C   UNL     1       5.095  45.329  52.265  1.00  0.00     0.147 A 
ATOM      4  C   UNL     1       5.276  44.283  51.358  1.00  0.00     0.082 A 
ATOM      5  C   UNL     1       6.124  43.948  50.282  1.00  0.00     0.149 A 
ATOM      6  N   UNL     1       5.834  42.757  49.740  1.00  0.00    -0.179 NA
ATOM      7  N   UNL     1       4.785  42.332  50.484  1.00  0.00    -0.250 N 
ATOM      8  C   UNL     1       4.183  41.056  50.193  1.00  0.00     0.176 C 
ATOM      9  C   UNL     1       4.409  43.214  51.458  1.00  0.00     0.165 A 
ATOM     10  N   UNL     1       3.404  43.080  52.336  1.00  0.00    -0.193 NA
ENDROOT
BRANCH   1  11
ATOM     11  N   UNL     1       2.257  44.038  54.086  1.00  0.00    -0.352 N 
ATOM     12  H   UNL     1       1.395  44.009  53.546  1.00  0.00     0.163 HD
BRANCH  11  13
ATOM     13  C   UNL     1       2.258  45.102  55.084  1.00  0.00     0.144 C 
BRANCH  13  14
ATOM     14  C   UNL     1       0.841  45.279  55.641  1.00  0.00     0.181 C 
BRANCH  14  15
ATOM     15  O   UNL     1       0.867  45.093  57.064  1.00  0.00    -0.383 OA
ATOM     16  C   UNL     1       0.934  46.337  57.748  1.00  0.00     0.194 C 
ENDBRANCH  14  15
ENDBRANCH  13  14
ENDBRANCH  11  13
ENDBRANCH   1  11
BRANCH   3  17
ATOM     17  N   UNL     1       5.860  46.511  52.307  1.00  0.00    -0.336 N 
ATOM     18  H   UNL     1       5.249  47.190  52.758  1.00  0.00     0.168 HD
BRANCH  17  19
ATOM     19  C   UNL     1       7.170  46.628  52.832  1.00  0.00     0.082 A 
ATOM     20  C   UNL     1       8.245  46.312  51.991  1.00  0.00     0.033 A 
ATOM     21  C   UNL     1       7.452  47.172  54.095  1.00  0.00     0.139 A 
ATOM     22  C   UNL     1       9.573  46.450  52.422  1.00  0.00    -0.049 A 
ATOM     23  C   UNL     1       8.766  47.327  54.534  1.00  0.00     0.048 A 
ATOM     24  C   UNL     1       9.823  46.966  53.698  1.00  0.00     0.007 A 
ATOM     25  C   UNL     1      10.707  46.111  51.500  1.00  0.00     0.044 C 
BRANCH  21  26
ATOM     26  O   UNL     1       6.419  47.575  54.899  1.00  0.00    -0.506 OA
ATOM     27  H   UNL     1       6.565  48.496  55.170  1.00  0.00     0.293 HD
ENDBRANCH  21  26
ENDBRANCH  17  19
ENDBRANCH   3  17
TORSDOF 7
ENDMDL
MODEL 2
REMARK VINA RESULT:    -8.511      2.598      5.749
REMARK INTER + INTRA:         -12.470
REMARK INTER:                 -11.859
REMARK INTRA:                  -0.611
REMARK UNBOUND:                -0.725
REMARK SMILES COCCNc1nc(Nc2cc(C)ccc2O)c2cnn(C)c2n1
REMARK SMILES IDX 6 1 7 2 8 3 18 4 19 5 20 6 21 7 22 8 23 9 24 10 5 11 4 13
REMARK SMILES IDX 3 14 2 15 1 16 9 17 10 19 11 20 16 21 12 22 15 23 14 24
REMARK SMILES IDX 13 25 17 26
REMARK H PARENT 5 12 9 18 17 27
ROOT
ATOM      1  C   UNL     1       5.818  47.167  53.443  1.00  0.00     0.226 A 
ATOM      2  N   UNL     1       5.823  46.480  52.283  1.00  0.00    -0.195 NA
ATOM      3  C   UNL     1       7.000  46.114  51.714  1.00  0.00     0.147 A 
ATOM      4  C   UNL     1       8.178  46.437  52.390  1.00  0.00     0.082 A 
ATOM      5  C   UNL     1       9.569  46.258  52.241  1.00  0.00     0.149 A 
ATOM      6  N   UNL     1      10.276  46.803  53.241  1.00  0.00    -0.179 NA
ATOM      7  N   UNL     1       9.318  47.336  54.035  1.00  0.00    -0.250 N 
ATOM      8  C   UNL     1       9.702  48.025  55.241  1.00  0.00     0.176 C 
ATOM      9  C   UNL     1       8.047  47.135  53.573  1.00  0.00     0.165 A 
ATOM     10  N   UNL     1       6.899  47.529  54.145  1.00  0.00    -0.193 NA
ENDROOT
BRANCH   1  11
ATOM     11  N   UNL     1       4.603  47.553  53.999  1.00  0.00    -0.352 N 
ATOM     12  H   UNL     1       4.778  48.437  54.470  1.00  0.00     0.163 HD
BRANCH  11  13
ATOM     13  C   UNL     1       4.011  46.554  54.883  1.00  0.00     0.144 C 
BRANCH  13  14
ATOM     14  C   UNL     1       2.792  45.926  54.198  1.00  0.00     0.181 C 
BRANCH  14  15
ATOM     15  O   UNL     1       2.402  46.746  53.086  1.00  0.00    -0.383 OA
ATOM     16  C   UNL     1       2.083  45.957  51.948  1.00  0.00     0.194 C 
ENDBRANCH  14  15
ENDBRANCH  13  14
ENDBRANCH  11  13
ENDBRANCH   1  11
BRANCH   3  17
ATOM     17  N   UNL     1       6.927  45.388  50.509  1.00  0.00    -0.336 N 
ATOM     18  H   UNL     1       7.868  45.446  50.123  1.00  0.00     0.168 HD
BRANCH  17  19
ATOM     19  C   UNL     1       6.439  44.066  50.372  1.00  0.00     0.082 A 
ATOM     20  C   UNL     1       5.194  43.763  50.941  1.00  0.00     0.033 A 
ATOM     21  C   UNL     1       7.066  43.087  49.585  1.00  0.00     0.139 A 
ATOM     22  C   UNL     1       4.621  42.490  50.805  1.00  0.00    -0.049 A 
ATOM     23  C   UNL     1       6.503  41.821  49.429  1.00  0.00     0.048 A 
ATOM     24  C   UNL     1       5.283  41.525  50.040  1.00  0.00     0.007 A 
ATOM     25  C   UNL     1       3.285  42.193  51.418  1.00  0.00     0.044 C 
BRANCH  21  26
ATOM     26  O   UNL     1       8.237  43.389  48.943  1.00  0.00    -0.506 OA
ATOM     27  H   UNL     1       8.159  44.266  48.533  1.00  0.00     0.293 HD
ENDBRANCH  21  26
ENDBRANCH  17  19
ENDBRANCH   3  17
TORSDOF 7
ENDMDL
MODEL 3
REMARK VINA RESULT:    -8.472      1.665      1.988
REMARK INTER + INTRA:         -12.416
REMARK INTER:                 -11.475
REMARK INTRA:                  -0.941
REMARK UNBOUND:                -0.725
REMARK SMILES COCCNc1nc(Nc2cc(C)ccc2O)c2cnn(C)c2n1
REMARK SMILES IDX 6 1 7 2 8 3 18 4 19 5 20 6 21 7 22 8 23 9 24 10 5 11 4 13
REMARK SMILES IDX 3 14 2 15 1 16 9 17 10 19 11 20 16 21 12 22 15 23 14 24
REMARK SMILES IDX 13 25 17 26
REMARK H PARENT 5 12 9 18 17 27
ROOT
ATOM      1  C   UNL     1       3.355  44.195  53.193  1.00  0.00     0.226 A 
ATOM      2  N   UNL     1       4.158  45.276  53.149  1.00  0.00    -0.195 NA
ATOM      3  C   UNL     1       5.164  45.339  52.239  1.00  0.00     0.147 A 
ATOM      4  C   UNL     1       5.300  44.277  51.344  1.00  0.00     0.082 A 
ATOM      5  C   UNL     1       6.114  43.906  50.253  1.00  0.00     0.149 A 
ATOM      6  N   UNL     1       5.785  42.715  49.737  1.00  0.00    -0.179 NA
ATOM      7  N   UNL     1       4.747  42.323  50.512  1.00  0.00    -0.250 N 
ATOM      8  C   UNL     1       4.110  41.056  50.255  1.00  0.00     0.176 C 
ATOM      9  C   UNL     1       4.413  43.228  51.481  1.00  0.00     0.165 A 
ATOM     10  N   UNL     1       3.427  43.129  52.384  1.00  0.00    -0.193 NA
ENDROOT
BRANCH   1  11
ATOM     11  N   UNL     1       2.344  44.137  54.147  1.00  0.00    -0.352 N 
ATOM     12  H   UNL     1       2.683  43.518  54.879  1.00  0.00     0.163 HD
BRANCH  11  13
ATOM     13  C   UNL     1       1.050  43.723  53.616  1.00  0.00     0.144 C 
BRANCH  13  14
ATOM     14  C   UNL     1       0.330  44.939  53.022  1.00  0.00     0.181 C 
BRANCH  14  15
ATOM     15  O   UNL     1       0.200  44.763  51.604  1.00  0.00    -0.383 OA
ATOM     16  C   UNL     1       0.008  43.396  51.266  1.00  0.00     0.194 C 
ENDBRANCH  14  15
ENDBRANCH  13  14
ENDBRANCH  11  13
ENDBRANCH   1  11
BRANCH   3  17
ATOM     17  N   UNL     1       5.954  46.505  52.243  1.00  0.00    -0.336 N 
ATOM     18  H   UNL     1       5.354  47.214  52.662  1.00  0.00     0.168 HD
BRANCH  17  19
ATOM     19  C   UNL     1       7.261  46.614  52.778  1.00  0.00     0.082 A 
ATOM     20  C   UNL     1       8.340  46.282  51.947  1.00  0.00     0.033 A 
ATOM     21  C   UNL     1       7.538  47.163  54.040  1.00  0.00     0.139 A 
ATOM     22  C   UNL     1       9.665  46.411  52.388  1.00  0.00    -0.049 A 
ATOM     23  C   UNL     1       8.850  47.309  54.489  1.00  0.00     0.048 A 
ATOM     24  C   UNL     1       9.910  46.933  53.663  1.00  0.00     0.007 A 
ATOM     25  C   UNL     1      10.803  46.055  51.478  1.00  0.00     0.044 C 
BRANCH  21  26
ATOM     26  O   UNL     1       6.502  47.580  54.833  1.00  0.00    -0.506 OA
ATOM     27  H   UNL     1       6.854  48.122  55.558  1.00  0.00     0.293 HD
ENDBRANCH  21  26
ENDBRANCH  17  19
ENDBRANCH   3  17
TORSDOF 7
ENDMDL
MODEL 4
REMARK VINA RESULT:    -8.204      2.736      5.101
REMARK INTER + INTRA:         -12.045
REMARK INTER:                 -11.134
REMARK INTRA:                  -0.912
REMARK UNBOUND:                -0.725
REMARK SMILES COCCNc1nc(Nc2cc(C)ccc2O)c2cnn(C)c2n1
REMARK SMILES IDX 6 1 7 2 8 3 18 4 19 5 20 6 21 7 22 8 23 9 24 10 5 11 4 13
REMARK SMILES IDX 3 14 2 15 1 16 9 17 10 19 11 20 16 21 12 22 15 23 14 24
REMARK SMILES IDX 13 25 17 26
REMARK H PARENT 5 12 9 18 17 27
ROOT
ATOM      1  C   UNL     1       4.642  43.288  51.498  1.00  0.00     0.226 A 
ATOM      2  N   UNL     1       5.421  44.371  51.304  1.00  0.00    -0.195 NA
ATOM      3  C   UNL     1       5.117  45.545  51.914  1.00  0.00     0.147 A 
ATOM      4  C   UNL     1       4.011  45.570  52.766  1.00  0.00     0.082 A 
ATOM      5  C   UNL     1       3.343  46.481  53.610  1.00  0.00     0.149 A 
ATOM      6  N   UNL     1       2.280  45.943  54.222  1.00  0.00    -0.179 NA
ATOM      7  N   UNL     1       2.274  44.671  53.759  1.00  0.00    -0.250 N 
ATOM      8  C   UNL     1       1.249  43.760  54.204  1.00  0.00     0.176 C 
ATOM      9  C   UNL     1       3.295  44.397  52.891  1.00  0.00     0.165 A 
ATOM     10  N   UNL     1       3.558  43.231  52.283  1.00  0.00    -0.193 NA
ENDROOT
BRANCH   1  11
ATOM     11  N   UNL     1       4.955  42.100  50.847  1.00  0.00    -0.352 N 
ATOM     12  H   UNL     1       5.155  41.422  51.579  1.00  0.00     0.163 HD
BRANCH  11  13
ATOM     13  C   UNL     1       6.043  42.220  49.882  1.00  0.00     0.144 C 
BRANCH  13  14
ATOM     14  C   UNL     1       5.661  41.489  48.590  1.00  0.00     0.181 C 
BRANCH  14  15
ATOM     15  O   UNL     1       4.412  40.810  48.784  1.00  0.00    -0.383 OA
ATOM     16  C   UNL     1       3.821  40.448  47.543  1.00  0.00     0.194 C 
ENDBRANCH  14  15
ENDBRANCH  13  14
ENDBRANCH  11  13
ENDBRANCH   1  11
BRANCH   3  17
ATOM     17  N   UNL     1       5.983  46.630  51.674  1.00  0.00    -0.336 N 
ATOM     18  H   UNL     1       5.507  47.429  52.090  1.00  0.00     0.168 HD
BRANCH  17  19
ATOM     19  C   UNL     1       7.359  46.675  52.003  1.00  0.00     0.082 A 
ATOM     20  C   UNL     1       7.726  47.289  53.209  1.00  0.00     0.033 A 
ATOM     21  C   UNL     1       8.355  46.022  51.260  1.00  0.00     0.139 A 
ATOM     22  C   UNL     1       9.064  47.329  53.629  1.00  0.00    -0.049 A 
ATOM     23  C   UNL     1       9.688  46.042  51.670  1.00  0.00     0.048 A 
ATOM     24  C   UNL     1      10.039  46.696  52.852  1.00  0.00     0.007 A 
ATOM     25  C   UNL     1       9.430  47.986  54.927  1.00  0.00     0.044 C 
BRANCH  21  26
ATOM     26  O   UNL     1       8.007  45.337  50.127  1.00  0.00    -0.506 OA
ATOM     27  H   UNL     1       8.639  44.613  49.984  1.00  0.00     0.293 HD
ENDBRANCH  21  26
ENDBRANCH  17  19
ENDBRANCH   3  17
TORSDOF 7
ENDMDL
MODEL 5
REMARK VINA RESULT:    -8.185      2.025      4.779
REMARK INTER + INTRA:         -12.019
REMARK INTER:                 -11.070
REMARK INTRA:                  -0.949
REMARK UNBOUND:                -0.725
REMARK SMILES COCCNc1nc(Nc2cc(C)ccc2O)c2cnn(C)c2n1
REMARK SMILES IDX 6 1 7 2 8 3 18 4 19 5 20 6 21 7 22 8 23 9 24 10 5 11 4 13
REMARK SMILES IDX 3 14 2 15 1 16 9 17 10 19 11 20 16 21 12 22 15 23 14 24
REMARK SMILES IDX 13 25 17 26
REMARK H PARENT 5 12 9 18 17 27
ROOT
ATOM      1  C   UNL     1       4.319  43.163  51.503  1.00  0.00     0.226 A 
ATOM      2  N   UNL     1       5.130  44.236  51.416  1.00  0.00    -0.195 NA
ATOM      3  C   UNL     1       4.839  45.366  52.110  1.00  0.00     0.147 A 
ATOM      4  C   UNL     1       3.711  45.355  52.931  1.00  0.00     0.082 A 
ATOM      5  C   UNL     1       3.043  46.214  53.828  1.00  0.00     0.149 A 
ATOM      6  N   UNL     1       1.950  45.659  54.367  1.00  0.00    -0.179 NA
ATOM      7  N   UNL     1       1.924  44.429  53.804  1.00  0.00    -0.250 N 
ATOM      8  C   UNL     1       0.864  43.515  54.148  1.00  0.00     0.176 C 
ATOM      9  C   UNL     1       2.962  44.196  52.944  1.00  0.00     0.165 A 
ATOM     10  N   UNL     1       3.212  43.074  52.253  1.00  0.00    -0.193 NA
ENDROOT
BRANCH   1  11
ATOM     11  N   UNL     1       4.620  42.021  50.768  1.00  0.00    -0.352 N 
ATOM     12  H   UNL     1       4.347  41.232  51.349  1.00  0.00     0.163 HD
BRANCH  11  13
ATOM     13  C   UNL     1       6.010  41.944  50.334  1.00  0.00     0.144 C 
BRANCH  13  14
ATOM     14  C   UNL     1       6.063  41.865  48.804  1.00  0.00     0.181 C 
BRANCH  14  15
ATOM     15  O   UNL     1       6.736  43.025  48.294  1.00  0.00    -0.383 OA
ATOM     16  C   UNL     1       7.778  43.444  49.165  1.00  0.00     0.194 C 
ENDBRANCH  14  15
ENDBRANCH  13  14
ENDBRANCH  11  13
ENDBRANCH   1  11
BRANCH   3  17
ATOM     17  N   UNL     1       5.740  46.442  51.979  1.00  0.00    -0.336 N 
ATOM     18  H   UNL     1       5.186  47.264  52.216  1.00  0.00     0.168 HD
BRANCH  17  19
ATOM     19  C   UNL     1       7.011  46.533  52.597  1.00  0.00     0.082 A 
ATOM     20  C   UNL     1       8.138  46.209  51.829  1.00  0.00     0.033 A 
ATOM     21  C   UNL     1       7.211  47.059  53.882  1.00  0.00     0.139 A 
ATOM     22  C   UNL     1       9.434  46.322  52.353  1.00  0.00    -0.049 A 
ATOM     23  C   UNL     1       8.494  47.189  54.414  1.00  0.00     0.048 A 
ATOM     24  C   UNL     1       9.602  46.820  53.650  1.00  0.00     0.007 A 
ATOM     25  C   UNL     1      10.624  45.975  51.510  1.00  0.00     0.044 C 
BRANCH  21  26
ATOM     26  O   UNL     1       6.131  47.469  54.617  1.00  0.00    -0.506 OA
ATOM     27  H   UNL     1       6.313  48.346  54.991  1.00  0.00     0.293 HD
ENDBRANCH  21  26
ENDBRANCH  17  19
ENDBRANCH   3  17
TORSDOF 7
ENDMDL
MODEL 6
REMARK VINA RESULT:    -8.164      1.581      2.358
REMARK INTER + INTRA:         -11.991
REMARK INTER:                 -11.434
REMARK INTRA:                  -0.557
REMARK UNBOUND:                -0.725
REMARK SMILES COCCNc1nc(Nc2cc(C)ccc2O)c2cnn(C)c2n1
REMARK SMILES IDX 6 1 7 2 8 3 18 4 19 5 20 6 21 7 22 8 23 9 24 10 5 11 4 13
REMARK SMILES IDX 3 14 2 15 1 16 9 17 10 19 11 20 16 21 12 22 15 23 14 24
REMARK SMILES IDX 13 25 17 26
REMARK H PARENT 5 12 9 18 17 27
ROOT
ATOM      1  C   UNL     1       3.646  45.794  54.835  1.00  0.00     0.226 A 
ATOM      2  N   UNL     1       4.587  46.651  54.392  1.00  0.00    -0.195 NA
ATOM      3  C   UNL     1       5.228  46.411  53.220  1.00  0.00     0.147 A 
ATOM      4  C   UNL     1       4.848  45.285  52.488  1.00  0.00     0.082 A 
ATOM      5  C   UNL     1       5.167  44.656  51.267  1.00  0.00     0.149 A 
ATOM      6  N   UNL     1       4.457  43.540  51.052  1.00  0.00    -0.179 NA
ATOM      7  N   UNL     1       3.676  43.460  52.155  1.00  0.00    -0.250 N 
ATOM      8  C   UNL     1       2.753  42.362  52.290  1.00  0.00     0.176 C 
ATOM      9  C   UNL     1       3.867  44.485  53.039  1.00  0.00     0.165 A 
ATOM     10  N   UNL     1       3.235  44.685  54.205  1.00  0.00    -0.193 NA
ENDROOT
BRANCH   1  11
ATOM     11  N   UNL     1       3.016  46.043  56.050  1.00  0.00    -0.352 N 
ATOM     12  H   UNL     1       3.685  45.787  56.772  1.00  0.00     0.163 HD
BRANCH  11  13
ATOM     13  C   UNL     1       1.734  45.364  56.205  1.00  0.00     0.144 C 
BRANCH  13  14
ATOM     14  C   UNL     1       0.948  46.013  57.348  1.00  0.00     0.181 C 
BRANCH  14  15
ATOM     15  O   UNL     1      -0.296  45.318  57.521  1.00  0.00    -0.383 OA
ATOM     16  C   UNL     1      -0.889  44.999  56.269  1.00  0.00     0.194 C 
ENDBRANCH  14  15
ENDBRANCH  13  14
ENDBRANCH  11  13
ENDBRANCH   1  11
BRANCH   3  17
ATOM     17  N   UNL     1       6.190  47.357  52.815  1.00  0.00    -0.336 N 
ATOM     18  H   UNL     1       5.934  48.206  53.317  1.00  0.00     0.168 HD
BRANCH  17  19
ATOM     19  C   UNL     1       7.594  47.180  52.868  1.00  0.00     0.082 A 
ATOM     20  C   UNL     1       8.244  47.447  54.082  1.00  0.00     0.033 A 
ATOM     21  C   UNL     1       8.345  46.625  51.821  1.00  0.00     0.139 A 
ATOM     22  C   UNL     1       9.624  47.247  54.228  1.00  0.00    -0.049 A 
ATOM     23  C   UNL     1       9.716  46.409  51.954  1.00  0.00     0.048 A 
ATOM     24  C   UNL     1      10.353  46.721  53.156  1.00  0.00     0.007 A 
ATOM     25  C   UNL     1      10.295  47.534  55.539  1.00  0.00     0.044 C 
BRANCH  21  26
ATOM     26  O   UNL     1       7.715  46.270  50.658  1.00  0.00    -0.506 OA
ATOM     27  H   UNL     1       8.268  45.632  50.177  1.00  0.00     0.293 HD
ENDBRANCH  21  26
ENDBRANCH  17  19
ENDBRANCH   3  17
TORSDOF 7
ENDMDL
MODEL 7
REMARK VINA RESULT:    -8.079      1.427      1.945
REMARK INTER + INTRA:         -11.874
REMARK INTER:                 -11.256
REMARK INTRA:                  -0.617
REMARK UNBOUND:                -0.725
REMARK SMILES COCCNc1nc(Nc2cc(C)ccc2O)c2cnn(C)c2n1
REMARK SMILES IDX 6 1 7 2 8 3 18 4 19 5 20 6 21 7 22 8 23 9 24 10 5 11 4 13
REMARK SMILES IDX 3 14 2 15 1 16 9 17 10 19 11 20 16 21 12 22 15 23 14 24
REMARK SMILES IDX 13 25 17 26
REMARK H PARENT 5 12 9 18 17 27
ROOT
ATOM      1  C   UNL     1       3.998  44.452  53.029  1.00  0.00     0.226 A 
ATOM      2  N   UNL     1       4.865  45.442  52.736  1.00  0.00    -0.195 NA
ATOM      3  C   UNL     1       5.712  45.314  51.683  1.00  0.00     0.147 A 
ATOM      4  C   UNL     1       5.620  44.157  50.909  1.00  0.00     0.082 A 
ATOM      5  C   UNL     1       6.216  43.600  49.759  1.00  0.00     0.149 A 
ATOM      6  N   UNL     1       5.718  42.397  49.442  1.00  0.00    -0.179 NA
ATOM      7  N   UNL     1       4.790  42.189  50.406  1.00  0.00    -0.250 N 
ATOM      8  C   UNL     1       4.025  40.968  50.400  1.00  0.00     0.176 C 
ATOM      9  C   UNL     1       4.689  43.217  51.302  1.00  0.00     0.165 A 
ATOM     10  N   UNL     1       3.856  43.307  52.350  1.00  0.00    -0.193 NA
ENDROOT
BRANCH   1  11
ATOM     11  N   UNL     1       3.154  44.591  54.125  1.00  0.00    -0.352 N 
ATOM     12  H   UNL     1       2.758  43.669  54.294  1.00  0.00     0.163 HD
BRANCH  11  13
ATOM     13  C   UNL     1       2.131  45.618  53.961  1.00  0.00     0.144 C 
BRANCH  13  14
ATOM     14  C   UNL     1       0.925  45.283  54.846  1.00  0.00     0.181 C 
BRANCH  14  15
ATOM     15  O   UNL     1       1.389  44.880  56.142  1.00  0.00    -0.383 OA
ATOM     16  C   UNL     1       0.572  45.414  57.175  1.00  0.00     0.194 C 
ENDBRANCH  14  15
ENDBRANCH  13  14
ENDBRANCH  11  13
ENDBRANCH   1  11
BRANCH   3  17
ATOM     17  N   UNL     1       6.581  46.395  51.430  1.00  0.00    -0.336 N 
ATOM     18  H   UNL     1       6.018  47.221  51.625  1.00  0.00     0.168 HD
BRANCH  17  19
ATOM     19  C   UNL     1       7.874  46.560  51.984  1.00  0.00     0.082 A 
ATOM     20  C   UNL     1       7.984  47.251  53.198  1.00  0.00     0.033 A 
ATOM     21  C   UNL     1       9.025  45.956  51.456  1.00  0.00     0.139 A 
ATOM     22  C   UNL     1       9.223  47.413  53.834  1.00  0.00    -0.049 A 
ATOM     23  C   UNL     1      10.263  46.097  52.083  1.00  0.00     0.048 A 
ATOM     24  C   UNL     1      10.360  46.826  53.270  1.00  0.00     0.007 A 
ATOM     25  C   UNL     1       9.314  48.152  55.137  1.00  0.00     0.044 C 
BRANCH  21  26
ATOM     26  O   UNL     1       8.926  45.198  50.320  1.00  0.00    -0.506 OA
ATOM     27  H   UNL     1       9.789  44.796  50.128  1.00  0.00     0.293 HD
ENDBRANCH  21  26
ENDBRANCH  17  19
ENDBRANCH   3  17
TORSDOF 7
ENDMDL
MODEL 8
REMARK VINA RESULT:    -8.042      1.800      2.610
REMARK INTER + INTRA:         -11.823
REMARK INTER:                 -10.760
REMARK INTRA:                  -1.063
REMARK UNBOUND:                -0.725
REMARK SMILES COCCNc1nc(Nc2cc(C)ccc2O)c2cnn(C)c2n1
REMARK SMILES IDX 6 1 7 2 8 3 18 4 19 5 20 6 21 7 22 8 23 9 24 10 5 11 4 13
REMARK SMILES IDX 3 14 2 15 1 16 9 17 10 19 11 20 16 21 12 22 15 23 14 24
REMARK SMILES IDX 13 25 17 26
REMARK H PARENT 5 12 9 18 17 27
ROOT
ATOM      1  C   UNL     1       3.776  45.230  52.041  1.00  0.00     0.226 A 
ATOM      2  N   UNL     1       4.836  46.016  51.760  1.00  0.00    -0.195 NA
ATOM      3  C   UNL     1       5.881  45.519  51.050  1.00  0.00     0.147 A 
ATOM      4  C   UNL     1       5.794  44.202  50.598  1.00  0.00     0.082 A 
ATOM      5  C   UNL     1       6.554  43.290  49.836  1.00  0.00     0.149 A 
ATOM      6  N   UNL     1       5.961  42.096  49.707  1.00  0.00    -0.179 NA
ATOM      7  N   UNL     1       4.807  42.253  50.397  1.00  0.00    -0.250 N 
ATOM      8  C   UNL     1       3.880  41.153  50.486  1.00  0.00     0.176 C 
ATOM      9  C   UNL     1       4.657  43.499  50.941  1.00  0.00     0.165 A 
ATOM     10  N   UNL     1       3.621  43.955  51.660  1.00  0.00    -0.193 NA
ENDROOT
BRANCH   1  11
ATOM     11  N   UNL     1       2.725  45.749  52.789  1.00  0.00    -0.352 N 
ATOM     12  H   UNL     1       2.894  46.749  52.857  1.00  0.00     0.163 HD
BRANCH  11  13
ATOM     13  C   UNL     1       2.557  45.118  54.094  1.00  0.00     0.144 C 
BRANCH  13  14
ATOM     14  C   UNL     1       3.497  45.784  55.106  1.00  0.00     0.181 C 
BRANCH  14  15
ATOM     15  O   UNL     1       4.596  44.903  55.378  1.00  0.00    -0.383 OA
ATOM     16  C   UNL     1       5.844  45.548  55.161  1.00  0.00     0.194 C 
ENDBRANCH  14  15
ENDBRANCH  13  14
ENDBRANCH  11  13
ENDBRANCH   1  11
BRANCH   3  17
ATOM     17  N   UNL     1       6.946  46.402  50.785  1.00  0.00    -0.336 N 
ATOM     18  H   UNL     1       6.499  47.311  50.679  1.00  0.00     0.168 HD
BRANCH  17  19
ATOM     19  C   UNL     1       8.118  46.539  51.567  1.00  0.00     0.082 A 
ATOM     20  C   UNL     1       8.037  47.296  52.744  1.00  0.00     0.033 A 
ATOM     21  C   UNL     1       9.311  45.849  51.302  1.00  0.00     0.139 A 
ATOM     22  C   UNL     1       9.141  47.437  53.597  1.00  0.00    -0.049 A 
ATOM     23  C   UNL     1      10.414  45.968  52.147  1.00  0.00     0.048 A 
ATOM     24  C   UNL     1      10.327  46.762  53.292  1.00  0.00     0.007 A 
ATOM     25  C   UNL     1       9.027  48.248  54.854  1.00  0.00     0.044 C 
BRANCH  21  26
ATOM     26  O   UNL     1       9.384  45.029  50.208  1.00  0.00    -0.506 OA
ATOM     27  H   UNL     1       9.856  44.215  50.449  1.00  0.00     0.293 HD
ENDBRANCH  21  26
ENDBRANCH  17  19
ENDBRANCH   3  17
TORSDOF 7
ENDMDL
MODEL 9
REMARK VINA RESULT:    -7.847      2.364      5.898
REMARK INTER + INTRA:         -11.553
REMARK INTER:                 -11.438
REMARK INTRA:                  -0.115
REMARK UNBOUND:                -0.725
REMARK SMILES COCCNc1nc(Nc2cc(C)ccc2O)c2cnn(C)c2n1
REMARK SMILES IDX 6 1 7 2 8 3 18 4 19 5 20 6 21 7 22 8 23 9 24 10 5 11 4 13
REMARK SMILES IDX 3 14 2 15 1 16 9 17 10 19 11 20 16 21 12 22 15 23 14 24
REMARK SMILES IDX 13 25 17 26
REMARK H PARENT 5 12 9 18 17 27
ROOT
ATOM      1  C   UNL     1       4.461  45.181  54.673  1.00  0.00     0.226 A 
ATOM      2  N   UNL     1       4.422  44.579  53.467  1.00  0.00    -0.195 NA
ATOM      3  C   UNL     1       3.248  44.095  52.987  1.00  0.00     0.147 A 
ATOM      4  C   UNL     1       2.101  44.280  53.761  1.00  0.00     0.082 A 
ATOM      5  C   UNL     1       0.719  44.009  53.690  1.00  0.00     0.149 A 
ATOM      6  N   UNL     1       0.048  44.429  54.771  1.00  0.00    -0.179 NA
ATOM      7  N   UNL     1       1.021  44.975  55.539  1.00  0.00    -0.250 N 
ATOM      8  C   UNL     1       0.676  45.546  56.817  1.00  0.00     0.176 C 
ATOM      9  C   UNL     1       2.264  44.918  54.974  1.00  0.00     0.165 A 
ATOM     10  N   UNL     1       3.414  45.385  55.483  1.00  0.00    -0.193 NA
ENDROOT
BRANCH   1  11
ATOM     11  N   UNL     1       5.676  45.652  55.159  1.00  0.00    -0.352 N 
ATOM     12  H   UNL     1       5.586  45.670  56.172  1.00  0.00     0.163 HD
BRANCH  11  13
ATOM     13  C   UNL     1       6.078  46.941  54.607  1.00  0.00     0.144 C 
BRANCH  13  14
ATOM     14  C   UNL     1       7.498  46.834  54.042  1.00  0.00     0.181 C 
BRANCH  14  15
ATOM     15  O   UNL     1       8.370  47.692  54.792  1.00  0.00    -0.383 OA
ATOM     16  C   UNL     1       9.736  47.361  54.575  1.00  0.00     0.194 C 
ENDBRANCH  14  15
ENDBRANCH  13  14
ENDBRANCH  11  13
ENDBRANCH   1  11
BRANCH   3  17
ATOM     17  N   UNL     1       3.282  43.490  51.715  1.00  0.00    -0.336 N 
ATOM     18  H   UNL     1       2.667  44.068  51.145  1.00  0.00     0.168 HD
BRANCH  17  19
ATOM     19  C   UNL     1       4.452  43.177  50.981  1.00  0.00     0.082 A 
ATOM     20  C   UNL     1       5.412  44.185  50.817  1.00  0.00     0.033 A 
ATOM     21  C   UNL     1       4.762  41.885  50.532  1.00  0.00     0.139 A 
ATOM     22  C   UNL     1       6.619  43.940  50.146  1.00  0.00    -0.049 A 
ATOM     23  C   UNL     1       5.963  41.620  49.874  1.00  0.00     0.048 A 
ATOM     24  C   UNL     1       6.888  42.648  49.682  1.00  0.00     0.007 A 
ATOM     25  C   UNL     1       7.633  45.034  49.989  1.00  0.00     0.044 C 
BRANCH  21  26
ATOM     26  O   UNL     1       3.880  40.863  50.764  1.00  0.00    -0.506 OA
ATOM     27  H   UNL     1       3.040  41.059  50.318  1.00  0.00     0.293 HD
ENDBRANCH  21  26
ENDBRANCH  17  19
ENDBRANCH   3  17
TORSDOF 7
ENDMDL
MODEL 10
REMARK VINA RESULT:    -7.780      2.148      3.085
REMARK INTER + INTRA:         -11.461
REMARK INTER:                 -10.568
REMARK INTRA:                  -0.892
REMARK UNBOUND:                -0.725
REMARK SMILES COCCNc1nc(Nc2cc(C)ccc2O)c2cnn(C)c2n1
REMARK SMILES IDX 6 1 7 2 8 3 18 4 19 5 20 6 21 7 22 8 23 9 24 10 5 11 4 13
REMARK SMILES IDX 3 14 2 15 1 16 9 17 10 19 11 20 16 21 12 22 15 23 14 24
REMARK SMILES IDX 13 25 17 26
REMARK H PARENT 5 12 9 18 17 27
ROOT
ATOM      1  C   UNL     1       2.361  45.345  54.928  1.00  0.00     0.226 A 
ATOM      2  N   UNL     1       3.130  45.995  54.031  1.00  0.00    -0.195 NA
ATOM      3  C   UNL     1       3.173  45.574  52.742  1.00  0.00     0.147 A 
ATOM      4  C   UNL     1       2.373  44.488  52.383  1.00  0.00     0.082 A 
ATOM      5  C   UNL     1       2.055  43.740  51.231  1.00  0.00     0.149 A 
ATOM      6  N   UNL     1       1.181  42.754  51.473  1.00  0.00    -0.179 NA
ATOM      7  N   UNL     1       0.939  42.881  52.799  1.00  0.00    -0.250 N 
ATOM      8  C   UNL     1       0.024  41.971  53.441  1.00  0.00     0.176 C 
ATOM      9  C   UNL     1       1.623  43.909  53.386  1.00  0.00     0.165 A 
ATOM     10  N   UNL     1       1.578  44.289  54.672  1.00  0.00    -0.193 NA
ENDROOT
BRANCH   1  11
ATOM     11  N   UNL     1       2.347  45.776  56.251  1.00  0.00    -0.352 N 
ATOM     12  H   UNL     1       3.044  45.217  56.736  1.00  0.00     0.163 HD
BRANCH  11  13
ATOM     13  C   UNL     1       1.034  45.708  56.883  1.00  0.00     0.144 C 
BRANCH  13  14
ATOM     14  C   UNL     1       1.022  46.599  58.129  1.00  0.00     0.181 C 
BRANCH  14  15
ATOM     15  O   UNL     1      -0.331  46.968  58.433  1.00  0.00    -0.383 OA
ATOM     16  C   UNL     1      -1.163  46.878  57.284  1.00  0.00     0.194 C 
ENDBRANCH  14  15
ENDBRANCH  13  14
ENDBRANCH  11  13
ENDBRANCH   1  11
BRANCH   3  17
ATOM     17  N   UNL     1       3.989  46.310  51.859  1.00  0.00    -0.336 N 
ATOM     18  H   UNL     1       3.713  47.279  52.011  1.00  0.00     0.168 HD
BRANCH  17  19
ATOM     19  C   UNL     1       5.400  46.226  51.776  1.00  0.00     0.082 A 
ATOM     20  C   UNL     1       5.951  45.408  50.781  1.00  0.00     0.033 A 
ATOM     21  C   UNL     1       6.269  47.019  52.542  1.00  0.00     0.139 A 
ATOM     22  C   UNL     1       7.339  45.312  50.603  1.00  0.00    -0.049 A 
ATOM     23  C   UNL     1       7.651  46.944  52.370  1.00  0.00     0.048 A 
ATOM     24  C   UNL     1       8.183  46.090  51.402  1.00  0.00     0.007 A 
ATOM     25  C   UNL     1       7.905  44.434  49.526  1.00  0.00     0.044 C 
BRANCH  21  26
ATOM     26  O   UNL     1       5.749  47.894  53.458  1.00  0.00    -0.506 OA
ATOM     27  H   UNL     1       5.674  48.773  53.053  1.00  0.00     0.293 HD
ENDBRANCH  21  26
ENDBRANCH  17  19
ENDBRANCH   3  17
TORSDOF 7
ENDMDL
MODEL 11
REMARK VINA RESULT:    -7.756      2.213      5.207
REMARK INTER + INTRA:         -11.428
REMARK INTER:                 -10.194
REMARK INTRA:                  -1.235
REMARK UNBOUND:                -0.725
REMARK SMILES COCCNc1nc(Nc2cc(C)ccc2O)c2cnn(C)c2n1
REMARK SMILES IDX 6 1 7 2 8 3 18 4 19 5 20 6 21 7 22 8 23 9 24 10 5 11 4 13
REMARK SMILES IDX 3 14 2 15 1 16 9 17 10 19 11 20 16 21 12 22 15 23 14 24
REMARK SMILES IDX 13 25 17 26
REMARK H PARENT 5 12 9 18 17 27
ROOT
ATOM      1  C   UNL     1       5.293  46.764  54.413  1.00  0.00     0.226 A 
ATOM      2  N   UNL     1       4.958  46.241  53.217  1.00  0.00    -0.195 NA
ATOM      3  C   UNL     1       5.881  46.167  52.225  1.00  0.00     0.147 A 
ATOM      4  C   UNL     1       7.176  46.607  52.505  1.00  0.00     0.082 A 
ATOM      5  C   UNL     1       8.427  46.700  51.861  1.00  0.00     0.149 A 
ATOM      6  N   UNL     1       9.377  47.233  52.640  1.00  0.00    -0.179 NA
ATOM      7  N   UNL     1       8.719  47.481  53.797  1.00  0.00    -0.250 N 
ATOM      8  C   UNL     1       9.429  48.070  54.904  1.00  0.00     0.176 C 
ATOM      9  C   UNL     1       7.401  47.116  53.768  1.00  0.00     0.165 A 
ATOM     10  N   UNL     1       6.503  47.222  54.758  1.00  0.00    -0.193 NA
ENDROOT
BRANCH   1  11
ATOM     11  N   UNL     1       4.328  46.853  55.411  1.00  0.00    -0.352 N 
ATOM     12  H   UNL     1       4.783  47.300  56.203  1.00  0.00     0.163 HD
BRANCH  11  13
ATOM     13  C   UNL     1       3.718  45.575  55.763  1.00  0.00     0.144 C 
BRANCH  13  14
ATOM     14  C   UNL     1       2.241  45.585  55.351  1.00  0.00     0.181 C 
BRANCH  14  15
ATOM     15  O   UNL     1       2.000  44.507  54.435  1.00  0.00    -0.383 OA
ATOM     16  C   UNL     1       0.627  44.140  54.416  1.00  0.00     0.194 C 
ENDBRANCH  14  15
ENDBRANCH  13  14
ENDBRANCH  11  13
ENDBRANCH   1  11
BRANCH   3  17
ATOM     17  N   UNL     1       5.462  45.597  51.006  1.00  0.00    -0.336 N 
ATOM     18  H   UNL     1       6.186  45.864  50.341  1.00  0.00     0.168 HD
BRANCH  17  19
ATOM     19  C   UNL     1       5.114  44.238  50.808  1.00  0.00     0.082 A 
ATOM     20  C   UNL     1       6.119  43.360  50.380  1.00  0.00     0.033 A 
ATOM     21  C   UNL     1       3.862  43.702  51.146  1.00  0.00     0.139 A 
ATOM     22  C   UNL     1       5.865  41.991  50.209  1.00  0.00    -0.049 A 
ATOM     23  C   UNL     1       3.597  42.342  50.993  1.00  0.00     0.048 A 
ATOM     24  C   UNL     1       4.598  41.489  50.524  1.00  0.00     0.007 A 
ATOM     25  C   UNL     1       6.959  41.070  49.756  1.00  0.00     0.044 C 
BRANCH  21  26
ATOM     26  O   UNL     1       2.893  44.526  51.653  1.00  0.00    -0.506 OA
ATOM     27  H   UNL     1       2.313  44.014  52.240  1.00  0.00     0.293 HD
ENDBRANCH  21  26
ENDBRANCH  17  19
ENDBRANCH   3  17
TORSDOF 7
ENDMDL
MODEL 12
REMARK VINA RESULT:    -7.711      3.447      6.493
REMARK INTER + INTRA:         -11.366
REMARK INTER:                 -10.292
REMARK INTRA:                  -1.074
REMARK UNBOUND:                -0.725
REMARK SMILES COCCNc1nc(Nc2cc(C)ccc2O)c2cnn(C)c2n1
REMARK SMILES IDX 6 1 7 2 8 3 18 4 19 5 20 6 21 7 22 8 23 9 24 10 5 11 4 13
REMARK SMILES IDX 3 14 2 15 1 16 9 17 10 19 11 20 16 21 12 22 15 23 14 24
REMARK SMILES IDX 13 25 17 26
REMARK H PARENT 5 12 9 18 17 27
ROOT
ATOM      1  C   UNL     1       3.801  42.694  52.194  1.00  0.00     0.226 A 
ATOM      2  N   UNL     1       4.207  41.886  51.194  1.00  0.00    -0.195 NA
ATOM      3  C   UNL     1       5.211  42.277  50.369  1.00  0.00     0.147 A 
ATOM      4  C   UNL     1       5.819  43.508  50.620  1.00  0.00     0.082 A 
ATOM      5  C   UNL     1       6.866  44.299  50.103  1.00  0.00     0.149 A 
ATOM      6  N   UNL     1       7.026  45.452  50.766  1.00  0.00    -0.179 NA
ATOM      7  N   UNL     1       6.065  45.392  51.718  1.00  0.00    -0.250 N 
ATOM      8  C   UNL     1       5.921  46.483  52.648  1.00  0.00     0.176 C 
ATOM      9  C   UNL     1       5.323  44.244  51.677  1.00  0.00     0.165 A 
ATOM     10  N   UNL     1       4.319  43.893  52.494  1.00  0.00    -0.193 NA
ENDROOT
BRANCH   1  11
ATOM     11  N   UNL     1       2.756  42.287  53.017  1.00  0.00    -0.352 N 
ATOM     12  H   UNL     1       2.480  41.365  52.686  1.00  0.00     0.163 HD
BRANCH  11  13
ATOM     13  C   UNL     1       1.638  43.223  53.064  1.00  0.00     0.144 C 
BRANCH  13  14
ATOM     14  C   UNL     1       0.984  43.307  51.680  1.00  0.00     0.181 C 
BRANCH  14  15
ATOM     15  O   UNL     1       1.003  44.670  51.231  1.00  0.00    -0.383 OA
ATOM     16  C   UNL     1       0.966  45.576  52.325  1.00  0.00     0.194 C 
ENDBRANCH  14  15
ENDBRANCH  13  14
ENDBRANCH  11  13
ENDBRANCH   1  11
BRANCH   3  17
ATOM     17  N   UNL     1       5.589  41.375  49.355  1.00  0.00    -0.336 N 
ATOM     18  H   UNL     1       5.697  40.485  49.838  1.00  0.00     0.168 HD
BRANCH  17  19
ATOM     19  C   UNL     1       4.901  41.171  48.134  1.00  0.00     0.082 A 
ATOM     20  C   UNL     1       5.448  41.730  46.971  1.00  0.00     0.033 A 
ATOM     21  C   UNL     1       3.785  40.330  48.005  1.00  0.00     0.139 A 
ATOM     22  C   UNL     1       4.853  41.531  45.717  1.00  0.00    -0.049 A 
ATOM     23  C   UNL     1       3.189  40.111  46.764  1.00  0.00     0.048 A 
ATOM     24  C   UNL     1       3.723  40.712  45.623  1.00  0.00     0.007 A 
ATOM     25  C   UNL     1       5.461  42.136  44.486  1.00  0.00     0.044 C 
BRANCH  21  26
ATOM     26  O   UNL     1       3.288  39.698  49.114  1.00  0.00    -0.506 OA
ATOM     27  H   UNL     1       4.003  39.575  49.759  1.00  0.00     0.293 HD
ENDBRANCH  21  26
ENDBRANCH  17  19
ENDBRANCH   3  17
TORSDOF 7
ENDMDL
MODEL 13
REMARK VINA RESULT:    -7.671      2.628      5.529
REMARK INTER + INTRA:         -11.310
REMARK INTER:                 -10.354
REMARK INTRA:                  -0.956
REMARK UNBOUND:                -0.725
REMARK SMILES COCCNc1nc(Nc2cc(C)ccc2O)c2cnn(C)c2n1
REMARK SMILES IDX 6 1 7 2 8 3 18 4 19 5 20 6 21 7 22 8 23 9 24 10 5 11 4 13
REMARK SMILES IDX 3 14 2 15 1 16 9 17 10 19 11 20 16 21 12 22 15 23 14 24
REMARK SMILES IDX 13 25 17 26
REMARK H PARENT 5 12 9 18 17 27
ROOT
ATOM      1  C   UNL     1       2.502  45.228  55.094  1.00  0.00     0.226 A 
ATOM      2  N   UNL     1       2.860  44.845  53.852  1.00  0.00    -0.195 NA
ATOM      3  C   UNL     1       1.983  44.165  53.072  1.00  0.00     0.147 A 
ATOM      4  C   UNL     1       0.708  43.921  53.583  1.00  0.00     0.082 A 
ATOM      5  C   UNL     1      -0.502  43.322  53.175  1.00  0.00     0.149 A 
ATOM      6  N   UNL     1      -1.453  43.372  54.118  1.00  0.00    -0.179 NA
ATOM      7  N   UNL     1      -0.837  44.012  55.139  1.00  0.00    -0.250 N 
ATOM      8  C   UNL     1      -1.561  44.256  56.361  1.00  0.00     0.176 C 
ATOM      9  C   UNL     1       0.455  44.368  54.864  1.00  0.00     0.165 A 
ATOM     10  N   UNL     1       1.308  45.022  55.666  1.00  0.00    -0.193 NA
ENDROOT
BRANCH   1  11
ATOM     11  N   UNL     1       3.421  45.905  55.889  1.00  0.00    -0.352 N 
ATOM     12  H   UNL     1       2.951  46.749  56.207  1.00  0.00     0.163 HD
BRANCH  11  13
ATOM     13  C   UNL     1       4.689  46.185  55.223  1.00  0.00     0.144 C 
BRANCH  13  14
ATOM     14  C   UNL     1       4.625  47.570  54.568  1.00  0.00     0.181 C 
BRANCH  14  15
ATOM     15  O   UNL     1       5.532  47.608  53.457  1.00  0.00    -0.383 OA
ATOM     16  C   UNL     1       6.674  46.794  53.692  1.00  0.00     0.194 C 
ENDBRANCH  14  15
ENDBRANCH  13  14
ENDBRANCH  11  13
ENDBRANCH   1  11
BRANCH   3  17
ATOM     17  N   UNL     1       2.424  43.808  51.781  1.00  0.00    -0.336 N 
ATOM     18  H   UNL     1       1.789  44.300  51.154  1.00  0.00     0.168 HD
BRANCH  17  19
ATOM     19  C   UNL     1       3.750  43.926  51.301  1.00  0.00     0.082 A 
ATOM     20  C   UNL     1       4.421  42.752  50.931  1.00  0.00     0.033 A 
ATOM     21  C   UNL     1       4.376  45.156  51.047  1.00  0.00     0.139 A 
ATOM     22  C   UNL     1       5.719  42.791  50.400  1.00  0.00    -0.049 A 
ATOM     23  C   UNL     1       5.660  45.213  50.508  1.00  0.00     0.048 A 
ATOM     24  C   UNL     1       6.329  44.031  50.187  1.00  0.00     0.007 A 
ATOM     25  C   UNL     1       6.413  41.521  50.006  1.00  0.00     0.044 C 
BRANCH  21  26
ATOM     26  O   UNL     1       3.704  46.319  51.314  1.00  0.00    -0.506 OA
ATOM     27  H   UNL     1       3.877  46.586  52.231  1.00  0.00     0.293 HD
ENDBRANCH  21  26
ENDBRANCH  17  19
ENDBRANCH   3  17
TORSDOF 7
ENDMDL
MODEL 14
REMARK VINA RESULT:    -7.645      1.505      1.959
REMARK INTER + INTRA:         -11.274
REMARK INTER:                 -10.630
REMARK INTRA:                  -0.644
REMARK UNBOUND:                -0.725
REMARK SMILES COCCNc1nc(Nc2cc(C)ccc2O)c2cnn(C)c2n1
REMARK SMILES IDX 6 1 7 2 8 3 18 4 19 5 20 6 21 7 22 8 23 9 24 10 5 11 4 13
REMARK SMILES IDX 3 14 2 15 1 16 9 17 10 19 11 20 16 21 12 22 15 23 14 24
REMARK SMILES IDX 13 25 17 26
REMARK H PARENT 5 12 9 18 17 27
ROOT
ATOM      1  C   UNL     1       2.953  44.982  54.966  1.00  0.00     0.226 A 
ATOM      2  N   UNL     1       4.259  45.280  55.120  1.00  0.00    -0.195 NA
ATOM      3  C   UNL     1       5.149  44.956  54.148  1.00  0.00     0.147 A 
ATOM      4  C   UNL     1       4.659  44.350  52.990  1.00  0.00     0.082 A 
ATOM      5  C   UNL     1       5.143  43.880  51.752  1.00  0.00     0.149 A 
ATOM      6  N   UNL     1       4.181  43.363  50.977  1.00  0.00    -0.179 NA
ATOM      7  N   UNL     1       3.069  43.508  51.735  1.00  0.00    -0.250 N 
ATOM      8  C   UNL     1       1.800  43.054  51.224  1.00  0.00     0.176 C 
ATOM      9  C   UNL     1       3.302  44.101  52.945  1.00  0.00     0.165 A 
ATOM     10  N   UNL     1       2.404  44.389  53.898  1.00  0.00    -0.193 NA
ENDROOT
BRANCH   1  11
ATOM     11  N   UNL     1       2.058  45.302  55.982  1.00  0.00    -0.352 N 
ATOM     12  H   UNL     1       2.281  44.683  56.758  1.00  0.00     0.163 HD
BRANCH  11  13
ATOM     13  C   UNL     1       0.657  45.222  55.585  1.00  0.00     0.144 C 
BRANCH  13  14
ATOM     14  C   UNL     1      -0.215  45.029  56.831  1.00  0.00     0.181 C 
BRANCH  14  15
ATOM     15  O   UNL     1      -0.100  46.187  57.672  1.00  0.00    -0.383 OA
ATOM     16  C   UNL     1      -1.171  47.095  57.454  1.00  0.00     0.194 C 
ENDBRANCH  14  15
ENDBRANCH  13  14
ENDBRANCH  11  13
ENDBRANCH   1  11
BRANCH   3  17
ATOM     17  N   UNL     1       6.494  45.310  54.373  1.00  0.00    -0.336 N 
ATOM     18  H   UNL     1       6.978  44.418  54.463  1.00  0.00     0.168 HD
BRANCH  17  19
ATOM     19  C   UNL     1       7.262  46.186  53.567  1.00  0.00     0.082 A 
ATOM     20  C   UNL     1       8.489  45.720  53.077  1.00  0.00     0.033 A 
ATOM     21  C   UNL     1       6.800  47.435  53.124  1.00  0.00     0.139 A 
ATOM     22  C   UNL     1       9.283  46.509  52.232  1.00  0.00    -0.049 A 
ATOM     23  C   UNL     1       7.572  48.227  52.275  1.00  0.00     0.048 A 
ATOM     24  C   UNL     1       8.811  47.764  51.831  1.00  0.00     0.007 A 
ATOM     25  C   UNL     1      10.591  45.986  51.716  1.00  0.00     0.044 C 
BRANCH  21  26
ATOM     26  O   UNL     1       5.563  47.872  53.516  1.00  0.00    -0.506 OA
ATOM     27  H   UNL     1       5.665  48.540  54.212  1.00  0.00     0.293 HD
ENDBRANCH  21  26
ENDBRANCH  17  19
ENDBRANCH   3  17
TORSDOF 7
ENDMDL
MODEL 15
REMARK VINA RESULT:    -7.643      3.364      7.459
REMARK INTER + INTRA:         -11.272
REMARK INTER:                 -10.514
REMARK INTRA:                  -0.758
REMARK UNBOUND:                -0.725
REMARK SMILES COCCNc1nc(Nc2cc(C)ccc2O)c2cnn(C)c2n1
REMARK SMILES IDX 6 1 7 2 8 3 18 4 19 5 20 6 21 7 22 8 23 9 24 10 5 11 4 13
REMARK SMILES IDX 3 14 2 15 1 16 9 17 10 19 11 20 16 21 12 22 15 23 14 24
REMARK SMILES IDX 13 25 17 26
REMARK H PARENT 5 12 9 18 17 27
ROOT
ATOM      1  C   UNL     1       6.812  44.463  50.463  1.00  0.00     0.226 A 
ATOM      2  N   UNL     1       6.761  43.377  49.665  1.00  0.00    -0.195 NA
ATOM      3  C   UNL     1       5.800  42.438  49.856  1.00  0.00     0.147 A 
ATOM      4  C   UNL     1       4.863  42.660  50.866  1.00  0.00     0.082 A 
ATOM      5  C   UNL     1       3.717  42.039  51.405  1.00  0.00     0.149 A 
ATOM      6  N   UNL     1       3.179  42.727  52.421  1.00  0.00    -0.179 NA
ATOM      7  N   UNL     1       3.995  43.802  52.526  1.00  0.00    -0.250 N 
ATOM      8  C   UNL     1       3.730  44.796  53.536  1.00  0.00     0.176 C 
ATOM      9  C   UNL     1       5.012  43.811  51.612  1.00  0.00     0.165 A 
ATOM     10  N   UNL     1       5.964  44.744  51.461  1.00  0.00    -0.193 NA
ENDROOT
BRANCH   1  11
ATOM     11  N   UNL     1       7.817  45.404  50.267  1.00  0.00    -0.352 N 
ATOM     12  H   UNL     1       8.688  44.881  50.225  1.00  0.00     0.163 HD
BRANCH  11  13
ATOM     13  C   UNL     1       7.845  46.461  51.273  1.00  0.00     0.144 C 
BRANCH  13  14
ATOM     14  C   UNL     1       9.218  46.482  51.953  1.00  0.00     0.181 C 
BRANCH  14  15
ATOM     15  O   UNL     1       9.268  47.574  52.882  1.00  0.00    -0.383 OA
ATOM     16  C   UNL     1       9.923  47.200  54.087  1.00  0.00     0.194 C 
ENDBRANCH  14  15
ENDBRANCH  13  14
ENDBRANCH  11  13
ENDBRANCH   1  11
BRANCH   3  17
ATOM     17  N   UNL     1       5.802  41.337  48.976  1.00  0.00    -0.336 N 
ATOM     18  H   UNL     1       5.620  40.535  49.576  1.00  0.00     0.168 HD
BRANCH  17  19
ATOM     19  C   UNL     1       5.033  41.227  47.792  1.00  0.00     0.082 A 
ATOM     20  C   UNL     1       5.550  41.794  46.619  1.00  0.00     0.033 A 
ATOM     21  C   UNL     1       3.857  40.468  47.700  1.00  0.00     0.139 A 
ATOM     22  C   UNL     1       4.872  41.684  45.396  1.00  0.00    -0.049 A 
ATOM     23  C   UNL     1       3.177  40.338  46.490  1.00  0.00     0.048 A 
ATOM     24  C   UNL     1       3.685  40.947  45.341  1.00  0.00     0.007 A 
ATOM     25  C   UNL     1       5.449  42.295  44.153  1.00  0.00     0.044 C 
BRANCH  21  26
ATOM     26  O   UNL     1       3.382  39.828  48.814  1.00  0.00    -0.506 OA
ATOM     27  H   UNL     1       3.982  39.995  49.559  1.00  0.00     0.293 HD
ENDBRANCH  21  26
ENDBRANCH  17  19
ENDBRANCH   3  17
TORSDOF 7
ENDMDL
MODEL 16
REMARK VINA RESULT:    -7.619      2.883      5.637
REMARK INTER + INTRA:         -11.239
REMARK INTER:                 -10.894
REMARK INTRA:                  -0.344
REMARK UNBOUND:                -0.725
REMARK SMILES COCCNc1nc(Nc2cc(C)ccc2O)c2cnn(C)c2n1
REMARK SMILES IDX 6 1 7 2 8 3 18 4 19 5 20 6 21 7 22 8 23 9 24 10 5 11 4 13
REMARK SMILES IDX 3 14 2 15 1 16 9 17 10 19 11 20 16 21 12 22 15 23 14 24
REMARK SMILES IDX 13 25 17 26
REMARK H PARENT 5 12 9 18 17 27
ROOT
ATOM      1  C   UNL     1       2.331  45.753  52.959  1.00  0.00     0.226 A 
ATOM      2  N   UNL     1       3.097  44.700  52.610  1.00  0.00    -0.195 NA
ATOM      3  C   UNL     1       2.621  43.437  52.752  1.00  0.00     0.147 A 
ATOM      4  C   UNL     1       1.318  43.280  53.225  1.00  0.00     0.082 A 
ATOM      5  C   UNL     1       0.406  42.239  53.497  1.00  0.00     0.149 A 
ATOM      6  N   UNL     1      -0.770  42.682  53.960  1.00  0.00    -0.179 NA
ATOM      7  N   UNL     1      -0.602  44.026  53.981  1.00  0.00    -0.250 N 
ATOM      8  C   UNL     1      -1.681  44.867  54.433  1.00  0.00     0.176 C 
ATOM      9  C   UNL     1       0.627  44.432  53.542  1.00  0.00     0.165 A 
ATOM     10  N   UNL     1       1.080  45.690  53.434  1.00  0.00    -0.193 NA
ENDROOT
BRANCH   1  11
ATOM     11  N   UNL     1       2.843  47.039  52.829  1.00  0.00    -0.352 N 
ATOM     12  H   UNL     1       2.561  47.362  51.906  1.00  0.00     0.163 HD
BRANCH  11  13
ATOM     13  C   UNL     1       4.284  47.129  53.038  1.00  0.00     0.144 C 
BRANCH  13  14
ATOM     14  C   UNL     1       4.578  47.170  54.542  1.00  0.00     0.181 C 
BRANCH  14  15
ATOM     15  O   UNL     1       5.731  46.363  54.819  1.00  0.00    -0.383 OA
ATOM     16  C   UNL     1       5.362  45.102  55.364  1.00  0.00     0.194 C 
ENDBRANCH  14  15
ENDBRANCH  13  14
ENDBRANCH  11  13
ENDBRANCH   1  11
BRANCH   3  17
ATOM     17  N   UNL     1       3.474  42.387  52.355  1.00  0.00    -0.336 N 
ATOM     18  H   UNL     1       2.861  41.576  52.290  1.00  0.00     0.168 HD
BRANCH  17  19
ATOM     19  C   UNL     1       4.348  42.412  51.241  1.00  0.00     0.082 A 
ATOM     20  C   UNL     1       5.318  43.423  51.190  1.00  0.00     0.033 A 
ATOM     21  C   UNL     1       4.386  41.405  50.264  1.00  0.00     0.139 A 
ATOM     22  C   UNL     1       6.251  43.485  50.146  1.00  0.00    -0.049 A 
ATOM     23  C   UNL     1       5.315  41.445  49.225  1.00  0.00     0.048 A 
ATOM     24  C   UNL     1       6.245  42.485  49.168  1.00  0.00     0.007 A 
ATOM     25  C   UNL     1       7.283  44.574  50.117  1.00  0.00     0.044 C 
BRANCH  21  26
ATOM     26  O   UNL     1       3.508  40.357  50.345  1.00  0.00    -0.506 OA
ATOM     27  H   UNL     1       2.712  40.643  50.821  1.00  0.00     0.293 HD
ENDBRANCH  21  26
ENDBRANCH  17  19
ENDBRANCH   3  17
TORSDOF 7
ENDMDL
MODEL 17
REMARK VINA RESULT:    -7.601      2.113      6.500
REMARK INTER + INTRA:         -11.213
REMARK INTER:                 -10.408
REMARK INTRA:                  -0.805
REMARK UNBOUND:                -0.725
REMARK SMILES COCCNc1nc(Nc2cc(C)ccc2O)c2cnn(C)c2n1
REMARK SMILES IDX 6 1 7 2 8 3 18 4 19 5 20 6 21 7 22 8 23 9 24 10 5 11 4 13
REMARK SMILES IDX 3 14 2 15 1 16 9 17 10 19 11 20 16 21 12 22 15 23 14 24
REMARK SMILES IDX 13 25 17 26
REMARK H PARENT 5 12 9 18 17 27
ROOT
ATOM      1  C   UNL     1       5.124  45.295  52.060  1.00  0.00     0.226 A 
ATOM      2  N   UNL     1       4.144  44.545  52.601  1.00  0.00    -0.195 NA
ATOM      3  C   UNL     1       3.939  43.276  52.164  1.00  0.00     0.147 A 
ATOM      4  C   UNL     1       4.794  42.780  51.179  1.00  0.00     0.082 A 
ATOM      5  C   UNL     1       5.005  41.584  50.462  1.00  0.00     0.149 A 
ATOM      6  N   UNL     1       6.021  41.669  49.592  1.00  0.00    -0.179 NA
ATOM      7  N   UNL     1       6.462  42.937  49.762  1.00  0.00    -0.250 N 
ATOM      8  C   UNL     1       7.574  43.411  48.978  1.00  0.00     0.176 C 
ATOM      9  C   UNL     1       5.765  43.639  50.707  1.00  0.00     0.165 A 
ATOM     10  N   UNL     1       5.976  44.903  51.103  1.00  0.00    -0.193 NA
ENDROOT
BRANCH   1  11
ATOM     11  N   UNL     1       5.305  46.601  52.504  1.00  0.00    -0.352 N 
ATOM     12  H   UNL     1       4.952  47.202  51.763  1.00  0.00     0.163 HD
BRANCH  11  13
ATOM     13  C   UNL     1       6.681  46.916  52.875  1.00  0.00     0.144 C 
BRANCH  13  14
ATOM     14  C   UNL     1       6.867  46.690  54.379  1.00  0.00     0.181 C 
BRANCH  14  15
ATOM     15  O   UNL     1       7.920  47.540  54.857  1.00  0.00    -0.383 OA
ATOM     16  C   UNL     1       9.031  47.538  53.971  1.00  0.00     0.194 C 
ENDBRANCH  14  15
ENDBRANCH  13  14
ENDBRANCH  11  13
ENDBRANCH   1  11
BRANCH   3  17
ATOM     17  N   UNL     1       2.905  42.548  52.785  1.00  0.00    -0.336 N 
ATOM     18  H   UNL     1       3.321  42.210  53.651  1.00  0.00     0.168 HD
BRANCH  17  19
ATOM     19  C   UNL     1       1.598  43.028  53.043  1.00  0.00     0.082 A 
ATOM     20  C   UNL     1       0.555  42.561  52.232  1.00  0.00     0.033 A 
ATOM     21  C   UNL     1       1.272  43.833  54.146  1.00  0.00     0.139 A 
ATOM     22  C   UNL     1      -0.773  42.951  52.456  1.00  0.00    -0.049 A 
ATOM     23  C   UNL     1      -0.045  44.220  54.390  1.00  0.00     0.048 A 
ATOM     24  C   UNL     1      -1.065  43.779  53.544  1.00  0.00     0.007 A 
ATOM     25  C   UNL     1      -1.873  42.432  51.577  1.00  0.00     0.044 C 
BRANCH  21  26
ATOM     26  O   UNL     1       2.262  44.226  55.006  1.00  0.00    -0.506 OA
ATOM     27  H   UNL     1       2.360  43.561  55.707  1.00  0.00     0.293 HD
ENDBRANCH  21  26
ENDBRANCH  17  19
ENDBRANCH   3  17
TORSDOF 7
ENDMDL
MODEL 18
REMARK VINA RESULT:    -7.582      2.086      6.264
REMARK INTER + INTRA:         -11.188
REMARK INTER:                 -10.727
REMARK INTRA:                  -0.460
REMARK UNBOUND:                -0.725
REMARK SMILES COCCNc1nc(Nc2cc(C)ccc2O)c2cnn(C)c2n1
REMARK SMILES IDX 6 1 7 2 8 3 18 4 19 5 20 6 21 7 22 8 23 9 24 10 5 11 4 13
REMARK SMILES IDX 3 14 2 15 1 16 9 17 10 19 11 20 16 21 12 22 15 23 14 24
REMARK SMILES IDX 13 25 17 26
REMARK H PARENT 5 12 9 18 17 27
ROOT
ATOM      1  C   UNL     1       7.618  47.114  52.073  1.00  0.00     0.226 A 
ATOM      2  N   UNL     1       6.475  47.494  52.680  1.00  0.00    -0.195 NA
ATOM      3  C   UNL     1       5.333  46.787  52.483  1.00  0.00     0.147 A 
ATOM      4  C   UNL     1       5.401  45.651  51.675  1.00  0.00     0.082 A 
ATOM      5  C   UNL     1       4.551  44.622  51.219  1.00  0.00     0.149 A 
ATOM      6  N   UNL     1       5.175  43.744  50.423  1.00  0.00    -0.179 NA
ATOM      7  N   UNL     1       6.441  44.223  50.374  1.00  0.00    -0.250 N 
ATOM      8  C   UNL     1       7.432  43.526  49.593  1.00  0.00     0.176 C 
ATOM      9  C   UNL     1       6.627  45.357  51.114  1.00  0.00     0.165 A 
ATOM     10  N   UNL     1       7.765  46.049  51.273  1.00  0.00    -0.193 NA
ENDROOT
BRANCH   1  11
ATOM     11  N   UNL     1       8.773  47.863  52.268  1.00  0.00    -0.352 N 
ATOM     12  H   UNL     1       9.134  48.071  51.340  1.00  0.00     0.163 HD
BRANCH  11  13
ATOM     13  C   UNL     1       9.763  47.215  53.122  1.00  0.00     0.144 C 
BRANCH  13  14
ATOM     14  C   UNL     1       9.540  47.644  54.577  1.00  0.00     0.181 C 
BRANCH  14  15
ATOM     15  O   UNL     1      10.431  46.908  55.427  1.00  0.00    -0.383 OA
ATOM     16  C   UNL     1      11.040  47.752  56.395  1.00  0.00     0.194 C 
ENDBRANCH  14  15
ENDBRANCH  13  14
ENDBRANCH  11  13
ENDBRANCH   1  11
BRANCH   3  17
ATOM     17  N   UNL     1       4.182  47.237  53.160  1.00  0.00    -0.336 N 
ATOM     18  H   UNL     1       3.802  47.962  52.554  1.00  0.00     0.168 HD
BRANCH  17  19
ATOM     19  C   UNL     1       3.131  46.415  53.633  1.00  0.00     0.082 A 
ATOM     20  C   UNL     1       2.018  46.228  52.801  1.00  0.00     0.033 A 
ATOM     21  C   UNL     1       3.203  45.674  54.823  1.00  0.00     0.139 A 
ATOM     22  C   UNL     1       0.959  45.390  53.178  1.00  0.00    -0.049 A 
ATOM     23  C   UNL     1       2.164  44.826  55.206  1.00  0.00     0.048 A 
ATOM     24  C   UNL     1       1.045  44.686  54.384  1.00  0.00     0.007 A 
ATOM     25  C   UNL     1      -0.218  45.201  52.267  1.00  0.00     0.044 C 
BRANCH  21  26
ATOM     26  O   UNL     1       4.321  45.769  55.607  1.00  0.00    -0.506 OA
ATOM     27  H   UNL     1       4.201  45.227  56.403  1.00  0.00     0.293 HD
ENDBRANCH  21  26
ENDBRANCH  17  19
ENDBRANCH   3  17
TORSDOF 7
ENDMDL
MODEL 19
REMARK VINA RESULT:    -7.578      2.359      6.687
REMARK INTER + INTRA:         -11.182
REMARK INTER:                 -10.265
REMARK INTRA:                  -0.917
REMARK UNBOUND:                -0.725
REMARK SMILES COCCNc1nc(Nc2cc(C)ccc2O)c2cnn(C)c2n1
REMARK SMILES IDX 6 1 7 2 8 3 18 4 19 5 20 6 21 7 22 8 23 9 24 10 5 11 4 13
REMARK SMILES IDX 3 14 2 15 1 16 9 17 10 19 11 20 16 21 12 22 15 23 14 24
REMARK SMILES IDX 13 25 17 26
REMARK H PARENT 5 12 9 18 17 27
ROOT
ATOM      1  C   UNL     1       6.071  44.492  50.956  1.00  0.00     0.226 A 
ATOM      2  N   UNL     1       5.273  44.043  51.946  1.00  0.00    -0.195 NA
ATOM      3  C   UNL     1       5.278  44.660  53.155  1.00  0.00     0.147 A 
ATOM      4  C   UNL     1       6.095  45.780  53.312  1.00  0.00     0.082 A 
ATOM      5  C   UNL     1       6.408  46.734  54.303  1.00  0.00     0.149 A 
ATOM      6  N   UNL     1       7.308  47.638  53.892  1.00  0.00    -0.179 NA
ATOM      7  N   UNL     1       7.569  47.251  52.621  1.00  0.00    -0.250 N 
ATOM      8  C   UNL     1       8.516  48.001  51.834  1.00  0.00     0.176 C 
ATOM      9  C   UNL     1       6.862  46.150  52.226  1.00  0.00     0.165 A 
ATOM     10  N   UNL     1       6.895  45.546  51.029  1.00  0.00    -0.193 NA
ENDROOT
BRANCH   1  11
ATOM     11  N   UNL     1       6.071  43.834  49.731  1.00  0.00    -0.352 N 
ATOM     12  H   UNL     1       5.093  43.713  49.477  1.00  0.00     0.163 HD
BRANCH  11  13
ATOM     13  C   UNL     1       6.811  42.576  49.732  1.00  0.00     0.144 C 
BRANCH  13  14
ATOM     14  C   UNL     1       5.876  41.435  49.315  1.00  0.00     0.181 C 
BRANCH  14  15
ATOM     15  O   UNL     1       5.070  41.051  50.439  1.00  0.00    -0.383 OA
ATOM     16  C   UNL     1       3.687  41.057  50.111  1.00  0.00     0.194 C 
ENDBRANCH  14  15
ENDBRANCH  13  14
ENDBRANCH  11  13
ENDBRANCH   1  11
BRANCH   3  17
ATOM     17  N   UNL     1       4.408  44.143  54.136  1.00  0.00    -0.336 N 
ATOM     18  H   UNL     1       4.871  44.355  55.018  1.00  0.00     0.168 HD
BRANCH  17  19
ATOM     19  C   UNL     1       3.026  44.428  54.246  1.00  0.00     0.082 A 
ATOM     20  C   UNL     1       2.139  43.693  53.447  1.00  0.00     0.033 A 
ATOM     21  C   UNL     1       2.489  45.303  55.202  1.00  0.00     0.139 A 
ATOM     22  C   UNL     1       0.752  43.882  53.534  1.00  0.00    -0.049 A 
ATOM     23  C   UNL     1       1.112  45.493  55.311  1.00  0.00     0.048 A 
ATOM     24  C   UNL     1       0.247  44.783  54.476  1.00  0.00     0.007 A 
ATOM     25  C   UNL     1      -0.177  43.078  52.673  1.00  0.00     0.044 C 
BRANCH  21  26
ATOM     26  O   UNL     1       3.331  45.963  56.057  1.00  0.00    -0.506 OA
ATOM     27  H   UNL     1       4.248  45.718  55.855  1.00  0.00     0.293 HD
ENDBRANCH  21  26
ENDBRANCH  17  19
ENDBRANCH   3  17
TORSDOF 7
ENDMDL
MODEL 20
REMARK VINA RESULT:    -7.560      2.450      4.207
REMARK INTER + INTRA:         -11.157
REMARK INTER:                 -10.522
REMARK INTRA:                  -0.636
REMARK UNBOUND:                -0.725
REMARK SMILES COCCNc1nc(Nc2cc(C)ccc2O)c2cnn(C)c2n1
REMARK SMILES IDX 6 1 7 2 8 3 18 4 19 5 20 6 21 7 22 8 23 9 24 10 5 11 4 13
REMARK SMILES IDX 3 14 2 15 1 16 9 17 10 19 11 20 16 21 12 22 15 23 14 24
REMARK SMILES IDX 13 25 17 26
REMARK H PARENT 5 12 9 18 17 27
ROOT
ATOM      1  C   UNL     1       3.855  43.570  52.284  1.00  0.00     0.226 A 
ATOM      2  N   UNL     1       4.788  44.092  51.462  1.00  0.00    -0.195 NA
ATOM      3  C   UNL     1       5.300  45.325  51.711  1.00  0.00     0.147 A 
ATOM      4  C   UNL     1       4.859  45.996  52.852  1.00  0.00     0.082 A 
ATOM      5  C   UNL     1       5.098  47.210  53.528  1.00  0.00     0.149 A 
ATOM      6  N   UNL     1       4.356  47.347  54.635  1.00  0.00    -0.179 NA
ATOM      7  N   UNL     1       3.636  46.202  54.662  1.00  0.00    -0.250 N 
ATOM      8  C   UNL     1       2.699  45.980  55.735  1.00  0.00     0.176 C 
ATOM      9  C   UNL     1       3.907  45.357  53.621  1.00  0.00     0.165 A 
ATOM     10  N   UNL     1       3.367  44.152  53.388  1.00  0.00    -0.193 NA
ENDROOT
BRANCH   1  11
ATOM     11  N   UNL     1       3.325  42.316  52.001  1.00  0.00    -0.352 N 
ATOM     12  H   UNL     1       4.098  41.659  52.081  1.00  0.00     0.163 HD
BRANCH  11  13
ATOM     13  C   UNL     1       2.651  42.233  50.710  1.00  0.00     0.144 C 
BRANCH  13  14
ATOM     14  C   UNL     1       1.328  43.005  50.777  1.00  0.00     0.181 C 
BRANCH  14  15
ATOM     15  O   UNL     1       0.585  42.569  51.925  1.00  0.00    -0.383 OA
ATOM     16  C   UNL     1      -0.144  43.641  52.508  1.00  0.00     0.194 C 
ENDBRANCH  14  15
ENDBRANCH  13  14
ENDBRANCH  11  13
ENDBRANCH   1  11
BRANCH   3  17
ATOM     17  N   UNL     1       6.279  45.799  50.816  1.00  0.00    -0.336 N 
ATOM     18  H   UNL     1       5.969  46.741  50.580  1.00  0.00     0.168 HD
BRANCH  17  19
ATOM     19  C   UNL     1       7.676  45.805  51.049  1.00  0.00     0.082 A 
ATOM     20  C   UNL     1       8.152  46.508  52.165  1.00  0.00     0.033 A 
ATOM     21  C   UNL     1       8.588  45.037  50.309  1.00  0.00     0.139 A 
ATOM     22  C   UNL     1       9.516  46.519  52.491  1.00  0.00    -0.049 A 
ATOM     23  C   UNL     1       9.945  45.027  50.627  1.00  0.00     0.048 A 
ATOM     24  C   UNL     1      10.407  45.769  51.716  1.00  0.00     0.007 A 
ATOM     25  C   UNL     1      10.000  47.274  53.693  1.00  0.00     0.044 C 
BRANCH  21  26
ATOM     26  O   UNL     1       8.132  44.269  49.271  1.00  0.00    -0.506 OA
ATOM     27  H   UNL     1       7.185  44.097  49.392  1.00  0.00     0.293 HD
ENDBRANCH  21  26
ENDBRANCH  17  19
ENDBRANCH   3  17
TORSDOF 7
ENDMDL
