MODEL 1
REMARK VINA RESULT:    -8.583      0.000      0.000
REMARK INTER + INTRA:         -13.051
REMARK INTER:                 -12.095
REMARK INTRA:                  -0.956
REMARK UNBOUND:                -0.956
REMARK SMILES COCCNc1nc(Nc2ccc(C(C)C)c(C)c2)c2cnn(C)c2n1
REMARK SMILES IDX 6 1 7 2 8 3 20 4 21 5 22 6 23 7 24 8 25 9 26 10 5 11 4 13
REMARK SMILES IDX 3 14 2 15 1 16 9 17 10 19 11 20 19 21 12 22 17 23 13 24
REMARK SMILES IDX 18 25 14 26 15 27 16 28
REMARK H PARENT 5 12 9 18
ROOT
ATOM      1  C   UNL     1       0.694  45.054  54.520  1.00  0.00     0.226 A 
ATOM      2  N   UNL     1       2.019  44.863  54.646  1.00  0.00    -0.195 NA
ATOM      3  C   UNL     1       2.737  44.259  53.663  1.00  0.00     0.147 A 
ATOM      4  C   UNL     1       2.025  43.845  52.530  1.00  0.00     0.082 A 
ATOM      5  C   UNL     1       2.281  43.203  51.300  1.00  0.00     0.149 A 
ATOM      6  N   UNL     1       1.182  43.047  50.553  1.00  0.00    -0.179 NA
ATOM      7  N   UNL     1       0.211  43.606  51.314  1.00  0.00    -0.250 N 
ATOM      8  C   UNL     1      -1.143  43.640  50.823  1.00  0.00     0.176 C 
ATOM      9  C   UNL     1       0.666  44.089  52.510  1.00  0.00     0.165 A 
ATOM     10  N   UNL     1      -0.054  44.681  53.473  1.00  0.00    -0.193 NA
ENDROOT
BRANCH   1  11
ATOM     11  N   UNL     1       0.094  45.694  55.597  1.00  0.00    -0.352 N 
ATOM     12  H   UNL     1       0.255  46.691  55.461  1.00  0.00     0.163 HD
BRANCH  11  13
ATOM     13  C   UNL     1       0.527  45.211  56.900  1.00  0.00     0.144 C 
BRANCH  13  14
ATOM     14  C   UNL     1       0.884  46.405  57.797  1.00  0.00     0.181 C 
BRANCH  14  15
ATOM     15  O   UNL     1      -0.231  46.866  58.573  1.00  0.00    -0.383 OA
ATOM     16  C   UNL     1       0.106  47.892  59.496  1.00  0.00     0.194 C 
ENDBRANCH  14  15
ENDBRANCH  13  14
ENDBRANCH  11  13
ENDBRANCH   1  11
BRANCH   3  17
ATOM     17  N   UNL     1       4.117  44.034  53.780  1.00  0.00    -0.339 N 
ATOM     18  H   UNL     1       4.351  43.111  54.117  1.00  0.00     0.168 HD
BRANCH  17  19
ATOM     19  C   UNL     1       5.236  44.817  53.449  1.00  0.00     0.040 A 
ATOM     20  C   UNL     1       5.926  45.618  54.350  1.00  0.00     0.026 A 
ATOM     21  C   UNL     1       5.728  44.763  52.134  1.00  0.00     0.029 A 
ATOM     22  C   UNL     1       7.045  46.356  53.949  1.00  0.00     0.006 A 
ATOM     23  C   UNL     1       6.867  45.487  51.707  1.00  0.00    -0.046 A 
ATOM     24  C   UNL     1       7.531  46.321  52.626  1.00  0.00    -0.042 A 
ATOM     25  C   UNL     1       7.264  45.342  50.265  1.00  0.00     0.045 C 
BRANCH  24  26
ATOM     26  C   UNL     1       8.758  47.178  52.331  1.00  0.00     0.013 C 
ATOM     27  C   UNL     1       8.370  48.602  51.928  1.00  0.00     0.012 C 
ATOM     28  C   UNL     1       9.830  47.171  53.423  1.00  0.00     0.012 C 
ENDBRANCH  24  26
ENDBRANCH  17  19
ENDBRANCH   3  17
TORSDOF 7
ENDMDL
MODEL 2
REMARK VINA RESULT:    -8.568      3.340      5.133
REMARK INTER + INTRA:         -13.030
REMARK INTER:                 -12.310
REMARK INTRA:                  -0.720
REMARK UNBOUND:                -0.956
REMARK SMILES COCCNc1nc(Nc2ccc(C(C)C)c(C)c2)c2cnn(C)c2n1
REMARK SMILES IDX 6 1 7 2 8 3 20 4 21 5 22 6 23 7 24 8 25 9 26 10 5 11 4 13
REMARK SMILES IDX 3 14 2 15 1 16 9 17 10 19 11 20 19 21 12 22 17 23 13 24
REMARK SMILES IDX 18 25 14 26 15 27 16 28
REMARK H PARENT 5 12 9 18
ROOT
ATOM      1  C   UNL     1       2.716  42.296  51.108  1.00  0.00     0.226 A 
ATOM      2  N   UNL     1       3.561  42.828  52.009  1.00  0.00    -0.195 NA
ATOM      3  C   UNL     1       3.209  43.916  52.743  1.00  0.00     0.147 A 
ATOM      4  C   UNL     1       1.936  44.450  52.503  1.00  0.00     0.082 A 
ATOM      5  C   UNL     1       1.135  45.514  52.967  1.00  0.00     0.149 A 
ATOM      6  N   UNL     1      -0.059  45.570  52.366  1.00  0.00    -0.179 NA
ATOM      7  N   UNL     1      -0.023  44.520  51.512  1.00  0.00    -0.250 N 
ATOM      8  C   UNL     1      -1.166  44.242  50.680  1.00  0.00     0.176 C 
ATOM      9  C   UNL     1       1.155  43.825  51.552  1.00  0.00     0.165 A 
ATOM     10  N   UNL     1       1.490  42.753  50.820  1.00  0.00    -0.193 NA
ENDROOT
BRANCH   1  11
ATOM     11  N   UNL     1       3.205  41.181  50.441  1.00  0.00    -0.352 N 
ATOM     12  H   UNL     1       2.851  40.370  50.945  1.00  0.00     0.163 HD
BRANCH  11  13
ATOM     13  C   UNL     1       4.651  41.168  50.270  1.00  0.00     0.144 C 
BRANCH  13  14
ATOM     14  C   UNL     1       4.991  41.087  48.774  1.00  0.00     0.181 C 
BRANCH  14  15
ATOM     15  O   UNL     1       6.046  41.983  48.399  1.00  0.00    -0.383 OA
ATOM     16  C   UNL     1       6.571  42.729  49.489  1.00  0.00     0.194 C 
ENDBRANCH  14  15
ENDBRANCH  13  14
ENDBRANCH  11  13
ENDBRANCH   1  11
BRANCH   3  17
ATOM     17  N   UNL     1       4.080  44.498  53.677  1.00  0.00    -0.339 N 
ATOM     18  H   UNL     1       3.784  44.382  54.636  1.00  0.00     0.168 HD
BRANCH  17  19
ATOM     19  C   UNL     1       5.321  45.143  53.542  1.00  0.00     0.040 A 
ATOM     20  C   UNL     1       6.080  45.613  54.606  1.00  0.00     0.026 A 
ATOM     21  C   UNL     1       5.864  45.292  52.255  1.00  0.00     0.029 A 
ATOM     22  C   UNL     1       7.317  46.230  54.394  1.00  0.00     0.006 A 
ATOM     23  C   UNL     1       7.120  45.898  52.014  1.00  0.00    -0.046 A 
ATOM     24  C   UNL     1       7.858  46.400  53.102  1.00  0.00    -0.042 A 
ATOM     25  C   UNL     1       7.562  46.001  50.581  1.00  0.00     0.045 C 
BRANCH  24  26
ATOM     26  C   UNL     1       9.215  47.091  53.021  1.00  0.00     0.013 C 
ATOM     27  C   UNL     1       9.719  47.513  54.403  1.00  0.00     0.012 C 
ATOM     28  C   UNL     1      10.284  46.327  52.237  1.00  0.00     0.012 C 
ENDBRANCH  24  26
ENDBRANCH  17  19
ENDBRANCH   3  17
TORSDOF 7
ENDMDL
MODEL 3
REMARK VINA RESULT:    -8.412      3.329      5.374
REMARK INTER + INTRA:         -12.811
REMARK INTER:                 -12.288
REMARK INTRA:                  -0.523
REMARK UNBOUND:                -0.956
REMARK SMILES COCCNc1nc(Nc2ccc(C(C)C)c(C)c2)c2cnn(C)c2n1
REMARK SMILES IDX 6 1 7 2 8 3 20 4 21 5 22 6 23 7 24 8 25 9 26 10 5 11 4 13
REMARK SMILES IDX 3 14 2 15 1 16 9 17 10 19 11 20 19 21 12 22 17 23 13 24
REMARK SMILES IDX 18 25 14 26 15 27 16 28
REMARK H PARENT 5 12 9 18
ROOT
ATOM      1  C   UNL     1       2.659  42.295  51.136  1.00  0.00     0.226 A 
ATOM      2  N   UNL     1       3.524  42.835  52.012  1.00  0.00    -0.195 NA
ATOM      3  C   UNL     1       3.192  43.936  52.738  1.00  0.00     0.147 A 
ATOM      4  C   UNL     1       1.916  44.471  52.517  1.00  0.00     0.082 A 
ATOM      5  C   UNL     1       1.129  45.545  52.982  1.00  0.00     0.149 A 
ATOM      6  N   UNL     1      -0.077  45.597  52.406  1.00  0.00    -0.179 NA
ATOM      7  N   UNL     1      -0.063  44.535  51.566  1.00  0.00    -0.250 N 
ATOM      8  C   UNL     1      -1.224  44.250  50.762  1.00  0.00     0.176 C 
ATOM      9  C   UNL     1       1.113  43.836  51.591  1.00  0.00     0.165 A 
ATOM     10  N   UNL     1       1.429  42.753  50.867  1.00  0.00    -0.193 NA
ENDROOT
BRANCH   1  11
ATOM     11  N   UNL     1       3.130  41.168  50.475  1.00  0.00    -0.352 N 
ATOM     12  H   UNL     1       2.959  40.380  51.098  1.00  0.00     0.163 HD
BRANCH  11  13
ATOM     13  C   UNL     1       4.514  41.265  50.033  1.00  0.00     0.144 C 
BRANCH  13  14
ATOM     14  C   UNL     1       4.619  40.811  48.570  1.00  0.00     0.181 C 
BRANCH  14  15
ATOM     15  O   UNL     1       3.377  40.309  48.057  1.00  0.00    -0.383 OA
ATOM     16  C   UNL     1       3.269  40.399  46.643  1.00  0.00     0.194 C 
ENDBRANCH  14  15
ENDBRANCH  13  14
ENDBRANCH  11  13
ENDBRANCH   1  11
BRANCH   3  17
ATOM     17  N   UNL     1       4.085  44.527  53.645  1.00  0.00    -0.339 N 
ATOM     18  H   UNL     1       3.800  44.439  54.610  1.00  0.00     0.168 HD
BRANCH  17  19
ATOM     19  C   UNL     1       5.333  45.149  53.477  1.00  0.00     0.040 A 
ATOM     20  C   UNL     1       6.094  45.671  54.515  1.00  0.00     0.026 A 
ATOM     21  C   UNL     1       5.881  45.218  52.185  1.00  0.00     0.029 A 
ATOM     22  C   UNL     1       7.339  46.261  54.272  1.00  0.00     0.006 A 
ATOM     23  C   UNL     1       7.144  45.796  51.914  1.00  0.00    -0.046 A 
ATOM     24  C   UNL     1       7.885  46.350  52.974  1.00  0.00    -0.042 A 
ATOM     25  C   UNL     1       7.591  45.812  50.479  1.00  0.00     0.045 C 
BRANCH  24  26
ATOM     26  C   UNL     1       9.250  47.021  52.858  1.00  0.00     0.013 C 
ATOM     27  C   UNL     1       9.786  47.456  54.224  1.00  0.00     0.012 C 
ATOM     28  C   UNL     1      10.294  46.231  52.066  1.00  0.00     0.012 C 
ENDBRANCH  24  26
ENDBRANCH  17  19
ENDBRANCH   3  17
TORSDOF 7
ENDMDL
MODEL 4
REMARK VINA RESULT:    -8.322      1.398      1.569
REMARK INTER + INTRA:         -12.682
REMARK INTER:                 -12.543
REMARK INTRA:                  -0.139
REMARK UNBOUND:                -0.956
REMARK SMILES COCCNc1nc(Nc2ccc(C(C)C)c(C)c2)c2cnn(C)c2n1
REMARK SMILES IDX 6 1 7 2 8 3 20 4 21 5 22 6 23 7 24 8 25 9 26 10 5 11 4 13
REMARK SMILES IDX 3 14 2 15 1 16 9 17 10 19 11 20 19 21 12 22 17 23 13 24
REMARK SMILES IDX 18 25 14 26 15 27 16 28
REMARK H PARENT 5 12 9 18
ROOT
ATOM      1  C   UNL     1       1.888  45.154  55.059  1.00  0.00     0.226 A 
ATOM      2  N   UNL     1       2.726  45.866  54.285  1.00  0.00    -0.195 NA
ATOM      3  C   UNL     1       2.857  45.598  52.959  1.00  0.00     0.147 A 
ATOM      4  C   UNL     1       2.083  44.545  52.453  1.00  0.00     0.082 A 
ATOM      5  C   UNL     1       1.863  43.896  51.220  1.00  0.00     0.149 A 
ATOM      6  N   UNL     1       0.975  42.899  51.305  1.00  0.00    -0.179 NA
ATOM      7  N   UNL     1       0.616  42.918  52.611  1.00  0.00    -0.250 N 
ATOM      8  C   UNL     1      -0.360  41.973  53.091  1.00  0.00     0.176 C 
ATOM      9  C   UNL     1       1.259  43.880  53.340  1.00  0.00     0.165 A 
ATOM     10  N   UNL     1       1.124  44.133  54.649  1.00  0.00    -0.193 NA
ENDROOT
BRANCH   1  11
ATOM     11  N   UNL     1       1.850  45.547  56.390  1.00  0.00    -0.352 N 
ATOM     12  H   UNL     1       2.676  45.143  56.829  1.00  0.00     0.163 HD
BRANCH  11  13
ATOM     13  C   UNL     1       0.610  45.218  57.078  1.00  0.00     0.144 C 
BRANCH  13  14
ATOM     14  C   UNL     1      -0.027  46.503  57.630  1.00  0.00     0.181 C 
BRANCH  14  15
ATOM     15  O   UNL     1       0.680  47.027  58.762  1.00  0.00    -0.383 OA
ATOM     16  C   UNL     1      -0.061  47.991  59.497  1.00  0.00     0.194 C 
ENDBRANCH  14  15
ENDBRANCH  13  14
ENDBRANCH  11  13
ENDBRANCH   1  11
BRANCH   3  17
ATOM     17  N   UNL     1       3.737  46.317  52.137  1.00  0.00    -0.339 N 
ATOM     18  H   UNL     1       3.273  46.879  51.438  1.00  0.00     0.168 HD
BRANCH  17  19
ATOM     19  C   UNL     1       5.135  46.465  52.145  1.00  0.00     0.040 A 
ATOM     20  C   UNL     1       5.837  47.218  53.078  1.00  0.00     0.026 A 
ATOM     21  C   UNL     1       5.889  45.777  51.180  1.00  0.00     0.029 A 
ATOM     22  C   UNL     1       7.233  47.303  53.033  1.00  0.00     0.006 A 
ATOM     23  C   UNL     1       7.302  45.834  51.122  1.00  0.00    -0.046 A 
ATOM     24  C   UNL     1       7.993  46.631  52.054  1.00  0.00    -0.042 A 
ATOM     25  C   UNL     1       7.970  45.058  50.021  1.00  0.00     0.045 C 
BRANCH  24  26
ATOM     26  C   UNL     1       9.506  46.815  52.125  1.00  0.00     0.013 C 
ATOM     27  C   UNL     1       9.959  47.237  53.524  1.00  0.00     0.012 C 
ATOM     28  C   UNL     1      10.327  45.639  51.594  1.00  0.00     0.012 C 
ENDBRANCH  24  26
ENDBRANCH  17  19
ENDBRANCH   3  17
TORSDOF 7
ENDMDL
MODEL 5
REMARK VINA RESULT:    -8.315      1.279      1.619
REMARK INTER + INTRA:         -12.673
REMARK INTER:                 -11.741
REMARK INTRA:                  -0.932
REMARK UNBOUND:                -0.956
REMARK SMILES COCCNc1nc(Nc2ccc(C(C)C)c(C)c2)c2cnn(C)c2n1
REMARK SMILES IDX 6 1 7 2 8 3 20 4 21 5 22 6 23 7 24 8 25 9 26 10 5 11 4 13
REMARK SMILES IDX 3 14 2 15 1 16 9 17 10 19 11 20 19 21 12 22 17 23 13 24
REMARK SMILES IDX 18 25 14 26 15 27 16 28
REMARK H PARENT 5 12 9 18
ROOT
ATOM      1  C   UNL     1       0.529  45.023  54.451  1.00  0.00     0.226 A 
ATOM      2  N   UNL     1       1.847  44.874  54.671  1.00  0.00    -0.195 NA
ATOM      3  C   UNL     1       2.643  44.244  53.768  1.00  0.00     0.147 A 
ATOM      4  C   UNL     1       2.016  43.757  52.613  1.00  0.00     0.082 A 
ATOM      5  C   UNL     1       2.368  43.064  51.435  1.00  0.00     0.149 A 
ATOM      6  N   UNL     1       1.325  42.842  50.627  1.00  0.00    -0.179 NA
ATOM      7  N   UNL     1       0.293  43.410  51.296  1.00  0.00    -0.250 N 
ATOM      8  C   UNL     1      -1.027  43.384  50.718  1.00  0.00     0.176 C 
ATOM      9  C   UNL     1       0.656  43.962  52.493  1.00  0.00     0.165 A 
ATOM     10  N   UNL     1      -0.140  44.580  53.377  1.00  0.00    -0.193 NA
ENDROOT
BRANCH   1  11
ATOM     11  N   UNL     1      -0.155  45.696  55.454  1.00  0.00    -0.352 N 
ATOM     12  H   UNL     1       0.369  46.552  55.631  1.00  0.00     0.163 HD
BRANCH  11  13
ATOM     13  C   UNL     1      -0.394  44.907  56.653  1.00  0.00     0.144 C 
BRANCH  13  14
ATOM     14  C   UNL     1      -1.769  44.228  56.557  1.00  0.00     0.181 C 
BRANCH  14  15
ATOM     15  O   UNL     1      -2.327  43.928  57.843  1.00  0.00    -0.383 OA
ATOM     16  C   UNL     1      -3.286  42.881  57.815  1.00  0.00     0.194 C 
ENDBRANCH  14  15
ENDBRANCH  13  14
ENDBRANCH  11  13
ENDBRANCH   1  11
BRANCH   3  17
ATOM     17  N   UNL     1       4.017  44.063  53.984  1.00  0.00    -0.339 N 
ATOM     18  H   UNL     1       4.244  43.195  54.448  1.00  0.00     0.168 HD
BRANCH  17  19
ATOM     19  C   UNL     1       5.143  44.819  53.613  1.00  0.00     0.040 A 
ATOM     20  C   UNL     1       5.905  45.572  54.496  1.00  0.00     0.026 A 
ATOM     21  C   UNL     1       5.561  44.786  52.273  1.00  0.00     0.029 A 
ATOM     22  C   UNL     1       7.025  46.285  54.055  1.00  0.00     0.006 A 
ATOM     23  C   UNL     1       6.699  45.486  51.804  1.00  0.00    -0.046 A 
ATOM     24  C   UNL     1       7.439  46.272  52.707  1.00  0.00    -0.042 A 
ATOM     25  C   UNL     1       7.013  45.370  50.339  1.00  0.00     0.045 C 
BRANCH  24  26
ATOM     26  C   UNL     1       8.676  47.097  52.369  1.00  0.00     0.013 C 
ATOM     27  C   UNL     1       8.309  48.525  51.956  1.00  0.00     0.012 C 
ATOM     28  C   UNL     1       9.775  47.081  53.432  1.00  0.00     0.012 C 
ENDBRANCH  24  26
ENDBRANCH  17  19
ENDBRANCH   3  17
TORSDOF 7
ENDMDL
MODEL 6
REMARK VINA RESULT:    -8.292      2.603      4.734
REMARK INTER + INTRA:         -12.641
REMARK INTER:                 -12.006
REMARK INTRA:                  -0.634
REMARK UNBOUND:                -0.956
REMARK SMILES COCCNc1nc(Nc2ccc(C(C)C)c(C)c2)c2cnn(C)c2n1
REMARK SMILES IDX 6 1 7 2 8 3 20 4 21 5 22 6 23 7 24 8 25 9 26 10 5 11 4 13
REMARK SMILES IDX 3 14 2 15 1 16 9 17 10 19 11 20 19 21 12 22 17 23 13 24
REMARK SMILES IDX 18 25 14 26 15 27 16 28
REMARK H PARENT 5 12 9 18
ROOT
ATOM      1  C   UNL     1       1.554  43.105  52.811  1.00  0.00     0.226 A 
ATOM      2  N   UNL     1       2.708  43.612  53.280  1.00  0.00    -0.195 NA
ATOM      3  C   UNL     1       2.728  44.412  54.378  1.00  0.00     0.147 A 
ATOM      4  C   UNL     1       1.492  44.682  54.981  1.00  0.00     0.082 A 
ATOM      5  C   UNL     1       0.992  45.414  56.077  1.00  0.00     0.149 A 
ATOM      6  N   UNL     1      -0.337  45.324  56.204  1.00  0.00    -0.179 NA
ATOM      7  N   UNL     1      -0.689  44.514  55.177  1.00  0.00    -0.250 N 
ATOM      8  C   UNL     1      -2.075  44.166  54.991  1.00  0.00     0.176 C 
ATOM      9  C   UNL     1       0.371  44.111  54.412  1.00  0.00     0.165 A 
ATOM     10  N   UNL     1       0.337  43.323  53.329  1.00  0.00    -0.193 NA
ENDROOT
BRANCH   1  11
ATOM     11  N   UNL     1       1.687  42.296  51.691  1.00  0.00    -0.352 N 
ATOM     12  H   UNL     1       1.710  41.337  52.033  1.00  0.00     0.163 HD
BRANCH  11  13
ATOM     13  C   UNL     1       2.818  42.632  50.838  1.00  0.00     0.144 C 
BRANCH  13  14
ATOM     14  C   UNL     1       3.470  41.343  50.318  1.00  0.00     0.181 C 
BRANCH  14  15
ATOM     15  O   UNL     1       4.775  41.123  50.871  1.00  0.00    -0.383 OA
ATOM     16  C   UNL     1       5.831  41.499  49.998  1.00  0.00     0.194 C 
ENDBRANCH  14  15
ENDBRANCH  13  14
ENDBRANCH  11  13
ENDBRANCH   1  11
BRANCH   3  17
ATOM     17  N   UNL     1       3.918  44.966  54.875  1.00  0.00    -0.339 N 
ATOM     18  H   UNL     1       3.980  44.958  55.883  1.00  0.00     0.168 HD
BRANCH  17  19
ATOM     19  C   UNL     1       5.072  45.458  54.240  1.00  0.00     0.040 A 
ATOM     20  C   UNL     1       6.079  46.165  54.885  1.00  0.00     0.026 A 
ATOM     21  C   UNL     1       5.254  45.187  52.874  1.00  0.00     0.029 A 
ATOM     22  C   UNL     1       7.209  46.608  54.188  1.00  0.00     0.006 A 
ATOM     23  C   UNL     1       6.394  45.610  52.150  1.00  0.00    -0.046 A 
ATOM     24  C   UNL     1       7.387  46.356  52.812  1.00  0.00    -0.042 A 
ATOM     25  C   UNL     1       6.441  45.261  50.689  1.00  0.00     0.045 C 
BRANCH  24  26
ATOM     26  C   UNL     1       8.666  46.900  52.184  1.00  0.00     0.013 C 
ATOM     27  C   UNL     1       8.456  48.295  51.591  1.00  0.00     0.012 C 
ATOM     28  C   UNL     1       9.902  46.848  53.083  1.00  0.00     0.012 C 
ENDBRANCH  24  26
ENDBRANCH  17  19
ENDBRANCH   3  17
TORSDOF 7
ENDMDL
MODEL 7
REMARK VINA RESULT:    -8.084      2.242      4.590
REMARK INTER + INTRA:         -12.348
REMARK INTER:                 -11.547
REMARK INTRA:                  -0.801
REMARK UNBOUND:                -0.956
REMARK SMILES COCCNc1nc(Nc2ccc(C(C)C)c(C)c2)c2cnn(C)c2n1
REMARK SMILES IDX 6 1 7 2 8 3 20 4 21 5 22 6 23 7 24 8 25 9 26 10 5 11 4 13
REMARK SMILES IDX 3 14 2 15 1 16 9 17 10 19 11 20 19 21 12 22 17 23 13 24
REMARK SMILES IDX 18 25 14 26 15 27 16 28
REMARK H PARENT 5 12 9 18
ROOT
ATOM      1  C   UNL     1       0.616  44.336  53.445  1.00  0.00     0.226 A 
ATOM      2  N   UNL     1       1.924  44.408  53.748  1.00  0.00    -0.195 NA
ATOM      3  C   UNL     1       2.341  44.856  54.961  1.00  0.00     0.147 A 
ATOM      4  C   UNL     1       1.341  45.242  55.864  1.00  0.00     0.082 A 
ATOM      5  C   UNL     1       1.245  45.752  57.175  1.00  0.00     0.149 A 
ATOM      6  N   UNL     1      -0.019  45.952  57.568  1.00  0.00    -0.179 NA
ATOM      7  N   UNL     1      -0.740  45.555  56.493  1.00  0.00    -0.250 N 
ATOM      8  C   UNL     1      -2.179  45.612  56.544  1.00  0.00     0.176 C 
ATOM      9  C   UNL     1       0.030  45.131  55.445  1.00  0.00     0.165 A 
ATOM     10  N   UNL     1      -0.393  44.692  54.251  1.00  0.00    -0.193 NA
ENDROOT
BRANCH   1  11
ATOM     11  N   UNL     1       0.339  43.849  52.175  1.00  0.00    -0.352 N 
ATOM     12  H   UNL     1       0.041  42.883  52.300  1.00  0.00     0.163 HD
BRANCH  11  13
ATOM     13  C   UNL     1       1.430  43.999  51.223  1.00  0.00     0.144 C 
BRANCH  13  14
ATOM     14  C   UNL     1       2.001  42.616  50.874  1.00  0.00     0.181 C 
BRANCH  14  15
ATOM     15  O   UNL     1       3.359  42.455  51.309  1.00  0.00    -0.383 OA
ATOM     16  C   UNL     1       4.065  41.448  50.599  1.00  0.00     0.194 C 
ENDBRANCH  14  15
ENDBRANCH  13  14
ENDBRANCH  11  13
ENDBRANCH   1  11
BRANCH   3  17
ATOM     17  N   UNL     1       3.701  44.955  55.293  1.00  0.00    -0.339 N 
ATOM     18  H   UNL     1       3.928  44.563  56.196  1.00  0.00     0.168 HD
BRANCH  17  19
ATOM     19  C   UNL     1       4.818  45.424  54.581  1.00  0.00     0.040 A 
ATOM     20  C   UNL     1       5.762  46.303  55.096  1.00  0.00     0.026 A 
ATOM     21  C   UNL     1       5.031  44.949  53.276  1.00  0.00     0.029 A 
ATOM     22  C   UNL     1       6.860  46.712  54.331  1.00  0.00     0.006 A 
ATOM     23  C   UNL     1       6.141  45.334  52.488  1.00  0.00    -0.046 A 
ATOM     24  C   UNL     1       7.069  46.253  53.014  1.00  0.00    -0.042 A 
ATOM     25  C   UNL     1       6.227  44.755  51.103  1.00  0.00     0.045 C 
BRANCH  24  26
ATOM     26  C   UNL     1       8.307  46.784  52.299  1.00  0.00     0.013 C 
ATOM     27  C   UNL     1       8.217  48.292  52.055  1.00  0.00     0.012 C 
ATOM     28  C   UNL     1       9.641  46.393  52.938  1.00  0.00     0.012 C 
ENDBRANCH  24  26
ENDBRANCH  17  19
ENDBRANCH   3  17
TORSDOF 7
ENDMDL
MODEL 8
REMARK VINA RESULT:    -7.925      2.039      3.907
REMARK INTER + INTRA:         -12.123
REMARK INTER:                 -11.048
REMARK INTRA:                  -1.075
REMARK UNBOUND:                -0.956
REMARK SMILES COCCNc1nc(Nc2ccc(C(C)C)c(C)c2)c2cnn(C)c2n1
REMARK SMILES IDX 6 1 7 2 8 3 20 4 21 5 22 6 23 7 24 8 25 9 26 10 5 11 4 13
REMARK SMILES IDX 3 14 2 15 1 16 9 17 10 19 11 20 19 21 12 22 17 23 13 24
REMARK SMILES IDX 18 25 14 26 15 27 16 28
REMARK H PARENT 5 12 9 18
ROOT
ATOM      1  C   UNL     1       0.366  44.350  52.133  1.00  0.00     0.226 A 
ATOM      2  N   UNL     1       1.673  44.043  52.082  1.00  0.00    -0.195 NA
ATOM      3  C   UNL     1       2.460  44.135  53.187  1.00  0.00     0.147 A 
ATOM      4  C   UNL     1       1.838  44.571  54.364  1.00  0.00     0.082 A 
ATOM      5  C   UNL     1       2.185  44.827  55.707  1.00  0.00     0.149 A 
ATOM      6  N   UNL     1       1.151  45.248  56.444  1.00  0.00    -0.179 NA
ATOM      7  N   UNL     1       0.126  45.253  55.559  1.00  0.00    -0.250 N 
ATOM      8  C   UNL     1      -1.189  45.646  55.999  1.00  0.00     0.176 C 
ATOM      9  C   UNL     1       0.490  44.864  54.300  1.00  0.00     0.165 A 
ATOM     10  N   UNL     1      -0.295  44.779  53.217  1.00  0.00    -0.193 NA
ENDROOT
BRANCH   1  11
ATOM     11  N   UNL     1      -0.314  44.199  50.932  1.00  0.00    -0.352 N 
ATOM     12  H   UNL     1      -0.059  45.001  50.358  1.00  0.00     0.163 HD
BRANCH  11  13
ATOM     13  C   UNL     1      -1.752  44.024  51.073  1.00  0.00     0.144 C 
BRANCH  13  14
ATOM     14  C   UNL     1      -2.482  45.187  50.385  1.00  0.00     0.181 C 
BRANCH  14  15
ATOM     15  O   UNL     1      -2.546  46.361  51.207  1.00  0.00    -0.383 OA
ATOM     16  C   UNL     1      -3.472  46.253  52.279  1.00  0.00     0.194 C 
ENDBRANCH  14  15
ENDBRANCH  13  14
ENDBRANCH  11  13
ENDBRANCH   1  11
BRANCH   3  17
ATOM     17  N   UNL     1       3.830  43.834  53.153  1.00  0.00    -0.339 N 
ATOM     18  H   UNL     1       4.030  42.846  53.208  1.00  0.00     0.168 HD
BRANCH  17  19
ATOM     19  C   UNL     1       4.972  44.636  52.982  1.00  0.00     0.040 A 
ATOM     20  C   UNL     1       5.553  45.396  53.988  1.00  0.00     0.026 A 
ATOM     21  C   UNL     1       5.604  44.645  51.727  1.00  0.00     0.029 A 
ATOM     22  C   UNL     1       6.703  46.156  53.746  1.00  0.00     0.006 A 
ATOM     23  C   UNL     1       6.775  45.393  51.461  1.00  0.00    -0.046 A 
ATOM     24  C   UNL     1       7.330  46.184  52.483  1.00  0.00    -0.042 A 
ATOM     25  C   UNL     1       7.327  45.317  50.064  1.00  0.00     0.045 C 
BRANCH  24  26
ATOM     26  C   UNL     1       8.574  47.058  52.364  1.00  0.00     0.013 C 
ATOM     27  C   UNL     1       8.218  48.507  52.025  1.00  0.00     0.012 C 
ATOM     28  C   UNL     1       9.540  46.974  53.547  1.00  0.00     0.012 C 
ENDBRANCH  24  26
ENDBRANCH  17  19
ENDBRANCH   3  17
TORSDOF 7
ENDMDL
MODEL 9
REMARK VINA RESULT:    -7.895      2.328      4.810
REMARK INTER + INTRA:         -12.081
REMARK INTER:                 -11.116
REMARK INTRA:                  -0.965
REMARK UNBOUND:                -0.956
REMARK SMILES COCCNc1nc(Nc2ccc(C(C)C)c(C)c2)c2cnn(C)c2n1
REMARK SMILES IDX 6 1 7 2 8 3 20 4 21 5 22 6 23 7 24 8 25 9 26 10 5 11 4 13
REMARK SMILES IDX 3 14 2 15 1 16 9 17 10 19 11 20 19 21 12 22 17 23 13 24
REMARK SMILES IDX 18 25 14 26 15 27 16 28
REMARK H PARENT 5 12 9 18
ROOT
ATOM      1  C   UNL     1      -0.243  43.977  54.527  1.00  0.00     0.226 A 
ATOM      2  N   UNL     1       1.098  44.057  54.575  1.00  0.00    -0.195 NA
ATOM      3  C   UNL     1       1.723  44.784  55.539  1.00  0.00     0.147 A 
ATOM      4  C   UNL     1       0.899  45.443  56.461  1.00  0.00     0.082 A 
ATOM      5  C   UNL     1       1.037  46.282  57.586  1.00  0.00     0.149 A 
ATOM      6  N   UNL     1      -0.137  46.642  58.118  1.00  0.00    -0.179 NA
ATOM      7  N   UNL     1      -1.038  46.016  57.324  1.00  0.00    -0.250 N 
ATOM      8  C   UNL     1      -2.445  46.159  57.599  1.00  0.00     0.176 C 
ATOM      9  C   UNL     1      -0.465  45.294  56.313  1.00  0.00     0.165 A 
ATOM     10  N   UNL     1      -1.094  44.582  55.367  1.00  0.00    -0.193 NA
ENDROOT
BRANCH   1  11
ATOM     11  N   UNL     1      -0.741  43.190  53.497  1.00  0.00    -0.352 N 
ATOM     12  H   UNL     1      -1.404  42.546  53.926  1.00  0.00     0.163 HD
BRANCH  11  13
ATOM     13  C   UNL     1       0.279  42.524  52.701  1.00  0.00     0.144 C 
BRANCH  13  14
ATOM     14  C   UNL     1       0.289  43.110  51.281  1.00  0.00     0.181 C 
BRANCH  14  15
ATOM     15  O   UNL     1       1.589  43.561  50.880  1.00  0.00    -0.383 OA
ATOM     16  C   UNL     1       2.639  42.688  51.271  1.00  0.00     0.194 C 
ENDBRANCH  14  15
ENDBRANCH  13  14
ENDBRANCH  11  13
ENDBRANCH   1  11
BRANCH   3  17
ATOM     17  N   UNL     1       3.121  44.895  55.599  1.00  0.00    -0.339 N 
ATOM     18  H   UNL     1       3.507  44.666  56.503  1.00  0.00     0.168 HD
BRANCH  17  19
ATOM     19  C   UNL     1       4.091  45.191  54.626  1.00  0.00     0.040 A 
ATOM     20  C   UNL     1       5.460  45.063  54.821  1.00  0.00     0.026 A 
ATOM     21  C   UNL     1       3.662  45.602  53.353  1.00  0.00     0.029 A 
ATOM     22  C   UNL     1       6.366  45.360  53.797  1.00  0.00     0.006 A 
ATOM     23  C   UNL     1       4.556  45.892  52.295  1.00  0.00    -0.046 A 
ATOM     24  C   UNL     1       5.941  45.791  52.523  1.00  0.00    -0.042 A 
ATOM     25  C   UNL     1       3.949  46.337  50.994  1.00  0.00     0.045 C 
BRANCH  24  26
ATOM     26  C   UNL     1       7.039  46.080  51.504  1.00  0.00     0.013 C 
ATOM     27  C   UNL     1       8.362  46.440  52.184  1.00  0.00     0.012 C 
ATOM     28  C   UNL     1       7.228  45.003  50.434  1.00  0.00     0.012 C 
ENDBRANCH  24  26
ENDBRANCH  17  19
ENDBRANCH   3  17
TORSDOF 7
ENDMDL
MODEL 10
REMARK VINA RESULT:    -7.892      2.511      4.653
REMARK INTER + INTRA:         -12.077
REMARK INTER:                 -11.143
REMARK INTRA:                  -0.934
REMARK UNBOUND:                -0.956
REMARK SMILES COCCNc1nc(Nc2ccc(C(C)C)c(C)c2)c2cnn(C)c2n1
REMARK SMILES IDX 6 1 7 2 8 3 20 4 21 5 22 6 23 7 24 8 25 9 26 10 5 11 4 13
REMARK SMILES IDX 3 14 2 15 1 16 9 17 10 19 11 20 19 21 12 22 17 23 13 24
REMARK SMILES IDX 18 25 14 26 15 27 16 28
REMARK H PARENT 5 12 9 18
ROOT
ATOM      1  C   UNL     1       0.446  44.293  52.075  1.00  0.00     0.226 A 
ATOM      2  N   UNL     1       1.768  44.048  52.106  1.00  0.00    -0.195 NA
ATOM      3  C   UNL     1       2.477  44.174  53.259  1.00  0.00     0.147 A 
ATOM      4  C   UNL     1       1.763  44.575  54.395  1.00  0.00     0.082 A 
ATOM      5  C   UNL     1       2.012  44.842  55.757  1.00  0.00     0.149 A 
ATOM      6  N   UNL     1       0.915  45.210  56.428  1.00  0.00    -0.179 NA
ATOM      7  N   UNL     1      -0.052  45.169  55.481  1.00  0.00    -0.250 N 
ATOM      8  C   UNL     1      -1.409  45.497  55.837  1.00  0.00     0.176 C 
ATOM      9  C   UNL     1       0.409  44.803  54.246  1.00  0.00     0.165 A 
ATOM     10  N   UNL     1      -0.302  44.685  53.116  1.00  0.00    -0.193 NA
ENDROOT
BRANCH   1  11
ATOM     11  N   UNL     1      -0.149  44.114  50.834  1.00  0.00    -0.352 N 
ATOM     12  H   UNL     1       0.344  44.732  50.191  1.00  0.00     0.163 HD
BRANCH  11  13
ATOM     13  C   UNL     1      -1.592  44.304  50.825  1.00  0.00     0.144 C 
BRANCH  13  14
ATOM     14  C   UNL     1      -2.269  43.072  50.207  1.00  0.00     0.181 C 
BRANCH  14  15
ATOM     15  O   UNL     1      -1.731  42.734  48.921  1.00  0.00    -0.383 OA
ATOM     16  C   UNL     1      -2.696  42.762  47.878  1.00  0.00     0.194 C 
ENDBRANCH  14  15
ENDBRANCH  13  14
ENDBRANCH  11  13
ENDBRANCH   1  11
BRANCH   3  17
ATOM     17  N   UNL     1       3.860  43.939  53.311  1.00  0.00    -0.339 N 
ATOM     18  H   UNL     1       4.102  42.991  53.562  1.00  0.00     0.168 HD
BRANCH  17  19
ATOM     19  C   UNL     1       4.970  44.747  53.009  1.00  0.00     0.040 A 
ATOM     20  C   UNL     1       5.507  45.694  53.871  1.00  0.00     0.026 A 
ATOM     21  C   UNL     1       5.617  44.566  51.775  1.00  0.00     0.029 A 
ATOM     22  C   UNL     1       6.627  46.449  53.507  1.00  0.00     0.006 A 
ATOM     23  C   UNL     1       6.760  45.305  51.389  1.00  0.00    -0.046 A 
ATOM     24  C   UNL     1       7.268  46.285  52.261  1.00  0.00    -0.042 A 
ATOM     25  C   UNL     1       7.332  45.012  50.030  1.00  0.00     0.045 C 
BRANCH  24  26
ATOM     26  C   UNL     1       8.477  47.177  51.998  1.00  0.00     0.013 C 
ATOM     27  C   UNL     1       8.123  48.661  52.121  1.00  0.00     0.012 C 
ATOM     28  C   UNL     1       9.729  46.825  52.804  1.00  0.00     0.012 C 
ENDBRANCH  24  26
ENDBRANCH  17  19
ENDBRANCH   3  17
TORSDOF 7
ENDMDL
MODEL 11
REMARK VINA RESULT:    -7.863      4.836      8.118
REMARK INTER + INTRA:         -12.036
REMARK INTER:                 -11.102
REMARK INTRA:                  -0.935
REMARK UNBOUND:                -0.956
REMARK SMILES COCCNc1nc(Nc2ccc(C(C)C)c(C)c2)c2cnn(C)c2n1
REMARK SMILES IDX 6 1 7 2 8 3 20 4 21 5 22 6 23 7 24 8 25 9 26 10 5 11 4 13
REMARK SMILES IDX 3 14 2 15 1 16 9 17 10 19 11 20 19 21 12 22 17 23 13 24
REMARK SMILES IDX 18 25 14 26 15 27 16 28
REMARK H PARENT 5 12 9 18
ROOT
ATOM      1  C   UNL     1       6.847  45.027  50.865  1.00  0.00     0.226 A 
ATOM      2  N   UNL     1       6.951  43.995  50.010  1.00  0.00    -0.195 NA
ATOM      3  C   UNL     1       6.074  42.958  50.052  1.00  0.00     0.147 A 
ATOM      4  C   UNL     1       5.074  43.021  51.032  1.00  0.00     0.082 A 
ATOM      5  C   UNL     1       3.983  42.246  51.476  1.00  0.00     0.149 A 
ATOM      6  N   UNL     1       3.329  42.802  52.502  1.00  0.00    -0.179 NA
ATOM      7  N   UNL     1       4.008  43.955  52.710  1.00  0.00    -0.250 N 
ATOM      8  C   UNL     1       3.579  44.853  53.752  1.00  0.00     0.176 C 
ATOM      9  C   UNL     1       5.066  44.126  51.860  1.00  0.00     0.165 A 
ATOM     10  N   UNL     1       5.926  45.154  51.830  1.00  0.00    -0.193 NA
ENDROOT
BRANCH   1  11
ATOM     11  N   UNL     1       7.804  46.019  50.698  1.00  0.00    -0.352 N 
ATOM     12  H   UNL     1       8.428  45.691  49.962  1.00  0.00     0.163 HD
BRANCH  11  13
ATOM     13  C   UNL     1       8.500  46.396  51.920  1.00  0.00     0.144 C 
BRANCH  13  14
ATOM     14  C   UNL     1       8.227  47.874  52.232  1.00  0.00     0.181 C 
BRANCH  14  15
ATOM     15  O   UNL     1       8.557  48.223  53.584  1.00  0.00    -0.383 OA
ATOM     16  C   UNL     1       9.616  47.448  54.127  1.00  0.00     0.194 C 
ENDBRANCH  14  15
ENDBRANCH  13  14
ENDBRANCH  11  13
ENDBRANCH   1  11
BRANCH   3  17
ATOM     17  N   UNL     1       6.172  41.863  49.180  1.00  0.00    -0.339 N 
ATOM     18  H   UNL     1       6.935  41.237  49.398  1.00  0.00     0.168 HD
BRANCH  17  19
ATOM     19  C   UNL     1       5.371  41.429  48.110  1.00  0.00     0.040 A 
ATOM     20  C   UNL     1       4.275  40.587  48.244  1.00  0.00     0.026 A 
ATOM     21  C   UNL     1       5.659  41.903  46.819  1.00  0.00     0.029 A 
ATOM     22  C   UNL     1       3.512  40.212  47.132  1.00  0.00     0.006 A 
ATOM     23  C   UNL     1       4.895  41.552  45.681  1.00  0.00    -0.046 A 
ATOM     24  C   UNL     1       3.809  40.670  45.832  1.00  0.00    -0.042 A 
ATOM     25  C   UNL     1       5.335  42.125  44.363  1.00  0.00     0.045 C 
BRANCH  24  26
ATOM     26  C   UNL     1       2.894  40.178  44.715  1.00  0.00     0.013 C 
ATOM     27  C   UNL     1       2.725  38.658  44.749  1.00  0.00     0.012 C 
ATOM     28  C   UNL     1       1.546  40.895  44.619  1.00  0.00     0.012 C 
ENDBRANCH  24  26
ENDBRANCH  17  19
ENDBRANCH   3  17
TORSDOF 7
ENDMDL
MODEL 12
REMARK VINA RESULT:    -7.759      2.580      3.706
REMARK INTER + INTRA:         -11.890
REMARK INTER:                 -11.196
REMARK INTRA:                  -0.694
REMARK UNBOUND:                -0.956
REMARK SMILES COCCNc1nc(Nc2ccc(C(C)C)c(C)c2)c2cnn(C)c2n1
REMARK SMILES IDX 6 1 7 2 8 3 20 4 21 5 22 6 23 7 24 8 25 9 26 10 5 11 4 13
REMARK SMILES IDX 3 14 2 15 1 16 9 17 10 19 11 20 19 21 12 22 17 23 13 24
REMARK SMILES IDX 18 25 14 26 15 27 16 28
REMARK H PARENT 5 12 9 18
ROOT
ATOM      1  C   UNL     1       1.313  43.534  51.106  1.00  0.00     0.226 A 
ATOM      2  N   UNL     1       2.015  44.117  52.094  1.00  0.00    -0.195 NA
ATOM      3  C   UNL     1       3.282  43.719  52.383  1.00  0.00     0.147 A 
ATOM      4  C   UNL     1       3.805  42.676  51.607  1.00  0.00     0.082 A 
ATOM      5  C   UNL     1       4.999  41.932  51.508  1.00  0.00     0.149 A 
ATOM      6  N   UNL     1       4.960  41.006  50.543  1.00  0.00    -0.179 NA
ATOM      7  N   UNL     1       3.724  41.168  50.012  1.00  0.00    -0.250 N 
ATOM      8  C   UNL     1       3.311  40.336  48.910  1.00  0.00     0.176 C 
ATOM      9  C   UNL     1       2.993  42.150  50.622  1.00  0.00     0.165 A 
ATOM     10  N   UNL     1       1.742  42.531  50.329  1.00  0.00    -0.193 NA
ENDROOT
BRANCH   1  11
ATOM     11  N   UNL     1       0.038  44.050  50.918  1.00  0.00    -0.352 N 
ATOM     12  H   UNL     1      -0.060  44.816  51.582  1.00  0.00     0.163 HD
BRANCH  11  13
ATOM     13  C   UNL     1      -1.029  43.064  51.012  1.00  0.00     0.144 C 
BRANCH  13  14
ATOM     14  C   UNL     1      -1.814  43.280  52.315  1.00  0.00     0.181 C 
BRANCH  14  15
ATOM     15  O   UNL     1      -1.155  42.714  53.456  1.00  0.00    -0.383 OA
ATOM     16  C   UNL     1      -0.818  43.671  54.450  1.00  0.00     0.194 C 
ENDBRANCH  14  15
ENDBRANCH  13  14
ENDBRANCH  11  13
ENDBRANCH   1  11
BRANCH   3  17
ATOM     17  N   UNL     1       4.027  44.301  53.420  1.00  0.00    -0.339 N 
ATOM     18  H   UNL     1       3.671  44.093  54.342  1.00  0.00     0.168 HD
BRANCH  17  19
ATOM     19  C   UNL     1       5.215  45.053  53.427  1.00  0.00     0.040 A 
ATOM     20  C   UNL     1       5.812  45.562  54.573  1.00  0.00     0.026 A 
ATOM     21  C   UNL     1       5.876  45.276  52.208  1.00  0.00     0.029 A 
ATOM     22  C   UNL     1       7.007  46.287  54.502  1.00  0.00     0.006 A 
ATOM     23  C   UNL     1       7.092  45.993  52.111  1.00  0.00    -0.046 A 
ATOM     24  C   UNL     1       7.664  46.531  53.279  1.00  0.00    -0.042 A 
ATOM     25  C   UNL     1       7.673  46.165  50.735  1.00  0.00     0.045 C 
BRANCH  24  26
ATOM     26  C   UNL     1       8.956  47.337  53.352  1.00  0.00     0.013 C 
ATOM     27  C   UNL     1       9.183  47.918  54.750  1.00  0.00     0.012 C 
ATOM     28  C   UNL     1      10.201  46.615  52.832  1.00  0.00     0.012 C 
ENDBRANCH  24  26
ENDBRANCH  17  19
ENDBRANCH   3  17
TORSDOF 7
ENDMDL
MODEL 13
REMARK VINA RESULT:    -7.728      4.275      6.113
REMARK INTER + INTRA:         -11.846
REMARK INTER:                 -11.136
REMARK INTRA:                  -0.710
REMARK UNBOUND:                -0.956
REMARK SMILES COCCNc1nc(Nc2ccc(C(C)C)c(C)c2)c2cnn(C)c2n1
REMARK SMILES IDX 6 1 7 2 8 3 20 4 21 5 22 6 23 7 24 8 25 9 26 10 5 11 4 13
REMARK SMILES IDX 3 14 2 15 1 16 9 17 10 19 11 20 19 21 12 22 17 23 13 24
REMARK SMILES IDX 18 25 14 26 15 27 16 28
REMARK H PARENT 5 12 9 18
ROOT
ATOM      1  C   UNL     1       3.917  40.947  49.259  1.00  0.00     0.226 A 
ATOM      2  N   UNL     1       5.056  41.656  49.348  1.00  0.00    -0.195 NA
ATOM      3  C   UNL     1       5.777  41.968  48.239  1.00  0.00     0.147 A 
ATOM      4  C   UNL     1       5.275  41.508  47.015  1.00  0.00     0.082 A 
ATOM      5  C   UNL     1       5.623  41.553  45.649  1.00  0.00     0.149 A 
ATOM      6  N   UNL     1       4.748  40.915  44.864  1.00  0.00    -0.179 NA
ATOM      7  N   UNL     1       3.822  40.462  45.742  1.00  0.00    -0.250 N 
ATOM      8  C   UNL     1       2.686  39.721  45.256  1.00  0.00     0.176 C 
ATOM      9  C   UNL     1       4.099  40.785  47.042  1.00  0.00     0.165 A 
ATOM     10  N   UNL     1       3.380  40.468  48.128  1.00  0.00    -0.193 NA
ENDROOT
BRANCH   1  11
ATOM     11  N   UNL     1       3.282  40.713  50.471  1.00  0.00    -0.352 N 
ATOM     12  H   UNL     1       2.300  40.553  50.251  1.00  0.00     0.163 HD
BRANCH  11  13
ATOM     13  C   UNL     1       3.489  41.752  51.469  1.00  0.00     0.144 C 
BRANCH  13  14
ATOM     14  C   UNL     1       2.321  42.749  51.422  1.00  0.00     0.181 C 
BRANCH  14  15
ATOM     15  O   UNL     1       2.677  44.040  51.937  1.00  0.00    -0.383 OA
ATOM     16  C   UNL     1       2.158  45.118  51.171  1.00  0.00     0.194 C 
ENDBRANCH  14  15
ENDBRANCH  13  14
ENDBRANCH  11  13
ENDBRANCH   1  11
BRANCH   3  17
ATOM     17  N   UNL     1       6.976  42.693  48.310  1.00  0.00    -0.339 N 
ATOM     18  H   UNL     1       7.600  42.524  47.533  1.00  0.00     0.168 HD
BRANCH  17  19
ATOM     19  C   UNL     1       7.445  43.664  49.211  1.00  0.00     0.040 A 
ATOM     20  C   UNL     1       8.772  44.061  49.315  1.00  0.00     0.026 A 
ATOM     21  C   UNL     1       6.516  44.317  50.039  1.00  0.00     0.029 A 
ATOM     22  C   UNL     1       9.161  45.049  50.226  1.00  0.00     0.006 A 
ATOM     23  C   UNL     1       6.881  45.330  50.957  1.00  0.00    -0.046 A 
ATOM     24  C   UNL     1       8.235  45.694  51.073  1.00  0.00    -0.042 A 
ATOM     25  C   UNL     1       5.778  45.925  51.787  1.00  0.00     0.045 C 
BRANCH  24  26
ATOM     26  C   UNL     1       8.800  46.750  52.016  1.00  0.00     0.013 C 
ATOM     27  C   UNL     1      10.286  46.518  52.301  1.00  0.00     0.012 C 
ATOM     28  C   UNL     1       8.523  48.198  51.608  1.00  0.00     0.012 C 
ENDBRANCH  24  26
ENDBRANCH  17  19
ENDBRANCH   3  17
TORSDOF 7
ENDMDL
MODEL 14
REMARK VINA RESULT:    -7.668      2.076      4.274
REMARK INTER + INTRA:         -11.762
REMARK INTER:                 -10.939
REMARK INTRA:                  -0.823
REMARK UNBOUND:                -0.956
REMARK SMILES COCCNc1nc(Nc2ccc(C(C)C)c(C)c2)c2cnn(C)c2n1
REMARK SMILES IDX 6 1 7 2 8 3 20 4 21 5 22 6 23 7 24 8 25 9 26 10 5 11 4 13
REMARK SMILES IDX 3 14 2 15 1 16 9 17 10 19 11 20 19 21 12 22 17 23 13 24
REMARK SMILES IDX 18 25 14 26 15 27 16 28
REMARK H PARENT 5 12 9 18
ROOT
ATOM      1  C   UNL     1       0.292  44.180  53.887  1.00  0.00     0.226 A 
ATOM      2  N   UNL     1       1.624  44.231  54.057  1.00  0.00    -0.195 NA
ATOM      3  C   UNL     1       2.169  44.813  55.157  1.00  0.00     0.147 A 
ATOM      4  C   UNL     1       1.274  45.357  56.088  1.00  0.00     0.082 A 
ATOM      5  C   UNL     1       1.320  46.036  57.323  1.00  0.00     0.149 A 
ATOM      6  N   UNL     1       0.108  46.342  57.798  1.00  0.00    -0.179 NA
ATOM      7  N   UNL     1      -0.726  45.843  56.855  1.00  0.00    -0.250 N 
ATOM      8  C   UNL     1      -2.151  45.970  57.029  1.00  0.00     0.176 C 
ATOM      9  C   UNL     1      -0.074  45.252  55.808  1.00  0.00     0.165 A 
ATOM     10  N   UNL     1      -0.624  44.682  54.726  1.00  0.00    -0.193 NA
ENDROOT
BRANCH   1  11
ATOM     11  N   UNL     1      -0.122  43.546  52.723  1.00  0.00    -0.352 N 
ATOM     12  H   UNL     1       0.505  42.752  52.593  1.00  0.00     0.163 HD
BRANCH  11  13
ATOM     13  C   UNL     1      -0.199  44.416  51.559  1.00  0.00     0.144 C 
BRANCH  13  14
ATOM     14  C   UNL     1      -1.670  44.733  51.250  1.00  0.00     0.181 C 
BRANCH  14  15
ATOM     15  O   UNL     1      -2.074  46.015  51.749  1.00  0.00    -0.383 OA
ATOM     16  C   UNL     1      -3.221  46.541  51.097  1.00  0.00     0.194 C 
ENDBRANCH  14  15
ENDBRANCH  13  14
ENDBRANCH  11  13
ENDBRANCH   1  11
BRANCH   3  17
ATOM     17  N   UNL     1       3.557  44.892  55.348  1.00  0.00    -0.339 N 
ATOM     18  H   UNL     1       3.874  44.463  56.206  1.00  0.00     0.168 HD
BRANCH  17  19
ATOM     19  C   UNL     1       4.598  45.385  54.542  1.00  0.00     0.040 A 
ATOM     20  C   UNL     1       5.500  46.363  54.940  1.00  0.00     0.026 A 
ATOM     21  C   UNL     1       4.778  44.831  53.264  1.00  0.00     0.029 A 
ATOM     22  C   UNL     1       6.524  46.790  54.087  1.00  0.00     0.006 A 
ATOM     23  C   UNL     1       5.814  45.234  52.388  1.00  0.00    -0.046 A 
ATOM     24  C   UNL     1       6.696  46.251  52.795  1.00  0.00    -0.042 A 
ATOM     25  C   UNL     1       5.869  44.562  51.045  1.00  0.00     0.045 C 
BRANCH  24  26
ATOM     26  C   UNL     1       7.853  46.813  51.975  1.00  0.00     0.013 C 
ATOM     27  C   UNL     1       8.038  48.314  52.211  1.00  0.00     0.012 C 
ATOM     28  C   UNL     1       9.173  46.053  52.111  1.00  0.00     0.012 C 
ENDBRANCH  24  26
ENDBRANCH  17  19
ENDBRANCH   3  17
TORSDOF 7
ENDMDL
MODEL 15
REMARK VINA RESULT:    -7.602      2.630      4.647
REMARK INTER + INTRA:         -11.669
REMARK INTER:                 -11.814
REMARK INTRA:                   0.145
REMARK UNBOUND:                -0.956
REMARK SMILES COCCNc1nc(Nc2ccc(C(C)C)c(C)c2)c2cnn(C)c2n1
REMARK SMILES IDX 6 1 7 2 8 3 20 4 21 5 22 6 23 7 24 8 25 9 26 10 5 11 4 13
REMARK SMILES IDX 3 14 2 15 1 16 9 17 10 19 11 20 19 21 12 22 17 23 13 24
REMARK SMILES IDX 18 25 14 26 15 27 16 28
REMARK H PARENT 5 12 9 18
ROOT
ATOM      1  C   UNL     1       2.472  45.293  55.326  1.00  0.00     0.226 A 
ATOM      2  N   UNL     1       2.870  44.465  54.344  1.00  0.00    -0.195 NA
ATOM      3  C   UNL     1       1.991  43.629  53.731  1.00  0.00     0.147 A 
ATOM      4  C   UNL     1       0.665  43.674  54.181  1.00  0.00     0.082 A 
ATOM      5  C   UNL     1      -0.566  43.046  53.899  1.00  0.00     0.149 A 
ATOM      6  N   UNL     1      -1.568  43.488  54.668  1.00  0.00    -0.179 NA
ATOM      7  N   UNL     1      -0.969  44.420  55.447  1.00  0.00    -0.250 N 
ATOM      8  C   UNL     1      -1.751  45.143  56.417  1.00  0.00     0.176 C 
ATOM      9  C   UNL     1       0.369  44.560  55.199  1.00  0.00     0.165 A 
ATOM     10  N   UNL     1       1.227  45.387  55.812  1.00  0.00    -0.193 NA
ENDROOT
BRANCH   1  11
ATOM     11  N   UNL     1       3.475  46.096  55.851  1.00  0.00    -0.352 N 
ATOM     12  H   UNL     1       3.072  47.027  55.950  1.00  0.00     0.163 HD
BRANCH  11  13
ATOM     13  C   UNL     1       4.716  46.082  55.091  1.00  0.00     0.144 C 
BRANCH  13  14
ATOM     14  C   UNL     1       4.771  47.313  54.174  1.00  0.00     0.181 C 
BRANCH  14  15
ATOM     15  O   UNL     1       6.100  47.603  53.718  1.00  0.00    -0.383 OA
ATOM     16  C   UNL     1       7.054  46.617  54.088  1.00  0.00     0.194 C 
ENDBRANCH  14  15
ENDBRANCH  13  14
ENDBRANCH  11  13
ENDBRANCH   1  11
BRANCH   3  17
ATOM     17  N   UNL     1       2.387  42.745  52.716  1.00  0.00    -0.339 N 
ATOM     18  H   UNL     1       1.709  42.024  52.518  1.00  0.00     0.168 HD
BRANCH  17  19
ATOM     19  C   UNL     1       3.511  42.714  51.872  1.00  0.00     0.040 A 
ATOM     20  C   UNL     1       3.952  41.583  51.197  1.00  0.00     0.026 A 
ATOM     21  C   UNL     1       4.219  43.907  51.653  1.00  0.00     0.029 A 
ATOM     22  C   UNL     1       5.070  41.634  50.358  1.00  0.00     0.006 A 
ATOM     23  C   UNL     1       5.344  43.989  50.797  1.00  0.00    -0.046 A 
ATOM     24  C   UNL     1       5.797  42.825  50.149  1.00  0.00    -0.042 A 
ATOM     25  C   UNL     1       6.010  45.331  50.675  1.00  0.00     0.045 C 
BRANCH  24  26
ATOM     26  C   UNL     1       6.995  42.732  49.210  1.00  0.00     0.013 C 
ATOM     27  C   UNL     1       6.560  42.535  47.756  1.00  0.00     0.012 C 
ATOM     28  C   UNL     1       8.014  43.865  49.347  1.00  0.00     0.012 C 
ENDBRANCH  24  26
ENDBRANCH  17  19
ENDBRANCH   3  17
TORSDOF 7
ENDMDL
MODEL 16
REMARK VINA RESULT:    -7.552      4.591      7.456
REMARK INTER + INTRA:         -11.598
REMARK INTER:                 -10.533
REMARK INTRA:                  -1.065
REMARK UNBOUND:                -0.956
REMARK SMILES COCCNc1nc(Nc2ccc(C(C)C)c(C)c2)c2cnn(C)c2n1
REMARK SMILES IDX 6 1 7 2 8 3 20 4 21 5 22 6 23 7 24 8 25 9 26 10 5 11 4 13
REMARK SMILES IDX 3 14 2 15 1 16 9 17 10 19 11 20 19 21 12 22 17 23 13 24
REMARK SMILES IDX 18 25 14 26 15 27 16 28
REMARK H PARENT 5 12 9 18
ROOT
ATOM      1  C   UNL     1       3.816  42.795  52.228  1.00  0.00     0.226 A 
ATOM      2  N   UNL     1       4.163  41.970  51.224  1.00  0.00    -0.195 NA
ATOM      3  C   UNL     1       5.182  42.282  50.381  1.00  0.00     0.147 A 
ATOM      4  C   UNL     1       5.836  43.499  50.610  1.00  0.00     0.082 A 
ATOM      5  C   UNL     1       6.893  44.249  50.053  1.00  0.00     0.149 A 
ATOM      6  N   UNL     1       7.112  45.402  50.695  1.00  0.00    -0.179 NA
ATOM      7  N   UNL     1       6.186  45.383  51.683  1.00  0.00    -0.250 N 
ATOM      8  C   UNL     1       6.121  46.480  52.615  1.00  0.00     0.176 C 
ATOM      9  C   UNL     1       5.393  44.269  51.667  1.00  0.00     0.165 A 
ATOM     10  N   UNL     1       4.389  43.975  52.504  1.00  0.00    -0.193 NA
ENDROOT
BRANCH   1  11
ATOM     11  N   UNL     1       2.765  42.343  53.015  1.00  0.00    -0.352 N 
ATOM     12  H   UNL     1       2.806  41.325  52.986  1.00  0.00     0.163 HD
BRANCH  11  13
ATOM     13  C   UNL     1       1.464  42.880  52.647  1.00  0.00     0.144 C 
BRANCH  13  14
ATOM     14  C   UNL     1       0.856  43.622  53.847  1.00  0.00     0.181 C 
BRANCH  14  15
ATOM     15  O   UNL     1       1.501  44.877  54.103  1.00  0.00    -0.383 OA
ATOM     16  C   UNL     1       2.017  44.991  55.422  1.00  0.00     0.194 C 
ENDBRANCH  14  15
ENDBRANCH  13  14
ENDBRANCH  11  13
ENDBRANCH   1  11
BRANCH   3  17
ATOM     17  N   UNL     1       5.550  41.444  49.317  1.00  0.00    -0.339 N 
ATOM     18  H   UNL     1       6.411  40.940  49.476  1.00  0.00     0.168 HD
BRANCH  17  19
ATOM     19  C   UNL     1       4.916  41.114  48.107  1.00  0.00     0.040 A 
ATOM     20  C   UNL     1       3.825  40.260  48.002  1.00  0.00     0.026 A 
ATOM     21  C   UNL     1       5.375  41.713  46.922  1.00  0.00     0.029 A 
ATOM     22  C   UNL     1       3.235  39.993  46.762  1.00  0.00     0.006 A 
ATOM     23  C   UNL     1       4.786  41.472  45.658  1.00  0.00    -0.046 A 
ATOM     24  C   UNL     1       3.705  40.576  45.567  1.00  0.00    -0.042 A 
ATOM     25  C   UNL     1       5.399  42.172  44.477  1.00  0.00     0.045 C 
BRANCH  24  26
ATOM     26  C   UNL     1       2.965  40.194  44.289  1.00  0.00     0.013 C 
ATOM     27  C   UNL     1       3.011  38.684  44.039  1.00  0.00     0.012 C 
ATOM     28  C   UNL     1       1.542  40.743  44.176  1.00  0.00     0.012 C 
ENDBRANCH  24  26
ENDBRANCH  17  19
ENDBRANCH   3  17
TORSDOF 7
ENDMDL
MODEL 17
REMARK VINA RESULT:    -7.511      3.275      8.211
REMARK INTER + INTRA:         -11.540
REMARK INTER:                 -10.537
REMARK INTRA:                  -1.003
REMARK UNBOUND:                -0.956
REMARK SMILES COCCNc1nc(Nc2ccc(C(C)C)c(C)c2)c2cnn(C)c2n1
REMARK SMILES IDX 6 1 7 2 8 3 20 4 21 5 22 6 23 7 24 8 25 9 26 10 5 11 4 13
REMARK SMILES IDX 3 14 2 15 1 16 9 17 10 19 11 20 19 21 12 22 17 23 13 24
REMARK SMILES IDX 18 25 14 26 15 27 16 28
REMARK H PARENT 5 12 9 18
ROOT
ATOM      1  C   UNL     1       5.844  44.585  51.166  1.00  0.00     0.226 A 
ATOM      2  N   UNL     1       4.974  44.184  52.108  1.00  0.00    -0.195 NA
ATOM      3  C   UNL     1       4.941  44.777  53.331  1.00  0.00     0.147 A 
ATOM      4  C   UNL     1       5.861  45.810  53.552  1.00  0.00     0.082 A 
ATOM      5  C   UNL     1       6.222  46.697  54.588  1.00  0.00     0.149 A 
ATOM      6  N   UNL     1       7.219  47.521  54.247  1.00  0.00    -0.179 NA
ATOM      7  N   UNL     1       7.492  47.162  52.971  1.00  0.00    -0.250 N 
ATOM      8  C   UNL     1       8.526  47.854  52.245  1.00  0.00     0.176 C 
ATOM      9  C   UNL     1       6.711  46.136  52.514  1.00  0.00     0.165 A 
ATOM     10  N   UNL     1       6.755  45.558  51.305  1.00  0.00    -0.193 NA
ENDROOT
BRANCH   1  11
ATOM     11  N   UNL     1       5.756  43.897  49.963  1.00  0.00    -0.352 N 
ATOM     12  H   UNL     1       4.783  43.608  49.872  1.00  0.00     0.163 HD
BRANCH  11  13
ATOM     13  C   UNL     1       6.701  42.798  49.828  1.00  0.00     0.144 C 
BRANCH  13  14
ATOM     14  C   UNL     1       5.942  41.508  49.481  1.00  0.00     0.181 C 
BRANCH  14  15
ATOM     15  O   UNL     1       5.049  41.096  50.525  1.00  0.00    -0.383 OA
ATOM     16  C   UNL     1       3.694  41.009  50.111  1.00  0.00     0.194 C 
ENDBRANCH  14  15
ENDBRANCH  13  14
ENDBRANCH  11  13
ENDBRANCH   1  11
BRANCH   3  17
ATOM     17  N   UNL     1       4.052  44.364  54.336  1.00  0.00    -0.339 N 
ATOM     18  H   UNL     1       4.508  43.940  55.132  1.00  0.00     0.168 HD
BRANCH  17  19
ATOM     19  C   UNL     1       2.661  44.495  54.482  1.00  0.00     0.040 A 
ATOM     20  C   UNL     1       1.730  44.030  53.562  1.00  0.00     0.026 A 
ATOM     21  C   UNL     1       2.161  45.094  55.650  1.00  0.00     0.029 A 
ATOM     22  C   UNL     1       0.357  44.181  53.786  1.00  0.00     0.006 A 
ATOM     23  C   UNL     1       0.778  45.244  55.908  1.00  0.00    -0.046 A 
ATOM     24  C   UNL     1      -0.150  44.799  54.948  1.00  0.00    -0.042 A 
ATOM     25  C   UNL     1       0.395  45.921  57.194  1.00  0.00     0.045 C 
BRANCH  24  26
ATOM     26  C   UNL     1      -1.668  44.896  55.058  1.00  0.00     0.013 C 
ATOM     27  C   UNL     1      -2.329  44.998  53.682  1.00  0.00     0.012 C 
ATOM     28  C   UNL     1      -2.324  43.818  55.922  1.00  0.00     0.012 C 
ENDBRANCH  24  26
ENDBRANCH  17  19
ENDBRANCH   3  17
TORSDOF 7
ENDMDL
MODEL 18
REMARK VINA RESULT:    -7.486      3.566      8.173
REMARK INTER + INTRA:         -11.505
REMARK INTER:                 -10.348
REMARK INTRA:                  -1.157
REMARK UNBOUND:                -0.956
REMARK SMILES COCCNc1nc(Nc2ccc(C(C)C)c(C)c2)c2cnn(C)c2n1
REMARK SMILES IDX 6 1 7 2 8 3 20 4 21 5 22 6 23 7 24 8 25 9 26 10 5 11 4 13
REMARK SMILES IDX 3 14 2 15 1 16 9 17 10 19 11 20 19 21 12 22 17 23 13 24
REMARK SMILES IDX 18 25 14 26 15 27 16 28
REMARK H PARENT 5 12 9 18
ROOT
ATOM      1  C   UNL     1       6.782  44.436  50.100  1.00  0.00     0.226 A 
ATOM      2  N   UNL     1       5.579  44.915  50.463  1.00  0.00    -0.195 NA
ATOM      3  C   UNL     1       5.471  45.966  51.318  1.00  0.00     0.147 A 
ATOM      4  C   UNL     1       6.669  46.509  51.800  1.00  0.00     0.082 A 
ATOM      5  C   UNL     1       7.087  47.544  52.662  1.00  0.00     0.149 A 
ATOM      6  N   UNL     1       8.417  47.629  52.773  1.00  0.00    -0.179 NA
ATOM      7  N   UNL     1       8.856  46.638  51.961  1.00  0.00    -0.250 N 
ATOM      8  C   UNL     1      10.273  46.424  51.805  1.00  0.00     0.176 C 
ATOM      9  C   UNL     1       7.847  45.934  51.363  1.00  0.00     0.165 A 
ATOM     10  N   UNL     1       7.967  44.897  50.523  1.00  0.00    -0.193 NA
ENDROOT
BRANCH   1  11
ATOM     11  N   UNL     1       6.739  43.369  49.213  1.00  0.00    -0.352 N 
ATOM     12  H   UNL     1       5.951  43.547  48.592  1.00  0.00     0.163 HD
BRANCH  11  13
ATOM     13  C   UNL     1       6.688  42.060  49.849  1.00  0.00     0.144 C 
BRANCH  13  14
ATOM     14  C   UNL     1       5.300  41.438  49.634  1.00  0.00     0.181 C 
BRANCH  14  15
ATOM     15  O   UNL     1       4.652  41.095  50.866  1.00  0.00    -0.383 OA
ATOM     16  C   UNL     1       3.706  42.063  51.298  1.00  0.00     0.194 C 
ENDBRANCH  14  15
ENDBRANCH  13  14
ENDBRANCH  11  13
ENDBRANCH   1  11
BRANCH   3  17
ATOM     17  N   UNL     1       4.226  46.472  51.723  1.00  0.00    -0.339 N 
ATOM     18  H   UNL     1       4.154  47.477  51.653  1.00  0.00     0.168 HD
BRANCH  17  19
ATOM     19  C   UNL     1       3.037  45.846  52.135  1.00  0.00     0.040 A 
ATOM     20  C   UNL     1       2.070  45.354  51.268  1.00  0.00     0.026 A 
ATOM     21  C   UNL     1       2.818  45.659  53.510  1.00  0.00     0.029 A 
ATOM     22  C   UNL     1       0.918  44.725  51.754  1.00  0.00     0.006 A 
ATOM     23  C   UNL     1       1.670  45.012  54.027  1.00  0.00    -0.046 A 
ATOM     24  C   UNL     1       0.684  44.552  53.134  1.00  0.00    -0.042 A 
ATOM     25  C   UNL     1       1.566  44.901  55.522  1.00  0.00     0.045 C 
BRANCH  24  26
ATOM     26  C   UNL     1      -0.614  43.851  53.519  1.00  0.00     0.013 C 
ATOM     27  C   UNL     1      -1.745  44.851  53.769  1.00  0.00     0.012 C 
ATOM     28  C   UNL     1      -1.049  42.730  52.573  1.00  0.00     0.012 C 
ENDBRANCH  24  26
ENDBRANCH  17  19
ENDBRANCH   3  17
TORSDOF 7
ENDMDL
MODEL 19
REMARK VINA RESULT:    -7.431      3.043      7.473
REMARK INTER + INTRA:         -11.427
REMARK INTER:                 -10.764
REMARK INTRA:                  -0.663
REMARK UNBOUND:                -0.956
REMARK SMILES COCCNc1nc(Nc2ccc(C(C)C)c(C)c2)c2cnn(C)c2n1
REMARK SMILES IDX 6 1 7 2 8 3 20 4 21 5 22 6 23 7 24 8 25 9 26 10 5 11 4 13
REMARK SMILES IDX 3 14 2 15 1 16 9 17 10 19 11 20 19 21 12 22 17 23 13 24
REMARK SMILES IDX 18 25 14 26 15 27 16 28
REMARK H PARENT 5 12 9 18
ROOT
ATOM      1  C   UNL     1       5.290  45.511  51.997  1.00  0.00     0.226 A 
ATOM      2  N   UNL     1       4.285  44.811  52.553  1.00  0.00    -0.195 NA
ATOM      3  C   UNL     1       4.036  43.527  52.185  1.00  0.00     0.147 A 
ATOM      4  C   UNL     1       4.871  42.984  51.199  1.00  0.00     0.082 A 
ATOM      5  C   UNL     1       5.026  41.768  50.501  1.00  0.00     0.149 A 
ATOM      6  N   UNL     1       6.034  41.794  49.622  1.00  0.00    -0.179 NA
ATOM      7  N   UNL     1       6.537  43.042  49.768  1.00  0.00    -0.250 N 
ATOM      8  C   UNL     1       7.672  43.447  48.978  1.00  0.00     0.176 C 
ATOM      9  C   UNL     1       5.868  43.795  50.694  1.00  0.00     0.165 A 
ATOM     10  N   UNL     1       6.122  45.063  51.047  1.00  0.00    -0.193 NA
ENDROOT
BRANCH   1  11
ATOM     11  N   UNL     1       5.433  46.805  52.478  1.00  0.00    -0.352 N 
ATOM     12  H   UNL     1       5.025  47.417  51.773  1.00  0.00     0.163 HD
BRANCH  11  13
ATOM     13  C   UNL     1       6.796  47.166  52.837  1.00  0.00     0.144 C 
BRANCH  13  14
ATOM     14  C   UNL     1       7.043  46.834  54.316  1.00  0.00     0.181 C 
BRANCH  14  15
ATOM     15  O   UNL     1       8.082  47.637  54.895  1.00  0.00    -0.383 OA
ATOM     16  C   UNL     1       9.289  47.629  54.146  1.00  0.00     0.194 C 
ENDBRANCH  14  15
ENDBRANCH  13  14
ENDBRANCH  11  13
ENDBRANCH   1  11
BRANCH   3  17
ATOM     17  N   UNL     1       2.984  42.783  52.740  1.00  0.00    -0.339 N 
ATOM     18  H   UNL     1       3.180  41.795  52.814  1.00  0.00     0.168 HD
BRANCH  17  19
ATOM     19  C   UNL     1       1.742  43.157  53.282  1.00  0.00     0.040 A 
ATOM     20  C   UNL     1       0.520  42.644  52.866  1.00  0.00     0.026 A 
ATOM     21  C   UNL     1       1.722  44.077  54.343  1.00  0.00     0.029 A 
ATOM     22  C   UNL     1      -0.676  43.052  53.467  1.00  0.00     0.006 A 
ATOM     23  C   UNL     1       0.528  44.494  54.978  1.00  0.00    -0.046 A 
ATOM     24  C   UNL     1      -0.703  43.990  54.520  1.00  0.00    -0.042 A 
ATOM     25  C   UNL     1       0.663  45.498  56.089  1.00  0.00     0.045 C 
BRANCH  24  26
ATOM     26  C   UNL     1      -2.078  44.342  55.078  1.00  0.00     0.013 C 
ATOM     27  C   UNL     1      -3.167  44.241  54.007  1.00  0.00     0.012 C 
ATOM     28  C   UNL     1      -2.469  43.596  56.355  1.00  0.00     0.012 C 
ENDBRANCH  24  26
ENDBRANCH  17  19
ENDBRANCH   3  17
TORSDOF 7
ENDMDL
MODEL 20
REMARK VINA RESULT:    -7.269      3.302      8.133
REMARK INTER + INTRA:         -11.199
REMARK INTER:                 -10.200
REMARK INTRA:                  -0.999
REMARK UNBOUND:                -0.956
REMARK SMILES COCCNc1nc(Nc2ccc(C(C)C)c(C)c2)c2cnn(C)c2n1
REMARK SMILES IDX 6 1 7 2 8 3 20 4 21 5 22 6 23 7 24 8 25 9 26 10 5 11 4 13
REMARK SMILES IDX 3 14 2 15 1 16 9 17 10 19 11 20 19 21 12 22 17 23 13 24
REMARK SMILES IDX 18 25 14 26 15 27 16 28
REMARK H PARENT 5 12 9 18
ROOT
ATOM      1  C   UNL     1       5.792  44.573  51.078  1.00  0.00     0.226 A 
ATOM      2  N   UNL     1       4.923  44.153  52.013  1.00  0.00    -0.195 NA
ATOM      3  C   UNL     1       4.864  44.749  53.234  1.00  0.00     0.147 A 
ATOM      4  C   UNL     1       5.756  45.806  53.460  1.00  0.00     0.082 A 
ATOM      5  C   UNL     1       6.085  46.704  54.496  1.00  0.00     0.149 A 
ATOM      6  N   UNL     1       7.063  47.553  54.162  1.00  0.00    -0.179 NA
ATOM      7  N   UNL     1       7.358  47.196  52.889  1.00  0.00    -0.250 N 
ATOM      8  C   UNL     1       8.380  47.913  52.171  1.00  0.00     0.176 C 
ATOM      9  C   UNL     1       6.607  46.150  52.429  1.00  0.00     0.165 A 
ATOM     10  N   UNL     1       6.677  45.570  51.222  1.00  0.00    -0.193 NA
ENDROOT
BRANCH   1  11
ATOM     11  N   UNL     1       5.733  43.880  49.876  1.00  0.00    -0.352 N 
ATOM     12  H   UNL     1       4.755  43.626  49.743  1.00  0.00     0.163 HD
BRANCH  11  13
ATOM     13  C   UNL     1       6.640  42.744  49.792  1.00  0.00     0.144 C 
BRANCH  13  14
ATOM     14  C   UNL     1       5.851  41.484  49.405  1.00  0.00     0.181 C 
BRANCH  14  15
ATOM     15  O   UNL     1       4.821  41.166  50.351  1.00  0.00    -0.383 OA
ATOM     16  C   UNL     1       3.593  40.788  49.747  1.00  0.00     0.194 C 
ENDBRANCH  14  15
ENDBRANCH  13  14
ENDBRANCH  11  13
ENDBRANCH   1  11
BRANCH   3  17
ATOM     17  N   UNL     1       3.977  44.317  54.231  1.00  0.00    -0.339 N 
ATOM     18  H   UNL     1       4.435  44.009  55.077  1.00  0.00     0.168 HD
BRANCH  17  19
ATOM     19  C   UNL     1       2.573  44.301  54.309  1.00  0.00     0.040 A 
ATOM     20  C   UNL     1       1.824  45.138  55.126  1.00  0.00     0.026 A 
ATOM     21  C   UNL     1       1.865  43.414  53.480  1.00  0.00     0.029 A 
ATOM     22  C   UNL     1       0.427  45.075  55.135  1.00  0.00     0.006 A 
ATOM     23  C   UNL     1       0.452  43.342  53.460  1.00  0.00    -0.046 A 
ATOM     24  C   UNL     1      -0.289  44.174  54.320  1.00  0.00    -0.042 A 
ATOM     25  C   UNL     1      -0.164  42.332  52.532  1.00  0.00     0.045 C 
BRANCH  24  26
ATOM     26  C   UNL     1      -1.809  44.215  54.435  1.00  0.00     0.013 C 
ATOM     27  C   UNL     1      -2.260  44.468  55.876  1.00  0.00     0.012 C 
ATOM     28  C   UNL     1      -2.508  45.154  53.450  1.00  0.00     0.012 C 
ENDBRANCH  24  26
ENDBRANCH  17  19
ENDBRANCH   3  17
TORSDOF 7
ENDMDL
