MODEL 1
REMARK VINA RESULT:    -8.341      0.000      0.000
REMARK INTER + INTRA:         -13.587
REMARK INTER:                 -12.242
REMARK INTRA:                  -1.345
REMARK UNBOUND:                -1.345
REMARK SMILES CCOCCCNc1nc(Nc2ccccc2Br)c2cnn(C)c2n1
REMARK SMILES IDX 6 1 5 2 4 3 3 4 2 5 1 6 7 7 8 9 9 10 25 11 10 12 24 13 19 14
REMARK SMILES IDX 22 15 20 16 21 17 23 18 11 19 12 21 13 22 17 23 14 24 16 25
REMARK SMILES IDX 15 26 18 27
REMARK H PARENT 7 8 11 20
ROOT
ATOM      1  C   UNL     1       4.179  45.670  55.412  1.00  0.00     0.118 C 
ENDROOT
BRANCH   1   2
ATOM      2  C   UNL     1       2.666  45.869  55.428  1.00  0.00     0.050 C 
BRANCH   2   3
ATOM      3  C   UNL     1       2.047  45.684  54.045  1.00  0.00     0.162 C 
BRANCH   3   4
ATOM      4  O   UNL     1       2.403  46.770  53.185  1.00  0.00    -0.382 OA
BRANCH   4   5
ATOM      5  C   UNL     1       2.439  46.402  51.808  1.00  0.00     0.156 C 
ATOM      6  C   UNL     1       1.619  45.139  51.632  1.00  0.00     0.035 C 
ENDBRANCH   4   5
ENDBRANCH   3   4
ENDBRANCH   2   3
ENDBRANCH   1   2
BRANCH   1   7
ATOM      7  N   UNL     1       4.839  46.913  55.049  1.00  0.00    -0.354 N 
ATOM      8  H   UNL     1       5.166  47.472  55.831  1.00  0.00     0.163 HD
BRANCH   7   9
ATOM      9  C   UNL     1       5.954  46.757  54.231  1.00  0.00     0.226 A 
ATOM     10  N   UNL     1       5.681  46.269  53.008  1.00  0.00    -0.195 NA
ATOM     11  N   UNL     1       7.169  47.082  54.689  1.00  0.00    -0.193 NA
ATOM     12  C   UNL     1       6.681  46.056  52.113  1.00  0.00     0.147 A 
ATOM     13  C   UNL     1       8.140  46.863  53.791  1.00  0.00     0.165 A 
ATOM     14  C   UNL     1       7.986  46.364  52.512  1.00  0.00     0.082 A 
ATOM     15  N   UNL     1       9.481  47.080  53.957  1.00  0.00    -0.250 N 
ATOM     16  C   UNL     1       9.299  46.327  51.998  1.00  0.00     0.149 A 
ATOM     17  N   UNL     1      10.217  46.768  52.867  1.00  0.00    -0.179 NA
ATOM     18  C   UNL     1      10.138  47.588  55.135  1.00  0.00     0.176 C 
BRANCH  12  19
ATOM     19  N   UNL     1       6.280  45.538  50.862  1.00  0.00    -0.339 N 
ATOM     20  H   UNL     1       5.499  46.141  50.599  1.00  0.00     0.168 HD
BRANCH  19  21
ATOM     21  C   UNL     1       5.971  44.182  50.613  1.00  0.00     0.054 A 
ATOM     22  C   UNL     1       4.781  43.659  51.139  1.00  0.00     0.027 A 
ATOM     23  C   UNL     1       6.777  43.349  49.819  1.00  0.00     0.041 A 
ATOM     24  C   UNL     1       4.407  42.337  50.888  1.00  0.00     0.002 A 
ATOM     25  C   UNL     1       6.403  42.026  49.565  1.00  0.00     0.018 A 
ATOM     26  C   UNL     1       5.217  41.523  50.100  1.00  0.00     0.001 A 
ATOM     27  Br  UNL     1       8.411  43.971  49.074  1.00  0.00    -0.049 Br
ENDBRANCH  19  21
ENDBRANCH  12  19
ENDBRANCH   7   9
ENDBRANCH   1   7
TORSDOF 8
ENDMDL
MODEL 2
REMARK VINA RESULT:    -7.802      2.018      5.114
REMARK INTER + INTRA:         -12.796
REMARK INTER:                 -11.241
REMARK INTRA:                  -1.554
REMARK UNBOUND:                -1.345
REMARK SMILES CCOCCCNc1nc(Nc2ccccc2Br)c2cnn(C)c2n1
REMARK SMILES IDX 6 1 5 2 4 3 3 4 2 5 1 6 7 7 8 9 9 10 25 11 10 12 24 13 19 14
REMARK SMILES IDX 22 15 20 16 21 17 23 18 11 19 12 21 13 22 17 23 14 24 16 25
REMARK SMILES IDX 15 26 18 27
REMARK H PARENT 7 8 11 20
ROOT
ATOM      1  C   UNL     1       2.200  44.683  53.181  1.00  0.00     0.118 C 
ENDROOT
BRANCH   1   2
ATOM      2  C   UNL     1       1.975  45.294  54.561  1.00  0.00     0.050 C 
BRANCH   2   3
ATOM      3  C   UNL     1       3.271  45.402  55.361  1.00  0.00     0.162 C 
BRANCH   3   4
ATOM      4  O   UNL     1       3.982  46.592  55.010  1.00  0.00    -0.382 OA
BRANCH   4   5
ATOM      5  C   UNL     1       5.391  46.396  54.929  1.00  0.00     0.156 C 
ATOM      6  C   UNL     1       5.670  44.909  55.015  1.00  0.00     0.035 C 
ENDBRANCH   4   5
ENDBRANCH   3   4
ENDBRANCH   2   3
ENDBRANCH   1   2
BRANCH   1   7
ATOM      7  N   UNL     1       3.031  45.565  52.377  1.00  0.00    -0.354 N 
ATOM      8  H   UNL     1       3.516  46.290  52.897  1.00  0.00     0.163 HD
BRANCH   7   9
ATOM      9  C   UNL     1       4.026  44.918  51.652  1.00  0.00     0.226 A 
ATOM     10  N   UNL     1       5.107  45.675  51.395  1.00  0.00    -0.195 NA
ATOM     11  N   UNL     1       3.855  43.646  51.271  1.00  0.00    -0.193 NA
ATOM     12  C   UNL     1       6.149  45.169  50.684  1.00  0.00     0.147 A 
ATOM     13  C   UNL     1       4.892  43.168  50.570  1.00  0.00     0.165 A 
ATOM     14  C   UNL     1       6.050  43.846  50.240  1.00  0.00     0.082 A 
ATOM     15  N   UNL     1       5.018  41.916  50.032  1.00  0.00    -0.250 N 
ATOM     16  C   UNL     1       6.802  42.905  49.507  1.00  0.00     0.149 A 
ATOM     17  N   UNL     1       6.186  41.723  49.380  1.00  0.00    -0.179 NA
ATOM     18  C   UNL     1       4.058  40.843  50.100  1.00  0.00     0.176 C 
BRANCH  12  19
ATOM     19  N   UNL     1       7.229  46.054  50.470  1.00  0.00    -0.339 N 
ATOM     20  H   UNL     1       7.726  45.631  49.685  1.00  0.00     0.168 HD
BRANCH  19  21
ATOM     21  C   UNL     1       8.136  46.473  51.469  1.00  0.00     0.054 A 
ATOM     22  C   UNL     1       7.729  47.469  52.368  1.00  0.00     0.027 A 
ATOM     23  C   UNL     1       9.408  45.900  51.634  1.00  0.00     0.041 A 
ATOM     24  C   UNL     1       8.571  47.889  53.401  1.00  0.00     0.002 A 
ATOM     25  C   UNL     1      10.251  46.318  52.668  1.00  0.00     0.018 A 
ATOM     26  C   UNL     1       9.829  47.312  53.551  1.00  0.00     0.001 A 
ATOM     27  Br  UNL     1      10.046  44.551  50.456  1.00  0.00    -0.049 Br
ENDBRANCH  19  21
ENDBRANCH  12  19
ENDBRANCH   7   9
ENDBRANCH   1   7
TORSDOF 8
ENDMDL
MODEL 3
REMARK VINA RESULT:    -7.727      1.647      2.026
REMARK INTER + INTRA:         -12.686
REMARK INTER:                 -11.662
REMARK INTRA:                  -1.024
REMARK UNBOUND:                -1.345
REMARK SMILES CCOCCCNc1nc(Nc2ccccc2Br)c2cnn(C)c2n1
REMARK SMILES IDX 6 1 5 2 4 3 3 4 2 5 1 6 7 7 8 9 9 10 25 11 10 12 24 13 19 14
REMARK SMILES IDX 22 15 20 16 21 17 23 18 11 19 12 21 13 22 17 23 14 24 16 25
REMARK SMILES IDX 15 26 18 27
REMARK H PARENT 7 8 11 20
ROOT
ATOM      1  C   UNL     1       3.505  46.698  54.512  1.00  0.00     0.118 C 
ENDROOT
BRANCH   1   2
ATOM      2  C   UNL     1       2.876  45.668  55.446  1.00  0.00     0.050 C 
BRANCH   2   3
ATOM      3  C   UNL     1       1.453  45.307  55.028  1.00  0.00     0.162 C 
BRANCH   3   4
ATOM      4  O   UNL     1       1.408  43.984  54.485  1.00  0.00    -0.382 OA
BRANCH   4   5
ATOM      5  C   UNL     1       0.088  43.564  54.149  1.00  0.00     0.156 C 
ATOM      6  C   UNL     1       0.190  42.423  53.157  1.00  0.00     0.035 C 
ENDBRANCH   4   5
ENDBRANCH   3   4
ENDBRANCH   2   3
ENDBRANCH   1   2
BRANCH   1   7
ATOM      7  N   UNL     1       4.781  47.142  55.051  1.00  0.00    -0.354 N 
ATOM      8  H   UNL     1       5.042  46.724  55.939  1.00  0.00     0.163 HD
BRANCH   7   9
ATOM      9  C   UNL     1       5.870  46.916  54.215  1.00  0.00     0.226 A 
ATOM     10  N   UNL     1       5.547  46.451  52.996  1.00  0.00    -0.195 NA
ATOM     11  N   UNL     1       7.110  47.161  54.654  1.00  0.00    -0.193 NA
ATOM     12  C   UNL     1       6.516  46.176  52.084  1.00  0.00     0.147 A 
ATOM     13  C   UNL     1       8.051  46.881  53.740  1.00  0.00     0.165 A 
ATOM     14  C   UNL     1       7.844  46.397  52.462  1.00  0.00     0.082 A 
ATOM     15  N   UNL     1       9.405  47.011  53.885  1.00  0.00    -0.250 N 
ATOM     16  C   UNL     1       9.144  46.277  51.927  1.00  0.00     0.149 A 
ATOM     17  N   UNL     1      10.102  46.655  52.783  1.00  0.00    -0.179 NA
ATOM     18  C   UNL     1      10.113  47.471  55.053  1.00  0.00     0.176 C 
BRANCH  12  19
ATOM     19  N   UNL     1       6.062  45.689  50.838  1.00  0.00    -0.339 N 
ATOM     20  H   UNL     1       5.104  46.036  50.787  1.00  0.00     0.168 HD
BRANCH  19  21
ATOM     21  C   UNL     1       6.127  44.337  50.430  1.00  0.00     0.054 A 
ATOM     22  C   UNL     1       7.247  43.911  49.702  1.00  0.00     0.027 A 
ATOM     23  C   UNL     1       5.144  43.391  50.765  1.00  0.00     0.041 A 
ATOM     24  C   UNL     1       7.381  42.577  49.311  1.00  0.00     0.002 A 
ATOM     25  C   UNL     1       5.278  42.055  50.375  1.00  0.00     0.018 A 
ATOM     26  C   UNL     1       6.398  41.650  49.649  1.00  0.00     0.001 A 
ATOM     27  Br  UNL     1       3.589  43.882  51.740  1.00  0.00    -0.049 Br
ENDBRANCH  19  21
ENDBRANCH  12  19
ENDBRANCH   7   9
ENDBRANCH   1   7
TORSDOF 8
ENDMDL
MODEL 4
REMARK VINA RESULT:    -7.599      2.434      5.377
REMARK INTER + INTRA:         -12.497
REMARK INTER:                 -11.295
REMARK INTRA:                  -1.202
REMARK UNBOUND:                -1.345
REMARK SMILES CCOCCCNc1nc(Nc2ccccc2Br)c2cnn(C)c2n1
REMARK SMILES IDX 6 1 5 2 4 3 3 4 2 5 1 6 7 7 8 9 9 10 25 11 10 12 24 13 19 14
REMARK SMILES IDX 22 15 20 16 21 17 23 18 11 19 12 21 13 22 17 23 14 24 16 25
REMARK SMILES IDX 15 26 18 27
REMARK H PARENT 7 8 11 20
ROOT
ATOM      1  C   UNL     1       1.726  43.427  52.475  1.00  0.00     0.118 C 
ENDROOT
BRANCH   1   2
ATOM      2  C   UNL     1       0.702  42.866  53.458  1.00  0.00     0.050 C 
BRANCH   2   3
ATOM      3  C   UNL     1      -0.160  43.962  54.078  1.00  0.00     0.162 C 
BRANCH   3   4
ATOM      4  O   UNL     1       0.637  45.101  54.413  1.00  0.00    -0.382 OA
BRANCH   4   5
ATOM      5  C   UNL     1       1.171  45.039  55.733  1.00  0.00     0.156 C 
ATOM      6  C   UNL     1       2.567  45.629  55.710  1.00  0.00     0.035 C 
ENDBRANCH   4   5
ENDBRANCH   3   4
ENDBRANCH   2   3
ENDBRANCH   1   2
BRANCH   1   7
ATOM      7  N   UNL     1       3.056  43.373  53.059  1.00  0.00    -0.354 N 
ATOM      8  H   UNL     1       3.290  42.497  53.517  1.00  0.00     0.163 HD
BRANCH   7   9
ATOM      9  C   UNL     1       4.092  43.592  52.157  1.00  0.00     0.226 A 
ATOM     10  N   UNL     1       4.715  44.774  52.303  1.00  0.00    -0.195 NA
ATOM     11  N   UNL     1       4.389  42.661  51.242  1.00  0.00    -0.193 NA
ATOM     12  C   UNL     1       5.738  45.121  51.478  1.00  0.00     0.147 A 
ATOM     13  C   UNL     1       5.399  43.023  50.438  1.00  0.00     0.165 A 
ATOM     14  C   UNL     1       6.110  44.207  50.487  1.00  0.00     0.082 A 
ATOM     15  N   UNL     1       5.928  42.303  49.403  1.00  0.00    -0.250 N 
ATOM     16  C   UNL     1       7.046  44.088  49.438  1.00  0.00     0.149 A 
ATOM     17  N   UNL     1       6.948  42.929  48.775  1.00  0.00    -0.179 NA
ATOM     18  C   UNL     1       5.511  40.999  48.950  1.00  0.00     0.176 C 
BRANCH  12  19
ATOM     19  N   UNL     1       6.315  46.387  51.720  1.00  0.00    -0.339 N 
ATOM     20  H   UNL     1       6.335  46.816  50.794  1.00  0.00     0.168 HD
BRANCH  19  21
ATOM     21  C   UNL     1       7.538  46.598  52.396  1.00  0.00     0.054 A 
ATOM     22  C   UNL     1       8.727  46.571  51.652  1.00  0.00     0.027 A 
ATOM     23  C   UNL     1       7.612  46.885  53.769  1.00  0.00     0.041 A 
ATOM     24  C   UNL     1       9.959  46.816  52.262  1.00  0.00     0.002 A 
ATOM     25  C   UNL     1       8.845  47.132  54.380  1.00  0.00     0.018 A 
ATOM     26  C   UNL     1      10.017  47.098  53.625  1.00  0.00     0.001 A 
ATOM     27  Br  UNL     1       6.054  46.933  54.855  1.00  0.00    -0.049 Br
ENDBRANCH  19  21
ENDBRANCH  12  19
ENDBRANCH   7   9
ENDBRANCH   1   7
TORSDOF 8
ENDMDL
MODEL 5
REMARK VINA RESULT:    -7.556      2.812      5.970
REMARK INTER + INTRA:         -12.435
REMARK INTER:                 -11.579
REMARK INTRA:                  -0.856
REMARK UNBOUND:                -1.345
REMARK SMILES CCOCCCNc1nc(Nc2ccccc2Br)c2cnn(C)c2n1
REMARK SMILES IDX 6 1 5 2 4 3 3 4 2 5 1 6 7 7 8 9 9 10 25 11 10 12 24 13 19 14
REMARK SMILES IDX 22 15 20 16 21 17 23 18 11 19 12 21 13 22 17 23 14 24 16 25
REMARK SMILES IDX 15 26 18 27
REMARK H PARENT 7 8 11 20
ROOT
ATOM      1  C   UNL     1       5.713  45.141  54.983  1.00  0.00     0.118 C 
ENDROOT
BRANCH   1   2
ATOM      2  C   UNL     1       6.010  46.607  54.684  1.00  0.00     0.050 C 
BRANCH   2   3
ATOM      3  C   UNL     1       7.400  46.802  54.083  1.00  0.00     0.162 C 
BRANCH   3   4
ATOM      4  O   UNL     1       8.245  47.515  54.990  1.00  0.00    -0.382 OA
BRANCH   4   5
ATOM      5  C   UNL     1       9.584  47.646  54.519  1.00  0.00     0.156 C 
ATOM      6  C   UNL     1       9.712  46.865  53.227  1.00  0.00     0.035 C 
ENDBRANCH   4   5
ENDBRANCH   3   4
ENDBRANCH   2   3
ENDBRANCH   1   2
BRANCH   1   7
ATOM      7  N   UNL     1       4.500  45.032  55.776  1.00  0.00    -0.354 N 
ATOM      8  H   UNL     1       4.315  45.820  56.390  1.00  0.00     0.163 HD
BRANCH   7   9
ATOM      9  C   UNL     1       3.335  44.877  55.031  1.00  0.00     0.226 A 
ATOM     10  N   UNL     1       3.540  44.658  53.721  1.00  0.00    -0.195 NA
ATOM     11  N   UNL     1       2.142  44.955  55.633  1.00  0.00    -0.193 NA
ATOM     12  C   UNL     1       2.487  44.501  52.876  1.00  0.00     0.147 A 
ATOM     13  C   UNL     1       1.118  44.800  54.782  1.00  0.00     0.165 A 
ATOM     14  C   UNL     1       1.201  44.574  53.421  1.00  0.00     0.082 A 
ATOM     15  N   UNL     1      -0.217  44.839  55.082  1.00  0.00    -0.250 N 
ATOM     16  C   UNL     1      -0.144  44.489  53.005  1.00  0.00     0.149 A 
ATOM     17  N   UNL     1      -1.016  44.642  54.010  1.00  0.00    -0.179 NA
ATOM     18  C   UNL     1      -0.809  45.060  56.377  1.00  0.00     0.176 C 
BRANCH  12  19
ATOM     19  N   UNL     1       2.819  44.279  51.521  1.00  0.00    -0.339 N 
ATOM     20  H   UNL     1       1.920  44.052  51.094  1.00  0.00     0.168 HD
BRANCH  19  21
ATOM     21  C   UNL     1       3.824  43.393  51.073  1.00  0.00     0.054 A 
ATOM     22  C   UNL     1       3.506  42.033  50.940  1.00  0.00     0.027 A 
ATOM     23  C   UNL     1       5.111  43.820  50.707  1.00  0.00     0.041 A 
ATOM     24  C   UNL     1       4.449  41.121  50.461  1.00  0.00     0.002 A 
ATOM     25  C   UNL     1       6.055  42.908  50.225  1.00  0.00     0.018 A 
ATOM     26  C   UNL     1       5.721  41.559  50.102  1.00  0.00     0.001 A 
ATOM     27  Br  UNL     1       5.631  45.641  50.864  1.00  0.00    -0.049 Br
ENDBRANCH  19  21
ENDBRANCH  12  19
ENDBRANCH   7   9
ENDBRANCH   1   7
TORSDOF 8
ENDMDL
MODEL 6
REMARK VINA RESULT:    -7.526      2.283      5.130
REMARK INTER + INTRA:         -12.390
REMARK INTER:                 -11.098
REMARK INTRA:                  -1.292
REMARK UNBOUND:                -1.345
REMARK SMILES CCOCCCNc1nc(Nc2ccccc2Br)c2cnn(C)c2n1
REMARK SMILES IDX 6 1 5 2 4 3 3 4 2 5 1 6 7 7 8 9 9 10 25 11 10 12 24 13 19 14
REMARK SMILES IDX 22 15 20 16 21 17 23 18 11 19 12 21 13 22 17 23 14 24 16 25
REMARK SMILES IDX 15 26 18 27
REMARK H PARENT 7 8 11 20
ROOT
ATOM      1  C   UNL     1       3.312  44.564  54.157  1.00  0.00     0.118 C 
ENDROOT
BRANCH   1   2
ATOM      2  C   UNL     1       2.044  45.412  54.190  1.00  0.00     0.050 C 
BRANCH   2   3
ATOM      3  C   UNL     1       1.927  46.319  52.968  1.00  0.00     0.162 C 
BRANCH   3   4
ATOM      4  O   UNL     1       1.328  45.616  51.876  1.00  0.00    -0.382 OA
BRANCH   4   5
ATOM      5  C   UNL     1       0.035  45.103  52.185  1.00  0.00     0.156 C 
ATOM      6  C   UNL     1      -0.106  43.742  51.533  1.00  0.00     0.035 C 
ENDBRANCH   4   5
ENDBRANCH   3   4
ENDBRANCH   2   3
ENDBRANCH   1   2
BRANCH   1   7
ATOM      7  N   UNL     1       3.277  43.663  53.017  1.00  0.00    -0.354 N 
ATOM      8  H   UNL     1       2.439  43.724  52.446  1.00  0.00     0.163 HD
BRANCH   7   9
ATOM      9  C   UNL     1       4.331  43.821  52.123  1.00  0.00     0.226 A 
ATOM     10  N   UNL     1       5.008  44.975  52.262  1.00  0.00    -0.195 NA
ATOM     11  N   UNL     1       4.593  42.866  51.223  1.00  0.00    -0.193 NA
ATOM     12  C   UNL     1       6.055  45.262  51.445  1.00  0.00     0.147 A 
ATOM     13  C   UNL     1       5.627  43.171  50.426  1.00  0.00     0.165 A 
ATOM     14  C   UNL     1       6.394  44.319  50.469  1.00  0.00     0.082 A 
ATOM     15  N   UNL     1       6.133  42.413  49.405  1.00  0.00    -0.250 N 
ATOM     16  C   UNL     1       7.333  44.143  49.432  1.00  0.00     0.149 A 
ATOM     17  N   UNL     1       7.188  42.982  48.781  1.00  0.00    -0.179 NA
ATOM     18  C   UNL     1       5.658  41.125  48.963  1.00  0.00     0.176 C 
BRANCH  12  19
ATOM     19  N   UNL     1       6.689  46.502  51.679  1.00  0.00    -0.339 N 
ATOM     20  H   UNL     1       6.885  46.846  50.738  1.00  0.00     0.168 HD
BRANCH  19  21
ATOM     21  C   UNL     1       7.809  46.688  52.521  1.00  0.00     0.054 A 
ATOM     22  C   UNL     1       9.091  46.556  51.969  1.00  0.00     0.027 A 
ATOM     23  C   UNL     1       7.694  47.048  53.875  1.00  0.00     0.041 A 
ATOM     24  C   UNL     1      10.231  46.771  52.748  1.00  0.00     0.002 A 
ATOM     25  C   UNL     1       8.834  47.265  54.653  1.00  0.00     0.018 A 
ATOM     26  C   UNL     1      10.102  47.127  54.088  1.00  0.00     0.001 A 
ATOM     27  Br  UNL     1       5.997  47.239  54.707  1.00  0.00    -0.049 Br
ENDBRANCH  19  21
ENDBRANCH  12  19
ENDBRANCH   7   9
ENDBRANCH   1   7
TORSDOF 8
ENDMDL
MODEL 7
REMARK VINA RESULT:    -7.439      2.830      6.227
REMARK INTER + INTRA:         -12.263
REMARK INTER:                 -11.275
REMARK INTRA:                  -0.987
REMARK UNBOUND:                -1.345
REMARK SMILES CCOCCCNc1nc(Nc2ccccc2Br)c2cnn(C)c2n1
REMARK SMILES IDX 6 1 5 2 4 3 3 4 2 5 1 6 7 7 8 9 9 10 25 11 10 12 24 13 19 14
REMARK SMILES IDX 22 15 20 16 21 17 23 18 11 19 12 21 13 22 17 23 14 24 16 25
REMARK SMILES IDX 15 26 18 27
REMARK H PARENT 7 8 11 20
ROOT
ATOM      1  C   UNL     1       6.028  41.544  50.128  1.00  0.00     0.118 C 
ENDROOT
BRANCH   1   2
ATOM      2  C   UNL     1       5.870  41.476  48.612  1.00  0.00     0.050 C 
BRANCH   2   3
ATOM      3  C   UNL     1       4.567  40.795  48.199  1.00  0.00     0.162 C 
BRANCH   3   4
ATOM      4  O   UNL     1       4.282  41.047  46.821  1.00  0.00    -0.382 OA
BRANCH   4   5
ATOM      5  C   UNL     1       5.396  41.583  46.111  1.00  0.00     0.156 C 
ATOM      6  C   UNL     1       4.887  42.200  44.823  1.00  0.00     0.035 C 
ENDBRANCH   4   5
ENDBRANCH   3   4
ENDBRANCH   2   3
ENDBRANCH   1   2
BRANCH   1   7
ATOM      7  N   UNL     1       4.728  41.720  50.755  1.00  0.00    -0.354 N 
ATOM      8  H   UNL     1       4.511  41.052  51.489  1.00  0.00     0.163 HD
BRANCH   7   9
ATOM      9  C   UNL     1       4.533  42.968  51.339  1.00  0.00     0.226 A 
ATOM     10  N   UNL     1       5.392  43.915  50.923  1.00  0.00    -0.195 NA
ATOM     11  N   UNL     1       3.553  43.141  52.234  1.00  0.00    -0.193 NA
ATOM     12  C   UNL     1       5.321  45.177  51.423  1.00  0.00     0.147 A 
ATOM     13  C   UNL     1       3.502  44.391  52.715  1.00  0.00     0.165 A 
ATOM     14  C   UNL     1       4.328  45.444  52.371  1.00  0.00     0.082 A 
ATOM     15  N   UNL     1       2.628  44.881  53.647  1.00  0.00    -0.250 N 
ATOM     16  C   UNL     1       3.857  46.519  53.153  1.00  0.00     0.149 A 
ATOM     17  N   UNL     1       2.817  46.189  53.930  1.00  0.00    -0.179 NA
ATOM     18  C   UNL     1       1.577  44.156  54.316  1.00  0.00     0.176 C 
BRANCH  12  19
ATOM     19  N   UNL     1       6.275  46.088  50.918  1.00  0.00    -0.339 N 
ATOM     20  H   UNL     1       6.411  45.775  49.956  1.00  0.00     0.168 HD
BRANCH  19  21
ATOM     21  C   UNL     1       7.516  46.375  51.530  1.00  0.00     0.054 A 
ATOM     22  C   UNL     1       7.544  47.298  52.585  1.00  0.00     0.027 A 
ATOM     23  C   UNL     1       8.714  45.740  51.162  1.00  0.00     0.041 A 
ATOM     24  C   UNL     1       8.736  47.587  53.253  1.00  0.00     0.002 A 
ATOM     25  C   UNL     1       9.907  46.026  51.831  1.00  0.00     0.018 A 
ATOM     26  C   UNL     1       9.916  46.950  52.877  1.00  0.00     0.001 A 
ATOM     27  Br  UNL     1       8.771  44.483  49.738  1.00  0.00    -0.049 Br
ENDBRANCH  19  21
ENDBRANCH  12  19
ENDBRANCH   7   9
ENDBRANCH   1   7
TORSDOF 8
ENDMDL
MODEL 8
REMARK VINA RESULT:    -7.427      2.114      4.974
REMARK INTER + INTRA:         -12.245
REMARK INTER:                 -10.967
REMARK INTRA:                  -1.278
REMARK UNBOUND:                -1.345
REMARK SMILES CCOCCCNc1nc(Nc2ccccc2Br)c2cnn(C)c2n1
REMARK SMILES IDX 6 1 5 2 4 3 3 4 2 5 1 6 7 7 8 9 9 10 25 11 10 12 24 13 19 14
REMARK SMILES IDX 22 15 20 16 21 17 23 18 11 19 12 21 13 22 17 23 14 24 16 25
REMARK SMILES IDX 15 26 18 27
REMARK H PARENT 7 8 11 20
ROOT
ATOM      1  C   UNL     1       3.407  46.397  53.803  1.00  0.00     0.118 C 
ENDROOT
BRANCH   1   2
ATOM      2  C   UNL     1       3.222  45.334  54.882  1.00  0.00     0.050 C 
BRANCH   2   3
ATOM      3  C   UNL     1       1.777  44.850  54.971  1.00  0.00     0.162 C 
BRANCH   3   4
ATOM      4  O   UNL     1       1.599  43.652  54.210  1.00  0.00    -0.382 OA
BRANCH   4   5
ATOM      5  C   UNL     1       0.306  43.554  53.619  1.00  0.00     0.156 C 
ATOM      6  C   UNL     1       0.392  42.608  52.439  1.00  0.00     0.035 C 
ENDBRANCH   4   5
ENDBRANCH   3   4
ENDBRANCH   2   3
ENDBRANCH   1   2
BRANCH   1   7
ATOM      7  N   UNL     1       2.961  45.882  52.518  1.00  0.00    -0.354 N 
ATOM      8  H   UNL     1       2.625  46.585  51.867  1.00  0.00     0.163 HD
BRANCH   7   9
ATOM      9  C   UNL     1       3.930  45.175  51.813  1.00  0.00     0.226 A 
ATOM     10  N   UNL     1       5.038  45.882  51.530  1.00  0.00    -0.195 NA
ATOM     11  N   UNL     1       3.710  43.899  51.474  1.00  0.00    -0.193 NA
ATOM     12  C   UNL     1       6.058  45.314  50.834  1.00  0.00     0.147 A 
ATOM     13  C   UNL     1       4.727  43.360  50.787  1.00  0.00     0.165 A 
ATOM     14  C   UNL     1       5.909  43.983  50.434  1.00  0.00     0.082 A 
ATOM     15  N   UNL     1       4.803  42.087  50.290  1.00  0.00    -0.250 N 
ATOM     16  C   UNL     1       6.623  42.990  49.731  1.00  0.00     0.149 A 
ATOM     17  N   UNL     1       5.962  41.829  49.643  1.00  0.00    -0.179 NA
ATOM     18  C   UNL     1       3.804  41.054  50.393  1.00  0.00     0.176 C 
BRANCH  12  19
ATOM     19  N   UNL     1       7.170  46.151  50.591  1.00  0.00    -0.339 N 
ATOM     20  H   UNL     1       7.630  45.702  49.798  1.00  0.00     0.168 HD
BRANCH  19  21
ATOM     21  C   UNL     1       8.117  46.536  51.567  1.00  0.00     0.054 A 
ATOM     22  C   UNL     1       7.756  47.521  52.497  1.00  0.00     0.027 A 
ATOM     23  C   UNL     1       9.384  45.939  51.678  1.00  0.00     0.041 A 
ATOM     24  C   UNL     1       8.638  47.908  53.508  1.00  0.00     0.002 A 
ATOM     25  C   UNL     1      10.267  46.324  52.691  1.00  0.00     0.018 A 
ATOM     26  C   UNL     1       9.892  47.308  53.606  1.00  0.00     0.001 A 
ATOM     27  Br  UNL     1       9.960  44.603  50.455  1.00  0.00    -0.049 Br
ENDBRANCH  19  21
ENDBRANCH  12  19
ENDBRANCH   7   9
ENDBRANCH   1   7
TORSDOF 8
ENDMDL
MODEL 9
REMARK VINA RESULT:    -7.426      2.351      4.775
REMARK INTER + INTRA:         -12.245
REMARK INTER:                 -10.585
REMARK INTRA:                  -1.660
REMARK UNBOUND:                -1.345
REMARK SMILES CCOCCCNc1nc(Nc2ccccc2Br)c2cnn(C)c2n1
REMARK SMILES IDX 6 1 5 2 4 3 3 4 2 5 1 6 7 7 8 9 9 10 25 11 10 12 24 13 19 14
REMARK SMILES IDX 22 15 20 16 21 17 23 18 11 19 12 21 13 22 17 23 14 24 16 25
REMARK SMILES IDX 15 26 18 27
REMARK H PARENT 7 8 11 20
ROOT
ATOM      1  C   UNL     1       6.425  42.448  50.019  1.00  0.00     0.118 C 
ENDROOT
BRANCH   1   2
ATOM      2  C   UNL     1       5.480  41.404  49.432  1.00  0.00     0.050 C 
BRANCH   2   3
ATOM      3  C   UNL     1       4.176  41.299  50.219  1.00  0.00     0.162 C 
BRANCH   3   4
ATOM      4  O   UNL     1       4.358  41.770  51.558  1.00  0.00    -0.382 OA
BRANCH   4   5
ATOM      5  C   UNL     1       3.259  42.546  52.029  1.00  0.00     0.156 C 
ATOM      6  C   UNL     1       2.224  42.626  50.925  1.00  0.00     0.035 C 
ENDBRANCH   4   5
ENDBRANCH   3   4
ENDBRANCH   2   3
ENDBRANCH   1   2
BRANCH   1   7
ATOM      7  N   UNL     1       5.957  43.784  49.686  1.00  0.00    -0.354 N 
ATOM      8  H   UNL     1       4.948  43.884  49.628  1.00  0.00     0.163 HD
BRANCH   7   9
ATOM      9  C   UNL     1       6.364  44.775  50.573  1.00  0.00     0.226 A 
ATOM     10  N   UNL     1       5.357  45.410  51.197  1.00  0.00    -0.195 NA
ATOM     11  N   UNL     1       7.668  45.025  50.742  1.00  0.00    -0.193 NA
ATOM     12  C   UNL     1       5.614  46.409  52.081  1.00  0.00     0.147 A 
ATOM     13  C   UNL     1       7.900  46.015  51.616  1.00  0.00     0.165 A 
ATOM     14  C   UNL     1       6.953  46.741  52.313  1.00  0.00     0.082 A 
ATOM     15  N   UNL     1       9.117  46.513  51.994  1.00  0.00    -0.250 N 
ATOM     16  C   UNL     1       7.713  47.646  53.083  1.00  0.00     0.149 A 
ATOM     17  N   UNL     1       9.033  47.511  52.902  1.00  0.00    -0.179 NA
ATOM     18  C   UNL     1      10.412  46.084  51.530  1.00  0.00     0.176 C 
BRANCH  12  19
ATOM     19  N   UNL     1       4.480  47.008  52.673  1.00  0.00    -0.339 N 
ATOM     20  H   UNL     1       4.883  47.615  53.388  1.00  0.00     0.168 HD
BRANCH  19  21
ATOM     21  C   UNL     1       3.370  46.299  53.185  1.00  0.00     0.054 A 
ATOM     22  C   UNL     1       2.156  46.362  52.486  1.00  0.00     0.027 A 
ATOM     23  C   UNL     1       3.443  45.494  54.334  1.00  0.00     0.041 A 
ATOM     24  C   UNL     1       1.040  45.646  52.925  1.00  0.00     0.002 A 
ATOM     25  C   UNL     1       2.327  44.776  54.773  1.00  0.00     0.018 A 
ATOM     26  C   UNL     1       1.126  44.853  54.066  1.00  0.00     0.001 A 
ATOM     27  Br  UNL     1       5.044  45.358  55.347  1.00  0.00    -0.049 Br
ENDBRANCH  19  21
ENDBRANCH  12  19
ENDBRANCH   7   9
ENDBRANCH   1   7
TORSDOF 8
ENDMDL
MODEL 10
REMARK VINA RESULT:    -7.409      2.777      5.901
REMARK INTER + INTRA:         -12.220
REMARK INTER:                 -11.478
REMARK INTRA:                  -0.742
REMARK UNBOUND:                -1.345
REMARK SMILES CCOCCCNc1nc(Nc2ccccc2Br)c2cnn(C)c2n1
REMARK SMILES IDX 6 1 5 2 4 3 3 4 2 5 1 6 7 7 8 9 9 10 25 11 10 12 24 13 19 14
REMARK SMILES IDX 22 15 20 16 21 17 23 18 11 19 12 21 13 22 17 23 14 24 16 25
REMARK SMILES IDX 15 26 18 27
REMARK H PARENT 7 8 11 20
ROOT
ATOM      1  C   UNL     1       6.105  45.274  54.985  1.00  0.00     0.118 C 
ENDROOT
BRANCH   1   2
ATOM      2  C   UNL     1       6.219  46.743  54.589  1.00  0.00     0.050 C 
BRANCH   2   3
ATOM      3  C   UNL     1       7.551  47.054  53.911  1.00  0.00     0.162 C 
BRANCH   3   4
ATOM      4  O   UNL     1       8.512  47.501  54.871  1.00  0.00    -0.382 OA
BRANCH   4   5
ATOM      5  C   UNL     1       9.858  47.278  54.458  1.00  0.00     0.156 C 
ATOM      6  C   UNL     1       9.844  46.850  53.004  1.00  0.00     0.035 C 
ENDBRANCH   4   5
ENDBRANCH   3   4
ENDBRANCH   2   3
ENDBRANCH   1   2
BRANCH   1   7
ATOM      7  N   UNL     1       4.884  45.058  55.745  1.00  0.00    -0.354 N 
ATOM      8  H   UNL     1       4.658  45.789  56.412  1.00  0.00     0.163 HD
BRANCH   7   9
ATOM      9  C   UNL     1       3.739  44.916  54.967  1.00  0.00     0.226 A 
ATOM     10  N   UNL     1       3.977  44.666  53.668  1.00  0.00    -0.195 NA
ATOM     11  N   UNL     1       2.531  45.033  55.531  1.00  0.00    -0.193 NA
ATOM     12  C   UNL     1       2.946  44.517  52.795  1.00  0.00     0.147 A 
ATOM     13  C   UNL     1       1.529  44.885  54.653  1.00  0.00     0.165 A 
ATOM     14  C   UNL     1       1.647  44.631  53.299  1.00  0.00     0.082 A 
ATOM     15  N   UNL     1       0.187  44.960  54.911  1.00  0.00    -0.250 N 
ATOM     16  C   UNL     1       0.313  44.569  52.845  1.00  0.00     0.149 A 
ATOM     17  N   UNL     1      -0.584  44.761  53.819  1.00  0.00    -0.179 NA
ATOM     18  C   UNL     1      -0.438  45.220  56.183  1.00  0.00     0.176 C 
BRANCH  12  19
ATOM     19  N   UNL     1       3.314  44.262  51.455  1.00  0.00    -0.339 N 
ATOM     20  H   UNL     1       2.878  43.359  51.261  1.00  0.00     0.168 HD
BRANCH  19  21
ATOM     21  C   UNL     1       4.638  44.294  50.963  1.00  0.00     0.054 A 
ATOM     22  C   UNL     1       5.307  45.526  50.923  1.00  0.00     0.027 A 
ATOM     23  C   UNL     1       5.331  43.140  50.560  1.00  0.00     0.041 A 
ATOM     24  C   UNL     1       6.631  45.607  50.486  1.00  0.00     0.002 A 
ATOM     25  C   UNL     1       6.657  43.221  50.124  1.00  0.00     0.018 A 
ATOM     26  C   UNL     1       7.305  44.455  50.089  1.00  0.00     0.001 A 
ATOM     27  Br  UNL     1       4.499  41.432  50.572  1.00  0.00    -0.049 Br
ENDBRANCH  19  21
ENDBRANCH  12  19
ENDBRANCH   7   9
ENDBRANCH   1   7
TORSDOF 8
ENDMDL
MODEL 11
REMARK VINA RESULT:    -7.371      2.688      6.414
REMARK INTER + INTRA:         -12.163
REMARK INTER:                 -11.344
REMARK INTRA:                  -0.819
REMARK UNBOUND:                -1.345
REMARK SMILES CCOCCCNc1nc(Nc2ccccc2Br)c2cnn(C)c2n1
REMARK SMILES IDX 6 1 5 2 4 3 3 4 2 5 1 6 7 7 8 9 9 10 25 11 10 12 24 13 19 14
REMARK SMILES IDX 22 15 20 16 21 17 23 18 11 19 12 21 13 22 17 23 14 24 16 25
REMARK SMILES IDX 15 26 18 27
REMARK H PARENT 7 8 11 20
ROOT
ATOM      1  C   UNL     1       8.913  46.065  51.729  1.00  0.00     0.118 C 
ENDROOT
BRANCH   1   2
ATOM      2  C   UNL     1       9.525  47.167  52.588  1.00  0.00     0.050 C 
BRANCH   2   3
ATOM      3  C   UNL     1       8.531  47.725  53.603  1.00  0.00     0.162 C 
BRANCH   3   4
ATOM      4  O   UNL     1       9.015  47.541  54.936  1.00  0.00    -0.382 OA
BRANCH   4   5
ATOM      5  C   UNL     1      10.390  47.168  54.983  1.00  0.00     0.156 C 
ATOM      6  C   UNL     1      10.956  47.602  56.320  1.00  0.00     0.035 C 
ENDBRANCH   4   5
ENDBRANCH   3   4
ENDBRANCH   2   3
ENDBRANCH   1   2
BRANCH   1   7
ATOM      7  N   UNL     1       7.734  46.568  51.042  1.00  0.00    -0.354 N 
ATOM      8  H   UNL     1       7.860  46.755  50.052  1.00  0.00     0.163 HD
BRANCH   7   9
ATOM      9  C   UNL     1       6.625  45.730  51.110  1.00  0.00     0.226 A 
ATOM     10  N   UNL     1       5.529  46.302  51.639  1.00  0.00    -0.195 NA
ATOM     11  N   UNL     1       6.713  44.470  50.669  1.00  0.00    -0.193 NA
ATOM     12  C   UNL     1       4.379  45.591  51.775  1.00  0.00     0.147 A 
ATOM     13  C   UNL     1       5.569  43.786  50.814  1.00  0.00     0.165 A 
ATOM     14  C   UNL     1       4.384  44.260  51.345  1.00  0.00     0.082 A 
ATOM     15  N   UNL     1       5.339  42.481  50.473  1.00  0.00    -0.250 N 
ATOM     16  C   UNL     1       3.509  43.156  51.270  1.00  0.00     0.149 A 
ATOM     17  N   UNL     1       4.079  42.069  50.735  1.00  0.00    -0.179 NA
ATOM     18  C   UNL     1       6.280  41.558  49.890  1.00  0.00     0.176 C 
BRANCH  12  19
ATOM     19  N   UNL     1       3.294  46.290  52.347  1.00  0.00    -0.339 N 
ATOM     20  H   UNL     1       3.740  47.095  52.788  1.00  0.00     0.168 HD
BRANCH  19  21
ATOM     21  C   UNL     1       2.331  45.718  53.209  1.00  0.00     0.054 A 
ATOM     22  C   UNL     1       1.042  45.482  52.710  1.00  0.00     0.027 A 
ATOM     23  C   UNL     1       2.622  45.328  54.527  1.00  0.00     0.041 A 
ATOM     24  C   UNL     1       0.065  44.879  53.506  1.00  0.00     0.002 A 
ATOM     25  C   UNL     1       1.646  44.723  55.323  1.00  0.00     0.018 A 
ATOM     26  C   UNL     1       0.368  44.498  54.811  1.00  0.00     0.001 A 
ATOM     27  Br  UNL     1       4.339  45.618  55.288  1.00  0.00    -0.049 Br
ENDBRANCH  19  21
ENDBRANCH  12  19
ENDBRANCH   7   9
ENDBRANCH   1   7
TORSDOF 8
ENDMDL
MODEL 12
REMARK VINA RESULT:    -7.370      2.817      6.488
REMARK INTER + INTRA:         -12.162
REMARK INTER:                 -11.101
REMARK INTRA:                  -1.061
REMARK UNBOUND:                -1.345
REMARK SMILES CCOCCCNc1nc(Nc2ccccc2Br)c2cnn(C)c2n1
REMARK SMILES IDX 6 1 5 2 4 3 3 4 2 5 1 6 7 7 8 9 9 10 25 11 10 12 24 13 19 14
REMARK SMILES IDX 22 15 20 16 21 17 23 18 11 19 12 21 13 22 17 23 14 24 16 25
REMARK SMILES IDX 15 26 18 27
REMARK H PARENT 7 8 11 20
ROOT
ATOM      1  C   UNL     1       8.840  46.085  51.600  1.00  0.00     0.118 C 
ENDROOT
BRANCH   1   2
ATOM      2  C   UNL     1       9.149  47.217  52.575  1.00  0.00     0.050 C 
BRANCH   2   3
ATOM      3  C   UNL     1       8.152  47.271  53.730  1.00  0.00     0.162 C 
BRANCH   3   4
ATOM      4  O   UNL     1       8.837  47.358  54.982  1.00  0.00    -0.382 OA
BRANCH   4   5
ATOM      5  C   UNL     1      10.251  47.230  54.854  1.00  0.00     0.156 C 
ATOM      6  C   UNL     1      10.886  47.620  56.173  1.00  0.00     0.035 C 
ENDBRANCH   4   5
ENDBRANCH   3   4
ENDBRANCH   2   3
ENDBRANCH   1   2
BRANCH   1   7
ATOM      7  N   UNL     1       7.677  46.425  50.796  1.00  0.00    -0.354 N 
ATOM      8  H   UNL     1       7.853  46.509  49.800  1.00  0.00     0.163 HD
BRANCH   7   9
ATOM      9  C   UNL     1       6.621  45.526  50.899  1.00  0.00     0.226 A 
ATOM     10  N   UNL     1       5.490  46.052  51.400  1.00  0.00    -0.195 NA
ATOM     11  N   UNL     1       6.787  44.254  50.515  1.00  0.00    -0.193 NA
ATOM     12  C   UNL     1       4.385  45.279  51.566  1.00  0.00     0.147 A 
ATOM     13  C   UNL     1       5.686  43.510  50.688  1.00  0.00     0.165 A 
ATOM     14  C   UNL     1       4.472  43.934  51.195  1.00  0.00     0.082 A 
ATOM     15  N   UNL     1       5.537  42.179  50.406  1.00  0.00    -0.250 N 
ATOM     16  C   UNL     1       3.666  42.777  51.169  1.00  0.00     0.149 A 
ATOM     17  N   UNL     1       4.303  41.703  50.684  1.00  0.00    -0.179 NA
ATOM     18  C   UNL     1       6.535  41.290  49.866  1.00  0.00     0.176 C 
BRANCH  12  19
ATOM     19  N   UNL     1       3.256  45.936  52.104  1.00  0.00    -0.339 N 
ATOM     20  H   UNL     1       3.524  46.921  52.078  1.00  0.00     0.168 HD
BRANCH  19  21
ATOM     21  C   UNL     1       2.650  45.615  53.339  1.00  0.00     0.054 A 
ATOM     22  C   UNL     1       3.355  45.885  54.521  1.00  0.00     0.027 A 
ATOM     23  C   UNL     1       1.352  45.085  53.438  1.00  0.00     0.041 A 
ATOM     24  C   UNL     1       2.785  45.627  55.769  1.00  0.00     0.002 A 
ATOM     25  C   UNL     1       0.781  44.828  54.687  1.00  0.00     0.018 A 
ATOM     26  C   UNL     1       1.499  45.101  55.852  1.00  0.00     0.001 A 
ATOM     27  Br  UNL     1       0.328  44.679  51.890  1.00  0.00    -0.049 Br
ENDBRANCH  19  21
ENDBRANCH  12  19
ENDBRANCH   7   9
ENDBRANCH   1   7
TORSDOF 8
ENDMDL
MODEL 13
REMARK VINA RESULT:    -7.353      2.720      5.798
REMARK INTER + INTRA:         -12.137
REMARK INTER:                 -11.779
REMARK INTRA:                  -0.358
REMARK UNBOUND:                -1.345
REMARK SMILES CCOCCCNc1nc(Nc2ccccc2Br)c2cnn(C)c2n1
REMARK SMILES IDX 6 1 5 2 4 3 3 4 2 5 1 6 7 7 8 9 9 10 25 11 10 12 24 13 19 14
REMARK SMILES IDX 22 15 20 16 21 17 23 18 11 19 12 21 13 22 17 23 14 24 16 25
REMARK SMILES IDX 15 26 18 27
REMARK H PARENT 7 8 11 20
ROOT
ATOM      1  C   UNL     1       5.528  46.724  54.662  1.00  0.00     0.118 C 
ENDROOT
BRANCH   1   2
ATOM      2  C   UNL     1       7.037  46.584  54.482  1.00  0.00     0.050 C 
BRANCH   2   3
ATOM      3  C   UNL     1       7.574  47.509  53.394  1.00  0.00     0.162 C 
BRANCH   3   4
ATOM      4  O   UNL     1       8.772  48.158  53.831  1.00  0.00    -0.382 OA
BRANCH   4   5
ATOM      5  C   UNL     1       9.896  47.282  53.875  1.00  0.00     0.156 C 
ATOM      6  C   UNL     1      10.077  46.671  52.500  1.00  0.00     0.035 C 
ENDBRANCH   4   5
ENDBRANCH   3   4
ENDBRANCH   2   3
ENDBRANCH   1   2
BRANCH   1   7
ATOM      7  N   UNL     1       4.973  45.485  55.184  1.00  0.00    -0.354 N 
ATOM      8  H   UNL     1       4.544  45.558  56.101  1.00  0.00     0.163 HD
BRANCH   7   9
ATOM      9  C   UNL     1       3.999  44.905  54.377  1.00  0.00     0.226 A 
ATOM     10  N   UNL     1       4.463  44.401  53.221  1.00  0.00    -0.195 NA
ATOM     11  N   UNL     1       2.723  44.886  54.781  1.00  0.00    -0.193 NA
ATOM     12  C   UNL     1       3.616  43.816  52.334  1.00  0.00     0.147 A 
ATOM     13  C   UNL     1       1.904  44.307  53.891  1.00  0.00     0.165 A 
ATOM     14  C   UNL     1       2.260  43.759  52.673  1.00  0.00     0.082 A 
ATOM     15  N   UNL     1       0.550  44.143  54.001  1.00  0.00    -0.250 N 
ATOM     16  C   UNL     1       1.042  43.292  52.138  1.00  0.00     0.149 A 
ATOM     17  N   UNL     1      -0.006  43.515  52.942  1.00  0.00    -0.179 NA
ATOM     18  C   UNL     1      -0.288  44.564  55.096  1.00  0.00     0.176 C 
BRANCH  12  19
ATOM     19  N   UNL     1       4.212  43.326  51.152  1.00  0.00    -0.339 N 
ATOM     20  H   UNL     1       4.224  42.315  51.297  1.00  0.00     0.168 HD
BRANCH  19  21
ATOM     21  C   UNL     1       5.448  43.770  50.629  1.00  0.00     0.054 A 
ATOM     22  C   UNL     1       5.908  45.044  50.991  1.00  0.00     0.027 A 
ATOM     23  C   UNL     1       6.258  42.973  49.803  1.00  0.00     0.041 A 
ATOM     24  C   UNL     1       7.142  45.515  50.537  1.00  0.00     0.002 A 
ATOM     25  C   UNL     1       7.494  43.442  49.350  1.00  0.00     0.018 A 
ATOM     26  C   UNL     1       7.935  44.713  49.719  1.00  0.00     0.001 A 
ATOM     27  Br  UNL     1       5.709  41.238  49.255  1.00  0.00    -0.049 Br
ENDBRANCH  19  21
ENDBRANCH  12  19
ENDBRANCH   7   9
ENDBRANCH   1   7
TORSDOF 8
ENDMDL
MODEL 14
REMARK VINA RESULT:    -7.213      3.032      5.888
REMARK INTER + INTRA:         -11.932
REMARK INTER:                 -10.789
REMARK INTRA:                  -1.143
REMARK UNBOUND:                -1.345
REMARK SMILES CCOCCCNc1nc(Nc2ccccc2Br)c2cnn(C)c2n1
REMARK SMILES IDX 6 1 5 2 4 3 3 4 2 5 1 6 7 7 8 9 9 10 25 11 10 12 24 13 19 14
REMARK SMILES IDX 22 15 20 16 21 17 23 18 11 19 12 21 13 22 17 23 14 24 16 25
REMARK SMILES IDX 15 26 18 27
REMARK H PARENT 7 8 11 20
ROOT
ATOM      1  C   UNL     1       5.274  46.958  53.786  1.00  0.00     0.118 C 
ENDROOT
BRANCH   1   2
ATOM      2  C   UNL     1       6.424  46.326  54.566  1.00  0.00     0.050 C 
BRANCH   2   3
ATOM      3  C   UNL     1       7.758  47.013  54.280  1.00  0.00     0.162 C 
BRANCH   3   4
ATOM      4  O   UNL     1       8.486  46.300  53.277  1.00  0.00    -0.382 OA
BRANCH   4   5
ATOM      5  C   UNL     1       9.829  46.757  53.133  1.00  0.00     0.156 C 
ATOM      6  C   UNL     1      10.376  46.223  51.825  1.00  0.00     0.035 C 
ENDBRANCH   4   5
ENDBRANCH   3   4
ENDBRANCH   2   3
ENDBRANCH   1   2
BRANCH   1   7
ATOM      7  N   UNL     1       5.490  46.788  52.359  1.00  0.00    -0.354 N 
ATOM      8  H   UNL     1       6.411  47.061  52.028  1.00  0.00     0.163 HD
BRANCH   7   9
ATOM      9  C   UNL     1       5.315  45.487  51.899  1.00  0.00     0.226 A 
ATOM     10  N   UNL     1       4.278  44.836  52.455  1.00  0.00    -0.195 NA
ATOM     11  N   UNL     1       6.149  44.986  50.980  1.00  0.00    -0.193 NA
ATOM     12  C   UNL     1       4.002  43.553  52.104  1.00  0.00     0.147 A 
ATOM     13  C   UNL     1       5.860  43.719  50.650  1.00  0.00     0.165 A 
ATOM     14  C   UNL     1       4.829  42.948  51.152  1.00  0.00     0.082 A 
ATOM     15  N   UNL     1       6.527  42.927  49.755  1.00  0.00    -0.250 N 
ATOM     16  C   UNL     1       4.969  41.713  50.486  1.00  0.00     0.149 A 
ATOM     17  N   UNL     1       5.996  41.691  49.628  1.00  0.00    -0.179 NA
ATOM     18  C   UNL     1       7.688  43.283  48.978  1.00  0.00     0.176 C 
BRANCH  12  19
ATOM     19  N   UNL     1       2.893  42.968  52.754  1.00  0.00    -0.339 N 
ATOM     20  H   UNL     1       3.004  41.973  52.555  1.00  0.00     0.168 HD
BRANCH  19  21
ATOM     21  C   UNL     1       1.550  43.368  52.571  1.00  0.00     0.054 A 
ATOM     22  C   UNL     1       0.881  42.957  51.409  1.00  0.00     0.027 A 
ATOM     23  C   UNL     1       0.840  44.115  53.526  1.00  0.00     0.041 A 
ATOM     24  C   UNL     1      -0.459  43.288  51.200  1.00  0.00     0.002 A 
ATOM     25  C   UNL     1      -0.503  44.446  53.318  1.00  0.00     0.018 A 
ATOM     26  C   UNL     1      -1.151  44.030  52.154  1.00  0.00     0.001 A 
ATOM     27  Br  UNL     1       1.669  44.722  55.124  1.00  0.00    -0.049 Br
ENDBRANCH  19  21
ENDBRANCH  12  19
ENDBRANCH   7   9
ENDBRANCH   1   7
TORSDOF 8
ENDMDL
MODEL 15
REMARK VINA RESULT:    -7.144      2.456      4.724
REMARK INTER + INTRA:         -11.831
REMARK INTER:                 -10.537
REMARK INTRA:                  -1.294
REMARK UNBOUND:                -1.345
REMARK SMILES CCOCCCNc1nc(Nc2ccccc2Br)c2cnn(C)c2n1
REMARK SMILES IDX 6 1 5 2 4 3 3 4 2 5 1 6 7 7 8 9 9 10 25 11 10 12 24 13 19 14
REMARK SMILES IDX 22 15 20 16 21 17 23 18 11 19 12 21 13 22 17 23 14 24 16 25
REMARK SMILES IDX 15 26 18 27
REMARK H PARENT 7 8 11 20
ROOT
ATOM      1  C   UNL     1       7.787  43.655  49.673  1.00  0.00     0.118 C 
ENDROOT
BRANCH   1   2
ATOM      2  C   UNL     1       6.873  42.969  48.662  1.00  0.00     0.050 C 
BRANCH   2   3
ATOM      3  C   UNL     1       5.998  41.899  49.310  1.00  0.00     0.162 C 
BRANCH   3   4
ATOM      4  O   UNL     1       5.231  42.458  50.382  1.00  0.00    -0.382 OA
BRANCH   4   5
ATOM      5  C   UNL     1       4.318  41.527  50.957  1.00  0.00     0.156 C 
ATOM      6  C   UNL     1       3.554  40.854  49.834  1.00  0.00     0.035 C 
ENDBRANCH   4   5
ENDBRANCH   3   4
ENDBRANCH   2   3
ENDBRANCH   1   2
BRANCH   1   7
ATOM      7  N   UNL     1       7.584  45.094  49.629  1.00  0.00    -0.354 N 
ATOM      8  H   UNL     1       6.856  45.407  48.994  1.00  0.00     0.163 HD
BRANCH   7   9
ATOM      9  C   UNL     1       7.262  45.669  50.854  1.00  0.00     0.226 A 
ATOM     10  N   UNL     1       5.945  45.859  51.049  1.00  0.00    -0.195 NA
ATOM     11  N   UNL     1       8.233  45.983  51.720  1.00  0.00    -0.193 NA
ATOM     12  C   UNL     1       5.493  46.423  52.200  1.00  0.00     0.147 A 
ATOM     13  C   UNL     1       7.765  46.540  52.847  1.00  0.00     0.165 A 
ATOM     14  C   UNL     1       6.443  46.790  53.159  1.00  0.00     0.082 A 
ATOM     15  N   UNL     1       8.499  46.981  53.915  1.00  0.00    -0.250 N 
ATOM     16  C   UNL     1       6.498  47.378  54.440  1.00  0.00     0.149 A 
ATOM     17  N   UNL     1       7.745  47.493  54.913  1.00  0.00    -0.179 NA
ATOM     18  C   UNL     1       9.933  46.945  54.056  1.00  0.00     0.176 C 
BRANCH  12  19
ATOM     19  N   UNL     1       4.093  46.578  52.294  1.00  0.00    -0.339 N 
ATOM     20  H   UNL     1       3.978  47.171  53.118  1.00  0.00     0.168 HD
BRANCH  19  21
ATOM     21  C   UNL     1       3.164  45.514  52.311  1.00  0.00     0.054 A 
ATOM     22  C   UNL     1       2.602  45.097  51.096  1.00  0.00     0.027 A 
ATOM     23  C   UNL     1       2.817  44.822  53.484  1.00  0.00     0.041 A 
ATOM     24  C   UNL     1       1.711  44.021  51.051  1.00  0.00     0.002 A 
ATOM     25  C   UNL     1       1.928  43.744  53.439  1.00  0.00     0.018 A 
ATOM     26  C   UNL     1       1.377  43.345  52.221  1.00  0.00     0.001 A 
ATOM     27  Br  UNL     1       3.523  45.324  55.175  1.00  0.00    -0.049 Br
ENDBRANCH  19  21
ENDBRANCH  12  19
ENDBRANCH   7   9
ENDBRANCH   1   7
TORSDOF 8
ENDMDL
MODEL 16
REMARK VINA RESULT:    -7.139      3.564      6.932
REMARK INTER + INTRA:         -11.823
REMARK INTER:                 -11.521
REMARK INTRA:                  -0.302
REMARK UNBOUND:                -1.345
REMARK SMILES CCOCCCNc1nc(Nc2ccccc2Br)c2cnn(C)c2n1
REMARK SMILES IDX 6 1 5 2 4 3 3 4 2 5 1 6 7 7 8 9 9 10 25 11 10 12 24 13 19 14
REMARK SMILES IDX 22 15 20 16 21 17 23 18 11 19 12 21 13 22 17 23 14 24 16 25
REMARK SMILES IDX 15 26 18 27
REMARK H PARENT 7 8 11 20
ROOT
ATOM      1  C   UNL     1       5.348  41.314  48.952  1.00  0.00     0.118 C 
ENDROOT
BRANCH   1   2
ATOM      2  C   UNL     1       3.971  40.656  48.989  1.00  0.00     0.050 C 
BRANCH   2   3
ATOM      3  C   UNL     1       3.553  40.119  47.623  1.00  0.00     0.162 C 
BRANCH   3   4
ATOM      4  O   UNL     1       2.792  38.916  47.767  1.00  0.00    -0.382 OA
BRANCH   4   5
ATOM      5  C   UNL     1       2.868  38.069  46.623  1.00  0.00     0.156 C 
ATOM      6  C   UNL     1       1.773  37.026  46.730  1.00  0.00     0.035 C 
ENDBRANCH   4   5
ENDBRANCH   3   4
ENDBRANCH   2   3
ENDBRANCH   1   2
BRANCH   1   7
ATOM      7  N   UNL     1       5.812  41.569  50.306  1.00  0.00    -0.354 N 
ATOM      8  H   UNL     1       6.799  41.794  50.386  1.00  0.00     0.163 HD
BRANCH   7   9
ATOM      9  C   UNL     1       5.154  42.608  50.955  1.00  0.00     0.226 A 
ATOM     10  N   UNL     1       5.803  43.785  50.920  1.00  0.00    -0.195 NA
ATOM     11  N   UNL     1       3.975  42.384  51.548  1.00  0.00    -0.193 NA
ATOM     12  C   UNL     1       5.276  44.881  51.526  1.00  0.00     0.147 A 
ATOM     13  C   UNL     1       3.474  43.477  52.141  1.00  0.00     0.165 A 
ATOM     14  C   UNL     1       4.047  44.735  52.177  1.00  0.00     0.082 A 
ATOM     15  N   UNL     1       2.300  43.573  52.838  1.00  0.00    -0.250 N 
ATOM     16  C   UNL     1       3.129  45.509  52.917  1.00  0.00     0.149 A 
ATOM     17  N   UNL     1       2.057  44.813  53.319  1.00  0.00    -0.179 NA
ATOM     18  C   UNL     1       1.351  42.518  53.087  1.00  0.00     0.176 C 
BRANCH  12  19
ATOM     19  N   UNL     1       6.045  46.062  51.429  1.00  0.00    -0.339 N 
ATOM     20  H   UNL     1       6.064  46.246  50.425  1.00  0.00     0.168 HD
BRANCH  19  21
ATOM     21  C   UNL     1       7.329  46.235  51.993  1.00  0.00     0.054 A 
ATOM     22  C   UNL     1       8.451  46.076  51.167  1.00  0.00     0.027 A 
ATOM     23  C   UNL     1       7.530  46.610  53.333  1.00  0.00     0.041 A 
ATOM     24  C   UNL     1       9.740  46.279  51.664  1.00  0.00     0.002 A 
ATOM     25  C   UNL     1       8.820  46.814  53.830  1.00  0.00     0.018 A 
ATOM     26  C   UNL     1       9.924  46.649  52.993  1.00  0.00     0.001 A 
ATOM     27  Br  UNL     1       6.069  46.838  54.526  1.00  0.00    -0.049 Br
ENDBRANCH  19  21
ENDBRANCH  12  19
ENDBRANCH   7   9
ENDBRANCH   1   7
TORSDOF 8
ENDMDL
MODEL 17
REMARK VINA RESULT:    -7.083      3.584      7.157
REMARK INTER + INTRA:         -11.740
REMARK INTER:                 -11.017
REMARK INTRA:                  -0.723
REMARK UNBOUND:                -1.345
REMARK SMILES CCOCCCNc1nc(Nc2ccccc2Br)c2cnn(C)c2n1
REMARK SMILES IDX 6 1 5 2 4 3 3 4 2 5 1 6 7 7 8 9 9 10 25 11 10 12 24 13 19 14
REMARK SMILES IDX 22 15 20 16 21 17 23 18 11 19 12 21 13 22 17 23 14 24 16 25
REMARK SMILES IDX 15 26 18 27
REMARK H PARENT 7 8 11 20
ROOT
ATOM      1  C   UNL     1       5.379  41.433  47.870  1.00  0.00     0.118 C 
ENDROOT
BRANCH   1   2
ATOM      2  C   UNL     1       5.755  41.740  46.423  1.00  0.00     0.050 C 
BRANCH   2   3
ATOM      3  C   UNL     1       4.676  41.293  45.441  1.00  0.00     0.162 C 
BRANCH   3   4
ATOM      4  O   UNL     1       5.194  41.252  44.108  1.00  0.00    -0.382 OA
BRANCH   4   5
ATOM      5  C   UNL     1       5.045  39.976  43.491  1.00  0.00     0.156 C 
ATOM      6  C   UNL     1       6.399  39.295  43.472  1.00  0.00     0.035 C 
ENDBRANCH   4   5
ENDBRANCH   3   4
ENDBRANCH   2   3
ENDBRANCH   1   2
BRANCH   1   7
ATOM      7  N   UNL     1       6.450  41.851  48.761  1.00  0.00    -0.354 N 
ATOM      8  H   UNL     1       7.271  42.229  48.298  1.00  0.00     0.163 HD
BRANCH   7   9
ATOM      9  C   UNL     1       6.083  42.820  49.688  1.00  0.00     0.226 A 
ATOM     10  N   UNL     1       6.862  43.915  49.685  1.00  0.00    -0.195 NA
ATOM     11  N   UNL     1       5.030  42.613  50.489  1.00  0.00    -0.193 NA
ATOM     12  C   UNL     1       6.622  44.935  50.551  1.00  0.00     0.147 A 
ATOM     13  C   UNL     1       4.812  43.630  51.335  1.00  0.00     0.165 A 
ATOM     14  C   UNL     1       5.542  44.799  51.430  1.00  0.00     0.082 A 
ATOM     15  N   UNL     1       3.828  43.718  52.283  1.00  0.00    -0.250 N 
ATOM     16  C   UNL     1       4.906  45.518  52.463  1.00  0.00     0.149 A 
ATOM     17  N   UNL     1       3.856  44.872  52.985  1.00  0.00    -0.179 NA
ATOM     18  C   UNL     1       2.817  42.734  52.577  1.00  0.00     0.176 C 
BRANCH  12  19
ATOM     19  N   UNL     1       7.506  46.033  50.461  1.00  0.00    -0.339 N 
ATOM     20  H   UNL     1       8.083  45.803  49.651  1.00  0.00     0.168 HD
BRANCH  19  21
ATOM     21  C   UNL     1       8.304  46.513  51.524  1.00  0.00     0.054 A 
ATOM     22  C   UNL     1       7.789  47.530  52.341  1.00  0.00     0.027 A 
ATOM     23  C   UNL     1       9.568  45.982  51.830  1.00  0.00     0.041 A 
ATOM     24  C   UNL     1       8.519  48.010  53.431  1.00  0.00     0.002 A 
ATOM     25  C   UNL     1      10.298  46.461  52.921  1.00  0.00     0.018 A 
ATOM     26  C   UNL     1       9.771  47.475  53.722  1.00  0.00     0.001 A 
ATOM     27  Br  UNL     1      10.347  44.609  50.771  1.00  0.00    -0.049 Br
ENDBRANCH  19  21
ENDBRANCH  12  19
ENDBRANCH   7   9
ENDBRANCH   1   7
TORSDOF 8
ENDMDL
MODEL 18
REMARK VINA RESULT:    -6.890      2.988      6.457
REMARK INTER + INTRA:         -11.457
REMARK INTER:                 -10.166
REMARK INTRA:                  -1.291
REMARK UNBOUND:                -1.345
REMARK SMILES CCOCCCNc1nc(Nc2ccccc2Br)c2cnn(C)c2n1
REMARK SMILES IDX 6 1 5 2 4 3 3 4 2 5 1 6 7 7 8 9 9 10 25 11 10 12 24 13 19 14
REMARK SMILES IDX 22 15 20 16 21 17 23 18 11 19 12 21 13 22 17 23 14 24 16 25
REMARK SMILES IDX 15 26 18 27
REMARK H PARENT 7 8 11 20
ROOT
ATOM      1  C   UNL     1       7.212  47.418  52.230  1.00  0.00     0.118 C 
ENDROOT
BRANCH   1   2
ATOM      2  C   UNL     1       8.575  48.060  52.465  1.00  0.00     0.050 C 
BRANCH   2   3
ATOM      3  C   UNL     1       9.420  47.270  53.461  1.00  0.00     0.162 C 
BRANCH   3   4
ATOM      4  O   UNL     1       9.737  45.977  52.938  1.00  0.00    -0.382 OA
BRANCH   4   5
ATOM      5  C   UNL     1      10.631  46.029  51.828  1.00  0.00     0.156 C 
ATOM      6  C   UNL     1      10.370  44.823  50.950  1.00  0.00     0.035 C 
ENDBRANCH   4   5
ENDBRANCH   3   4
ENDBRANCH   2   3
ENDBRANCH   1   2
BRANCH   1   7
ATOM      7  N   UNL     1       7.290  46.479  51.122  1.00  0.00    -0.354 N 
ATOM      8  H   UNL     1       8.154  45.950  51.067  1.00  0.00     0.163 HD
BRANCH   7   9
ATOM      9  C   UNL     1       6.281  45.521  51.106  1.00  0.00     0.226 A 
ATOM     10  N   UNL     1       5.082  45.970  51.513  1.00  0.00    -0.195 NA
ATOM     11  N   UNL     1       6.554  44.272  50.708  1.00  0.00    -0.193 NA
ATOM     12  C   UNL     1       4.011  45.134  51.557  1.00  0.00     0.147 A 
ATOM     13  C   UNL     1       5.485  43.464  50.762  1.00  0.00     0.165 A 
ATOM     14  C   UNL     1       4.208  43.806  51.164  1.00  0.00     0.082 A 
ATOM     15  N   UNL     1       5.438  42.136  50.435  1.00  0.00    -0.250 N 
ATOM     16  C   UNL     1       3.475  42.609  51.036  1.00  0.00     0.149 A 
ATOM     17  N   UNL     1       4.213  41.586  50.586  1.00  0.00    -0.179 NA
ATOM     18  C   UNL     1       6.530  41.319  49.969  1.00  0.00     0.176 C 
BRANCH  12  19
ATOM     19  N   UNL     1       2.803  45.713  52.004  1.00  0.00    -0.339 N 
ATOM     20  H   UNL     1       3.002  46.714  51.986  1.00  0.00     0.168 HD
BRANCH  19  21
ATOM     21  C   UNL     1       2.133  45.358  53.197  1.00  0.00     0.054 A 
ATOM     22  C   UNL     1       2.771  45.600  54.421  1.00  0.00     0.027 A 
ATOM     23  C   UNL     1       0.834  44.821  53.211  1.00  0.00     0.041 A 
ATOM     24  C   UNL     1       2.136  45.307  55.630  1.00  0.00     0.002 A 
ATOM     25  C   UNL     1       0.197  44.530  54.421  1.00  0.00     0.018 A 
ATOM     26  C   UNL     1       0.849  44.775  55.629  1.00  0.00     0.001 A 
ATOM     27  Br  UNL     1      -0.102  44.452  51.600  1.00  0.00    -0.049 Br
ENDBRANCH  19  21
ENDBRANCH  12  19
ENDBRANCH   7   9
ENDBRANCH   1   7
TORSDOF 8
ENDMDL
MODEL 19
REMARK VINA RESULT:    -6.831      3.078      6.146
REMARK INTER + INTRA:         -11.371
REMARK INTER:                 -10.842
REMARK INTRA:                  -0.529
REMARK UNBOUND:                -1.345
REMARK SMILES CCOCCCNc1nc(Nc2ccccc2Br)c2cnn(C)c2n1
REMARK SMILES IDX 6 1 5 2 4 3 3 4 2 5 1 6 7 7 8 9 9 10 25 11 10 12 24 13 19 14
REMARK SMILES IDX 22 15 20 16 21 17 23 18 11 19 12 21 13 22 17 23 14 24 16 25
REMARK SMILES IDX 15 26 18 27
REMARK H PARENT 7 8 11 20
ROOT
ATOM      1  C   UNL     1       4.051  47.161  53.430  1.00  0.00     0.118 C 
ENDROOT
BRANCH   1   2
ATOM      2  C   UNL     1       4.959  47.497  54.609  1.00  0.00     0.050 C 
BRANCH   2   3
ATOM      3  C   UNL     1       6.279  46.732  54.555  1.00  0.00     0.162 C 
BRANCH   3   4
ATOM      4  O   UNL     1       7.270  47.487  53.853  1.00  0.00    -0.382 OA
BRANCH   4   5
ATOM      5  C   UNL     1       8.589  47.270  54.348  1.00  0.00     0.156 C 
ATOM      6  C   UNL     1       9.497  46.974  53.171  1.00  0.00     0.035 C 
ENDBRANCH   4   5
ENDBRANCH   3   4
ENDBRANCH   2   3
ENDBRANCH   1   2
BRANCH   1   7
ATOM      7  N   UNL     1       4.850  46.726  52.296  1.00  0.00    -0.354 N 
ATOM      8  H   UNL     1       5.851  46.860  52.399  1.00  0.00     0.163 HD
BRANCH   7   9
ATOM      9  C   UNL     1       4.701  45.383  51.967  1.00  0.00     0.226 A 
ATOM     10  N   UNL     1       3.699  44.761  52.613  1.00  0.00    -0.195 NA
ATOM     11  N   UNL     1       5.523  44.818  51.074  1.00  0.00    -0.193 NA
ATOM     12  C   UNL     1       3.451  43.443  52.394  1.00  0.00     0.147 A 
ATOM     13  C   UNL     1       5.262  43.519  50.874  1.00  0.00     0.165 A 
ATOM     14  C   UNL     1       4.269  42.772  51.478  1.00  0.00     0.082 A 
ATOM     15  N   UNL     1       5.927  42.663  50.038  1.00  0.00    -0.250 N 
ATOM     16  C   UNL     1       4.426  41.483  50.928  1.00  0.00     0.149 A 
ATOM     17  N   UNL     1       5.429  41.407  50.044  1.00  0.00    -0.179 NA
ATOM     18  C   UNL     1       7.054  42.975  49.196  1.00  0.00     0.176 C 
BRANCH  12  19
ATOM     19  N   UNL     1       2.378  42.893  53.129  1.00  0.00    -0.339 N 
ATOM     20  H   UNL     1       1.863  42.359  52.428  1.00  0.00     0.168 HD
BRANCH  19  21
ATOM     21  C   UNL     1       1.492  43.638  53.940  1.00  0.00     0.054 A 
ATOM     22  C   UNL     1       2.031  44.462  54.938  1.00  0.00     0.027 A 
ATOM     23  C   UNL     1       0.099  43.628  53.758  1.00  0.00     0.041 A 
ATOM     24  C   UNL     1       1.203  45.252  55.739  1.00  0.00     0.002 A 
ATOM     25  C   UNL     1      -0.730  44.420  54.557  1.00  0.00     0.018 A 
ATOM     26  C   UNL     1      -0.176  45.232  55.547  1.00  0.00     0.001 A 
ATOM     27  Br  UNL     1      -0.718  42.534  52.436  1.00  0.00    -0.049 Br
ENDBRANCH  19  21
ENDBRANCH  12  19
ENDBRANCH   7   9
ENDBRANCH   1   7
TORSDOF 8
ENDMDL
