MODEL 1
REMARK VINA RESULT:    -8.484      0.000      0.000
REMARK INTER + INTRA:         -12.911
REMARK INTER:                 -11.955
REMARK INTRA:                  -0.956
REMARK UNBOUND:                -0.956
REMARK SMILES CCc1ccc(Nc2nc(NCC[NH+](C)C)nc3c2cnn3C)cc1
REMARK SMILES IDX 10 1 9 2 17 3 8 4 18 5 19 6 22 7 20 8 21 9 23 10 11 11 12 13
REMARK SMILES IDX 13 14 14 15 15 16 16 17 7 19 6 21 5 22 24 23 4 24 25 25 3 26
REMARK SMILES IDX 2 27 1 28
REMARK H PARENT 11 12 14 18 7 20
ROOT
ATOM      1  C   UNL     1       3.258  42.577  51.446  1.00  0.00     0.226 A 
ATOM      2  N   UNL     1       4.080  43.559  51.060  1.00  0.00    -0.195 NA
ATOM      3  N   UNL     1       2.193  42.694  52.253  1.00  0.00    -0.193 NA
ATOM      4  C   UNL     1       3.873  44.831  51.494  1.00  0.00     0.147 A 
ATOM      5  C   UNL     1       2.035  43.951  52.707  1.00  0.00     0.165 A 
ATOM      6  C   UNL     1       2.817  45.045  52.384  1.00  0.00     0.082 A 
ATOM      7  N   UNL     1       1.089  44.414  53.583  1.00  0.00    -0.250 N 
ATOM      8  C   UNL     1       2.271  46.104  53.138  1.00  0.00     0.149 A 
ATOM      9  N   UNL     1       1.207  45.729  53.857  1.00  0.00    -0.179 NA
ATOM     10  C   UNL     1       0.042  43.658  54.222  1.00  0.00     0.176 C 
ENDROOT
BRANCH   1  11
ATOM     11  N   UNL     1       3.553  41.325  50.891  1.00  0.00    -0.348 N 
ATOM     12  H   UNL     1       2.773  41.197  50.239  1.00  0.00     0.163 HD
BRANCH  11  13
ATOM     13  C   UNL     1       4.864  41.280  50.226  1.00  0.00     0.177 C 
BRANCH  13  14
ATOM     14  C   UNL     1       4.705  40.903  48.735  1.00  0.00     0.283 C 
BRANCH  14  15
ATOM     15  N   UNL     1       5.864  41.499  47.945  1.00  0.00    -0.338 N 
ATOM     16  C   UNL     1       5.538  41.767  46.511  1.00  0.00     0.332 C 
ATOM     17  C   UNL     1       6.499  42.667  48.627  1.00  0.00     0.332 C 
ATOM     18  H   UNL     1       6.559  40.728  47.954  1.00  0.00     0.347 HD
ENDBRANCH  14  15
ENDBRANCH  13  14
ENDBRANCH  11  13
ENDBRANCH   1  11
BRANCH   4  19
ATOM     19  N   UNL     1       4.782  45.805  51.068  1.00  0.00    -0.339 N 
ATOM     20  H   UNL     1       4.274  46.619  50.734  1.00  0.00     0.168 HD
BRANCH  19  21
ATOM     21  C   UNL     1       6.028  46.170  51.615  1.00  0.00     0.040 A 
ATOM     22  C   UNL     1       7.191  45.763  50.950  1.00  0.00     0.026 A 
ATOM     23  C   UNL     1       6.164  46.932  52.780  1.00  0.00     0.026 A 
ATOM     24  C   UNL     1       8.457  46.091  51.443  1.00  0.00     0.006 A 
ATOM     25  C   UNL     1       7.429  47.263  53.277  1.00  0.00     0.006 A 
ATOM     26  C   UNL     1       8.587  46.839  52.618  1.00  0.00    -0.048 A 
BRANCH  26  27
ATOM     27  C   UNL     1       9.950  47.208  53.144  1.00  0.00     0.032 C 
ATOM     28  C   UNL     1       9.966  47.304  54.662  1.00  0.00     0.009 C 
ENDBRANCH  26  27
ENDBRANCH  19  21
ENDBRANCH   4  19
TORSDOF 7
ENDMDL
MODEL 2
REMARK VINA RESULT:    -8.313      1.537      4.882
REMARK INTER + INTRA:         -12.671
REMARK INTER:                 -12.304
REMARK INTRA:                  -0.367
REMARK UNBOUND:                -0.956
REMARK SMILES CCc1ccc(Nc2nc(NCC[NH+](C)C)nc3c2cnn3C)cc1
REMARK SMILES IDX 10 1 9 2 17 3 8 4 18 5 19 6 22 7 20 8 21 9 23 10 11 11 12 13
REMARK SMILES IDX 13 14 14 15 15 16 16 17 7 19 6 21 5 22 24 23 4 24 25 25 3 26
REMARK SMILES IDX 2 27 1 28
REMARK H PARENT 11 12 14 18 7 20
ROOT
ATOM      1  C   UNL     1       4.288  43.513  52.318  1.00  0.00     0.226 A 
ATOM      2  N   UNL     1       5.264  44.419  52.183  1.00  0.00    -0.195 NA
ATOM      3  N   UNL     1       4.041  42.473  51.507  1.00  0.00    -0.193 NA
ATOM      4  C   UNL     1       6.130  44.337  51.138  1.00  0.00     0.147 A 
ATOM      5  C   UNL     1       4.881  42.440  50.456  1.00  0.00     0.165 A 
ATOM      6  C   UNL     1       5.920  43.316  50.206  1.00  0.00     0.082 A 
ATOM      7  N   UNL     1       4.883  41.552  49.412  1.00  0.00    -0.250 N 
ATOM      8  C   UNL     1       6.463  42.881  48.979  1.00  0.00     0.149 A 
ATOM      9  N   UNL     1       5.845  41.795  48.499  1.00  0.00    -0.179 NA
ATOM     10  C   UNL     1       3.982  40.447  49.200  1.00  0.00     0.176 C 
ENDROOT
BRANCH   1  11
ATOM     11  N   UNL     1       3.497  43.682  53.461  1.00  0.00    -0.348 N 
ATOM     12  H   UNL     1       3.860  42.949  54.077  1.00  0.00     0.163 HD
BRANCH  11  13
ATOM     13  C   UNL     1       3.608  45.026  54.049  1.00  0.00     0.177 C 
BRANCH  13  14
ATOM     14  C   UNL     1       2.209  45.590  54.386  1.00  0.00     0.283 C 
BRANCH  14  15
ATOM     15  N   UNL     1       1.663  46.325  53.168  1.00  0.00    -0.338 N 
ATOM     16  C   UNL     1       2.721  46.977  52.337  1.00  0.00     0.332 C 
ATOM     17  C   UNL     1       0.714  45.501  52.362  1.00  0.00     0.332 C 
ATOM     18  H   UNL     1       1.110  47.091  53.600  1.00  0.00     0.347 HD
ENDBRANCH  14  15
ENDBRANCH  13  14
ENDBRANCH  11  13
ENDBRANCH   1  11
BRANCH   4  19
ATOM     19  N   UNL     1       7.113  45.327  51.046  1.00  0.00    -0.339 N 
ATOM     20  H   UNL     1       6.909  45.935  50.257  1.00  0.00     0.168 HD
BRANCH  19  21
ATOM     21  C   UNL     1       7.777  46.030  52.072  1.00  0.00     0.040 A 
ATOM     22  C   UNL     1       7.054  46.364  53.224  1.00  0.00     0.026 A 
ATOM     23  C   UNL     1       9.124  46.396  52.006  1.00  0.00     0.026 A 
ATOM     24  C   UNL     1       7.654  47.063  54.275  1.00  0.00     0.006 A 
ATOM     25  C   UNL     1       9.730  47.095  53.057  1.00  0.00     0.006 A 
ATOM     26  C   UNL     1       8.998  47.442  54.197  1.00  0.00    -0.048 A 
BRANCH  26  27
ATOM     27  C   UNL     1       9.653  48.181  55.335  1.00  0.00     0.032 C 
ATOM     28  C   UNL     1      10.831  47.408  55.909  1.00  0.00     0.009 C 
ENDBRANCH  26  27
ENDBRANCH  19  21
ENDBRANCH   4  19
TORSDOF 7
ENDMDL
MODEL 3
REMARK VINA RESULT:    -8.222      1.731      4.968
REMARK INTER + INTRA:         -12.543
REMARK INTER:                 -11.564
REMARK INTRA:                  -0.979
REMARK UNBOUND:                -0.956
REMARK SMILES CCc1ccc(Nc2nc(NCC[NH+](C)C)nc3c2cnn3C)cc1
REMARK SMILES IDX 10 1 9 2 17 3 8 4 18 5 19 6 22 7 20 8 21 9 23 10 11 11 12 13
REMARK SMILES IDX 13 14 14 15 15 16 16 17 7 19 6 21 5 22 24 23 4 24 25 25 3 26
REMARK SMILES IDX 2 27 1 28
REMARK H PARENT 11 12 14 18 7 20
ROOT
ATOM      1  C   UNL     1       3.578  44.976  51.263  1.00  0.00     0.226 A 
ATOM      2  N   UNL     1       4.716  45.679  51.206  1.00  0.00    -0.195 NA
ATOM      3  N   UNL     1       3.422  43.678  50.967  1.00  0.00    -0.193 NA
ATOM      4  C   UNL     1       5.870  45.076  50.813  1.00  0.00     0.147 A 
ATOM      5  C   UNL     1       4.566  43.115  50.537  1.00  0.00     0.165 A 
ATOM      6  C   UNL     1       5.798  43.734  50.431  1.00  0.00     0.082 A 
ATOM      7  N   UNL     1       4.757  41.829  50.105  1.00  0.00    -0.250 N 
ATOM      8  C   UNL     1       6.648  42.740  49.904  1.00  0.00     0.149 A 
ATOM      9  N   UNL     1       6.023  41.572  49.720  1.00  0.00    -0.179 NA
ATOM     10  C   UNL     1       3.772  40.781  50.012  1.00  0.00     0.176 C 
ENDROOT
BRANCH   1  11
ATOM     11  N   UNL     1       2.474  45.702  51.728  1.00  0.00    -0.348 N 
ATOM     12  H   UNL     1       1.837  44.953  52.016  1.00  0.00     0.163 HD
BRANCH  11  13
ATOM     13  C   UNL     1       2.805  46.621  52.829  1.00  0.00     0.177 C 
BRANCH  13  14
ATOM     14  C   UNL     1       2.684  45.902  54.192  1.00  0.00     0.283 C 
BRANCH  14  15
ATOM     15  N   UNL     1       3.878  46.282  55.061  1.00  0.00    -0.338 N 
ATOM     16  C   UNL     1       4.834  45.156  55.292  1.00  0.00     0.332 C 
ATOM     17  C   UNL     1       4.552  47.537  54.615  1.00  0.00     0.332 C 
ATOM     18  H   UNL     1       3.430  46.485  55.976  1.00  0.00     0.347 HD
ENDBRANCH  14  15
ENDBRANCH  13  14
ENDBRANCH  11  13
ENDBRANCH   1  11
BRANCH   4  19
ATOM     19  N   UNL     1       7.017  45.874  50.756  1.00  0.00    -0.339 N 
ATOM     20  H   UNL     1       6.841  46.678  50.159  1.00  0.00     0.168 HD
BRANCH  19  21
ATOM     21  C   UNL     1       7.945  46.186  51.770  1.00  0.00     0.040 A 
ATOM     22  C   UNL     1       7.458  46.453  53.056  1.00  0.00     0.026 A 
ATOM     23  C   UNL     1       9.326  46.226  51.563  1.00  0.00     0.026 A 
ATOM     24  C   UNL     1       8.327  46.771  54.104  1.00  0.00     0.006 A 
ATOM     25  C   UNL     1      10.200  46.543  52.609  1.00  0.00     0.006 A 
ATOM     26  C   UNL     1       9.707  46.827  53.887  1.00  0.00    -0.048 A 
BRANCH  26  27
ATOM     27  C   UNL     1      10.648  47.153  55.018  1.00  0.00     0.032 C 
ATOM     28  C   UNL     1      10.066  48.200  55.956  1.00  0.00     0.009 C 
ENDBRANCH  26  27
ENDBRANCH  19  21
ENDBRANCH   4  19
TORSDOF 7
ENDMDL
MODEL 4
REMARK VINA RESULT:    -8.179      1.437      4.808
REMARK INTER + INTRA:         -12.482
REMARK INTER:                 -11.859
REMARK INTRA:                  -0.624
REMARK UNBOUND:                -0.956
REMARK SMILES CCc1ccc(Nc2nc(NCC[NH+](C)C)nc3c2cnn3C)cc1
REMARK SMILES IDX 10 1 9 2 17 3 8 4 18 5 19 6 22 7 20 8 21 9 23 10 11 11 12 13
REMARK SMILES IDX 13 14 14 15 15 16 16 17 7 19 6 21 5 22 24 23 4 24 25 25 3 26
REMARK SMILES IDX 2 27 1 28
REMARK H PARENT 11 12 14 18 7 20
ROOT
ATOM      1  C   UNL     1       4.097  43.422  52.129  1.00  0.00     0.226 A 
ATOM      2  N   UNL     1       5.100  44.303  52.033  1.00  0.00    -0.195 NA
ATOM      3  N   UNL     1       3.863  42.381  51.316  1.00  0.00    -0.193 NA
ATOM      4  C   UNL     1       6.013  44.189  51.032  1.00  0.00     0.147 A 
ATOM      5  C   UNL     1       4.751  42.316  50.308  1.00  0.00     0.165 A 
ATOM      6  C   UNL     1       5.824  43.164  50.100  1.00  0.00     0.082 A 
ATOM      7  N   UNL     1       4.782  41.417  49.274  1.00  0.00    -0.250 N 
ATOM      8  C   UNL     1       6.413  42.702  48.905  1.00  0.00     0.149 A 
ATOM      9  N   UNL     1       5.793  41.627  48.407  1.00  0.00    -0.179 NA
ATOM     10  C   UNL     1       3.865  40.332  49.028  1.00  0.00     0.176 C 
ENDROOT
BRANCH   1  11
ATOM     11  N   UNL     1       3.256  43.623  53.230  1.00  0.00    -0.348 N 
ATOM     12  H   UNL     1       3.871  44.129  53.874  1.00  0.00     0.163 HD
BRANCH  11  13
ATOM     13  C   UNL     1       2.037  44.378  52.900  1.00  0.00     0.177 C 
BRANCH  13  14
ATOM     14  C   UNL     1       1.985  45.703  53.694  1.00  0.00     0.283 C 
BRANCH  14  15
ATOM     15  N   UNL     1       3.378  46.320  53.723  1.00  0.00    -0.338 N 
ATOM     16  C   UNL     1       3.522  47.518  52.841  1.00  0.00     0.332 C 
ATOM     17  C   UNL     1       3.888  46.550  55.108  1.00  0.00     0.332 C 
ATOM     18  H   UNL     1       3.962  45.570  53.305  1.00  0.00     0.347 HD
ENDBRANCH  14  15
ENDBRANCH  13  14
ENDBRANCH  11  13
ENDBRANCH   1  11
BRANCH   4  19
ATOM     19  N   UNL     1       7.024  45.154  50.979  1.00  0.00    -0.339 N 
ATOM     20  H   UNL     1       6.905  45.724  50.146  1.00  0.00     0.168 HD
BRANCH  19  21
ATOM     21  C   UNL     1       7.612  45.895  52.023  1.00  0.00     0.040 A 
ATOM     22  C   UNL     1       8.907  46.395  51.835  1.00  0.00     0.026 A 
ATOM     23  C   UNL     1       6.965  46.171  53.231  1.00  0.00     0.026 A 
ATOM     24  C   UNL     1       9.546  47.134  52.834  1.00  0.00     0.006 A 
ATOM     25  C   UNL     1       7.601  46.912  54.233  1.00  0.00     0.006 A 
ATOM     26  C   UNL     1       8.901  47.393  54.047  1.00  0.00    -0.048 A 
BRANCH  26  27
ATOM     27  C   UNL     1       9.581  48.204  55.120  1.00  0.00     0.032 C 
ATOM     28  C   UNL     1      10.722  47.439  55.772  1.00  0.00     0.009 C 
ENDBRANCH  26  27
ENDBRANCH  19  21
ENDBRANCH   4  19
TORSDOF 7
ENDMDL
MODEL 5
REMARK VINA RESULT:    -8.176      1.793      3.078
REMARK INTER + INTRA:         -12.478
REMARK INTER:                 -11.894
REMARK INTRA:                  -0.584
REMARK UNBOUND:                -0.956
REMARK SMILES CCc1ccc(Nc2nc(NCC[NH+](C)C)nc3c2cnn3C)cc1
REMARK SMILES IDX 10 1 9 2 17 3 8 4 18 5 19 6 22 7 20 8 21 9 23 10 11 11 12 13
REMARK SMILES IDX 13 14 14 15 15 16 16 17 7 19 6 21 5 22 24 23 4 24 25 25 3 26
REMARK SMILES IDX 2 27 1 28
REMARK H PARENT 11 12 14 18 7 20
ROOT
ATOM      1  C   UNL     1       6.390  43.186  49.824  1.00  0.00     0.226 A 
ATOM      2  N   UNL     1       7.155  44.264  50.032  1.00  0.00    -0.195 NA
ATOM      3  N   UNL     1       5.238  42.888  50.443  1.00  0.00    -0.193 NA
ATOM      4  C   UNL     1       6.785  45.194  50.952  1.00  0.00     0.147 A 
ATOM      5  C   UNL     1       4.916  43.798  51.380  1.00  0.00     0.165 A 
ATOM      6  C   UNL     1       5.623  44.945  51.689  1.00  0.00     0.082 A 
ATOM      7  N   UNL     1       3.842  43.783  52.230  1.00  0.00    -0.250 N 
ATOM      8  C   UNL     1       4.902  45.530  52.750  1.00  0.00     0.149 A 
ATOM      9  N   UNL     1       3.806  44.834  53.073  1.00  0.00    -0.179 NA
ATOM     10  C   UNL     1       2.806  42.783  52.315  1.00  0.00     0.176 C 
ENDROOT
BRANCH   1  11
ATOM     11  N   UNL     1       6.858  42.331  48.818  1.00  0.00    -0.348 N 
ATOM     12  H   UNL     1       7.548  41.768  49.325  1.00  0.00     0.163 HD
BRANCH  11  13
ATOM     13  C   UNL     1       5.797  41.516  48.209  1.00  0.00     0.177 C 
BRANCH  13  14
ATOM     14  C   UNL     1       5.609  41.889  46.720  1.00  0.00     0.283 C 
BRANCH  14  15
ATOM     15  N   UNL     1       4.906  40.743  46.005  1.00  0.00    -0.338 N 
ATOM     16  C   UNL     1       3.540  40.450  46.538  1.00  0.00     0.332 C 
ATOM     17  C   UNL     1       4.935  40.874  44.517  1.00  0.00     0.332 C 
ATOM     18  H   UNL     1       5.502  39.928  46.249  1.00  0.00     0.347 HD
ENDBRANCH  14  15
ENDBRANCH  13  14
ENDBRANCH  11  13
ENDBRANCH   1  11
BRANCH   4  19
ATOM     19  N   UNL     1       7.640  46.286  51.133  1.00  0.00    -0.339 N 
ATOM     20  H   UNL     1       7.297  47.077  50.597  1.00  0.00     0.168 HD
BRANCH  19  21
ATOM     21  C   UNL     1       8.319  46.711  52.292  1.00  0.00     0.040 A 
ATOM     22  C   UNL     1       7.629  47.514  53.209  1.00  0.00     0.026 A 
ATOM     23  C   UNL     1       9.640  46.361  52.583  1.00  0.00     0.026 A 
ATOM     24  C   UNL     1       8.247  47.972  54.376  1.00  0.00     0.006 A 
ATOM     25  C   UNL     1      10.263  46.816  53.751  1.00  0.00     0.006 A 
ATOM     26  C   UNL     1       9.575  47.632  54.654  1.00  0.00    -0.048 A 
BRANCH  26  27
ATOM     27  C   UNL     1      10.239  48.110  55.919  1.00  0.00     0.032 C 
ATOM     28  C   UNL     1      11.373  47.190  56.346  1.00  0.00     0.009 C 
ENDBRANCH  26  27
ENDBRANCH  19  21
ENDBRANCH   4  19
TORSDOF 7
ENDMDL
MODEL 6
REMARK VINA RESULT:    -8.164      2.437      7.055
REMARK INTER + INTRA:         -12.461
REMARK INTER:                 -11.585
REMARK INTRA:                  -0.876
REMARK UNBOUND:                -0.956
REMARK SMILES CCc1ccc(Nc2nc(NCC[NH+](C)C)nc3c2cnn3C)cc1
REMARK SMILES IDX 10 1 9 2 17 3 8 4 18 5 19 6 22 7 20 8 21 9 23 10 11 11 12 13
REMARK SMILES IDX 13 14 14 15 15 16 16 17 7 19 6 21 5 22 24 23 4 24 25 25 3 26
REMARK SMILES IDX 2 27 1 28
REMARK H PARENT 11 12 14 18 7 20
ROOT
ATOM      1  C   UNL     1       5.959  46.823  54.211  1.00  0.00     0.226 A 
ATOM      2  N   UNL     1       5.742  46.303  52.997  1.00  0.00    -0.195 NA
ATOM      3  N   UNL     1       7.140  47.200  54.723  1.00  0.00    -0.193 NA
ATOM      4  C   UNL     1       6.782  46.110  52.143  1.00  0.00     0.147 A 
ATOM      5  C   UNL     1       8.159  46.957  53.878  1.00  0.00     0.165 A 
ATOM      6  C   UNL     1       8.063  46.423  52.606  1.00  0.00     0.082 A 
ATOM      7  N   UNL     1       9.496  47.168  54.093  1.00  0.00    -0.250 N 
ATOM      8  C   UNL     1       9.397  46.334  52.159  1.00  0.00     0.149 A 
ATOM      9  N   UNL     1      10.273  46.803  53.054  1.00  0.00    -0.179 NA
ATOM     10  C   UNL     1      10.118  47.702  55.278  1.00  0.00     0.176 C 
ENDROOT
BRANCH   1  11
ATOM     11  N   UNL     1       4.800  47.015  54.973  1.00  0.00    -0.348 N 
ATOM     12  H   UNL     1       4.200  47.523  54.317  1.00  0.00     0.163 HD
BRANCH  11  13
ATOM     13  C   UNL     1       4.195  45.756  55.436  1.00  0.00     0.177 C 
BRANCH  13  14
ATOM     14  C   UNL     1       2.687  45.720  55.099  1.00  0.00     0.283 C 
BRANCH  14  15
ATOM     15  N   UNL     1       2.510  45.240  53.663  1.00  0.00    -0.338 N 
ATOM     16  C   UNL     1       1.660  44.017  53.540  1.00  0.00     0.332 C 
ATOM     17  C   UNL     1       2.103  46.331  52.727  1.00  0.00     0.332 C 
ATOM     18  H   UNL     1       3.475  44.960  53.402  1.00  0.00     0.347 HD
ENDBRANCH  14  15
ENDBRANCH  13  14
ENDBRANCH  11  13
ENDBRANCH   1  11
BRANCH   4  19
ATOM     19  N   UNL     1       6.487  45.544  50.899  1.00  0.00    -0.339 N 
ATOM     20  H   UNL     1       7.233  45.760  50.243  1.00  0.00     0.168 HD
BRANCH  19  21
ATOM     21  C   UNL     1       5.883  44.307  50.595  1.00  0.00     0.040 A 
ATOM     22  C   UNL     1       4.633  44.022  51.159  1.00  0.00     0.026 A 
ATOM     23  C   UNL     1       6.461  43.356  49.749  1.00  0.00     0.026 A 
ATOM     24  C   UNL     1       3.985  42.812  50.899  1.00  0.00     0.006 A 
ATOM     25  C   UNL     1       5.814  42.143  49.486  1.00  0.00     0.006 A 
ATOM     26  C   UNL     1       4.574  41.856  50.065  1.00  0.00    -0.048 A 
BRANCH  26  27
ATOM     27  C   UNL     1       3.870  40.557  49.770  1.00  0.00     0.032 C 
ATOM     28  C   UNL     1       3.669  40.348  48.277  1.00  0.00     0.009 C 
ENDBRANCH  26  27
ENDBRANCH  19  21
ENDBRANCH   4  19
TORSDOF 7
ENDMDL
MODEL 7
REMARK VINA RESULT:    -8.160      1.411      1.753
REMARK INTER + INTRA:         -12.456
REMARK INTER:                 -11.620
REMARK INTRA:                  -0.836
REMARK UNBOUND:                -0.956
REMARK SMILES CCc1ccc(Nc2nc(NCC[NH+](C)C)nc3c2cnn3C)cc1
REMARK SMILES IDX 10 1 9 2 17 3 8 4 18 5 19 6 22 7 20 8 21 9 23 10 11 11 12 13
REMARK SMILES IDX 13 14 14 15 15 16 16 17 7 19 6 21 5 22 24 23 4 24 25 25 3 26
REMARK SMILES IDX 2 27 1 28
REMARK H PARENT 11 12 14 18 7 20
ROOT
ATOM      1  C   UNL     1       2.756  42.322  51.148  1.00  0.00     0.226 A 
ATOM      2  N   UNL     1       3.669  42.950  51.900  1.00  0.00    -0.195 NA
ATOM      3  N   UNL     1       1.503  42.730  50.901  1.00  0.00    -0.193 NA
ATOM      4  C   UNL     1       3.359  44.127  52.507  1.00  0.00     0.147 A 
ATOM      5  C   UNL     1       1.204  43.871  51.549  1.00  0.00     0.165 A 
ATOM      6  C   UNL     1       2.055  44.607  52.353  1.00  0.00     0.082 A 
ATOM      7  N   UNL     1       0.008  44.539  51.564  1.00  0.00    -0.250 N 
ATOM      8  C   UNL     1       1.264  45.678  52.818  1.00  0.00     0.149 A 
ATOM      9  N   UNL     1       0.020  45.650  52.327  1.00  0.00    -0.179 NA
ATOM     10  C   UNL     1      -1.210  44.169  50.888  1.00  0.00     0.176 C 
ENDROOT
BRANCH   1  11
ATOM     11  N   UNL     1       3.218  41.147  50.542  1.00  0.00    -0.348 N 
ATOM     12  H   UNL     1       2.555  41.037  49.768  1.00  0.00     0.163 HD
BRANCH  11  13
ATOM     13  C   UNL     1       4.613  41.239  50.085  1.00  0.00     0.177 C 
BRANCH  13  14
ATOM     14  C   UNL     1       4.727  40.832  48.598  1.00  0.00     0.283 C 
BRANCH  14  15
ATOM     15  N   UNL     1       5.930  41.535  47.982  1.00  0.00    -0.338 N 
ATOM     16  C   UNL     1       5.726  41.935  46.556  1.00  0.00     0.332 C 
ATOM     17  C   UNL     1       6.458  42.646  48.830  1.00  0.00     0.332 C 
ATOM     18  H   UNL     1       6.649  40.786  47.980  1.00  0.00     0.347 HD
ENDBRANCH  14  15
ENDBRANCH  13  14
ENDBRANCH  11  13
ENDBRANCH   1  11
BRANCH   4  19
ATOM     19  N   UNL     1       4.352  44.718  53.294  1.00  0.00    -0.339 N 
ATOM     20  H   UNL     1       4.456  44.193  54.158  1.00  0.00     0.168 HD
BRANCH  19  21
ATOM     21  C   UNL     1       5.571  45.308  52.906  1.00  0.00     0.040 A 
ATOM     22  C   UNL     1       6.458  45.721  53.908  1.00  0.00     0.026 A 
ATOM     23  C   UNL     1       5.949  45.490  51.572  1.00  0.00     0.026 A 
ATOM     24  C   UNL     1       7.681  46.316  53.589  1.00  0.00     0.006 A 
ATOM     25  C   UNL     1       7.173  46.084  51.248  1.00  0.00     0.006 A 
ATOM     26  C   UNL     1       8.047  46.511  52.253  1.00  0.00    -0.048 A 
BRANCH  26  27
ATOM     27  C   UNL     1       9.372  47.137  51.905  1.00  0.00     0.032 C 
ATOM     28  C   UNL     1      10.495  46.111  51.879  1.00  0.00     0.009 C 
ENDBRANCH  26  27
ENDBRANCH  19  21
ENDBRANCH   4  19
TORSDOF 7
ENDMDL
MODEL 8
REMARK VINA RESULT:    -8.107      1.462      5.230
REMARK INTER + INTRA:         -12.381
REMARK INTER:                 -12.155
REMARK INTRA:                  -0.226
REMARK UNBOUND:                -0.956
REMARK SMILES CCc1ccc(Nc2nc(NCC[NH+](C)C)nc3c2cnn3C)cc1
REMARK SMILES IDX 10 1 9 2 17 3 8 4 18 5 19 6 22 7 20 8 21 9 23 10 11 11 12 13
REMARK SMILES IDX 13 14 14 15 15 16 16 17 7 19 6 21 5 22 24 23 4 24 25 25 3 26
REMARK SMILES IDX 2 27 1 28
REMARK H PARENT 11 12 14 18 7 20
ROOT
ATOM      1  C   UNL     1       4.252  43.885  52.486  1.00  0.00     0.226 A 
ATOM      2  N   UNL     1       5.260  44.756  52.358  1.00  0.00    -0.195 NA
ATOM      3  N   UNL     1       4.006  42.822  51.706  1.00  0.00    -0.193 NA
ATOM      4  C   UNL     1       6.165  44.606  51.353  1.00  0.00     0.147 A 
ATOM      5  C   UNL     1       4.886  42.722  50.693  1.00  0.00     0.165 A 
ATOM      6  C   UNL     1       5.962  43.556  50.453  1.00  0.00     0.082 A 
ATOM      7  N   UNL     1       4.902  41.794  49.686  1.00  0.00    -0.250 N 
ATOM      8  C   UNL     1       6.540  43.056  49.268  1.00  0.00     0.149 A 
ATOM      9  N   UNL     1       5.908  41.971  48.806  1.00  0.00    -0.179 NA
ATOM     10  C   UNL     1       3.977  40.708  49.479  1.00  0.00     0.176 C 
ENDROOT
BRANCH   1  11
ATOM     11  N   UNL     1       3.420  44.124  53.588  1.00  0.00    -0.348 N 
ATOM     12  H   UNL     1       3.839  44.969  53.986  1.00  0.00     0.163 HD
BRANCH  11  13
ATOM     13  C   UNL     1       2.008  44.308  53.219  1.00  0.00     0.177 C 
BRANCH  13  14
ATOM     14  C   UNL     1       1.512  45.708  53.649  1.00  0.00     0.283 C 
BRANCH  14  15
ATOM     15  N   UNL     1       0.467  45.549  54.747  1.00  0.00    -0.338 N 
ATOM     16  C   UNL     1      -0.592  44.544  54.427  1.00  0.00     0.332 C 
ATOM     17  C   UNL     1       1.066  45.354  56.102  1.00  0.00     0.332 C 
ATOM     18  H   UNL     1       0.005  46.478  54.750  1.00  0.00     0.347 HD
ENDBRANCH  14  15
ENDBRANCH  13  14
ENDBRANCH  11  13
ENDBRANCH   1  11
BRANCH   4  19
ATOM     19  N   UNL     1       7.181  45.563  51.265  1.00  0.00    -0.339 N 
ATOM     20  H   UNL     1       6.985  46.195  50.494  1.00  0.00     0.168 HD
BRANCH  19  21
ATOM     21  C   UNL     1       7.890  46.217  52.293  1.00  0.00     0.040 A 
ATOM     22  C   UNL     1       7.175  46.661  53.413  1.00  0.00     0.026 A 
ATOM     23  C   UNL     1       9.270  46.431  52.261  1.00  0.00     0.026 A 
ATOM     24  C   UNL     1       7.819  47.319  54.464  1.00  0.00     0.006 A 
ATOM     25  C   UNL     1       9.920  47.089  53.312  1.00  0.00     0.006 A 
ATOM     26  C   UNL     1       9.198  47.546  54.419  1.00  0.00    -0.048 A 
BRANCH  26  27
ATOM     27  C   UNL     1       9.899  48.241  55.559  1.00  0.00     0.032 C 
ATOM     28  C   UNL     1      11.056  47.416  56.100  1.00  0.00     0.009 C 
ENDBRANCH  26  27
ENDBRANCH  19  21
ENDBRANCH   4  19
TORSDOF 7
ENDMDL
MODEL 9
REMARK VINA RESULT:    -7.872      2.299      3.725
REMARK INTER + INTRA:         -12.050
REMARK INTER:                 -10.637
REMARK INTRA:                  -1.413
REMARK UNBOUND:                -0.956
REMARK SMILES CCc1ccc(Nc2nc(NCC[NH+](C)C)nc3c2cnn3C)cc1
REMARK SMILES IDX 10 1 9 2 17 3 8 4 18 5 19 6 22 7 20 8 21 9 23 10 11 11 12 13
REMARK SMILES IDX 13 14 14 15 15 16 16 17 7 19 6 21 5 22 24 23 4 24 25 25 3 26
REMARK SMILES IDX 2 27 1 28
REMARK H PARENT 11 12 14 18 7 20
ROOT
ATOM      1  C   UNL     1       1.172  43.915  53.947  1.00  0.00     0.226 A 
ATOM      2  N   UNL     1       2.301  44.540  54.303  1.00  0.00    -0.195 NA
ATOM      3  N   UNL     1      -0.014  43.983  54.571  1.00  0.00    -0.193 NA
ATOM      4  C   UNL     1       2.318  45.342  55.400  1.00  0.00     0.147 A 
ATOM      5  C   UNL     1       0.040  44.745  55.679  1.00  0.00     0.165 A 
ATOM      6  C   UNL     1       1.142  45.435  56.149  1.00  0.00     0.082 A 
ATOM      7  N   UNL     1      -0.965  44.991  56.577  1.00  0.00    -0.250 N 
ATOM      8  C   UNL     1       0.697  46.039  57.344  1.00  0.00     0.149 A 
ATOM      9  N   UNL     1      -0.592  45.786  57.600  1.00  0.00    -0.179 NA
ATOM     10  C   UNL     1      -2.315  44.487  56.540  1.00  0.00     0.176 C 
ENDROOT
BRANCH   1  11
ATOM     11  N   UNL     1       1.276  43.158  52.773  1.00  0.00    -0.348 N 
ATOM     12  H   UNL     1       0.946  43.822  52.066  1.00  0.00     0.163 HD
BRANCH  11  13
ATOM     13  C   UNL     1       2.643  42.682  52.510  1.00  0.00     0.177 C 
BRANCH  13  14
ATOM     14  C   UNL     1       3.165  43.242  51.167  1.00  0.00     0.283 C 
BRANCH  14  15
ATOM     15  N   UNL     1       3.937  44.529  51.432  1.00  0.00    -0.338 N 
ATOM     16  C   UNL     1       5.352  44.490  50.951  1.00  0.00     0.332 C 
ATOM     17  C   UNL     1       3.205  45.753  50.990  1.00  0.00     0.332 C 
ATOM     18  H   UNL     1       3.976  44.556  52.469  1.00  0.00     0.347 HD
ENDBRANCH  14  15
ENDBRANCH  13  14
ENDBRANCH  11  13
ENDBRANCH   1  11
BRANCH   4  19
ATOM     19  N   UNL     1       3.536  45.948  55.726  1.00  0.00    -0.339 N 
ATOM     20  H   UNL     1       3.837  45.632  56.643  1.00  0.00     0.168 HD
BRANCH  19  21
ATOM     21  C   UNL     1       4.639  46.245  54.902  1.00  0.00     0.040 A 
ATOM     22  C   UNL     1       5.773  45.428  54.990  1.00  0.00     0.026 A 
ATOM     23  C   UNL     1       4.656  47.303  53.988  1.00  0.00     0.026 A 
ATOM     24  C   UNL     1       6.901  45.672  54.202  1.00  0.00     0.006 A 
ATOM     25  C   UNL     1       5.782  47.551  53.196  1.00  0.00     0.006 A 
ATOM     26  C   UNL     1       6.919  46.742  53.302  1.00  0.00    -0.048 A 
BRANCH  26  27
ATOM     27  C   UNL     1       8.127  46.998  52.439  1.00  0.00     0.032 C 
ATOM     28  C   UNL     1       9.406  47.061  53.258  1.00  0.00     0.009 C 
ENDBRANCH  26  27
ENDBRANCH  19  21
ENDBRANCH   4  19
TORSDOF 7
ENDMDL
MODEL 10
REMARK VINA RESULT:    -7.835      2.624      5.885
REMARK INTER + INTRA:         -11.997
REMARK INTER:                 -11.135
REMARK INTRA:                  -0.862
REMARK UNBOUND:                -0.956
REMARK SMILES CCc1ccc(Nc2nc(NCC[NH+](C)C)nc3c2cnn3C)cc1
REMARK SMILES IDX 10 1 9 2 17 3 8 4 18 5 19 6 22 7 20 8 21 9 23 10 11 11 12 13
REMARK SMILES IDX 13 14 14 15 15 16 16 17 7 19 6 21 5 22 24 23 4 24 25 25 3 26
REMARK SMILES IDX 2 27 1 28
REMARK H PARENT 11 12 14 18 7 20
ROOT
ATOM      1  C   UNL     1       2.005  45.229  55.004  1.00  0.00     0.226 A 
ATOM      2  N   UNL     1       2.825  45.965  54.245  1.00  0.00    -0.195 NA
ATOM      3  N   UNL     1       1.273  44.177  54.608  1.00  0.00    -0.193 NA
ATOM      4  C   UNL     1       2.978  45.672  52.926  1.00  0.00     0.147 A 
ATOM      5  C   UNL     1       1.406  43.934  53.291  1.00  0.00     0.165 A 
ATOM      6  C   UNL     1       2.215  44.623  52.406  1.00  0.00     0.082 A 
ATOM      7  N   UNL     1       0.770  42.976  52.547  1.00  0.00    -0.250 N 
ATOM      8  C   UNL     1       1.970  44.014  51.158  1.00  0.00     0.149 A 
ATOM      9  N   UNL     1       1.104  42.999  51.241  1.00  0.00    -0.179 NA
ATOM     10  C   UNL     1      -0.191  42.005  53.006  1.00  0.00     0.176 C 
ENDROOT
BRANCH   1  11
ATOM     11  N   UNL     1       1.973  45.606  56.353  1.00  0.00    -0.348 N 
ATOM     12  H   UNL     1       2.090  46.622  56.289  1.00  0.00     0.163 HD
BRANCH  11  13
ATOM     13  C   UNL     1       0.728  45.219  57.034  1.00  0.00     0.177 C 
BRANCH  13  14
ATOM     14  C   UNL     1      -0.015  46.469  57.561  1.00  0.00     0.283 C 
BRANCH  14  15
ATOM     15  N   UNL     1      -1.191  46.771  56.641  1.00  0.00    -0.338 N 
ATOM     16  C   UNL     1      -1.931  45.553  56.191  1.00  0.00     0.332 C 
ATOM     17  C   UNL     1      -2.093  47.837  57.174  1.00  0.00     0.332 C 
ATOM     18  H   UNL     1      -0.723  47.162  55.801  1.00  0.00     0.347 HD
ENDBRANCH  14  15
ENDBRANCH  13  14
ENDBRANCH  11  13
ENDBRANCH   1  11
BRANCH   4  19
ATOM     19  N   UNL     1       3.835  46.494  52.187  1.00  0.00    -0.339 N 
ATOM     20  H   UNL     1       3.477  47.445  52.190  1.00  0.00     0.168 HD
BRANCH  19  21
ATOM     21  C   UNL     1       5.242  46.479  52.102  1.00  0.00     0.040 A 
ATOM     22  C   UNL     1       5.971  47.227  53.035  1.00  0.00     0.026 A 
ATOM     23  C   UNL     1       5.948  45.744  51.146  1.00  0.00     0.026 A 
ATOM     24  C   UNL     1       7.368  47.256  53.003  1.00  0.00     0.006 A 
ATOM     25  C   UNL     1       7.346  45.769  51.110  1.00  0.00     0.006 A 
ATOM     26  C   UNL     1       8.069  46.532  52.033  1.00  0.00    -0.048 A 
BRANCH  26  27
ATOM     27  C   UNL     1       9.575  46.548  52.005  1.00  0.00     0.032 C 
ATOM     28  C   UNL     1      10.164  46.919  53.357  1.00  0.00     0.009 C 
ENDBRANCH  26  27
ENDBRANCH  19  21
ENDBRANCH   4  19
TORSDOF 7
ENDMDL
MODEL 11
REMARK VINA RESULT:    -7.761      2.372      5.219
REMARK INTER + INTRA:         -11.893
REMARK INTER:                 -11.114
REMARK INTRA:                  -0.779
REMARK UNBOUND:                -0.956
REMARK SMILES CCc1ccc(Nc2nc(NCC[NH+](C)C)nc3c2cnn3C)cc1
REMARK SMILES IDX 10 1 9 2 17 3 8 4 18 5 19 6 22 7 20 8 21 9 23 10 11 11 12 13
REMARK SMILES IDX 13 14 14 15 15 16 16 17 7 19 6 21 5 22 24 23 4 24 25 25 3 26
REMARK SMILES IDX 2 27 1 28
REMARK H PARENT 11 12 14 18 7 20
ROOT
ATOM      1  C   UNL     1       2.064  44.485  54.801  1.00  0.00     0.226 A 
ATOM      2  N   UNL     1       2.614  43.765  53.815  1.00  0.00    -0.195 NA
ATOM      3  N   UNL     1       0.758  44.580  55.092  1.00  0.00    -0.193 NA
ATOM      4  C   UNL     1       1.824  43.032  52.986  1.00  0.00     0.147 A 
ATOM      5  C   UNL     1      -0.005  43.884  54.230  1.00  0.00     0.165 A 
ATOM      6  C   UNL     1       0.442  43.109  53.176  1.00  0.00     0.082 A 
ATOM      7  N   UNL     1      -1.373  43.801  54.200  1.00  0.00    -0.250 N 
ATOM      8  C   UNL     1      -0.735  42.629  52.566  1.00  0.00     0.149 A 
ATOM      9  N   UNL     1      -1.844  43.033  53.197  1.00  0.00    -0.179 NA
ATOM     10  C   UNL     1      -2.309  44.443  55.088  1.00  0.00     0.176 C 
ENDROOT
BRANCH   1  11
ATOM     11  N   UNL     1       2.989  45.155  55.611  1.00  0.00    -0.348 N 
ATOM     12  H   UNL     1       3.142  44.474  56.361  1.00  0.00     0.163 HD
BRANCH  11  13
ATOM     13  C   UNL     1       4.230  45.509  54.905  1.00  0.00     0.177 C 
BRANCH  13  14
ATOM     14  C   UNL     1       4.407  47.044  54.852  1.00  0.00     0.283 C 
BRANCH  14  15
ATOM     15  N   UNL     1       4.559  47.477  53.399  1.00  0.00    -0.338 N 
ATOM     16  C   UNL     1       5.810  46.977  52.752  1.00  0.00     0.332 C 
ATOM     17  C   UNL     1       3.336  47.222  52.580  1.00  0.00     0.332 C 
ATOM     18  H   UNL     1       4.658  48.507  53.483  1.00  0.00     0.347 HD
ENDBRANCH  14  15
ENDBRANCH  13  14
ENDBRANCH  11  13
ENDBRANCH   1  11
BRANCH   4  19
ATOM     19  N   UNL     1       2.463  42.320  51.965  1.00  0.00    -0.339 N 
ATOM     20  H   UNL     1       1.769  41.979  51.305  1.00  0.00     0.168 HD
BRANCH  19  21
ATOM     21  C   UNL     1       3.692  42.575  51.326  1.00  0.00     0.040 A 
ATOM     22  C   UNL     1       4.394  41.493  50.780  1.00  0.00     0.026 A 
ATOM     23  C   UNL     1       4.241  43.854  51.195  1.00  0.00     0.026 A 
ATOM     24  C   UNL     1       5.620  41.680  50.136  1.00  0.00     0.006 A 
ATOM     25  C   UNL     1       5.468  44.046  50.550  1.00  0.00     0.006 A 
ATOM     26  C   UNL     1       6.173  42.960  50.022  1.00  0.00    -0.048 A 
BRANCH  26  27
ATOM     27  C   UNL     1       7.487  43.167  49.314  1.00  0.00     0.032 C 
ATOM     28  C   UNL     1       8.112  44.509  49.661  1.00  0.00     0.009 C 
ENDBRANCH  26  27
ENDBRANCH  19  21
ENDBRANCH   4  19
TORSDOF 7
ENDMDL
MODEL 12
REMARK VINA RESULT:    -7.754      2.427      4.222
REMARK INTER + INTRA:         -11.883
REMARK INTER:                 -10.508
REMARK INTRA:                  -1.375
REMARK UNBOUND:                -0.956
REMARK SMILES CCc1ccc(Nc2nc(NCC[NH+](C)C)nc3c2cnn3C)cc1
REMARK SMILES IDX 10 1 9 2 17 3 8 4 18 5 19 6 22 7 20 8 21 9 23 10 11 11 12 13
REMARK SMILES IDX 13 14 14 15 15 16 16 17 7 19 6 21 5 22 24 23 4 24 25 25 3 26
REMARK SMILES IDX 2 27 1 28
REMARK H PARENT 11 12 14 18 7 20
ROOT
ATOM      1  C   UNL     1       0.293  44.013  54.144  1.00  0.00     0.226 A 
ATOM      2  N   UNL     1       1.596  44.173  54.407  1.00  0.00    -0.195 NA
ATOM      3  N   UNL     1      -0.734  44.497  54.856  1.00  0.00    -0.193 NA
ATOM      4  C   UNL     1       1.988  44.889  55.494  1.00  0.00     0.147 A 
ATOM      5  C   UNL     1      -0.323  45.162  55.951  1.00  0.00     0.165 A 
ATOM      6  C   UNL     1       0.987  45.391  56.331  1.00  0.00     0.082 A 
ATOM      7  N   UNL     1      -1.098  45.740  56.922  1.00  0.00    -0.250 N 
ATOM      8  C   UNL     1       0.884  46.089  57.551  1.00  0.00     0.149 A 
ATOM      9  N   UNL     1      -0.384  46.320  57.908  1.00  0.00    -0.179 NA
ATOM     10  C   UNL     1      -2.537  45.766  56.993  1.00  0.00     0.176 C 
ENDROOT
BRANCH   1  11
ATOM     11  N   UNL     1       0.025  43.296  52.970  1.00  0.00    -0.348 N 
ATOM     12  H   UNL     1      -0.996  43.218  53.001  1.00  0.00     0.163 HD
BRANCH  11  13
ATOM     13  C   UNL     1       0.507  43.971  51.756  1.00  0.00     0.177 C 
BRANCH  13  14
ATOM     14  C   UNL     1       1.747  43.246  51.185  1.00  0.00     0.283 C 
BRANCH  14  15
ATOM     15  N   UNL     1       3.004  43.972  51.649  1.00  0.00    -0.338 N 
ATOM     16  C   UNL     1       4.267  43.220  51.375  1.00  0.00     0.332 C 
ATOM     17  C   UNL     1       3.062  45.393  51.194  1.00  0.00     0.332 C 
ATOM     18  H   UNL     1       2.885  43.987  52.680  1.00  0.00     0.347 HD
ENDBRANCH  14  15
ENDBRANCH  13  14
ENDBRANCH  11  13
ENDBRANCH   1  11
BRANCH   4  19
ATOM     19  N   UNL     1       3.363  45.000  55.720  1.00  0.00    -0.339 N 
ATOM     20  H   UNL     1       3.696  44.168  56.200  1.00  0.00     0.168 HD
BRANCH  19  21
ATOM     21  C   UNL     1       4.367  45.549  54.897  1.00  0.00     0.040 A 
ATOM     22  C   UNL     1       4.195  46.854  54.421  1.00  0.00     0.026 A 
ATOM     23  C   UNL     1       5.533  44.863  54.545  1.00  0.00     0.026 A 
ATOM     24  C   UNL     1       5.153  47.454  53.598  1.00  0.00     0.006 A 
ATOM     25  C   UNL     1       6.495  45.460  53.722  1.00  0.00     0.006 A 
ATOM     26  C   UNL     1       6.310  46.757  53.234  1.00  0.00    -0.048 A 
BRANCH  26  27
ATOM     27  C   UNL     1       7.352  47.406  52.361  1.00  0.00     0.032 C 
ATOM     28  C   UNL     1       8.697  47.508  53.063  1.00  0.00     0.009 C 
ENDBRANCH  26  27
ENDBRANCH  19  21
ENDBRANCH   4  19
TORSDOF 7
ENDMDL
MODEL 13
REMARK VINA RESULT:    -7.649      2.112      5.062
REMARK INTER + INTRA:         -11.735
REMARK INTER:                 -11.002
REMARK INTRA:                  -0.733
REMARK UNBOUND:                -0.956
REMARK SMILES CCc1ccc(Nc2nc(NCC[NH+](C)C)nc3c2cnn3C)cc1
REMARK SMILES IDX 10 1 9 2 17 3 8 4 18 5 19 6 22 7 20 8 21 9 23 10 11 11 12 13
REMARK SMILES IDX 13 14 14 15 15 16 16 17 7 19 6 21 5 22 24 23 4 24 25 25 3 26
REMARK SMILES IDX 2 27 1 28
REMARK H PARENT 11 12 14 18 7 20
ROOT
ATOM      1  C   UNL     1       2.701  44.932  54.943  1.00  0.00     0.226 A 
ATOM      2  N   UNL     1       3.076  44.191  53.894  1.00  0.00    -0.195 NA
ATOM      3  N   UNL     1       1.473  45.002  55.478  1.00  0.00    -0.193 NA
ATOM      4  C   UNL     1       2.168  43.404  53.256  1.00  0.00     0.147 A 
ATOM      5  C   UNL     1       0.583  44.253  54.803  1.00  0.00     0.165 A 
ATOM      6  C   UNL     1       0.846  43.451  53.708  1.00  0.00     0.082 A 
ATOM      7  N   UNL     1      -0.761  44.130  55.040  1.00  0.00    -0.250 N 
ATOM      8  C   UNL     1      -0.409  42.915  53.353  1.00  0.00     0.149 A 
ATOM      9  N   UNL     1      -1.389  43.312  54.172  1.00  0.00    -0.179 NA
ATOM     10  C   UNL     1      -1.531  44.780  56.071  1.00  0.00     0.176 C 
ENDROOT
BRANCH   1  11
ATOM     11  N   UNL     1       3.741  45.658  55.538  1.00  0.00    -0.348 N 
ATOM     12  H   UNL     1       3.462  45.654  56.523  1.00  0.00     0.163 HD
BRANCH  11  13
ATOM     13  C   UNL     1       5.066  45.057  55.319  1.00  0.00     0.177 C 
BRANCH  13  14
ATOM     14  C   UNL     1       6.103  46.145  54.956  1.00  0.00     0.283 C 
BRANCH  14  15
ATOM     15  N   UNL     1       6.285  46.173  53.443  1.00  0.00    -0.338 N 
ATOM     16  C   UNL     1       5.417  47.175  52.753  1.00  0.00     0.332 C 
ATOM     17  C   UNL     1       7.716  46.255  53.026  1.00  0.00     0.332 C 
ATOM     18  H   UNL     1       5.940  45.235  53.160  1.00  0.00     0.347 HD
ENDBRANCH  14  15
ENDBRANCH  13  14
ENDBRANCH  11  13
ENDBRANCH   1  11
BRANCH   4  19
ATOM     19  N   UNL     1       2.622  42.672  52.155  1.00  0.00    -0.339 N 
ATOM     20  H   UNL     1       1.839  42.458  51.544  1.00  0.00     0.168 HD
BRANCH  19  21
ATOM     21  C   UNL     1       3.820  42.801  51.424  1.00  0.00     0.040 A 
ATOM     22  C   UNL     1       4.410  41.641  50.907  1.00  0.00     0.026 A 
ATOM     23  C   UNL     1       4.440  44.028  51.173  1.00  0.00     0.026 A 
ATOM     24  C   UNL     1       5.599  41.702  50.175  1.00  0.00     0.006 A 
ATOM     25  C   UNL     1       5.630  44.094  50.440  1.00  0.00     0.006 A 
ATOM     26  C   UNL     1       6.225  42.931  49.942  1.00  0.00    -0.048 A 
BRANCH  26  27
ATOM     27  C   UNL     1       7.499  43.002  49.139  1.00  0.00     0.032 C 
ATOM     28  C   UNL     1       8.277  44.278  49.423  1.00  0.00     0.009 C 
ENDBRANCH  26  27
ENDBRANCH  19  21
ENDBRANCH   4  19
TORSDOF 7
ENDMDL
MODEL 14
REMARK VINA RESULT:    -7.587      1.541      5.205
REMARK INTER + INTRA:         -11.647
REMARK INTER:                 -10.863
REMARK INTRA:                  -0.784
REMARK UNBOUND:                -0.956
REMARK SMILES CCc1ccc(Nc2nc(NCC[NH+](C)C)nc3c2cnn3C)cc1
REMARK SMILES IDX 10 1 9 2 17 3 8 4 18 5 19 6 22 7 20 8 21 9 23 10 11 11 12 13
REMARK SMILES IDX 13 14 14 15 15 16 16 17 7 19 6 21 5 22 24 23 4 24 25 25 3 26
REMARK SMILES IDX 2 27 1 28
REMARK H PARENT 11 12 14 18 7 20
ROOT
ATOM      1  C   UNL     1       2.163  44.540  51.962  1.00  0.00     0.226 A 
ATOM      2  N   UNL     1       2.993  45.584  52.074  1.00  0.00    -0.195 NA
ATOM      3  N   UNL     1       2.464  43.323  51.486  1.00  0.00    -0.193 NA
ATOM      4  C   UNL     1       4.290  45.467  51.682  1.00  0.00     0.147 A 
ATOM      5  C   UNL     1       3.738  43.245  51.063  1.00  0.00     0.165 A 
ATOM      6  C   UNL     1       4.687  44.249  51.121  1.00  0.00     0.082 A 
ATOM      7  N   UNL     1       4.364  42.176  50.478  1.00  0.00    -0.250 N 
ATOM      8  C   UNL     1       5.834  43.687  50.525  1.00  0.00     0.149 A 
ATOM      9  N   UNL     1       5.648  42.417  50.146  1.00  0.00    -0.179 NA
ATOM     10  C   UNL     1       3.797  40.884  50.181  1.00  0.00     0.176 C 
ENDROOT
BRANCH   1  11
ATOM     11  N   UNL     1       0.869  44.778  52.445  1.00  0.00    -0.348 N 
ATOM     12  H   UNL     1       0.292  44.338  51.721  1.00  0.00     0.163 HD
BRANCH  11  13
ATOM     13  C   UNL     1       0.636  44.210  53.781  1.00  0.00     0.177 C 
BRANCH  13  14
ATOM     14  C   UNL     1       0.941  45.256  54.878  1.00  0.00     0.283 C 
BRANCH  14  15
ATOM     15  N   UNL     1      -0.334  45.537  55.665  1.00  0.00    -0.338 N 
ATOM     16  C   UNL     1      -1.324  44.418  55.623  1.00  0.00     0.332 C 
ATOM     17  C   UNL     1      -0.070  46.030  57.050  1.00  0.00     0.332 C 
ATOM     18  H   UNL     1      -0.753  46.325  55.136  1.00  0.00     0.347 HD
ENDBRANCH  14  15
ENDBRANCH  13  14
ENDBRANCH  11  13
ENDBRANCH   1  11
BRANCH   4  19
ATOM     19  N   UNL     1       5.098  46.602  51.807  1.00  0.00    -0.339 N 
ATOM     20  H   UNL     1       4.514  47.413  51.992  1.00  0.00     0.168 HD
BRANCH  19  21
ATOM     21  C   UNL     1       6.366  46.739  52.406  1.00  0.00     0.040 A 
ATOM     22  C   UNL     1       7.489  46.806  51.572  1.00  0.00     0.026 A 
ATOM     23  C   UNL     1       6.560  46.829  53.787  1.00  0.00     0.026 A 
ATOM     24  C   UNL     1       8.775  46.939  52.104  1.00  0.00     0.006 A 
ATOM     25  C   UNL     1       7.845  46.964  54.324  1.00  0.00     0.006 A 
ATOM     26  C   UNL     1       8.965  47.011  53.487  1.00  0.00    -0.048 A 
BRANCH  26  27
ATOM     27  C   UNL     1      10.348  47.171  54.064  1.00  0.00     0.032 C 
ATOM     28  C   UNL     1      10.309  47.588  55.526  1.00  0.00     0.009 C 
ENDBRANCH  26  27
ENDBRANCH  19  21
ENDBRANCH   4  19
TORSDOF 7
ENDMDL
MODEL 15
REMARK VINA RESULT:    -7.523      2.122      7.351
REMARK INTER + INTRA:         -11.557
REMARK INTER:                 -10.663
REMARK INTRA:                  -0.894
REMARK UNBOUND:                -0.956
REMARK SMILES CCc1ccc(Nc2nc(NCC[NH+](C)C)nc3c2cnn3C)cc1
REMARK SMILES IDX 10 1 9 2 17 3 8 4 18 5 19 6 22 7 20 8 21 9 23 10 11 11 12 13
REMARK SMILES IDX 13 14 14 15 15 16 16 17 7 19 6 21 5 22 24 23 4 24 25 25 3 26
REMARK SMILES IDX 2 27 1 28
REMARK H PARENT 11 12 14 18 7 20
ROOT
ATOM      1  C   UNL     1       6.796  44.868  50.649  1.00  0.00     0.226 A 
ATOM      2  N   UNL     1       6.881  43.830  49.808  1.00  0.00    -0.195 NA
ATOM      3  N   UNL     1       5.911  45.023  51.645  1.00  0.00    -0.193 NA
ATOM      4  C   UNL     1       6.011  42.791  49.919  1.00  0.00     0.147 A 
ATOM      5  C   UNL     1       5.033  44.006  51.706  1.00  0.00     0.165 A 
ATOM      6  C   UNL     1       5.015  42.885  50.896  1.00  0.00     0.082 A 
ATOM      7  N   UNL     1       3.972  43.864  52.561  1.00  0.00    -0.250 N 
ATOM      8  C   UNL     1       3.893  42.151  51.332  1.00  0.00     0.149 A 
ATOM      9  N   UNL     1       3.263  42.734  52.358  1.00  0.00    -0.179 NA
ATOM     10  C   UNL     1       3.552  44.776  53.595  1.00  0.00     0.176 C 
ENDROOT
BRANCH   1  11
ATOM     11  N   UNL     1       7.779  45.847  50.458  1.00  0.00    -0.348 N 
ATOM     12  H   UNL     1       7.464  46.294  49.592  1.00  0.00     0.163 HD
BRANCH  11  13
ATOM     13  C   UNL     1       7.881  46.793  51.580  1.00  0.00     0.177 C 
BRANCH  13  14
ATOM     14  C   UNL     1       9.256  46.666  52.275  1.00  0.00     0.283 C 
BRANCH  14  15
ATOM     15  N   UNL     1       9.043  46.533  53.778  1.00  0.00    -0.338 N 
ATOM     16  C   UNL     1      10.104  47.196  54.596  1.00  0.00     0.332 C 
ATOM     17  C   UNL     1       7.660  46.898  54.209  1.00  0.00     0.332 C 
ATOM     18  H   UNL     1       9.147  45.511  53.928  1.00  0.00     0.347 HD
ENDBRANCH  14  15
ENDBRANCH  13  14
ENDBRANCH  11  13
ENDBRANCH   1  11
BRANCH   4  19
ATOM     19  N   UNL     1       6.143  41.749  48.996  1.00  0.00    -0.339 N 
ATOM     20  H   UNL     1       6.469  40.913  49.474  1.00  0.00     0.168 HD
BRANCH  19  21
ATOM     21  C   UNL     1       5.334  41.421  47.890  1.00  0.00     0.040 A 
ATOM     22  C   UNL     1       5.710  41.897  46.628  1.00  0.00     0.026 A 
ATOM     23  C   UNL     1       4.183  40.633  47.984  1.00  0.00     0.026 A 
ATOM     24  C   UNL     1       4.948  41.609  45.492  1.00  0.00     0.006 A 
ATOM     25  C   UNL     1       3.418  40.341  46.850  1.00  0.00     0.006 A 
ATOM     26  C   UNL     1       3.789  40.834  45.595  1.00  0.00    -0.048 A 
BRANCH  26  27
ATOM     27  C   UNL     1       2.974  40.508  44.370  1.00  0.00     0.032 C 
ATOM     28  C   UNL     1       1.546  41.018  44.487  1.00  0.00     0.009 C 
ENDBRANCH  26  27
ENDBRANCH  19  21
ENDBRANCH   4  19
TORSDOF 7
ENDMDL
MODEL 16
REMARK VINA RESULT:    -7.390      2.304      7.651
REMARK INTER + INTRA:         -11.369
REMARK INTER:                 -10.572
REMARK INTRA:                  -0.797
REMARK UNBOUND:                -0.956
REMARK SMILES CCc1ccc(Nc2nc(NCC[NH+](C)C)nc3c2cnn3C)cc1
REMARK SMILES IDX 10 1 9 2 17 3 8 4 18 5 19 6 22 7 20 8 21 9 23 10 11 11 12 13
REMARK SMILES IDX 13 14 14 15 15 16 16 17 7 19 6 21 5 22 24 23 4 24 25 25 3 26
REMARK SMILES IDX 2 27 1 28
REMARK H PARENT 11 12 14 18 7 20
ROOT
ATOM      1  C   UNL     1       5.767  45.726  52.128  1.00  0.00     0.226 A 
ATOM      2  N   UNL     1       4.768  45.022  52.672  1.00  0.00    -0.195 NA
ATOM      3  N   UNL     1       6.553  45.349  51.108  1.00  0.00    -0.193 NA
ATOM      4  C   UNL     1       4.464  43.787  52.189  1.00  0.00     0.147 A 
ATOM      5  C   UNL     1       6.264  44.107  50.679  1.00  0.00     0.165 A 
ATOM      6  C   UNL     1       5.263  43.283  51.159  1.00  0.00     0.082 A 
ATOM      7  N   UNL     1       6.895  43.392  49.695  1.00  0.00    -0.250 N 
ATOM      8  C   UNL     1       5.397  42.093  50.415  1.00  0.00     0.149 A 
ATOM      9  N   UNL     1       6.379  42.160  49.509  1.00  0.00    -0.179 NA
ATOM     10  C   UNL     1       8.017  43.808  48.893  1.00  0.00     0.176 C 
ENDROOT
BRANCH   1  11
ATOM     11  N   UNL     1       5.946  46.999  52.685  1.00  0.00    -0.348 N 
ATOM     12  H   UNL     1       5.123  47.080  53.290  1.00  0.00     0.163 HD
BRANCH  11  13
ATOM     13  C   UNL     1       7.210  47.137  53.424  1.00  0.00     0.177 C 
BRANCH  13  14
ATOM     14  C   UNL     1       8.244  47.928  52.590  1.00  0.00     0.283 C 
BRANCH  14  15
ATOM     15  N   UNL     1       9.638  47.389  52.887  1.00  0.00    -0.338 N 
ATOM     16  C   UNL     1       9.874  47.098  54.334  1.00  0.00     0.332 C 
ATOM     17  C   UNL     1      10.032  46.259  51.993  1.00  0.00     0.332 C 
ATOM     18  H   UNL     1      10.245  48.195  52.642  1.00  0.00     0.347 HD
ENDBRANCH  14  15
ENDBRANCH  13  14
ENDBRANCH  11  13
ENDBRANCH   1  11
BRANCH   4  19
ATOM     19  N   UNL     1       3.421  43.098  52.817  1.00  0.00    -0.339 N 
ATOM     20  H   UNL     1       3.540  43.149  53.825  1.00  0.00     0.168 HD
BRANCH  19  21
ATOM     21  C   UNL     1       2.058  43.022  52.468  1.00  0.00     0.040 A 
ATOM     22  C   UNL     1       1.146  42.601  53.444  1.00  0.00     0.026 A 
ATOM     23  C   UNL     1       1.566  43.359  51.204  1.00  0.00     0.026 A 
ATOM     24  C   UNL     1      -0.219  42.501  53.160  1.00  0.00     0.006 A 
ATOM     25  C   UNL     1       0.201  43.262  50.915  1.00  0.00     0.006 A 
ATOM     26  C   UNL     1      -0.703  42.824  51.888  1.00  0.00    -0.048 A 
BRANCH  26  27
ATOM     27  C   UNL     1      -2.176  42.734  51.583  1.00  0.00     0.032 C 
ATOM     28  C   UNL     1      -2.461  42.920  50.101  1.00  0.00     0.009 C 
ENDBRANCH  26  27
ENDBRANCH  19  21
ENDBRANCH   4  19
TORSDOF 7
ENDMDL
MODEL 17
REMARK VINA RESULT:    -7.358      2.623      6.217
REMARK INTER + INTRA:         -11.324
REMARK INTER:                 -10.525
REMARK INTRA:                  -0.800
REMARK UNBOUND:                -0.956
REMARK SMILES CCc1ccc(Nc2nc(NCC[NH+](C)C)nc3c2cnn3C)cc1
REMARK SMILES IDX 10 1 9 2 17 3 8 4 18 5 19 6 22 7 20 8 21 9 23 10 11 11 12 13
REMARK SMILES IDX 13 14 14 15 15 16 16 17 7 19 6 21 5 22 24 23 4 24 25 25 3 26
REMARK SMILES IDX 2 27 1 28
REMARK H PARENT 11 12 14 18 7 20
ROOT
ATOM      1  C   UNL     1       0.992  45.045  54.426  1.00  0.00     0.226 A 
ATOM      2  N   UNL     1       2.303  44.776  54.424  1.00  0.00    -0.195 NA
ATOM      3  N   UNL     1       0.103  44.709  53.480  1.00  0.00    -0.193 NA
ATOM      4  C   UNL     1       2.857  44.094  53.386  1.00  0.00     0.147 A 
ATOM      5  C   UNL     1       0.681  44.077  52.442  1.00  0.00     0.165 A 
ATOM      6  C   UNL     1       2.018  43.747  52.323  1.00  0.00     0.082 A 
ATOM      7  N   UNL     1       0.085  43.640  51.289  1.00  0.00    -0.250 N 
ATOM      8  C   UNL     1       2.121  43.140  51.054  1.00  0.00     0.149 A 
ATOM      9  N   UNL     1       0.942  43.057  50.427  1.00  0.00    -0.179 NA
ATOM     10  C   UNL     1      -1.303  43.759  50.921  1.00  0.00     0.176 C 
ENDROOT
BRANCH   1  11
ATOM     11  N   UNL     1       0.541  45.709  55.574  1.00  0.00    -0.348 N 
ATOM     12  H   UNL     1       0.399  46.661  55.223  1.00  0.00     0.163 HD
BRANCH  11  13
ATOM     13  C   UNL     1      -0.685  45.124  56.138  1.00  0.00     0.177 C 
BRANCH  13  14
ATOM     14  C   UNL     1      -1.346  46.103  57.135  1.00  0.00     0.283 C 
BRANCH  14  15
ATOM     15  N   UNL     1      -2.173  47.121  56.359  1.00  0.00    -0.338 N 
ATOM     16  C   UNL     1      -3.395  46.542  55.722  1.00  0.00     0.332 C 
ATOM     17  C   UNL     1      -2.454  48.364  57.137  1.00  0.00     0.332 C 
ATOM     18  H   UNL     1      -1.532  47.385  55.586  1.00  0.00     0.347 HD
ENDBRANCH  14  15
ENDBRANCH  13  14
ENDBRANCH  11  13
ENDBRANCH   1  11
BRANCH   4  19
ATOM     19  N   UNL     1       4.235  43.865  53.439  1.00  0.00    -0.339 N 
ATOM     20  H   UNL     1       4.421  42.881  53.264  1.00  0.00     0.168 HD
BRANCH  19  21
ATOM     21  C   UNL     1       5.298  44.672  52.987  1.00  0.00     0.040 A 
ATOM     22  C   UNL     1       6.099  45.310  53.942  1.00  0.00     0.026 A 
ATOM     23  C   UNL     1       5.604  44.857  51.636  1.00  0.00     0.026 A 
ATOM     24  C   UNL     1       7.167  46.127  53.558  1.00  0.00     0.006 A 
ATOM     25  C   UNL     1       6.671  45.673  51.247  1.00  0.00     0.006 A 
ATOM     26  C   UNL     1       7.457  46.322  52.204  1.00  0.00    -0.048 A 
BRANCH  26  27
ATOM     27  C   UNL     1       8.618  47.189  51.787  1.00  0.00     0.032 C 
ATOM     28  C   UNL     1       9.930  46.705  52.382  1.00  0.00     0.009 C 
ENDBRANCH  26  27
ENDBRANCH  19  21
ENDBRANCH   4  19
TORSDOF 7
ENDMDL
MODEL 18
REMARK VINA RESULT:    -7.284      1.855      7.329
REMARK INTER + INTRA:         -11.221
REMARK INTER:                 -10.289
REMARK INTRA:                  -0.932
REMARK UNBOUND:                -0.956
REMARK SMILES CCc1ccc(Nc2nc(NCC[NH+](C)C)nc3c2cnn3C)cc1
REMARK SMILES IDX 10 1 9 2 17 3 8 4 18 5 19 6 22 7 20 8 21 9 23 10 11 11 12 13
REMARK SMILES IDX 13 14 14 15 15 16 16 17 7 19 6 21 5 22 24 23 4 24 25 25 3 26
REMARK SMILES IDX 2 27 1 28
REMARK H PARENT 11 12 14 18 7 20
ROOT
ATOM      1  C   UNL     1       4.205  42.918  51.981  1.00  0.00     0.226 A 
ATOM      2  N   UNL     1       4.629  42.185  50.945  1.00  0.00    -0.195 NA
ATOM      3  N   UNL     1       4.667  44.120  52.357  1.00  0.00    -0.193 NA
ATOM      4  C   UNL     1       5.630  42.648  50.148  1.00  0.00     0.147 A 
ATOM      5  C   UNL     1       5.686  44.535  51.583  1.00  0.00     0.165 A 
ATOM      6  C   UNL     1       6.214  43.871  50.491  1.00  0.00     0.082 A 
ATOM      7  N   UNL     1       6.422  45.684  51.711  1.00  0.00    -0.250 N 
ATOM      8  C   UNL     1       7.273  44.693  50.055  1.00  0.00     0.149 A 
ATOM      9  N   UNL     1       7.394  45.807  50.784  1.00  0.00    -0.179 NA
ATOM     10  C   UNL     1       6.273  46.713  52.708  1.00  0.00     0.176 C 
ENDROOT
BRANCH   1  11
ATOM     11  N   UNL     1       3.139  42.350  52.691  1.00  0.00    -0.348 N 
ATOM     12  H   UNL     1       3.379  42.593  53.657  1.00  0.00     0.163 HD
BRANCH  11  13
ATOM     13  C   UNL     1       1.827  42.872  52.283  1.00  0.00     0.177 C 
BRANCH  13  14
ATOM     14  C   UNL     1       1.132  43.584  53.466  1.00  0.00     0.283 C 
BRANCH  14  15
ATOM     15  N   UNL     1       2.001  44.748  53.926  1.00  0.00    -0.338 N 
ATOM     16  C   UNL     1       1.761  46.013  53.167  1.00  0.00     0.332 C 
ATOM     17  C   UNL     1       1.984  44.943  55.406  1.00  0.00     0.332 C 
ATOM     18  H   UNL     1       2.955  44.426  53.673  1.00  0.00     0.347 HD
ENDBRANCH  14  15
ENDBRANCH  13  14
ENDBRANCH  11  13
ENDBRANCH   1  11
BRANCH   4  19
ATOM     19  N   UNL     1       6.037  41.823  49.095  1.00  0.00    -0.339 N 
ATOM     20  H   UNL     1       6.556  41.031  49.466  1.00  0.00     0.168 HD
BRANCH  19  21
ATOM     21  C   UNL     1       5.356  41.476  47.911  1.00  0.00     0.040 A 
ATOM     22  C   UNL     1       4.228  40.652  48.011  1.00  0.00     0.026 A 
ATOM     23  C   UNL     1       5.738  41.925  46.643  1.00  0.00     0.026 A 
ATOM     24  C   UNL     1       3.511  40.270  46.874  1.00  0.00     0.006 A 
ATOM     25  C   UNL     1       5.022  41.545  45.502  1.00  0.00     0.006 A 
ATOM     26  C   UNL     1       3.907  40.708  45.606  1.00  0.00    -0.048 A 
BRANCH  26  27
ATOM     27  C   UNL     1       3.127  40.312  44.380  1.00  0.00     0.032 C 
ATOM     28  C   UNL     1       3.544  38.945  43.859  1.00  0.00     0.009 C 
ENDBRANCH  26  27
ENDBRANCH  19  21
ENDBRANCH   4  19
TORSDOF 7
ENDMDL
