MODEL 1
REMARK VINA RESULT:    -8.632      0.000      0.000
REMARK INTER + INTRA:         -13.460
REMARK INTER:                 -12.669
REMARK INTRA:                  -0.791
REMARK UNBOUND:                -0.791
REMARK SMILES CCc1ccc(Nc2nc(NCCOC(C)C)nc3c2cnn3C)cc1
REMARK SMILES IDX 11 1 10 3 8 4 9 5 20 6 19 7 21 8 18 9 23 10 22 11 24 12 7 13
REMARK SMILES IDX 6 15 3 16 4 17 26 18 5 19 25 20 2 21 1 22 12 23 13 24 14 25
REMARK SMILES IDX 15 26 16 27 17 28
REMARK H PARENT 11 2 7 14
ROOT
ATOM      1  N   UNL     1       3.697  46.071  55.741  1.00  0.00    -0.352 N 
ATOM      2  H   UNL     1       3.534  45.961  56.739  1.00  0.00     0.163 HD
ENDROOT
BRANCH   1   3
ATOM      3  C   UNL     1       2.728  45.272  55.142  1.00  0.00     0.226 A 
ATOM      4  C   UNL     1       2.336  43.740  53.398  1.00  0.00     0.147 A 
ATOM      5  N   UNL     1       3.167  44.570  54.082  1.00  0.00    -0.195 NA
ATOM      6  C   UNL     1       1.012  43.666  53.849  1.00  0.00     0.082 A 
ATOM      7  C   UNL     1       0.672  44.431  54.947  1.00  0.00     0.165 A 
ATOM      8  C   UNL     1      -0.184  42.998  53.508  1.00  0.00     0.149 A 
ATOM      9  N   UNL     1       1.482  45.251  55.631  1.00  0.00    -0.193 NA
ATOM     10  N   UNL     1      -0.652  44.183  55.188  1.00  0.00    -0.250 N 
ATOM     11  N   UNL     1      -1.205  43.309  54.315  1.00  0.00    -0.179 NA
ATOM     12  C   UNL     1      -1.462  44.746  56.237  1.00  0.00     0.176 C 
BRANCH   4  13
ATOM     13  N   UNL     1       2.767  43.013  52.278  1.00  0.00    -0.339 N 
ATOM     14  H   UNL     1       2.141  42.267  52.010  1.00  0.00     0.168 HD
BRANCH  13  15
ATOM     15  C   UNL     1       3.935  43.079  51.499  1.00  0.00     0.040 A 
ATOM     16  C   UNL     1       6.245  43.084  49.846  1.00  0.00    -0.048 A 
ATOM     17  C   UNL     1       5.795  44.260  50.452  1.00  0.00     0.006 A 
ATOM     18  C   UNL     1       5.536  41.902  50.073  1.00  0.00     0.006 A 
ATOM     19  C   UNL     1       4.651  44.254  51.262  1.00  0.00     0.026 A 
ATOM     20  C   UNL     1       4.396  41.904  50.884  1.00  0.00     0.026 A 
BRANCH  16  21
ATOM     21  C   UNL     1       7.483  43.088  48.989  1.00  0.00     0.032 C 
ATOM     22  C   UNL     1       8.419  44.231  49.352  1.00  0.00     0.009 C 
ENDBRANCH  16  21
ENDBRANCH  13  15
ENDBRANCH   4  13
ENDBRANCH   1   3
BRANCH   1  23
ATOM     23  C   UNL     1       5.057  45.776  55.311  1.00  0.00     0.144 C 
BRANCH  23  24
ATOM     24  C   UNL     1       5.648  46.978  54.562  1.00  0.00     0.181 C 
BRANCH  24  25
ATOM     25  O   UNL     1       7.032  47.155  54.875  1.00  0.00    -0.377 OA
BRANCH  25  26
ATOM     26  C   UNL     1       7.920  46.855  53.794  1.00  0.00     0.112 C 
ATOM     27  C   UNL     1       9.185  47.676  54.011  1.00  0.00     0.038 C 
ATOM     28  C   UNL     1       7.266  47.228  52.467  1.00  0.00     0.038 C 
ENDBRANCH  25  26
ENDBRANCH  24  25
ENDBRANCH  23  24
ENDBRANCH   1  23
TORSDOF 8
ENDMDL
MODEL 2
REMARK VINA RESULT:    -8.402      2.488      6.170
REMARK INTER + INTRA:         -13.123
REMARK INTER:                 -12.455
REMARK INTRA:                  -0.668
REMARK UNBOUND:                -0.791
REMARK SMILES CCc1ccc(Nc2nc(NCCOC(C)C)nc3c2cnn3C)cc1
REMARK SMILES IDX 11 1 10 3 8 4 9 5 20 6 19 7 21 8 18 9 23 10 22 11 24 12 7 13
REMARK SMILES IDX 6 15 3 16 4 17 26 18 5 19 25 20 2 21 1 22 12 23 13 24 14 25
REMARK SMILES IDX 15 26 16 27 17 28
REMARK H PARENT 11 2 7 14
ROOT
ATOM      1  N   UNL     1       3.073  43.363  53.321  1.00  0.00    -0.352 N 
ATOM      2  H   UNL     1       3.488  44.086  53.903  1.00  0.00     0.163 HD
ENDROOT
BRANCH   1   3
ATOM      3  C   UNL     1       3.953  43.235  52.251  1.00  0.00     0.226 A 
ATOM      4  C   UNL     1       5.889  44.135  51.260  1.00  0.00     0.147 A 
ATOM      5  N   UNL     1       4.948  44.139  52.240  1.00  0.00    -0.195 NA
ATOM      6  C   UNL     1       5.759  43.153  50.269  1.00  0.00     0.082 A 
ATOM      7  C   UNL     1       4.697  42.277  50.379  1.00  0.00     0.165 A 
ATOM      8  C   UNL     1       6.428  42.742  49.096  1.00  0.00     0.149 A 
ATOM      9  N   UNL     1       3.765  42.270  51.342  1.00  0.00    -0.193 NA
ATOM     10  N   UNL     1       4.793  41.428  49.312  1.00  0.00    -0.250 N 
ATOM     11  N   UNL     1       5.846  41.694  48.503  1.00  0.00    -0.179 NA
ATOM     12  C   UNL     1       3.913  40.333  48.993  1.00  0.00     0.176 C 
BRANCH   4  13
ATOM     13  N   UNL     1       6.925  45.081  51.219  1.00  0.00    -0.339 N 
ATOM     14  H   UNL     1       7.325  45.207  50.300  1.00  0.00     0.168 HD
BRANCH  13  15
ATOM     15  C   UNL     1       7.558  45.835  52.222  1.00  0.00     0.040 A 
ATOM     16  C   UNL     1       8.923  47.430  54.134  1.00  0.00    -0.048 A 
ATOM     17  C   UNL     1       7.649  46.923  54.403  1.00  0.00     0.006 A 
ATOM     18  C   UNL     1       9.516  47.133  52.905  1.00  0.00     0.006 A 
ATOM     19  C   UNL     1       6.976  46.142  53.454  1.00  0.00     0.026 A 
ATOM     20  C   UNL     1       8.838  46.351  51.962  1.00  0.00     0.026 A 
BRANCH  16  21
ATOM     21  C   UNL     1       9.652  48.256  55.161  1.00  0.00     0.032 C 
ATOM     22  C   UNL     1      10.756  47.463  55.845  1.00  0.00     0.009 C 
ENDBRANCH  16  21
ENDBRANCH  13  15
ENDBRANCH   4  13
ENDBRANCH   1   3
BRANCH   1  23
ATOM     23  C   UNL     1       1.694  43.615  52.928  1.00  0.00     0.144 C 
BRANCH  23  24
ATOM     24  C   UNL     1       1.541  45.054  52.418  1.00  0.00     0.181 C 
BRANCH  24  25
ATOM     25  O   UNL     1       2.292  45.971  53.218  1.00  0.00    -0.377 OA
BRANCH  25  26
ATOM     26  C   UNL     1       2.776  47.112  52.503  1.00  0.00     0.112 C 
ATOM     27  C   UNL     1       3.229  46.626  51.132  1.00  0.00     0.038 C 
ATOM     28  C   UNL     1       3.945  47.738  53.258  1.00  0.00     0.038 C 
ENDBRANCH  25  26
ENDBRANCH  24  25
ENDBRANCH  23  24
ENDBRANCH   1  23
TORSDOF 8
ENDMDL
MODEL 3
REMARK VINA RESULT:    -8.340      2.358      4.951
REMARK INTER + INTRA:         -13.032
REMARK INTER:                 -11.716
REMARK INTRA:                  -1.316
REMARK UNBOUND:                -0.791
REMARK SMILES CCc1ccc(Nc2nc(NCCOC(C)C)nc3c2cnn3C)cc1
REMARK SMILES IDX 11 1 10 3 8 4 9 5 20 6 19 7 21 8 18 9 23 10 22 11 24 12 7 13
REMARK SMILES IDX 6 15 3 16 4 17 26 18 5 19 25 20 2 21 1 22 12 23 13 24 14 25
REMARK SMILES IDX 15 26 16 27 17 28
REMARK H PARENT 11 2 7 14
ROOT
ATOM      1  N   UNL     1       3.894  41.343  51.192  1.00  0.00    -0.352 N 
ATOM      2  H   UNL     1       3.451  40.557  51.660  1.00  0.00     0.163 HD
ENDROOT
BRANCH   1   3
ATOM      3  C   UNL     1       3.136  42.445  51.576  1.00  0.00     0.226 A 
ATOM      4  C   UNL     1       3.184  44.451  52.808  1.00  0.00     0.147 A 
ATOM      5  N   UNL     1       3.792  43.321  52.359  1.00  0.00    -0.195 NA
ATOM      6  C   UNL     1       1.851  44.643  52.423  1.00  0.00     0.082 A 
ATOM      7  C   UNL     1       1.278  43.677  51.618  1.00  0.00     0.165 A 
ATOM      8  C   UNL     1       0.824  45.592  52.612  1.00  0.00     0.149 A 
ATOM      9  N   UNL     1       1.867  42.561  51.168  1.00  0.00    -0.193 NA
ATOM     10  N   UNL     1      -0.004  44.092  51.382  1.00  0.00    -0.250 N 
ATOM     11  N   UNL     1      -0.312  45.264  51.985  1.00  0.00    -0.179 NA
ATOM     12  C   UNL     1      -1.000  43.419  50.588  1.00  0.00     0.176 C 
BRANCH   4  13
ATOM     13  N   UNL     1       3.843  45.369  53.641  1.00  0.00    -0.339 N 
ATOM     14  H   UNL     1       3.275  45.706  54.405  1.00  0.00     0.168 HD
BRANCH  13  15
ATOM     15  C   UNL     1       5.116  45.961  53.576  1.00  0.00     0.040 A 
ATOM     16  C   UNL     1       7.751  47.015  53.481  1.00  0.00    -0.048 A 
ATOM     17  C   UNL     1       6.713  47.615  52.763  1.00  0.00     0.006 A 
ATOM     18  C   UNL     1       7.465  45.886  54.253  1.00  0.00     0.006 A 
ATOM     19  C   UNL     1       5.416  47.087  52.807  1.00  0.00     0.026 A 
ATOM     20  C   UNL     1       6.167  45.366  54.293  1.00  0.00     0.026 A 
BRANCH  16  21
ATOM     21  C   UNL     1       9.142  47.592  53.446  1.00  0.00     0.032 C 
ATOM     22  C   UNL     1      10.102  46.707  52.666  1.00  0.00     0.009 C 
ENDBRANCH  16  21
ENDBRANCH  13  15
ENDBRANCH   4  13
ENDBRANCH   1   3
BRANCH   1  23
ATOM     23  C   UNL     1       4.034  41.193  49.750  1.00  0.00     0.144 C 
BRANCH  23  24
ATOM     24  C   UNL     1       5.515  41.239  49.354  1.00  0.00     0.181 C 
BRANCH  24  25
ATOM     25  O   UNL     1       6.240  42.171  50.159  1.00  0.00    -0.377 OA
BRANCH  25  26
ATOM     26  C   UNL     1       6.552  43.400  49.496  1.00  0.00     0.112 C 
ATOM     27  C   UNL     1       8.053  43.403  49.234  1.00  0.00     0.038 C 
ATOM     28  C   UNL     1       6.164  44.580  50.383  1.00  0.00     0.038 C 
ENDBRANCH  25  26
ENDBRANCH  24  25
ENDBRANCH  23  24
ENDBRANCH   1  23
TORSDOF 8
ENDMDL
MODEL 4
REMARK VINA RESULT:    -8.303      2.294      5.406
REMARK INTER + INTRA:         -12.977
REMARK INTER:                 -11.844
REMARK INTRA:                  -1.133
REMARK UNBOUND:                -0.791
REMARK SMILES CCc1ccc(Nc2nc(NCCOC(C)C)nc3c2cnn3C)cc1
REMARK SMILES IDX 11 1 10 3 8 4 9 5 20 6 19 7 21 8 18 9 23 10 22 11 24 12 7 13
REMARK SMILES IDX 6 15 3 16 4 17 26 18 5 19 25 20 2 21 1 22 12 23 13 24 14 25
REMARK SMILES IDX 15 26 16 27 17 28
REMARK H PARENT 11 2 7 14
ROOT
ATOM      1  N   UNL     1       4.040  41.450  51.308  1.00  0.00    -0.352 N 
ATOM      2  H   UNL     1       3.840  40.751  52.019  1.00  0.00     0.163 HD
ENDROOT
BRANCH   1   3
ATOM      3  C   UNL     1       3.600  42.646  51.866  1.00  0.00     0.226 A 
ATOM      4  C   UNL     1       4.117  44.928  52.127  1.00  0.00     0.147 A 
ATOM      5  N   UNL     1       4.418  43.692  51.649  1.00  0.00    -0.195 NA
ATOM      6  C   UNL     1       2.928  45.047  52.856  1.00  0.00     0.082 A 
ATOM      7  C   UNL     1       2.166  43.907  53.018  1.00  0.00     0.165 A 
ATOM      8  C   UNL     1       2.201  46.050  53.534  1.00  0.00     0.149 A 
ATOM      9  N   UNL     1       2.450  42.684  52.551  1.00  0.00    -0.193 NA
ATOM     10  N   UNL     1       1.072  44.281  53.750  1.00  0.00    -0.250 N 
ATOM     11  N   UNL     1       1.070  45.593  54.085  1.00  0.00    -0.179 NA
ATOM     12  C   UNL     1      -0.018  43.439  54.172  1.00  0.00     0.176 C 
BRANCH   4  13
ATOM     13  N   UNL     1       4.965  46.029  51.928  1.00  0.00    -0.339 N 
ATOM     14  H   UNL     1       4.574  46.742  51.329  1.00  0.00     0.168 HD
BRANCH  13  15
ATOM     15  C   UNL     1       6.279  46.299  52.347  1.00  0.00     0.040 A 
ATOM     16  C   UNL     1       8.889  46.815  53.342  1.00  0.00    -0.048 A 
ATOM     17  C   UNL     1       8.695  46.395  52.023  1.00  0.00     0.006 A 
ATOM     18  C   UNL     1       7.770  46.981  54.162  1.00  0.00     0.006 A 
ATOM     19  C   UNL     1       7.407  46.135  51.539  1.00  0.00     0.026 A 
ATOM     20  C   UNL     1       6.486  46.720  53.670  1.00  0.00     0.026 A 
BRANCH  16  21
ATOM     21  C   UNL     1      10.273  47.110  53.858  1.00  0.00     0.032 C 
ATOM     22  C   UNL     1      10.266  47.431  55.345  1.00  0.00     0.009 C 
ENDBRANCH  16  21
ENDBRANCH  13  15
ENDBRANCH   4  13
ENDBRANCH   1   3
BRANCH   1  23
ATOM     23  C   UNL     1       3.474  41.163  49.997  1.00  0.00     0.144 C 
BRANCH  23  24
ATOM     24  C   UNL     1       4.584  40.762  49.017  1.00  0.00     0.181 C 
BRANCH  24  25
ATOM     25  O   UNL     1       5.842  41.325  49.397  1.00  0.00    -0.377 OA
BRANCH  25  26
ATOM     26  C   UNL     1       6.154  42.559  48.743  1.00  0.00     0.112 C 
ATOM     27  C   UNL     1       6.175  42.282  47.245  1.00  0.00     0.038 C 
ATOM     28  C   UNL     1       7.516  43.063  49.210  1.00  0.00     0.038 C 
ENDBRANCH  25  26
ENDBRANCH  24  25
ENDBRANCH  23  24
ENDBRANCH   1  23
TORSDOF 8
ENDMDL
MODEL 5
REMARK VINA RESULT:    -8.292      1.895      4.540
REMARK INTER + INTRA:         -12.961
REMARK INTER:                 -11.604
REMARK INTRA:                  -1.357
REMARK UNBOUND:                -0.791
REMARK SMILES CCc1ccc(Nc2nc(NCCOC(C)C)nc3c2cnn3C)cc1
REMARK SMILES IDX 11 1 10 3 8 4 9 5 20 6 19 7 21 8 18 9 23 10 22 11 24 12 7 13
REMARK SMILES IDX 6 15 3 16 4 17 26 18 5 19 25 20 2 21 1 22 12 23 13 24 14 25
REMARK SMILES IDX 15 26 16 27 17 28
REMARK H PARENT 11 2 7 14
ROOT
ATOM      1  N   UNL     1       2.947  41.916  50.776  1.00  0.00    -0.352 N 
ATOM      2  H   UNL     1       2.861  42.443  49.910  1.00  0.00     0.163 HD
ENDROOT
BRANCH   1   3
ATOM      3  C   UNL     1       2.382  42.744  51.741  1.00  0.00     0.226 A 
ATOM      4  C   UNL     1       2.871  44.340  53.402  1.00  0.00     0.147 A 
ATOM      5  N   UNL     1       3.273  43.480  52.430  1.00  0.00    -0.195 NA
ATOM      6  C   UNL     1       1.493  44.410  53.647  1.00  0.00     0.082 A 
ATOM      7  C   UNL     1       0.671  43.608  52.881  1.00  0.00     0.165 A 
ATOM      8  C   UNL     1       0.607  45.100  54.503  1.00  0.00     0.149 A 
ATOM      9  N   UNL     1       1.055  42.758  51.919  1.00  0.00    -0.193 NA
ATOM     10  N   UNL     1      -0.606  43.859  53.304  1.00  0.00    -0.250 N 
ATOM     11  N   UNL     1      -0.674  44.768  54.304  1.00  0.00    -0.179 NA
ATOM     12  C   UNL     1      -1.818  43.265  52.801  1.00  0.00     0.176 C 
BRANCH   4  13
ATOM     13  N   UNL     1       3.784  45.103  54.145  1.00  0.00    -0.339 N 
ATOM     14  H   UNL     1       3.521  45.225  55.113  1.00  0.00     0.168 HD
BRANCH  13  15
ATOM     15  C   UNL     1       4.959  45.787  53.787  1.00  0.00     0.040 A 
ATOM     16  C   UNL     1       7.412  47.031  53.077  1.00  0.00    -0.048 A 
ATOM     17  C   UNL     1       6.190  47.562  52.654  1.00  0.00     0.006 A 
ATOM     18  C   UNL     1       7.402  45.875  53.862  1.00  0.00     0.006 A 
ATOM     19  C   UNL     1       4.983  46.941  53.001  1.00  0.00     0.026 A 
ATOM     20  C   UNL     1       6.192  45.261  54.205  1.00  0.00     0.026 A 
BRANCH  16  21
ATOM     21  C   UNL     1       8.708  47.707  52.718  1.00  0.00     0.032 C 
ATOM     22  C   UNL     1       9.910  46.831  53.035  1.00  0.00     0.009 C 
ENDBRANCH  16  21
ENDBRANCH  13  15
ENDBRANCH   4  13
ENDBRANCH   1   3
BRANCH   1  23
ATOM     23  C   UNL     1       4.299  41.476  51.090  1.00  0.00     0.144 C 
BRANCH  23  24
ATOM     24  C   UNL     1       5.175  41.515  49.831  1.00  0.00     0.181 C 
BRANCH  24  25
ATOM     25  O   UNL     1       6.438  42.130  50.096  1.00  0.00    -0.377 OA
BRANCH  25  26
ATOM     26  C   UNL     1       6.595  43.423  49.504  1.00  0.00     0.112 C 
ATOM     27  C   UNL     1       8.066  43.574  49.137  1.00  0.00     0.038 C 
ATOM     28  C   UNL     1       6.183  44.503  50.501  1.00  0.00     0.038 C 
ENDBRANCH  25  26
ENDBRANCH  24  25
ENDBRANCH  23  24
ENDBRANCH   1  23
TORSDOF 8
ENDMDL
MODEL 6
REMARK VINA RESULT:    -8.273      1.946      4.456
REMARK INTER + INTRA:         -12.933
REMARK INTER:                 -11.266
REMARK INTRA:                  -1.667
REMARK UNBOUND:                -0.791
REMARK SMILES CCc1ccc(Nc2nc(NCCOC(C)C)nc3c2cnn3C)cc1
REMARK SMILES IDX 11 1 10 3 8 4 9 5 20 6 19 7 21 8 18 9 23 10 22 11 24 12 7 13
REMARK SMILES IDX 6 15 3 16 4 17 26 18 5 19 25 20 2 21 1 22 12 23 13 24 14 25
REMARK SMILES IDX 15 26 16 27 17 28
REMARK H PARENT 11 2 7 14
ROOT
ATOM      1  N   UNL     1       0.754  43.262  53.079  1.00  0.00    -0.352 N 
ATOM      2  H   UNL     1       0.324  43.861  52.379  1.00  0.00     0.163 HD
ENDROOT
BRANCH   1   3
ATOM      3  C   UNL     1       0.827  44.059  54.218  1.00  0.00     0.226 A 
ATOM      4  C   UNL     1       2.268  45.393  55.516  1.00  0.00     0.147 A 
ATOM      5  N   UNL     1       2.043  44.588  54.445  1.00  0.00    -0.195 NA
ATOM      6  C   UNL     1       1.177  45.631  56.363  1.00  0.00     0.082 A 
ATOM      7  C   UNL     1      -0.024  45.035  56.033  1.00  0.00     0.165 A 
ATOM      8  C   UNL     1       0.896  46.348  57.546  1.00  0.00     0.149 A 
ATOM      9  N   UNL     1      -0.258  44.240  54.980  1.00  0.00    -0.193 NA
ATOM     10  N   UNL     1      -0.916  45.418  56.996  1.00  0.00    -0.250 N 
ATOM     11  N   UNL     1      -0.376  46.222  57.943  1.00  0.00    -0.179 NA
ATOM     12  C   UNL     1      -2.307  45.055  57.084  1.00  0.00     0.176 C 
BRANCH   4  13
ATOM     13  N   UNL     1       3.532  45.941  55.783  1.00  0.00    -0.339 N 
ATOM     14  H   UNL     1       3.665  46.206  56.749  1.00  0.00     0.168 HD
BRANCH  13  15
ATOM     15  C   UNL     1       4.622  46.254  54.953  1.00  0.00     0.040 A 
ATOM     16  C   UNL     1       6.870  46.733  53.285  1.00  0.00    -0.048 A 
ATOM     17  C   UNL     1       5.739  47.552  53.217  1.00  0.00     0.006 A 
ATOM     18  C   UNL     1       6.874  45.674  54.195  1.00  0.00     0.006 A 
ATOM     19  C   UNL     1       4.630  47.308  54.037  1.00  0.00     0.026 A 
ATOM     20  C   UNL     1       5.763  45.437  55.012  1.00  0.00     0.026 A 
BRANCH  16  21
ATOM     21  C   UNL     1       8.068  47.005  52.415  1.00  0.00     0.032 C 
ATOM     22  C   UNL     1       9.370  46.904  53.196  1.00  0.00     0.009 C 
ENDBRANCH  16  21
ENDBRANCH  13  15
ENDBRANCH   4  13
ENDBRANCH   1   3
BRANCH   1  23
ATOM     23  C   UNL     1       2.026  42.676  52.682  1.00  0.00     0.144 C 
BRANCH  23  24
ATOM     24  C   UNL     1       2.414  43.152  51.276  1.00  0.00     0.181 C 
BRANCH  24  25
ATOM     25  O   UNL     1       3.832  43.149  51.100  1.00  0.00    -0.377 OA
BRANCH  25  26
ATOM     26  C   UNL     1       4.467  44.387  51.433  1.00  0.00     0.112 C 
ATOM     27  C   UNL     1       3.512  45.505  51.034  1.00  0.00     0.038 C 
ATOM     28  C   UNL     1       5.784  44.516  50.673  1.00  0.00     0.038 C 
ENDBRANCH  25  26
ENDBRANCH  24  25
ENDBRANCH  23  24
ENDBRANCH   1  23
TORSDOF 8
ENDMDL
MODEL 7
REMARK VINA RESULT:    -8.248      3.214      6.757
REMARK INTER + INTRA:         -12.897
REMARK INTER:                 -12.021
REMARK INTRA:                  -0.877
REMARK UNBOUND:                -0.791
REMARK SMILES CCc1ccc(Nc2nc(NCCOC(C)C)nc3c2cnn3C)cc1
REMARK SMILES IDX 11 1 10 3 8 4 9 5 20 6 19 7 21 8 18 9 23 10 22 11 24 12 7 13
REMARK SMILES IDX 6 15 3 16 4 17 26 18 5 19 25 20 2 21 1 22 12 23 13 24 14 25
REMARK SMILES IDX 15 26 16 27 17 28
REMARK H PARENT 11 2 7 14
ROOT
ATOM      1  N   UNL     1       4.926  41.810  50.434  1.00  0.00    -0.352 N 
ATOM      2  H   UNL     1       4.022  41.396  50.220  1.00  0.00     0.163 HD
ENDROOT
BRANCH   1   3
ATOM      3  C   UNL     1       4.626  43.113  50.821  1.00  0.00     0.226 A 
ATOM      4  C   UNL     1       5.532  45.265  51.119  1.00  0.00     0.147 A 
ATOM      5  N   UNL     1       5.672  43.958  50.776  1.00  0.00    -0.195 NA
ATOM      6  C   UNL     1       4.255  45.674  51.525  1.00  0.00     0.082 A 
ATOM      7  C   UNL     1       3.256  44.721  51.534  1.00  0.00     0.165 A 
ATOM      8  C   UNL     1       3.614  46.853  51.964  1.00  0.00     0.149 A 
ATOM      9  N   UNL     1       3.381  43.430  51.196  1.00  0.00    -0.193 NA
ATOM     10  N   UNL     1       2.124  45.361  51.957  1.00  0.00    -0.250 N 
ATOM     11  N   UNL     1       2.316  46.673  52.233  1.00  0.00    -0.179 NA
ATOM     12  C   UNL     1       0.814  44.786  52.125  1.00  0.00     0.176 C 
BRANCH   4  13
ATOM     13  N   UNL     1       6.613  46.160  51.098  1.00  0.00    -0.339 N 
ATOM     14  H   UNL     1       6.692  46.683  50.238  1.00  0.00     0.168 HD
BRANCH  13  15
ATOM     15  C   UNL     1       7.645  46.419  52.016  1.00  0.00     0.040 A 
ATOM     16  C   UNL     1       9.629  46.910  53.988  1.00  0.00    -0.048 A 
ATOM     17  C   UNL     1       9.986  46.520  52.694  1.00  0.00     0.006 A 
ATOM     18  C   UNL     1       8.274  47.057  54.292  1.00  0.00     0.006 A 
ATOM     19  C   UNL     1       9.004  46.273  51.726  1.00  0.00     0.026 A 
ATOM     20  C   UNL     1       7.298  46.809  53.320  1.00  0.00     0.026 A 
BRANCH  16  21
ATOM     21  C   UNL     1      10.686  47.191  55.023  1.00  0.00     0.032 C 
ATOM     22  C   UNL     1      10.206  48.191  56.065  1.00  0.00     0.009 C 
ENDBRANCH  16  21
ENDBRANCH  13  15
ENDBRANCH   4  13
ENDBRANCH   1   3
BRANCH   1  23
ATOM     23  C   UNL     1       5.906  41.721  49.361  1.00  0.00     0.144 C 
BRANCH  23  24
ATOM     24  C   UNL     1       5.249  41.179  48.085  1.00  0.00     0.181 C 
BRANCH  24  25
ATOM     25  O   UNL     1       5.810  41.780  46.917  1.00  0.00    -0.377 OA
BRANCH  25  26
ATOM     26  C   UNL     1       5.195  41.368  45.692  1.00  0.00     0.112 C 
ATOM     27  C   UNL     1       5.160  42.584  44.775  1.00  0.00     0.038 C 
ATOM     28  C   UNL     1       3.779  40.868  45.967  1.00  0.00     0.038 C 
ENDBRANCH  25  26
ENDBRANCH  24  25
ENDBRANCH  23  24
ENDBRANCH   1  23
TORSDOF 8
ENDMDL
MODEL 8
REMARK VINA RESULT:    -8.195      2.816      6.350
REMARK INTER + INTRA:         -12.819
REMARK INTER:                 -11.720
REMARK INTRA:                  -1.099
REMARK UNBOUND:                -0.791
REMARK SMILES CCc1ccc(Nc2nc(NCCOC(C)C)nc3c2cnn3C)cc1
REMARK SMILES IDX 11 1 10 3 8 4 9 5 20 6 19 7 21 8 18 9 23 10 22 11 24 12 7 13
REMARK SMILES IDX 6 15 3 16 4 17 26 18 5 19 25 20 2 21 1 22 12 23 13 24 14 25
REMARK SMILES IDX 15 26 16 27 17 28
REMARK H PARENT 11 2 7 14
ROOT
ATOM      1  N   UNL     1       4.781  47.012  54.987  1.00  0.00    -0.352 N 
ATOM      2  H   UNL     1       4.216  47.604  54.385  1.00  0.00     0.163 HD
ENDROOT
BRANCH   1   3
ATOM      3  C   UNL     1       6.001  46.910  54.325  1.00  0.00     0.226 A 
ATOM      4  C   UNL     1       7.019  46.285  52.297  1.00  0.00     0.147 A 
ATOM      5  N   UNL     1       5.912  46.435  53.070  1.00  0.00    -0.195 NA
ATOM      6  C   UNL     1       8.243  46.642  52.876  1.00  0.00     0.082 A 
ATOM      7  C   UNL     1       8.216  47.118  54.173  1.00  0.00     0.165 A 
ATOM      8  C   UNL     1       9.610  46.672  52.524  1.00  0.00     0.149 A 
ATOM      9  N   UNL     1       7.132  47.272  54.945  1.00  0.00    -0.193 NA
ATOM     10  N   UNL     1       9.514  47.396  54.502  1.00  0.00    -0.250 N 
ATOM     11  N   UNL     1      10.394  47.126  53.508  1.00  0.00    -0.179 NA
ATOM     12  C   UNL     1       9.998  47.922  55.753  1.00  0.00     0.176 C 
BRANCH   4  13
ATOM     13  N   UNL     1       6.951  45.773  50.992  1.00  0.00    -0.339 N 
ATOM     14  H   UNL     1       7.219  46.437  50.279  1.00  0.00     0.168 HD
BRANCH  13  15
ATOM     15  C   UNL     1       6.519  44.537  50.481  1.00  0.00     0.040 A 
ATOM     16  C   UNL     1       5.496  42.078  49.495  1.00  0.00    -0.048 A 
ATOM     17  C   UNL     1       6.667  42.631  48.967  1.00  0.00     0.006 A 
ATOM     18  C   UNL     1       4.839  42.759  50.522  1.00  0.00     0.006 A 
ATOM     19  C   UNL     1       7.164  43.847  49.452  1.00  0.00     0.026 A 
ATOM     20  C   UNL     1       5.343  43.974  51.002  1.00  0.00     0.026 A 
BRANCH  16  21
ATOM     21  C   UNL     1       4.971  40.762  48.984  1.00  0.00     0.032 C 
ATOM     22  C   UNL     1       3.523  40.535  49.390  1.00  0.00     0.009 C 
ENDBRANCH  16  21
ENDBRANCH  13  15
ENDBRANCH   4  13
ENDBRANCH   1   3
BRANCH   1  23
ATOM     23  C   UNL     1       4.179  45.729  55.320  1.00  0.00     0.144 C 
BRANCH  23  24
ATOM     24  C   UNL     1       2.833  45.572  54.600  1.00  0.00     0.181 C 
BRANCH  24  25
ATOM     25  O   UNL     1       2.965  44.774  53.422  1.00  0.00    -0.377 OA
BRANCH  25  26
ATOM     26  C   UNL     1       1.721  44.316  52.882  1.00  0.00     0.112 C 
ATOM     27  C   UNL     1       1.684  42.803  53.057  1.00  0.00     0.038 C 
ATOM     28  C   UNL     1       1.633  44.682  51.403  1.00  0.00     0.038 C 
ENDBRANCH  25  26
ENDBRANCH  24  25
ENDBRANCH  23  24
ENDBRANCH   1  23
TORSDOF 8
ENDMDL
MODEL 9
REMARK VINA RESULT:    -8.132      2.371      6.477
REMARK INTER + INTRA:         -12.726
REMARK INTER:                 -12.119
REMARK INTRA:                  -0.607
REMARK UNBOUND:                -0.791
REMARK SMILES CCc1ccc(Nc2nc(NCCOC(C)C)nc3c2cnn3C)cc1
REMARK SMILES IDX 11 1 10 3 8 4 9 5 20 6 19 7 21 8 18 9 23 10 22 11 24 12 7 13
REMARK SMILES IDX 6 15 3 16 4 17 26 18 5 19 25 20 2 21 1 22 12 23 13 24 14 25
REMARK SMILES IDX 15 26 16 27 17 28
REMARK H PARENT 11 2 7 14
ROOT
ATOM      1  N   UNL     1       2.604  45.174  52.553  1.00  0.00    -0.352 N 
ATOM      2  H   UNL     1       1.960  44.407  52.728  1.00  0.00     0.163 HD
ENDROOT
BRANCH   1   3
ATOM      3  C   UNL     1       3.664  44.585  51.871  1.00  0.00     0.226 A 
ATOM      4  C   UNL     1       5.922  44.859  51.261  1.00  0.00     0.147 A 
ATOM      5  N   UNL     1       4.799  45.308  51.881  1.00  0.00    -0.195 NA
ATOM      6  C   UNL     1       5.829  43.620  50.613  1.00  0.00     0.082 A 
ATOM      7  C   UNL     1       4.614  42.966  50.667  1.00  0.00     0.165 A 
ATOM      8  C   UNL     1       6.655  42.758  49.861  1.00  0.00     0.149 A 
ATOM      9  N   UNL     1       3.501  43.397  51.276  1.00  0.00    -0.193 NA
ATOM     10  N   UNL     1       4.781  41.798  49.975  1.00  0.00    -0.250 N 
ATOM     11  N   UNL     1       6.025  41.646  49.464  1.00  0.00    -0.179 NA
ATOM     12  C   UNL     1       3.794  40.772  49.755  1.00  0.00     0.176 C 
BRANCH   4  13
ATOM     13  N   UNL     1       7.110  45.605  51.243  1.00  0.00    -0.339 N 
ATOM     14  H   UNL     1       7.548  45.651  50.334  1.00  0.00     0.168 HD
BRANCH  13  15
ATOM     15  C   UNL     1       7.843  46.243  52.258  1.00  0.00     0.040 A 
ATOM     16  C   UNL     1       9.220  47.473  54.416  1.00  0.00    -0.048 A 
ATOM     17  C   UNL     1       9.885  47.158  53.228  1.00  0.00     0.006 A 
ATOM     18  C   UNL     1       7.860  47.173  54.520  1.00  0.00     0.006 A 
ATOM     19  C   UNL     1       9.204  46.545  52.169  1.00  0.00     0.026 A 
ATOM     20  C   UNL     1       7.185  46.562  53.457  1.00  0.00     0.026 A 
BRANCH  16  21
ATOM     21  C   UNL     1       9.950  48.146  55.548  1.00  0.00     0.032 C 
ATOM     22  C   UNL     1      11.051  47.263  56.117  1.00  0.00     0.009 C 
ENDBRANCH  16  21
ENDBRANCH  13  15
ENDBRANCH   4  13
ENDBRANCH   1   3
BRANCH   1  23
ATOM     23  C   UNL     1       3.002  45.918  53.739  1.00  0.00     0.144 C 
BRANCH  23  24
ATOM     24  C   UNL     1       3.031  44.992  54.962  1.00  0.00     0.181 C 
BRANCH  24  25
ATOM     25  O   UNL     1       1.751  44.400  55.195  1.00  0.00    -0.377 OA
BRANCH  25  26
ATOM     26  C   UNL     1       0.707  45.344  55.455  1.00  0.00     0.112 C 
ATOM     27  C   UNL     1       0.693  45.598  56.957  1.00  0.00     0.038 C 
ATOM     28  C   UNL     1      -0.633  44.774  55.000  1.00  0.00     0.038 C 
ENDBRANCH  25  26
ENDBRANCH  24  25
ENDBRANCH  23  24
ENDBRANCH   1  23
TORSDOF 8
ENDMDL
MODEL 10
REMARK VINA RESULT:    -8.129      2.267      6.153
REMARK INTER + INTRA:         -12.722
REMARK INTER:                 -11.699
REMARK INTRA:                  -1.023
REMARK UNBOUND:                -0.791
REMARK SMILES CCc1ccc(Nc2nc(NCCOC(C)C)nc3c2cnn3C)cc1
REMARK SMILES IDX 11 1 10 3 8 4 9 5 20 6 19 7 21 8 18 9 23 10 22 11 24 12 7 13
REMARK SMILES IDX 6 15 3 16 4 17 26 18 5 19 25 20 2 21 1 22 12 23 13 24 14 25
REMARK SMILES IDX 15 26 16 27 17 28
REMARK H PARENT 11 2 7 14
ROOT
ATOM      1  N   UNL     1       5.728  46.845  52.697  1.00  0.00    -0.352 N 
ATOM      2  H   UNL     1       4.895  47.347  52.400  1.00  0.00     0.163 HD
ENDROOT
BRANCH   1   3
ATOM      3  C   UNL     1       5.611  45.595  52.095  1.00  0.00     0.226 A 
ATOM      4  C   UNL     1       4.351  43.607  52.068  1.00  0.00     0.147 A 
ATOM      5  N   UNL     1       4.595  44.849  52.563  1.00  0.00    -0.195 NA
ATOM      6  C   UNL     1       5.213  43.152  51.061  1.00  0.00     0.082 A 
ATOM      7  C   UNL     1       6.223  44.003  50.659  1.00  0.00     0.165 A 
ATOM      8  C   UNL     1       5.388  42.003  50.261  1.00  0.00     0.149 A 
ATOM      9  N   UNL     1       6.473  45.230  51.138  1.00  0.00    -0.193 NA
ATOM     10  N   UNL     1       6.911  43.340  49.680  1.00  0.00    -0.250 N 
ATOM     11  N   UNL     1       6.422  42.105  49.419  1.00  0.00    -0.179 NA
ATOM     12  C   UNL     1       8.053  43.821  48.946  1.00  0.00     0.176 C 
BRANCH   4  13
ATOM     13  N   UNL     1       3.309  42.803  52.554  1.00  0.00    -0.339 N 
ATOM     14  H   UNL     1       3.624  41.983  53.051  1.00  0.00     0.168 HD
BRANCH  13  15
ATOM     15  C   UNL     1       1.911  42.884  52.423  1.00  0.00     0.040 A 
ATOM     16  C   UNL     1      -0.920  43.085  52.315  1.00  0.00    -0.048 A 
ATOM     17  C   UNL     1      -0.142  43.284  51.170  1.00  0.00     0.006 A 
ATOM     18  C   UNL     1      -0.275  42.780  53.516  1.00  0.00     0.006 A 
ATOM     19  C   UNL     1       1.254  43.191  51.230  1.00  0.00     0.026 A 
ATOM     20  C   UNL     1       1.121  42.687  53.567  1.00  0.00     0.026 A 
BRANCH  16  21
ATOM     21  C   UNL     1      -2.422  43.169  52.246  1.00  0.00     0.032 C 
ATOM     22  C   UNL     1      -2.998  43.952  53.416  1.00  0.00     0.009 C 
ENDBRANCH  16  21
ENDBRANCH  13  15
ENDBRANCH   4  13
ENDBRANCH   1   3
BRANCH   1  23
ATOM     23  C   UNL     1       5.926  46.792  54.139  1.00  0.00     0.144 C 
BRANCH  23  24
ATOM     24  C   UNL     1       7.423  46.846  54.470  1.00  0.00     0.181 C 
BRANCH  24  25
ATOM     25  O   UNL     1       8.097  47.821  53.672  1.00  0.00    -0.377 OA
BRANCH  25  26
ATOM     26  C   UNL     1       9.499  47.580  53.511  1.00  0.00     0.112 C 
ATOM     27  C   UNL     1       9.646  46.390  52.570  1.00  0.00     0.038 C 
ATOM     28  C   UNL     1      10.129  47.268  54.865  1.00  0.00     0.038 C 
ENDBRANCH  25  26
ENDBRANCH  24  25
ENDBRANCH  23  24
ENDBRANCH   1  23
TORSDOF 8
ENDMDL
MODEL 11
REMARK VINA RESULT:    -8.095      3.321      6.622
REMARK INTER + INTRA:         -12.672
REMARK INTER:                 -11.876
REMARK INTRA:                  -0.796
REMARK UNBOUND:                -0.791
REMARK SMILES CCc1ccc(Nc2nc(NCCOC(C)C)nc3c2cnn3C)cc1
REMARK SMILES IDX 11 1 10 3 8 4 9 5 20 6 19 7 21 8 18 9 23 10 22 11 24 12 7 13
REMARK SMILES IDX 6 15 3 16 4 17 26 18 5 19 25 20 2 21 1 22 12 23 13 24 14 25
REMARK SMILES IDX 15 26 16 27 17 28
REMARK H PARENT 11 2 7 14
ROOT
ATOM      1  N   UNL     1       3.753  41.165  50.833  1.00  0.00    -0.352 N 
ATOM      2  H   UNL     1       2.866  40.687  50.963  1.00  0.00     0.163 HD
ENDROOT
BRANCH   1   3
ATOM      3  C   UNL     1       3.531  42.446  51.330  1.00  0.00     0.226 A 
ATOM      4  C   UNL     1       4.382  44.640  51.386  1.00  0.00     0.147 A 
ATOM      5  N   UNL     1       4.467  43.346  50.980  1.00  0.00    -0.195 NA
ATOM      6  C   UNL     1       3.283  44.977  52.185  1.00  0.00     0.082 A 
ATOM      7  C   UNL     1       2.384  43.971  52.484  1.00  0.00     0.165 A 
ATOM      8  C   UNL     1       2.759  46.115  52.836  1.00  0.00     0.149 A 
ATOM      9  N   UNL     1       2.456  42.693  52.089  1.00  0.00    -0.193 NA
ATOM     10  N   UNL     1       1.415  44.546  53.260  1.00  0.00    -0.250 N 
ATOM     11  N   UNL     1       1.624  45.862  53.497  1.00  0.00    -0.179 NA
ATOM     12  C   UNL     1       0.255  43.899  53.818  1.00  0.00     0.176 C 
BRANCH   4  13
ATOM     13  N   UNL     1       5.357  45.591  51.048  1.00  0.00    -0.339 N 
ATOM     14  H   UNL     1       5.165  46.084  50.187  1.00  0.00     0.168 HD
BRANCH  13  15
ATOM     15  C   UNL     1       6.582  45.943  51.641  1.00  0.00     0.040 A 
ATOM     16  C   UNL     1       9.000  46.598  52.978  1.00  0.00    -0.048 A 
ATOM     17  C   UNL     1       8.987  46.344  51.604  1.00  0.00     0.006 A 
ATOM     18  C   UNL     1       7.796  46.527  53.683  1.00  0.00     0.006 A 
ATOM     19  C   UNL     1       7.793  46.015  50.950  1.00  0.00     0.026 A 
ATOM     20  C   UNL     1       6.607  46.199  53.022  1.00  0.00     0.026 A 
BRANCH  16  21
ATOM     21  C   UNL     1      10.281  46.969  53.678  1.00  0.00     0.032 C 
ATOM     22  C   UNL     1      10.026  47.519  55.073  1.00  0.00     0.009 C 
ENDBRANCH  16  21
ENDBRANCH  13  15
ENDBRANCH   4  13
ENDBRANCH   1   3
BRANCH   1  23
ATOM     23  C   UNL     1       4.265  41.139  49.470  1.00  0.00     0.144 C 
BRANCH  23  24
ATOM     24  C   UNL     1       3.556  40.047  48.658  1.00  0.00     0.181 C 
BRANCH  24  25
ATOM     25  O   UNL     1       3.152  40.533  47.376  1.00  0.00    -0.377 OA
BRANCH  25  26
ATOM     26  C   UNL     1       3.090  39.526  46.361  1.00  0.00     0.112 C 
ATOM     27  C   UNL     1       2.015  39.953  45.369  1.00  0.00     0.038 C 
ATOM     28  C   UNL     1       2.731  38.181  46.986  1.00  0.00     0.038 C 
ENDBRANCH  25  26
ENDBRANCH  24  25
ENDBRANCH  23  24
ENDBRANCH   1  23
TORSDOF 8
ENDMDL
MODEL 12
REMARK VINA RESULT:    -8.031      1.923      6.268
REMARK INTER + INTRA:         -12.578
REMARK INTER:                 -11.804
REMARK INTRA:                  -0.775
REMARK UNBOUND:                -0.791
REMARK SMILES CCc1ccc(Nc2nc(NCCOC(C)C)nc3c2cnn3C)cc1
REMARK SMILES IDX 11 1 10 3 8 4 9 5 20 6 19 7 21 8 18 9 23 10 22 11 24 12 7 13
REMARK SMILES IDX 6 15 3 16 4 17 26 18 5 19 25 20 2 21 1 22 12 23 13 24 14 25
REMARK SMILES IDX 15 26 16 27 17 28
REMARK H PARENT 11 2 7 14
ROOT
ATOM      1  N   UNL     1       5.560  46.786  52.597  1.00  0.00    -0.352 N 
ATOM      2  H   UNL     1       4.744  47.303  52.281  1.00  0.00     0.163 HD
ENDROOT
BRANCH   1   3
ATOM      3  C   UNL     1       5.379  45.506  52.082  1.00  0.00     0.226 A 
ATOM      4  C   UNL     1       4.033  43.579  52.205  1.00  0.00     0.147 A 
ATOM      5  N   UNL     1       4.339  44.838  52.613  1.00  0.00    -0.195 NA
ATOM      6  C   UNL     1       4.857  43.020  51.219  1.00  0.00     0.082 A 
ATOM      7  C   UNL     1       5.896  43.797  50.747  1.00  0.00     0.165 A 
ATOM      8  C   UNL     1       4.967  41.814  50.496  1.00  0.00     0.149 A 
ATOM      9  N   UNL     1       6.207  45.040  51.139  1.00  0.00    -0.193 NA
ATOM     10  N   UNL     1       6.538  43.040  49.805  1.00  0.00    -0.250 N 
ATOM     11  N   UNL     1       5.991  41.813  49.634  1.00  0.00    -0.179 NA
ATOM     12  C   UNL     1       7.687  43.420  49.024  1.00  0.00     0.176 C 
BRANCH   4  13
ATOM     13  N   UNL     1       2.965  42.856  52.759  1.00  0.00    -0.339 N 
ATOM     14  H   UNL     1       3.065  41.854  52.678  1.00  0.00     0.168 HD
BRANCH  13  15
ATOM     15  C   UNL     1       1.752  43.259  53.343  1.00  0.00     0.040 A 
ATOM     16  C   UNL     1      -0.761  43.932  54.484  1.00  0.00    -0.048 A 
ATOM     17  C   UNL     1       0.416  44.538  54.933  1.00  0.00     0.006 A 
ATOM     18  C   UNL     1      -0.677  42.989  53.457  1.00  0.00     0.006 A 
ATOM     19  C   UNL     1       1.653  44.199  54.372  1.00  0.00     0.026 A 
ATOM     20  C   UNL     1       0.563  42.656  52.901  1.00  0.00     0.026 A 
BRANCH  16  21
ATOM     21  C   UNL     1      -2.093  44.310  55.076  1.00  0.00     0.032 C 
ATOM     22  C   UNL     1      -2.160  43.997  56.563  1.00  0.00     0.009 C 
ENDBRANCH  16  21
ENDBRANCH  13  15
ENDBRANCH   4  13
ENDBRANCH   1   3
BRANCH   1  23
ATOM     23  C   UNL     1       5.785  46.820  54.035  1.00  0.00     0.144 C 
BRANCH  23  24
ATOM     24  C   UNL     1       7.286  46.732  54.340  1.00  0.00     0.181 C 
BRANCH  24  25
ATOM     25  O   UNL     1       7.992  47.850  53.798  1.00  0.00    -0.377 OA
BRANCH  25  26
ATOM     26  C   UNL     1       9.363  47.582  53.485  1.00  0.00     0.112 C 
ATOM     27  C   UNL     1       9.381  46.416  52.505  1.00  0.00     0.038 C 
ATOM     28  C   UNL     1      10.123  47.219  54.758  1.00  0.00     0.038 C 
ENDBRANCH  25  26
ENDBRANCH  24  25
ENDBRANCH  23  24
ENDBRANCH   1  23
TORSDOF 8
ENDMDL
MODEL 13
REMARK VINA RESULT:    -8.029      2.479      6.627
REMARK INTER + INTRA:         -12.576
REMARK INTER:                 -11.814
REMARK INTRA:                  -0.762
REMARK UNBOUND:                -0.791
REMARK SMILES CCc1ccc(Nc2nc(NCCOC(C)C)nc3c2cnn3C)cc1
REMARK SMILES IDX 11 1 10 3 8 4 9 5 20 6 19 7 21 8 18 9 23 10 22 11 24 12 7 13
REMARK SMILES IDX 6 15 3 16 4 17 26 18 5 19 25 20 2 21 1 22 12 23 13 24 14 25
REMARK SMILES IDX 15 26 16 27 17 28
REMARK H PARENT 11 2 7 14
ROOT
ATOM      1  N   UNL     1       2.865  43.527  53.139  1.00  0.00    -0.352 N 
ATOM      2  H   UNL     1       2.976  42.695  53.712  1.00  0.00     0.163 HD
ENDROOT
BRANCH   1   3
ATOM      3  C   UNL     1       3.807  43.375  52.125  1.00  0.00     0.226 A 
ATOM      4  C   UNL     1       5.782  44.274  51.213  1.00  0.00     0.147 A 
ATOM      5  N   UNL     1       4.787  44.296  52.137  1.00  0.00    -0.195 NA
ATOM      6  C   UNL     1       5.725  43.254  50.253  1.00  0.00     0.082 A 
ATOM      7  C   UNL     1       4.672  42.364  50.336  1.00  0.00     0.165 A 
ATOM      8  C   UNL     1       6.466  42.813  49.136  1.00  0.00     0.149 A 
ATOM      9  N   UNL     1       3.686  42.375  51.243  1.00  0.00    -0.193 NA
ATOM     10  N   UNL     1       4.843  41.478  49.308  1.00  0.00    -0.250 N 
ATOM     11  N   UNL     1       5.935  41.734  48.550  1.00  0.00    -0.179 NA
ATOM     12  C   UNL     1       3.999  40.357  48.980  1.00  0.00     0.176 C 
BRANCH   4  13
ATOM     13  N   UNL     1       6.804  45.235  51.195  1.00  0.00    -0.339 N 
ATOM     14  H   UNL     1       7.177  45.417  50.275  1.00  0.00     0.168 HD
BRANCH  13  15
ATOM     15  C   UNL     1       7.454  45.944  52.220  1.00  0.00     0.040 A 
ATOM     16  C   UNL     1       8.871  47.430  54.183  1.00  0.00    -0.048 A 
ATOM     17  C   UNL     1       7.520  47.115  54.359  1.00  0.00     0.006 A 
ATOM     18  C   UNL     1       9.513  46.994  53.021  1.00  0.00     0.006 A 
ATOM     19  C   UNL     1       6.824  46.388  53.385  1.00  0.00     0.026 A 
ATOM     20  C   UNL     1       8.810  46.267  52.054  1.00  0.00     0.026 A 
BRANCH  16  21
ATOM     21  C   UNL     1       9.624  48.197  55.237  1.00  0.00     0.032 C 
ATOM     22  C   UNL     1      10.800  47.402  55.784  1.00  0.00     0.009 C 
ENDBRANCH  16  21
ENDBRANCH  13  15
ENDBRANCH   4  13
ENDBRANCH   1   3
BRANCH   1  23
ATOM     23  C   UNL     1       2.971  44.786  53.863  1.00  0.00     0.144 C 
BRANCH  23  24
ATOM     24  C   UNL     1       1.600  45.468  53.945  1.00  0.00     0.181 C 
BRANCH  24  25
ATOM     25  O   UNL     1       1.092  45.772  52.644  1.00  0.00    -0.377 OA
BRANCH  25  26
ATOM     26  C   UNL     1      -0.209  45.236  52.383  1.00  0.00     0.112 C 
ATOM     27  C   UNL     1      -0.699  44.592  53.674  1.00  0.00     0.038 C 
ATOM     28  C   UNL     1      -0.127  44.197  51.269  1.00  0.00     0.038 C 
ENDBRANCH  25  26
ENDBRANCH  24  25
ENDBRANCH  23  24
ENDBRANCH   1  23
TORSDOF 8
ENDMDL
MODEL 14
REMARK VINA RESULT:    -7.920      2.872      6.501
REMARK INTER + INTRA:         -12.416
REMARK INTER:                 -11.810
REMARK INTRA:                  -0.606
REMARK UNBOUND:                -0.791
REMARK SMILES CCc1ccc(Nc2nc(NCCOC(C)C)nc3c2cnn3C)cc1
REMARK SMILES IDX 11 1 10 3 8 4 9 5 20 6 19 7 21 8 18 9 23 10 22 11 24 12 7 13
REMARK SMILES IDX 6 15 3 16 4 17 26 18 5 19 25 20 2 21 1 22 12 23 13 24 14 25
REMARK SMILES IDX 15 26 16 27 17 28
REMARK H PARENT 11 2 7 14
ROOT
ATOM      1  N   UNL     1       4.701  47.227  54.957  1.00  0.00    -0.352 N 
ATOM      2  H   UNL     1       4.675  48.241  55.019  1.00  0.00     0.163 HD
ENDROOT
BRANCH   1   3
ATOM      3  C   UNL     1       5.885  46.953  54.279  1.00  0.00     0.226 A 
ATOM      4  C   UNL     1       6.782  45.967  52.338  1.00  0.00     0.147 A 
ATOM      5  N   UNL     1       5.718  46.299  53.116  1.00  0.00    -0.195 NA
ATOM      6  C   UNL     1       8.047  46.334  52.816  1.00  0.00     0.082 A 
ATOM      7  C   UNL     1       8.100  47.002  54.023  1.00  0.00     0.165 A 
ATOM      8  C   UNL     1       9.397  46.228  52.418  1.00  0.00     0.149 A 
ATOM      9  N   UNL     1       7.058  47.335  54.798  1.00  0.00    -0.193 NA
ATOM     10  N   UNL     1       9.424  47.248  54.263  1.00  0.00    -0.250 N 
ATOM     11  N   UNL     1      10.245  46.778  53.295  1.00  0.00    -0.179 NA
ATOM     12  C   UNL     1       9.987  47.927  55.402  1.00  0.00     0.176 C 
BRANCH   4  13
ATOM     13  N   UNL     1       6.632  45.269  51.130  1.00  0.00    -0.339 N 
ATOM     14  H   UNL     1       7.118  45.691  50.352  1.00  0.00     0.168 HD
BRANCH  13  15
ATOM     15  C   UNL     1       5.882  44.132  50.781  1.00  0.00     0.040 A 
ATOM     16  C   UNL     1       4.503  41.766  50.031  1.00  0.00    -0.048 A 
ATOM     17  C   UNL     1       3.969  42.634  50.988  1.00  0.00     0.006 A 
ATOM     18  C   UNL     1       5.729  42.089  49.446  1.00  0.00     0.006 A 
ATOM     19  C   UNL     1       4.656  43.796  51.360  1.00  0.00     0.026 A 
ATOM     20  C   UNL     1       6.409  43.253  49.821  1.00  0.00     0.026 A 
BRANCH  16  21
ATOM     21  C   UNL     1       3.756  40.525  49.619  1.00  0.00     0.032 C 
ATOM     22  C   UNL     1       3.717  40.363  48.107  1.00  0.00     0.009 C 
ENDBRANCH  16  21
ENDBRANCH  13  15
ENDBRANCH   4  13
ENDBRANCH   1   3
BRANCH   1  23
ATOM     23  C   UNL     1       3.521  46.622  54.357  1.00  0.00     0.144 C 
BRANCH  23  24
ATOM     24  C   UNL     1       2.903  45.597  55.317  1.00  0.00     0.181 C 
BRANCH  24  25
ATOM     25  O   UNL     1       1.481  45.554  55.186  1.00  0.00    -0.377 OA
BRANCH  25  26
ATOM     26  C   UNL     1       0.800  45.062  56.345  1.00  0.00     0.112 C 
ATOM     27  C   UNL     1      -0.656  44.847  55.954  1.00  0.00     0.038 C 
ATOM     28  C   UNL     1       0.903  46.080  57.477  1.00  0.00     0.038 C 
ENDBRANCH  25  26
ENDBRANCH  24  25
ENDBRANCH  23  24
ENDBRANCH   1  23
TORSDOF 8
ENDMDL
MODEL 15
REMARK VINA RESULT:    -7.889      2.149      6.205
REMARK INTER + INTRA:         -12.369
REMARK INTER:                 -11.663
REMARK INTRA:                  -0.706
REMARK UNBOUND:                -0.791
REMARK SMILES CCc1ccc(Nc2nc(NCCOC(C)C)nc3c2cnn3C)cc1
REMARK SMILES IDX 11 1 10 3 8 4 9 5 20 6 19 7 21 8 18 9 23 10 22 11 24 12 7 13
REMARK SMILES IDX 6 15 3 16 4 17 26 18 5 19 25 20 2 21 1 22 12 23 13 24 14 25
REMARK SMILES IDX 15 26 16 27 17 28
REMARK H PARENT 11 2 7 14
ROOT
ATOM      1  N   UNL     1       6.934  46.312  51.254  1.00  0.00    -0.352 N 
ATOM      2  H   UNL     1       6.686  46.672  50.336  1.00  0.00     0.163 HD
ENDROOT
BRANCH   1   3
ATOM      3  C   UNL     1       6.135  45.184  51.411  1.00  0.00     0.226 A 
ATOM      4  C   UNL     1       4.520  44.174  52.794  1.00  0.00     0.147 A 
ATOM      5  N   UNL     1       5.359  45.204  52.510  1.00  0.00    -0.195 NA
ATOM      6  C   UNL     1       4.515  43.101  51.893  1.00  0.00     0.082 A 
ATOM      7  C   UNL     1       5.353  43.188  50.799  1.00  0.00     0.165 A 
ATOM      8  C   UNL     1       3.868  41.856  51.738  1.00  0.00     0.149 A 
ATOM      9  N   UNL     1       6.183  44.198  50.507  1.00  0.00    -0.193 NA
ATOM     10  N   UNL     1       5.162  42.038  50.083  1.00  0.00    -0.250 N 
ATOM     11  N   UNL     1       4.258  41.198  50.640  1.00  0.00    -0.179 NA
ATOM     12  C   UNL     1       5.811  41.666  48.851  1.00  0.00     0.176 C 
BRANCH   4  13
ATOM     13  N   UNL     1       3.716  44.165  53.944  1.00  0.00    -0.339 N 
ATOM     14  H   UNL     1       4.226  43.977  54.796  1.00  0.00     0.168 HD
BRANCH  13  15
ATOM     15  C   UNL     1       2.330  44.299  54.131  1.00  0.00     0.040 A 
ATOM     16  C   UNL     1      -0.442  44.692  54.610  1.00  0.00    -0.048 A 
ATOM     17  C   UNL     1       0.005  44.115  53.418  1.00  0.00     0.006 A 
ATOM     18  C   UNL     1       0.504  45.069  55.566  1.00  0.00     0.006 A 
ATOM     19  C   UNL     1       1.373  43.929  53.183  1.00  0.00     0.026 A 
ATOM     20  C   UNL     1       1.869  44.879  55.325  1.00  0.00     0.026 A 
BRANCH  16  21
ATOM     21  C   UNL     1      -1.914  44.876  54.869  1.00  0.00     0.032 C 
ATOM     22  C   UNL     1      -2.170  45.711  56.114  1.00  0.00     0.009 C 
ENDBRANCH  16  21
ENDBRANCH  13  15
ENDBRANCH   4  13
ENDBRANCH   1   3
BRANCH   1  23
ATOM     23  C   UNL     1       6.818  47.277  52.338  1.00  0.00     0.144 C 
BRANCH  23  24
ATOM     24  C   UNL     1       8.036  48.210  52.352  1.00  0.00     0.181 C 
BRANCH  24  25
ATOM     25  O   UNL     1       8.651  48.241  53.642  1.00  0.00    -0.377 OA
BRANCH  25  26
ATOM     26  C   UNL     1       9.394  47.062  53.966  1.00  0.00     0.112 C 
ATOM     27  C   UNL     1      10.282  47.402  55.156  1.00  0.00     0.038 C 
ATOM     28  C   UNL     1      10.245  46.641  52.771  1.00  0.00     0.038 C 
ENDBRANCH  25  26
ENDBRANCH  24  25
ENDBRANCH  23  24
ENDBRANCH   1  23
TORSDOF 8
ENDMDL
MODEL 16
REMARK VINA RESULT:    -7.850      2.934      5.836
REMARK INTER + INTRA:         -12.313
REMARK INTER:                 -11.235
REMARK INTRA:                  -1.078
REMARK UNBOUND:                -0.791
REMARK SMILES CCc1ccc(Nc2nc(NCCOC(C)C)nc3c2cnn3C)cc1
REMARK SMILES IDX 11 1 10 3 8 4 9 5 20 6 19 7 21 8 18 9 23 10 22 11 24 12 7 13
REMARK SMILES IDX 6 15 3 16 4 17 26 18 5 19 25 20 2 21 1 22 12 23 13 24 14 25
REMARK SMILES IDX 15 26 16 27 17 28
REMARK H PARENT 11 2 7 14
ROOT
ATOM      1  N   UNL     1       1.471  44.831  56.778  1.00  0.00    -0.352 N 
ATOM      2  H   UNL     1       2.321  44.514  57.237  1.00  0.00     0.163 HD
ENDROOT
BRANCH   1   3
ATOM      3  C   UNL     1       1.819  44.927  55.434  1.00  0.00     0.226 A 
ATOM      4  C   UNL     1       3.205  46.057  53.903  1.00  0.00     0.147 A 
ATOM      5  N   UNL     1       2.759  45.852  55.171  1.00  0.00    -0.195 NA
ATOM      6  C   UNL     1       2.631  45.265  52.900  1.00  0.00     0.082 A 
ATOM      7  C   UNL     1       1.674  44.348  53.286  1.00  0.00     0.165 A 
ATOM      8  C   UNL     1       2.732  45.095  51.503  1.00  0.00     0.149 A 
ATOM      9  N   UNL     1       1.227  44.136  54.531  1.00  0.00    -0.193 NA
ATOM     10  N   UNL     1       1.278  43.709  52.143  1.00  0.00    -0.250 N 
ATOM     11  N   UNL     1       1.910  44.152  51.030  1.00  0.00    -0.179 NA
ATOM     12  C   UNL     1       0.297  42.660  52.031  1.00  0.00     0.176 C 
BRANCH   4  13
ATOM     13  N   UNL     1       4.172  47.029  53.603  1.00  0.00    -0.339 N 
ATOM     14  H   UNL     1       3.788  47.950  53.445  1.00  0.00     0.168 HD
BRANCH  13  15
ATOM     15  C   UNL     1       5.562  46.954  53.413  1.00  0.00     0.040 A 
ATOM     16  C   UNL     1       8.385  46.748  53.178  1.00  0.00    -0.048 A 
ATOM     17  C   UNL     1       7.565  46.693  52.046  1.00  0.00     0.006 A 
ATOM     18  C   UNL     1       7.787  46.910  54.429  1.00  0.00     0.006 A 
ATOM     19  C   UNL     1       6.173  46.788  52.168  1.00  0.00     0.026 A 
ATOM     20  C   UNL     1       6.395  47.006  54.542  1.00  0.00     0.026 A 
BRANCH  16  21
ATOM     21  C   UNL     1       9.882  46.661  53.045  1.00  0.00     0.032 C 
ATOM     22  C   UNL     1      10.300  46.138  51.679  1.00  0.00     0.009 C 
ENDBRANCH  16  21
ENDBRANCH  13  15
ENDBRANCH   4  13
ENDBRANCH   1   3
BRANCH   1  23
ATOM     23  C   UNL     1       0.898  46.050  57.331  1.00  0.00     0.144 C 
BRANCH  23  24
ATOM     24  C   UNL     1      -0.594  46.139  56.984  1.00  0.00     0.181 C 
BRANCH  24  25
ATOM     25  O   UNL     1      -1.325  45.046  57.544  1.00  0.00    -0.377 OA
BRANCH  25  26
ATOM     26  C   UNL     1      -2.489  44.676  56.799  1.00  0.00     0.112 C 
ATOM     27  C   UNL     1      -2.789  43.219  57.126  1.00  0.00     0.038 C 
ATOM     28  C   UNL     1      -2.223  44.842  55.305  1.00  0.00     0.038 C 
ENDBRANCH  25  26
ENDBRANCH  24  25
ENDBRANCH  23  24
ENDBRANCH   1  23
TORSDOF 8
ENDMDL
MODEL 17
REMARK VINA RESULT:    -7.824      2.820      5.426
REMARK INTER + INTRA:         -12.275
REMARK INTER:                 -11.560
REMARK INTRA:                  -0.715
REMARK UNBOUND:                -0.791
REMARK SMILES CCc1ccc(Nc2nc(NCCOC(C)C)nc3c2cnn3C)cc1
REMARK SMILES IDX 11 1 10 3 8 4 9 5 20 6 19 7 21 8 18 9 23 10 22 11 24 12 7 13
REMARK SMILES IDX 6 15 3 16 4 17 26 18 5 19 25 20 2 21 1 22 12 23 13 24 14 25
REMARK SMILES IDX 15 26 16 27 17 28
REMARK H PARENT 11 2 7 14
ROOT
ATOM      1  N   UNL     1       2.081  45.628  56.303  1.00  0.00    -0.352 N 
ATOM      2  H   UNL     1       2.344  46.609  56.266  1.00  0.00     0.163 HD
ENDROOT
BRANCH   1   3
ATOM      3  C   UNL     1       2.081  45.220  54.972  1.00  0.00     0.226 A 
ATOM      4  C   UNL     1       3.045  45.614  52.861  1.00  0.00     0.147 A 
ATOM      5  N   UNL     1       2.930  45.903  54.184  1.00  0.00    -0.195 NA
ATOM      6  C   UNL     1       2.233  44.583  52.371  1.00  0.00     0.082 A 
ATOM      7  C   UNL     1       1.398  43.951  53.271  1.00  0.00     0.165 A 
ATOM      8  C   UNL     1       1.979  43.931  51.145  1.00  0.00     0.149 A 
ATOM      9  N   UNL     1       1.276  44.226  54.577  1.00  0.00    -0.193 NA
ATOM     10  N   UNL     1       0.725  42.996  52.559  1.00  0.00    -0.250 N 
ATOM     11  N   UNL     1       1.059  42.965  51.247  1.00  0.00    -0.179 NA
ATOM     12  C   UNL     1      -0.259  42.072  53.062  1.00  0.00     0.176 C 
BRANCH   4  13
ATOM     13  N   UNL     1       3.910  46.325  52.016  1.00  0.00    -0.339 N 
ATOM     14  H   UNL     1       3.436  46.840  51.288  1.00  0.00     0.168 HD
BRANCH  13  15
ATOM     15  C   UNL     1       5.312  46.405  51.947  1.00  0.00     0.040 A 
ATOM     16  C   UNL     1       8.145  46.603  51.963  1.00  0.00    -0.048 A 
ATOM     17  C   UNL     1       7.487  45.809  51.018  1.00  0.00     0.006 A 
ATOM     18  C   UNL     1       7.380  47.301  52.898  1.00  0.00     0.006 A 
ATOM     19  C   UNL     1       6.090  45.710  51.018  1.00  0.00     0.026 A 
ATOM     20  C   UNL     1       5.984  47.198  52.892  1.00  0.00     0.026 A 
BRANCH  16  21
ATOM     21  C   UNL     1       9.646  46.722  51.951  1.00  0.00     0.032 C 
ATOM     22  C   UNL     1      10.203  46.987  53.342  1.00  0.00     0.009 C 
ENDBRANCH  16  21
ENDBRANCH  13  15
ENDBRANCH   4  13
ENDBRANCH   1   3
BRANCH   1  23
ATOM     23  C   UNL     1       0.835  45.357  57.006  1.00  0.00     0.144 C 
BRANCH  23  24
ATOM     24  C   UNL     1       0.516  46.500  57.979  1.00  0.00     0.181 C 
BRANCH  24  25
ATOM     25  O   UNL     1      -0.879  46.812  57.973  1.00  0.00    -0.377 OA
BRANCH  25  26
ATOM     26  C   UNL     1      -1.223  47.973  58.736  1.00  0.00     0.112 C 
ATOM     27  C   UNL     1      -0.137  48.159  59.788  1.00  0.00     0.038 C 
ATOM     28  C   UNL     1      -2.581  47.772  59.403  1.00  0.00     0.038 C 
ENDBRANCH  25  26
ENDBRANCH  24  25
ENDBRANCH  23  24
ENDBRANCH   1  23
TORSDOF 8
ENDMDL
MODEL 18
REMARK VINA RESULT:    -7.760      2.462      6.096
REMARK INTER + INTRA:         -12.181
REMARK INTER:                 -10.992
REMARK INTRA:                  -1.189
REMARK UNBOUND:                -0.791
REMARK SMILES CCc1ccc(Nc2nc(NCCOC(C)C)nc3c2cnn3C)cc1
REMARK SMILES IDX 11 1 10 3 8 4 9 5 20 6 19 7 21 8 18 9 23 10 22 11 24 12 7 13
REMARK SMILES IDX 6 15 3 16 4 17 26 18 5 19 25 20 2 21 1 22 12 23 13 24 14 25
REMARK SMILES IDX 15 26 16 27 17 28
REMARK H PARENT 11 2 7 14
ROOT
ATOM      1  N   UNL     1       1.045  45.028  51.859  1.00  0.00    -0.352 N 
ATOM      2  H   UNL     1       0.618  45.327  50.986  1.00  0.00     0.163 HD
ENDROOT
BRANCH   1   3
ATOM      3  C   UNL     1       2.334  44.644  51.501  1.00  0.00     0.226 A 
ATOM      4  C   UNL     1       4.552  45.400  51.278  1.00  0.00     0.147 A 
ATOM      5  N   UNL     1       3.248  45.626  51.589  1.00  0.00    -0.195 NA
ATOM      6  C   UNL     1       4.881  44.105  50.857  1.00  0.00     0.082 A 
ATOM      7  C   UNL     1       3.861  43.177  50.802  1.00  0.00     0.165 A 
ATOM      8  C   UNL     1       6.024  43.391  50.436  1.00  0.00     0.149 A 
ATOM      9  N   UNL     1       2.573  43.387  51.108  1.00  0.00    -0.193 NA
ATOM     10  N   UNL     1       4.431  42.010  50.374  1.00  0.00    -0.250 N 
ATOM     11  N   UNL     1       5.760  42.114  50.136  1.00  0.00    -0.179 NA
ATOM     12  C   UNL     1       3.770  40.747  50.164  1.00  0.00     0.176 C 
BRANCH   4  13
ATOM     13  N   UNL     1       5.519  46.414  51.345  1.00  0.00    -0.339 N 
ATOM     14  H   UNL     1       5.392  47.145  50.659  1.00  0.00     0.168 HD
BRANCH  13  15
ATOM     15  C   UNL     1       6.670  46.574  52.136  1.00  0.00     0.040 A 
ATOM     16  C   UNL     1       9.070  46.952  53.607  1.00  0.00    -0.048 A 
ATOM     17  C   UNL     1       7.828  46.962  54.247  1.00  0.00     0.006 A 
ATOM     18  C   UNL     1       9.108  46.749  52.225  1.00  0.00     0.006 A 
ATOM     19  C   UNL     1       6.646  46.781  53.517  1.00  0.00     0.026 A 
ATOM     20  C   UNL     1       7.923  46.568  51.503  1.00  0.00     0.026 A 
BRANCH  16  21
ATOM     21  C   UNL     1      10.341  47.130  54.395  1.00  0.00     0.032 C 
ATOM     22  C   UNL     1      10.105  47.907  55.681  1.00  0.00     0.009 C 
ENDBRANCH  16  21
ENDBRANCH  13  15
ENDBRANCH   4  13
ENDBRANCH   1   3
BRANCH   1  23
ATOM     23  C   UNL     1       0.301  44.006  52.582  1.00  0.00     0.144 C 
BRANCH  23  24
ATOM     24  C   UNL     1       0.119  44.420  54.049  1.00  0.00     0.181 C 
BRANCH  24  25
ATOM     25  O   UNL     1       1.121  43.833  54.882  1.00  0.00    -0.377 OA
BRANCH  25  26
ATOM     26  C   UNL     1       1.709  44.740  55.820  1.00  0.00     0.112 C 
ATOM     27  C   UNL     1       0.581  45.591  56.390  1.00  0.00     0.038 C 
ATOM     28  C   UNL     1       2.735  45.621  55.114  1.00  0.00     0.038 C 
ENDBRANCH  25  26
ENDBRANCH  24  25
ENDBRANCH  23  24
ENDBRANCH   1  23
TORSDOF 8
ENDMDL
MODEL 19
REMARK VINA RESULT:    -7.740      1.608      2.204
REMARK INTER + INTRA:         -12.150
REMARK INTER:                 -10.960
REMARK INTRA:                  -1.191
REMARK UNBOUND:                -0.791
REMARK SMILES CCc1ccc(Nc2nc(NCCOC(C)C)nc3c2cnn3C)cc1
REMARK SMILES IDX 11 1 10 3 8 4 9 5 20 6 19 7 21 8 18 9 23 10 22 11 24 12 7 13
REMARK SMILES IDX 6 15 3 16 4 17 26 18 5 19 25 20 2 21 1 22 12 23 13 24 14 25
REMARK SMILES IDX 15 26 16 27 17 28
REMARK H PARENT 11 2 7 14
ROOT
ATOM      1  N   UNL     1       2.342  44.875  55.531  1.00  0.00    -0.352 N 
ATOM      2  H   UNL     1       2.136  44.138  56.200  1.00  0.00     0.163 HD
ENDROOT
BRANCH   1   3
ATOM      3  C   UNL     1       1.774  44.429  54.341  1.00  0.00     0.226 A 
ATOM      4  C   UNL     1       2.136  43.073  52.450  1.00  0.00     0.147 A 
ATOM      5  N   UNL     1       2.557  43.596  53.632  1.00  0.00    -0.195 NA
ATOM      6  C   UNL     1       0.860  43.453  52.016  1.00  0.00     0.082 A 
ATOM      7  C   UNL     1       0.144  44.315  52.824  1.00  0.00     0.165 A 
ATOM      8  C   UNL     1       0.002  43.212  50.920  1.00  0.00     0.149 A 
ATOM      9  N   UNL     1       0.548  44.835  53.991  1.00  0.00    -0.193 NA
ATOM     10  N   UNL     1      -1.050  44.526  52.191  1.00  0.00    -0.250 N 
ATOM     11  N   UNL     1      -1.162  43.864  51.015  1.00  0.00    -0.179 NA
ATOM     12  C   UNL     1      -2.139  45.351  52.647  1.00  0.00     0.176 C 
BRANCH   4  13
ATOM     13  N   UNL     1       2.943  42.217  51.685  1.00  0.00    -0.339 N 
ATOM     14  H   UNL     1       2.628  41.258  51.679  1.00  0.00     0.168 HD
BRANCH  13  15
ATOM     15  C   UNL     1       4.142  42.425  50.982  1.00  0.00     0.040 A 
ATOM     16  C   UNL     1       6.593  42.971  49.655  1.00  0.00    -0.048 A 
ATOM     17  C   UNL     1       6.060  41.678  49.674  1.00  0.00     0.006 A 
ATOM     18  C   UNL     1       5.892  43.992  50.301  1.00  0.00     0.006 A 
ATOM     19  C   UNL     1       4.854  41.413  50.335  1.00  0.00     0.026 A 
ATOM     20  C   UNL     1       4.687  43.719  50.958  1.00  0.00     0.026 A 
BRANCH  16  21
ATOM     21  C   UNL     1       7.881  43.259  48.930  1.00  0.00     0.032 C 
ATOM     22  C   UNL     1       8.688  44.348  49.621  1.00  0.00     0.009 C 
ENDBRANCH  16  21
ENDBRANCH  13  15
ENDBRANCH   4  13
ENDBRANCH   1   3
BRANCH   1  23
ATOM     23  C   UNL     1       3.752  45.222  55.421  1.00  0.00     0.144 C 
BRANCH  23  24
ATOM     24  C   UNL     1       3.908  46.618  54.804  1.00  0.00     0.181 C 
BRANCH  24  25
ATOM     25  O   UNL     1       5.279  47.022  54.774  1.00  0.00    -0.377 OA
BRANCH  25  26
ATOM     26  C   UNL     1       5.841  47.095  53.460  1.00  0.00     0.112 C 
ATOM     27  C   UNL     1       4.689  46.971  52.471  1.00  0.00     0.038 C 
ATOM     28  C   UNL     1       6.838  45.957  53.260  1.00  0.00     0.038 C 
ENDBRANCH  25  26
ENDBRANCH  24  25
ENDBRANCH  23  24
ENDBRANCH   1  23
TORSDOF 8
ENDMDL
MODEL 20
REMARK VINA RESULT:    -7.729      3.253      7.663
REMARK INTER + INTRA:         -12.136
REMARK INTER:                 -10.599
REMARK INTRA:                  -1.536
REMARK UNBOUND:                -0.791
REMARK SMILES CCc1ccc(Nc2nc(NCCOC(C)C)nc3c2cnn3C)cc1
REMARK SMILES IDX 11 1 10 3 8 4 9 5 20 6 19 7 21 8 18 9 23 10 22 11 24 12 7 13
REMARK SMILES IDX 6 15 3 16 4 17 26 18 5 19 25 20 2 21 1 22 12 23 13 24 14 25
REMARK SMILES IDX 15 26 16 27 17 28
REMARK H PARENT 11 2 7 14
ROOT
ATOM      1  N   UNL     1       6.520  43.452  49.332  1.00  0.00    -0.352 N 
ATOM      2  H   UNL     1       7.278  43.533  48.659  1.00  0.00     0.163 HD
ENDROOT
BRANCH   1   3
ATOM      3  C   UNL     1       6.728  44.508  50.214  1.00  0.00     0.226 A 
ATOM      4  C   UNL     1       5.641  46.096  51.571  1.00  0.00     0.147 A 
ATOM      5  N   UNL     1       5.598  45.059  50.693  1.00  0.00    -0.195 NA
ATOM      6  C   UNL     1       6.913  46.557  51.936  1.00  0.00     0.082 A 
ATOM      7  C   UNL     1       8.003  45.917  51.381  1.00  0.00     0.165 A 
ATOM      8  C   UNL     1       7.478  47.552  52.762  1.00  0.00     0.149 A 
ATOM      9  N   UNL     1       7.974  44.893  50.517  1.00  0.00    -0.193 NA
ATOM     10  N   UNL     1       9.109  46.540  51.891  1.00  0.00    -0.250 N 
ATOM     11  N   UNL     1       8.815  47.553  52.739  1.00  0.00    -0.179 NA
ATOM     12  C   UNL     1      10.487  46.225  51.612  1.00  0.00     0.176 C 
BRANCH   4  13
ATOM     13  N   UNL     1       4.476  46.698  52.069  1.00  0.00    -0.339 N 
ATOM     14  H   UNL     1       4.320  47.634  51.720  1.00  0.00     0.168 HD
BRANCH  13  15
ATOM     15  C   UNL     1       3.521  46.277  53.010  1.00  0.00     0.040 A 
ATOM     16  C   UNL     1       1.508  45.361  54.792  1.00  0.00    -0.048 A 
ATOM     17  C   UNL     1       2.813  45.589  55.240  1.00  0.00     0.006 A 
ATOM     18  C   UNL     1       1.212  45.597  53.448  1.00  0.00     0.006 A 
ATOM     19  C   UNL     1       3.804  46.035  54.356  1.00  0.00     0.026 A 
ATOM     20  C   UNL     1       2.207  46.044  52.571  1.00  0.00     0.026 A 
BRANCH  16  21
ATOM     21  C   UNL     1       0.440  44.898  55.747  1.00  0.00     0.032 C 
ATOM     22  C   UNL     1       0.509  45.636  57.075  1.00  0.00     0.009 C 
ENDBRANCH  16  21
ENDBRANCH  13  15
ENDBRANCH   4  13
ENDBRANCH   1   3
BRANCH   1  23
ATOM     23  C   UNL     1       6.416  42.152  49.978  1.00  0.00     0.144 C 
BRANCH  23  24
ATOM     24  C   UNL     1       5.072  41.495  49.634  1.00  0.00     0.181 C 
BRANCH  24  25
ATOM     25  O   UNL     1       4.258  41.339  50.798  1.00  0.00    -0.377 OA
BRANCH  25  26
ATOM     26  C   UNL     1       3.570  42.528  51.196  1.00  0.00     0.112 C 
ATOM     27  C   UNL     1       3.720  42.650  52.708  1.00  0.00     0.038 C 
ATOM     28  C   UNL     1       2.096  42.427  50.815  1.00  0.00     0.038 C 
ENDBRANCH  25  26
ENDBRANCH  24  25
ENDBRANCH  23  24
ENDBRANCH   1  23
TORSDOF 8
ENDMDL
