MODEL 1
REMARK VINA RESULT:    -8.705      0.000      0.000
REMARK INTER + INTRA:         -12.278
REMARK INTER:                 -11.759
REMARK INTRA:                  -0.519
REMARK UNBOUND:                -0.519
REMARK SMILES CCCCNc1nc(Nc2ccc3nc[nH]c3c2)c2cnn(C)c2n1
REMARK SMILES IDX 5 1 4 3 3 4 2 5 1 6 6 7 7 8 25 9 8 10 24 11 19 12 22 13
REMARK SMILES IDX 20 14 21 15 23 16 9 17 10 19 11 20 18 21 12 22 17 23 13 24
REMARK SMILES IDX 16 25 14 26 15 27
REMARK H PARENT 5 2 9 18 16 28
ROOT
ATOM      1  N   UNL     1       8.769  47.506  51.712  1.00  0.00    -0.354 N 
ATOM      2  H   UNL     1       8.502  48.277  52.317  1.00  0.00     0.163 HD
ENDROOT
BRANCH   1   3
ATOM      3  C   UNL     1       9.976  46.802  52.102  1.00  0.00     0.116 C 
BRANCH   3   4
ATOM      4  C   UNL     1       9.888  46.379  53.572  1.00  0.00     0.021 C 
BRANCH   4   5
ATOM      5  C   UNL     1       9.670  47.568  54.512  1.00  0.00    -0.002 C 
ATOM      6  C   UNL     1      10.597  47.498  55.717  1.00  0.00     0.004 C 
ENDBRANCH   4   5
ENDBRANCH   3   4
ENDBRANCH   1   3
BRANCH   1   7
ATOM      7  C   UNL     1       7.634  46.706  51.622  1.00  0.00     0.226 A 
ATOM      8  N   UNL     1       6.580  47.159  52.323  1.00  0.00    -0.195 NA
ATOM      9  N   UNL     1       7.660  45.588  50.886  1.00  0.00    -0.193 NA
ATOM     10  C   UNL     1       5.397  46.489  52.323  1.00  0.00     0.147 A 
ATOM     11  C   UNL     1       6.490  44.936  50.895  1.00  0.00     0.165 A 
ATOM     12  C   UNL     1       5.345  45.309  51.571  1.00  0.00     0.082 A 
ATOM     13  N   UNL     1       6.184  43.773  50.242  1.00  0.00    -0.250 N 
ATOM     14  C   UNL     1       4.413  44.296  51.260  1.00  0.00     0.149 A 
ATOM     15  N   UNL     1       4.916  43.351  50.456  1.00  0.00    -0.179 NA
ATOM     16  C   UNL     1       7.055  43.001  49.393  1.00  0.00     0.176 C 
BRANCH  10  17
ATOM     17  N   UNL     1       4.291  46.935  53.062  1.00  0.00    -0.339 N 
ATOM     18  H   UNL     1       4.341  47.911  53.320  1.00  0.00     0.168 HD
BRANCH  17  19
ATOM     19  C   UNL     1       3.166  46.263  53.582  1.00  0.00     0.042 A 
ATOM     20  C   UNL     1       3.178  45.565  54.797  1.00  0.00     0.028 A 
ATOM     21  C   UNL     1       1.988  46.259  52.804  1.00  0.00     0.054 A 
ATOM     22  C   UNL     1       2.049  44.877  55.274  1.00  0.00     0.033 A 
ATOM     23  C   UNL     1       0.876  45.567  53.297  1.00  0.00     0.067 A 
ATOM     24  C   UNL     1       0.881  44.882  54.505  1.00  0.00     0.088 A 
ATOM     25  N   UNL     1      -0.389  45.370  52.804  1.00  0.00    -0.345 N 
ATOM     26  N   UNL     1      -0.337  44.295  54.742  1.00  0.00    -0.237 NA
ATOM     27  C   UNL     1      -1.077  44.607  53.703  1.00  0.00     0.197 A 
ATOM     28  H   UNL     1      -0.750  45.727  51.932  1.00  0.00     0.168 HD
ENDBRANCH  17  19
ENDBRANCH  10  17
ENDBRANCH   1   7
TORSDOF 6
ENDMDL
MODEL 2
REMARK VINA RESULT:    -8.699      1.904      2.961
REMARK INTER + INTRA:         -12.270
REMARK INTER:                 -11.858
REMARK INTRA:                  -0.412
REMARK UNBOUND:                -0.519
REMARK SMILES CCCCNc1nc(Nc2ccc3nc[nH]c3c2)c2cnn(C)c2n1
REMARK SMILES IDX 5 1 4 3 3 4 2 5 1 6 6 7 7 8 25 9 8 10 24 11 19 12 22 13
REMARK SMILES IDX 20 14 21 15 23 16 9 17 10 19 11 20 18 21 12 22 17 23 13 24
REMARK SMILES IDX 16 25 14 26 15 27
REMARK H PARENT 5 2 9 18 16 28
ROOT
ATOM      1  N   UNL     1       5.606  47.032  52.512  1.00  0.00    -0.354 N 
ATOM      2  H   UNL     1       4.827  47.444  53.018  1.00  0.00     0.163 HD
ENDROOT
BRANCH   1   3
ATOM      3  C   UNL     1       6.893  47.123  53.176  1.00  0.00     0.116 C 
BRANCH   3   4
ATOM      4  C   UNL     1       7.862  47.958  52.333  1.00  0.00     0.021 C 
BRANCH   4   5
ATOM      5  C   UNL     1       9.160  47.209  52.017  1.00  0.00    -0.002 C 
ATOM      6  C   UNL     1       9.897  46.816  53.289  1.00  0.00     0.004 C 
ENDBRANCH   4   5
ENDBRANCH   3   4
ENDBRANCH   1   3
BRANCH   1   7
ATOM      7  C   UNL     1       5.198  45.735  52.214  1.00  0.00     0.226 A 
ATOM      8  N   UNL     1       4.122  45.319  52.905  1.00  0.00    -0.195 NA
ATOM      9  N   UNL     1       5.871  45.014  51.308  1.00  0.00    -0.193 NA
ATOM     10  C   UNL     1       3.601  44.079  52.712  1.00  0.00     0.147 A 
ATOM     11  C   UNL     1       5.349  43.793  51.129  1.00  0.00     0.165 A 
ATOM     12  C   UNL     1       4.250  43.264  51.775  1.00  0.00     0.082 A 
ATOM     13  N   UNL     1       5.792  42.821  50.274  1.00  0.00    -0.250 N 
ATOM     14  C   UNL     1       4.123  41.965  51.238  1.00  0.00     0.149 A 
ATOM     15  N   UNL     1       5.061  41.682  50.327  1.00  0.00    -0.179 NA
ATOM     16  C   UNL     1       6.912  42.904  49.372  1.00  0.00     0.176 C 
BRANCH  10  17
ATOM     17  N   UNL     1       2.491  43.619  53.437  1.00  0.00    -0.339 N 
ATOM     18  H   UNL     1       2.176  42.700  53.157  1.00  0.00     0.168 HD
BRANCH  17  19
ATOM     19  C   UNL     1       1.685  44.224  54.422  1.00  0.00     0.042 A 
ATOM     20  C   UNL     1       0.284  44.214  54.385  1.00  0.00     0.028 A 
ATOM     21  C   UNL     1       2.335  44.917  55.466  1.00  0.00     0.054 A 
ATOM     22  C   UNL     1      -0.494  44.855  55.365  1.00  0.00     0.033 A 
ATOM     23  C   UNL     1       1.542  45.550  56.431  1.00  0.00     0.067 A 
ATOM     24  C   UNL     1       0.153  45.532  56.402  1.00  0.00     0.088 A 
ATOM     25  N   UNL     1       1.847  46.287  57.546  1.00  0.00    -0.345 N 
ATOM     26  N   UNL     1      -0.368  46.230  57.465  1.00  0.00    -0.237 NA
ATOM     27  C   UNL     1       0.674  46.669  58.132  1.00  0.00     0.197 A 
ATOM     28  H   UNL     1       2.774  46.508  57.878  1.00  0.00     0.168 HD
ENDBRANCH  17  19
ENDBRANCH  10  17
ENDBRANCH   1   7
TORSDOF 6
ENDMDL
MODEL 3
REMARK VINA RESULT:    -8.659      1.953      6.766
REMARK INTER + INTRA:         -12.215
REMARK INTER:                 -11.365
REMARK INTRA:                  -0.850
REMARK UNBOUND:                -0.519
REMARK SMILES CCCCNc1nc(Nc2ccc3nc[nH]c3c2)c2cnn(C)c2n1
REMARK SMILES IDX 5 1 4 3 3 4 2 5 1 6 6 7 7 8 25 9 8 10 24 11 19 12 22 13
REMARK SMILES IDX 20 14 21 15 23 16 9 17 10 19 11 20 18 21 12 22 17 23 13 24
REMARK SMILES IDX 16 25 14 26 15 27
REMARK H PARENT 5 2 9 18 16 28
ROOT
ATOM      1  N   UNL     1       4.015  41.182  50.930  1.00  0.00    -0.354 N 
ATOM      2  H   UNL     1       3.324  40.446  51.051  1.00  0.00     0.163 HD
ENDROOT
BRANCH   1   3
ATOM      3  C   UNL     1       4.640  41.236  49.622  1.00  0.00     0.116 C 
BRANCH   3   4
ATOM      4  C   UNL     1       6.125  41.584  49.762  1.00  0.00     0.021 C 
BRANCH   4   5
ATOM      5  C   UNL     1       6.490  42.896  49.062  1.00  0.00    -0.002 C 
ATOM      6  C   UNL     1       7.946  43.265  49.301  1.00  0.00     0.004 C 
ENDBRANCH   4   5
ENDBRANCH   3   4
ENDBRANCH   1   3
BRANCH   1   7
ATOM      7  C   UNL     1       3.367  42.352  51.312  1.00  0.00     0.226 A 
ATOM      8  N   UNL     1       4.156  43.246  51.933  1.00  0.00    -0.195 NA
ATOM      9  N   UNL     1       2.061  42.508  51.057  1.00  0.00    -0.193 NA
ATOM     10  C   UNL     1       3.666  44.442  52.355  1.00  0.00     0.147 A 
ATOM     11  C   UNL     1       1.590  43.689  51.478  1.00  0.00     0.165 A 
ATOM     12  C   UNL     1       2.306  44.680  52.120  1.00  0.00     0.082 A 
ATOM     13  N   UNL     1       0.310  44.159  51.363  1.00  0.00    -0.250 N 
ATOM     14  C   UNL     1       1.357  45.700  52.351  1.00  0.00     0.149 A 
ATOM     15  N   UNL     1       0.136  45.390  51.899  1.00  0.00    -0.179 NA
ATOM     16  C   UNL     1      -0.809  43.487  50.753  1.00  0.00     0.176 C 
BRANCH  10  17
ATOM     17  N   UNL     1       4.468  45.379  53.022  1.00  0.00    -0.339 N 
ATOM     18  H   UNL     1       3.991  45.864  53.770  1.00  0.00     0.168 HD
BRANCH  17  19
ATOM     19  C   UNL     1       5.784  45.831  52.798  1.00  0.00     0.042 A 
ATOM     20  C   UNL     1       6.395  45.831  51.537  1.00  0.00     0.028 A 
ATOM     21  C   UNL     1       6.532  46.253  53.918  1.00  0.00     0.054 A 
ATOM     22  C   UNL     1       7.722  46.256  51.349  1.00  0.00     0.033 A 
ATOM     23  C   UNL     1       7.852  46.672  53.710  1.00  0.00     0.067 A 
ATOM     24  C   UNL     1       8.456  46.682  52.460  1.00  0.00     0.088 A 
ATOM     25  N   UNL     1       8.825  47.132  54.559  1.00  0.00    -0.345 N 
ATOM     26  N   UNL     1       9.750  47.137  52.544  1.00  0.00    -0.237 NA
ATOM     27  C   UNL     1       9.940  47.398  53.816  1.00  0.00     0.197 A 
ATOM     28  H   UNL     1       8.736  47.253  55.557  1.00  0.00     0.168 HD
ENDBRANCH  17  19
ENDBRANCH  10  17
ENDBRANCH   1   7
TORSDOF 6
ENDMDL
MODEL 4
REMARK VINA RESULT:    -8.618      1.855      6.997
REMARK INTER + INTRA:         -12.160
REMARK INTER:                 -11.314
REMARK INTRA:                  -0.846
REMARK UNBOUND:                -0.519
REMARK SMILES CCCCNc1nc(Nc2ccc3nc[nH]c3c2)c2cnn(C)c2n1
REMARK SMILES IDX 5 1 4 3 3 4 2 5 1 6 6 7 7 8 25 9 8 10 24 11 19 12 22 13
REMARK SMILES IDX 20 14 21 15 23 16 9 17 10 19 11 20 18 21 12 22 17 23 13 24
REMARK SMILES IDX 16 25 14 26 15 27
REMARK H PARENT 5 2 9 18 16 28
ROOT
ATOM      1  N   UNL     1       4.085  41.429  51.224  1.00  0.00    -0.354 N 
ATOM      2  H   UNL     1       3.815  40.673  51.846  1.00  0.00     0.163 HD
ENDROOT
BRANCH   1   3
ATOM      3  C   UNL     1       3.770  41.221  49.822  1.00  0.00     0.116 C 
BRANCH   3   4
ATOM      4  C   UNL     1       5.058  41.163  48.996  1.00  0.00     0.021 C 
BRANCH   4   5
ATOM      5  C   UNL     1       6.297  41.537  49.813  1.00  0.00    -0.002 C 
ATOM      6  C   UNL     1       6.904  42.846  49.331  1.00  0.00     0.004 C 
ENDBRANCH   4   5
ENDBRANCH   3   4
ENDBRANCH   1   3
BRANCH   1   7
ATOM      7  C   UNL     1       3.524  42.574  51.781  1.00  0.00     0.226 A 
ATOM      8  N   UNL     1       4.282  43.679  51.659  1.00  0.00    -0.195 NA
ATOM      9  N   UNL     1       2.328  42.510  52.379  1.00  0.00    -0.193 NA
ATOM     10  C   UNL     1       3.859  44.876  52.145  1.00  0.00     0.147 A 
ATOM     11  C   UNL     1       1.924  43.695  52.856  1.00  0.00     0.165 A 
ATOM     12  C   UNL     1       2.613  44.890  52.783  1.00  0.00     0.082 A 
ATOM     13  N   UNL     1       0.754  43.970  53.508  1.00  0.00    -0.250 N 
ATOM     14  C   UNL     1       1.768  45.817  53.429  1.00  0.00     0.149 A 
ATOM     15  N   UNL     1       0.635  45.267  53.880  1.00  0.00    -0.179 NA
ATOM     16  C   UNL     1      -0.306  43.043  53.817  1.00  0.00     0.176 C 
BRANCH  10  17
ATOM     17  N   UNL     1       4.643  46.036  52.045  1.00  0.00    -0.339 N 
ATOM     18  H   UNL     1       4.117  46.861  51.791  1.00  0.00     0.168 HD
BRANCH  17  19
ATOM     19  C   UNL     1       6.031  46.254  52.154  1.00  0.00     0.042 A 
ATOM     20  C   UNL     1       6.932  46.021  51.106  1.00  0.00     0.028 A 
ATOM     21  C   UNL     1       6.532  46.680  53.402  1.00  0.00     0.054 A 
ATOM     22  C   UNL     1       8.316  46.217  51.253  1.00  0.00     0.033 A 
ATOM     23  C   UNL     1       7.914  46.867  53.529  1.00  0.00     0.067 A 
ATOM     24  C   UNL     1       8.808  46.647  52.489  1.00  0.00     0.088 A 
ATOM     25  N   UNL     1       8.705  47.266  54.575  1.00  0.00    -0.345 N 
ATOM     26  N   UNL     1      10.097  46.906  52.887  1.00  0.00    -0.237 NA
ATOM     27  C   UNL     1      10.001  47.275  54.143  1.00  0.00     0.197 A 
ATOM     28  H   UNL     1       8.388  47.509  55.502  1.00  0.00     0.168 HD
ENDBRANCH  17  19
ENDBRANCH  10  17
ENDBRANCH   1   7
TORSDOF 6
ENDMDL
MODEL 5
REMARK VINA RESULT:    -8.600      3.451      6.436
REMARK INTER + INTRA:         -12.135
REMARK INTER:                 -11.434
REMARK INTRA:                  -0.701
REMARK UNBOUND:                -0.519
REMARK SMILES CCCCNc1nc(Nc2ccc3nc[nH]c3c2)c2cnn(C)c2n1
REMARK SMILES IDX 5 1 4 3 3 4 2 5 1 6 6 7 7 8 25 9 8 10 24 11 19 12 22 13
REMARK SMILES IDX 20 14 21 15 23 16 9 17 10 19 11 20 18 21 12 22 17 23 13 24
REMARK SMILES IDX 16 25 14 26 15 27
REMARK H PARENT 5 2 9 18 16 28
ROOT
ATOM      1  N   UNL     1       7.717  45.681  50.590  1.00  0.00    -0.354 N 
ATOM      2  H   UNL     1       7.590  46.061  49.657  1.00  0.00     0.163 HD
ENDROOT
BRANCH   1   3
ATOM      3  C   UNL     1       7.760  46.663  51.658  1.00  0.00     0.116 C 
BRANCH   3   4
ATOM      4  C   UNL     1       9.163  47.269  51.761  1.00  0.00     0.021 C 
BRANCH   4   5
ATOM      5  C   UNL     1       9.947  46.734  52.962  1.00  0.00    -0.002 C 
ATOM      6  C   UNL     1       9.601  47.496  54.233  1.00  0.00     0.004 C 
ENDBRANCH   4   5
ENDBRANCH   3   4
ENDBRANCH   1   3
BRANCH   1   7
ATOM      7  C   UNL     1       6.722  44.718  50.727  1.00  0.00     0.226 A 
ATOM      8  N   UNL     1       6.814  43.698  49.856  1.00  0.00    -0.195 NA
ATOM      9  N   UNL     1       5.778  44.861  51.666  1.00  0.00    -0.193 NA
ATOM     10  C   UNL     1       5.919  42.675  49.876  1.00  0.00     0.147 A 
ATOM     11  C   UNL     1       4.901  43.848  51.675  1.00  0.00     0.165 A 
ATOM     12  C   UNL     1       4.900  42.751  50.835  1.00  0.00     0.082 A 
ATOM     13  N   UNL     1       3.829  43.687  52.510  1.00  0.00    -0.250 N 
ATOM     14  C   UNL     1       3.781  41.998  51.249  1.00  0.00     0.149 A 
ATOM     15  N   UNL     1       3.118  42.561  52.265  1.00  0.00    -0.179 NA
ATOM     16  C   UNL     1       3.417  44.570  53.571  1.00  0.00     0.176 C 
BRANCH  10  17
ATOM     17  N   UNL     1       5.985  41.612  48.964  1.00  0.00    -0.339 N 
ATOM     18  H   UNL     1       6.685  40.920  49.196  1.00  0.00     0.168 HD
BRANCH  17  19
ATOM     19  C   UNL     1       5.320  41.365  47.746  1.00  0.00     0.042 A 
ATOM     20  C   UNL     1       5.702  41.944  46.528  1.00  0.00     0.028 A 
ATOM     21  C   UNL     1       4.183  40.530  47.777  1.00  0.00     0.054 A 
ATOM     22  C   UNL     1       4.999  41.704  45.334  1.00  0.00     0.033 A 
ATOM     23  C   UNL     1       3.496  40.306  46.578  1.00  0.00     0.067 A 
ATOM     24  C   UNL     1       3.877  40.870  45.368  1.00  0.00     0.088 A 
ATOM     25  N   UNL     1       2.383  39.566  46.270  1.00  0.00    -0.345 N 
ATOM     26  N   UNL     1       3.030  40.484  44.358  1.00  0.00    -0.237 NA
ATOM     27  C   UNL     1       2.145  39.702  44.932  1.00  0.00     0.197 A 
ATOM     28  H   UNL     1       1.835  39.017  46.916  1.00  0.00     0.168 HD
ENDBRANCH  17  19
ENDBRANCH  10  17
ENDBRANCH   1   7
TORSDOF 6
ENDMDL
MODEL 6
REMARK VINA RESULT:    -8.574      1.553      2.345
REMARK INTER + INTRA:         -12.100
REMARK INTER:                 -11.313
REMARK INTRA:                  -0.787
REMARK UNBOUND:                -0.519
REMARK SMILES CCCCNc1nc(Nc2ccc3nc[nH]c3c2)c2cnn(C)c2n1
REMARK SMILES IDX 5 1 4 3 3 4 2 5 1 6 6 7 7 8 25 9 8 10 24 11 19 12 22 13
REMARK SMILES IDX 20 14 21 15 23 16 9 17 10 19 11 20 18 21 12 22 17 23 13 24
REMARK SMILES IDX 16 25 14 26 15 27
REMARK H PARENT 5 2 9 18 16 28
ROOT
ATOM      1  N   UNL     1       6.469  47.208  52.605  1.00  0.00    -0.354 N 
ATOM      2  H   UNL     1       6.449  47.287  53.617  1.00  0.00     0.163 HD
ENDROOT
BRANCH   1   3
ATOM      3  C   UNL     1       7.770  47.408  51.993  1.00  0.00     0.116 C 
BRANCH   3   4
ATOM      4  C   UNL     1       8.790  47.835  53.053  1.00  0.00     0.021 C 
BRANCH   4   5
ATOM      5  C   UNL     1       9.920  46.817  53.224  1.00  0.00    -0.002 C 
ATOM      6  C   UNL     1      10.264  46.143  51.904  1.00  0.00     0.004 C 
ENDBRANCH   4   5
ENDBRANCH   3   4
ENDBRANCH   1   3
BRANCH   1   7
ATOM      7  C   UNL     1       5.879  45.979  52.325  1.00  0.00     0.226 A 
ATOM      8  N   UNL     1       4.840  45.669  53.120  1.00  0.00    -0.195 NA
ATOM      9  N   UNL     1       6.361  45.215  51.337  1.00  0.00    -0.193 NA
ATOM     10  C   UNL     1       4.157  44.505  52.959  1.00  0.00     0.147 A 
ATOM     11  C   UNL     1       5.681  44.070  51.190  1.00  0.00     0.165 A 
ATOM     12  C   UNL     1       4.600  43.652  51.940  1.00  0.00     0.082 A 
ATOM     13  N   UNL     1       5.911  43.082  50.272  1.00  0.00    -0.250 N 
ATOM     14  C   UNL     1       4.263  42.396  51.394  1.00  0.00     0.149 A 
ATOM     15  N   UNL     1       5.059  42.036  50.380  1.00  0.00    -0.179 NA
ATOM     16  C   UNL     1       6.932  43.063  49.255  1.00  0.00     0.176 C 
BRANCH  10  17
ATOM     17  N   UNL     1       3.082  44.154  53.790  1.00  0.00    -0.339 N 
ATOM     18  H   UNL     1       3.349  43.986  54.751  1.00  0.00     0.168 HD
BRANCH  17  19
ATOM     19  C   UNL     1       1.719  43.914  53.526  1.00  0.00     0.042 A 
ATOM     20  C   UNL     1       1.145  42.635  53.535  1.00  0.00     0.028 A 
ATOM     21  C   UNL     1       0.912  45.020  53.186  1.00  0.00     0.054 A 
ATOM     22  C   UNL     1      -0.211  42.422  53.235  1.00  0.00     0.033 A 
ATOM     23  C   UNL     1      -0.436  44.787  52.889  1.00  0.00     0.067 A 
ATOM     24  C   UNL     1      -1.010  43.522  52.907  1.00  0.00     0.088 A 
ATOM     25  N   UNL     1      -1.467  45.619  52.532  1.00  0.00    -0.345 N 
ATOM     26  N   UNL     1      -2.342  43.582  52.577  1.00  0.00    -0.237 NA
ATOM     27  C   UNL     1      -2.584  44.854  52.358  1.00  0.00     0.197 A 
ATOM     28  H   UNL     1      -1.410  46.620  52.418  1.00  0.00     0.168 HD
ENDBRANCH  17  19
ENDBRANCH  10  17
ENDBRANCH   1   7
TORSDOF 6
ENDMDL
MODEL 7
REMARK VINA RESULT:    -8.567      1.860      2.509
REMARK INTER + INTRA:         -12.091
REMARK INTER:                 -11.279
REMARK INTRA:                  -0.812
REMARK UNBOUND:                -0.519
REMARK SMILES CCCCNc1nc(Nc2ccc3nc[nH]c3c2)c2cnn(C)c2n1
REMARK SMILES IDX 5 1 4 3 3 4 2 5 1 6 6 7 7 8 25 9 8 10 24 11 19 12 22 13
REMARK SMILES IDX 20 14 21 15 23 16 9 17 10 19 11 20 18 21 12 22 17 23 13 24
REMARK SMILES IDX 16 25 14 26 15 27
REMARK H PARENT 5 2 9 18 16 28
ROOT
ATOM      1  N   UNL     1       6.539  47.192  52.662  1.00  0.00    -0.354 N 
ATOM      2  H   UNL     1       6.449  47.078  53.668  1.00  0.00     0.163 HD
ENDROOT
BRANCH   1   3
ATOM      3  C   UNL     1       7.815  47.713  52.209  1.00  0.00     0.116 C 
BRANCH   3   4
ATOM      4  C   UNL     1       8.759  47.905  53.400  1.00  0.00     0.021 C 
BRANCH   4   5
ATOM      5  C   UNL     1       9.892  46.876  53.423  1.00  0.00    -0.002 C 
ATOM      6  C   UNL     1      10.256  46.420  52.018  1.00  0.00     0.004 C 
ENDBRANCH   4   5
ENDBRANCH   3   4
ENDBRANCH   1   3
BRANCH   1   7
ATOM      7  C   UNL     1       6.194  45.955  52.126  1.00  0.00     0.226 A 
ATOM      8  N   UNL     1       5.151  45.359  52.731  1.00  0.00    -0.195 NA
ATOM      9  N   UNL     1       6.889  45.455  51.096  1.00  0.00    -0.193 NA
ATOM     10  C   UNL     1       4.693  44.151  52.310  1.00  0.00     0.147 A 
ATOM     11  C   UNL     1       6.429  44.264  50.691  1.00  0.00     0.165 A 
ATOM     12  C   UNL     1       5.368  43.564  51.232  1.00  0.00     0.082 A 
ATOM     13  N   UNL     1       6.908  43.496  49.666  1.00  0.00    -0.250 N 
ATOM     14  C   UNL     1       5.300  42.385  50.459  1.00  0.00     0.149 A 
ATOM     15  N   UNL     1       6.237  42.330  49.506  1.00  0.00    -0.179 NA
ATOM     16  C   UNL     1       8.008  43.807  48.790  1.00  0.00     0.176 C 
BRANCH  10  17
ATOM     17  N   UNL     1       3.619  43.504  52.940  1.00  0.00    -0.339 N 
ATOM     18  H   UNL     1       3.904  42.791  53.597  1.00  0.00     0.168 HD
BRANCH  17  19
ATOM     19  C   UNL     1       2.223  43.602  52.772  1.00  0.00     0.042 A 
ATOM     20  C   UNL     1       1.328  43.760  53.839  1.00  0.00     0.028 A 
ATOM     21  C   UNL     1       1.710  43.481  51.464  1.00  0.00     0.054 A 
ATOM     22  C   UNL     1      -0.062  43.822  53.645  1.00  0.00     0.033 A 
ATOM     23  C   UNL     1       0.322  43.543  51.292  1.00  0.00     0.067 A 
ATOM     24  C   UNL     1      -0.567  43.711  52.346  1.00  0.00     0.088 A 
ATOM     25  N   UNL     1      -0.482  43.464  50.183  1.00  0.00    -0.345 N 
ATOM     26  N   UNL     1      -1.864  43.737  51.895  1.00  0.00    -0.237 NA
ATOM     27  C   UNL     1      -1.779  43.587  50.593  1.00  0.00     0.197 A 
ATOM     28  H   UNL     1      -0.171  43.338  49.231  1.00  0.00     0.168 HD
ENDBRANCH  17  19
ENDBRANCH  10  17
ENDBRANCH   1   7
TORSDOF 6
ENDMDL
MODEL 8
REMARK VINA RESULT:    -8.564      2.149      6.079
REMARK INTER + INTRA:         -12.087
REMARK INTER:                 -11.242
REMARK INTRA:                  -0.846
REMARK UNBOUND:                -0.519
REMARK SMILES CCCCNc1nc(Nc2ccc3nc[nH]c3c2)c2cnn(C)c2n1
REMARK SMILES IDX 5 1 4 3 3 4 2 5 1 6 6 7 7 8 25 9 8 10 24 11 19 12 22 13
REMARK SMILES IDX 20 14 21 15 23 16 9 17 10 19 11 20 18 21 12 22 17 23 13 24
REMARK SMILES IDX 16 25 14 26 15 27
REMARK H PARENT 5 2 9 18 16 28
ROOT
ATOM      1  N   UNL     1       4.709  46.936  54.994  1.00  0.00    -0.354 N 
ATOM      2  H   UNL     1       4.114  47.512  54.405  1.00  0.00     0.163 HD
ENDROOT
BRANCH   1   3
ATOM      3  C   UNL     1       4.130  45.672  55.410  1.00  0.00     0.116 C 
BRANCH   3   4
ATOM      4  C   UNL     1       2.651  45.615  55.016  1.00  0.00     0.021 C 
BRANCH   4   5
ATOM      5  C   UNL     1       2.441  45.083  53.596  1.00  0.00    -0.002 C 
ATOM      6  C   UNL     1       1.998  46.188  52.649  1.00  0.00     0.004 C 
ENDBRANCH   4   5
ENDBRANCH   3   4
ENDBRANCH   1   3
BRANCH   1   7
ATOM      7  C   UNL     1       5.908  46.824  54.299  1.00  0.00     0.226 A 
ATOM      8  N   UNL     1       5.785  46.323  53.057  1.00  0.00    -0.195 NA
ATOM      9  N   UNL     1       7.056  47.197  54.880  1.00  0.00    -0.193 NA
ATOM     10  C   UNL     1       6.870  46.166  52.253  1.00  0.00     0.147 A 
ATOM     11  C   UNL     1       8.117  47.035  54.079  1.00  0.00     0.165 A 
ATOM     12  C   UNL     1       8.109  46.538  52.791  1.00  0.00     0.082 A 
ATOM     13  N   UNL     1       9.423  47.326  54.366  1.00  0.00    -0.250 N 
ATOM     14  C   UNL     1       9.464  46.567  52.399  1.00  0.00     0.149 A 
ATOM     15  N   UNL     1      10.275  47.041  53.353  1.00  0.00    -0.179 NA
ATOM     16  C   UNL     1       9.939  47.881  55.591  1.00  0.00     0.176 C 
BRANCH  10  17
ATOM     17  N   UNL     1       6.766  45.627  50.962  1.00  0.00    -0.339 N 
ATOM     18  H   UNL     1       7.003  46.281  50.229  1.00  0.00     0.168 HD
BRANCH  17  19
ATOM     19  C   UNL     1       6.318  44.377  50.490  1.00  0.00     0.042 A 
ATOM     20  C   UNL     1       6.992  43.636  49.510  1.00  0.00     0.028 A 
ATOM     21  C   UNL     1       5.099  43.881  51.002  1.00  0.00     0.054 A 
ATOM     22  C   UNL     1       6.503  42.407  49.034  1.00  0.00     0.033 A 
ATOM     23  C   UNL     1       4.629  42.656  50.514  1.00  0.00     0.067 A 
ATOM     24  C   UNL     1       5.301  41.915  49.550  1.00  0.00     0.088 A 
ATOM     25  N   UNL     1       3.511  41.912  50.793  1.00  0.00    -0.345 N 
ATOM     26  N   UNL     1       4.618  40.760  49.256  1.00  0.00    -0.237 NA
ATOM     27  C   UNL     1       3.550  40.788  50.019  1.00  0.00     0.197 A 
ATOM     28  H   UNL     1       2.787  42.151  51.454  1.00  0.00     0.168 HD
ENDBRANCH  17  19
ENDBRANCH  10  17
ENDBRANCH   1   7
TORSDOF 6
ENDMDL
MODEL 9
REMARK VINA RESULT:    -8.434      1.231      1.686
REMARK INTER + INTRA:         -11.911
REMARK INTER:                 -11.157
REMARK INTRA:                  -0.754
REMARK UNBOUND:                -0.519
REMARK SMILES CCCCNc1nc(Nc2ccc3nc[nH]c3c2)c2cnn(C)c2n1
REMARK SMILES IDX 5 1 4 3 3 4 2 5 1 6 6 7 7 8 25 9 8 10 24 11 19 12 22 13
REMARK SMILES IDX 20 14 21 15 23 16 9 17 10 19 11 20 18 21 12 22 17 23 13 24
REMARK SMILES IDX 16 25 14 26 15 27
REMARK H PARENT 5 2 9 18 16 28
ROOT
ATOM      1  N   UNL     1       7.973  46.182  50.708  1.00  0.00    -0.354 N 
ATOM      2  H   UNL     1       7.831  46.705  49.849  1.00  0.00     0.163 HD
ENDROOT
BRANCH   1   3
ATOM      3  C   UNL     1       8.308  46.981  51.873  1.00  0.00     0.116 C 
BRANCH   3   4
ATOM      4  C   UNL     1       9.769  46.750  52.268  1.00  0.00     0.021 C 
BRANCH   4   5
ATOM      5  C   UNL     1       9.969  46.710  53.785  1.00  0.00    -0.002 C 
ATOM      6  C   UNL     1       9.187  47.818  54.476  1.00  0.00     0.004 C 
ENDBRANCH   4   5
ENDBRANCH   3   4
ENDBRANCH   1   3
BRANCH   1   7
ATOM      7  C   UNL     1       6.830  45.401  50.849  1.00  0.00     0.226 A 
ATOM      8  N   UNL     1       5.799  46.029  51.441  1.00  0.00    -0.195 NA
ATOM      9  N   UNL     1       6.827  44.135  50.414  1.00  0.00    -0.193 NA
ATOM     10  C   UNL     1       4.612  45.397  51.637  1.00  0.00     0.147 A 
ATOM     11  C   UNL     1       5.653  43.522  50.614  1.00  0.00     0.165 A 
ATOM     12  C   UNL     1       4.529  44.067  51.204  1.00  0.00     0.082 A 
ATOM     13  N   UNL     1       5.320  42.238  50.279  1.00  0.00    -0.250 N 
ATOM     14  C   UNL     1       3.582  43.022  51.179  1.00  0.00     0.149 A 
ATOM     15  N   UNL     1       4.055  41.901  50.622  1.00  0.00    -0.179 NA
ATOM     16  C   UNL     1       6.161  41.267  49.627  1.00  0.00     0.176 C 
BRANCH  10  17
ATOM     17  N   UNL     1       3.530  46.028  52.271  1.00  0.00    -0.339 N 
ATOM     18  H   UNL     1       3.174  46.827  51.766  1.00  0.00     0.168 HD
BRANCH  17  19
ATOM     19  C   UNL     1       2.900  45.809  53.512  1.00  0.00     0.042 A 
ATOM     20  C   UNL     1       3.600  45.651  54.715  1.00  0.00     0.028 A 
ATOM     21  C   UNL     1       1.493  45.693  53.522  1.00  0.00     0.054 A 
ATOM     22  C   UNL     1       2.946  45.400  55.934  1.00  0.00     0.033 A 
ATOM     23  C   UNL     1       0.861  45.442  54.745  1.00  0.00     0.067 A 
ATOM     24  C   UNL     1       1.552  45.295  55.941  1.00  0.00     0.088 A 
ATOM     25  N   UNL     1      -0.456  45.280  55.094  1.00  0.00    -0.345 N 
ATOM     26  N   UNL     1       0.687  45.056  56.981  1.00  0.00    -0.237 NA
ATOM     27  C   UNL     1      -0.509  45.054  56.440  1.00  0.00     0.197 A 
ATOM     28  H   UNL     1      -1.247  45.320  54.468  1.00  0.00     0.168 HD
ENDBRANCH  17  19
ENDBRANCH  10  17
ENDBRANCH   1   7
TORSDOF 6
ENDMDL
MODEL 10
REMARK VINA RESULT:    -8.390      1.949      6.521
REMARK INTER + INTRA:         -11.851
REMARK INTER:                 -11.056
REMARK INTRA:                  -0.796
REMARK UNBOUND:                -0.519
REMARK SMILES CCCCNc1nc(Nc2ccc3nc[nH]c3c2)c2cnn(C)c2n1
REMARK SMILES IDX 5 1 4 3 3 4 2 5 1 6 6 7 7 8 25 9 8 10 24 11 19 12 22 13
REMARK SMILES IDX 20 14 21 15 23 16 9 17 10 19 11 20 18 21 12 22 17 23 13 24
REMARK SMILES IDX 16 25 14 26 15 27
REMARK H PARENT 5 2 9 18 16 28
ROOT
ATOM      1  N   UNL     1       4.021  41.372  51.200  1.00  0.00    -0.354 N 
ATOM      2  H   UNL     1       3.387  40.588  51.324  1.00  0.00     0.163 HD
ENDROOT
BRANCH   1   3
ATOM      3  C   UNL     1       4.667  41.448  49.902  1.00  0.00     0.116 C 
BRANCH   3   4
ATOM      4  C   UNL     1       6.135  41.850  50.068  1.00  0.00     0.021 C 
BRANCH   4   5
ATOM      5  C   UNL     1       6.410  43.280  49.594  1.00  0.00    -0.002 C 
ATOM      6  C   UNL     1       7.867  43.460  49.192  1.00  0.00     0.004 C 
ENDBRANCH   4   5
ENDBRANCH   3   4
ENDBRANCH   1   3
BRANCH   1   7
ATOM      7  C   UNL     1       3.277  42.496  51.545  1.00  0.00     0.226 A 
ATOM      8  N   UNL     1       3.961  43.422  52.241  1.00  0.00    -0.195 NA
ATOM      9  N   UNL     1       1.990  42.583  51.186  1.00  0.00    -0.193 NA
ATOM     10  C   UNL     1       3.370  44.579  52.639  1.00  0.00     0.147 A 
ATOM     11  C   UNL     1       1.418  43.727  51.585  1.00  0.00     0.165 A 
ATOM     12  C   UNL     1       2.021  44.745  52.297  1.00  0.00     0.082 A 
ATOM     13  N   UNL     1       0.127  44.125  51.372  1.00  0.00    -0.250 N 
ATOM     14  C   UNL     1       1.000  45.704  52.465  1.00  0.00     0.149 A 
ATOM     15  N   UNL     1      -0.161  45.334  51.910  1.00  0.00    -0.179 NA
ATOM     16  C   UNL     1      -0.898  43.403  50.663  1.00  0.00     0.176 C 
BRANCH  10  17
ATOM     17  N   UNL     1       4.059  45.548  53.383  1.00  0.00    -0.339 N 
ATOM     18  H   UNL     1       3.463  46.100  53.983  1.00  0.00     0.168 HD
BRANCH  17  19
ATOM     19  C   UNL     1       5.410  45.950  53.394  1.00  0.00     0.042 A 
ATOM     20  C   UNL     1       6.060  46.439  54.536  1.00  0.00     0.028 A 
ATOM     21  C   UNL     1       6.119  45.902  52.175  1.00  0.00     0.054 A 
ATOM     22  C   UNL     1       7.399  46.864  54.509  1.00  0.00     0.033 A 
ATOM     23  C   UNL     1       7.451  46.331  52.169  1.00  0.00     0.067 A 
ATOM     24  C   UNL     1       8.100  46.806  53.301  1.00  0.00     0.088 A 
ATOM     25  N   UNL     1       8.398  46.411  51.179  1.00  0.00    -0.345 N 
ATOM     26  N   UNL     1       9.396  47.158  53.012  1.00  0.00    -0.237 NA
ATOM     27  C   UNL     1       9.543  46.908  51.732  1.00  0.00     0.197 A 
ATOM     28  H   UNL     1       8.272  46.147  50.213  1.00  0.00     0.168 HD
ENDBRANCH  17  19
ENDBRANCH  10  17
ENDBRANCH   1   7
TORSDOF 6
ENDMDL
MODEL 11
REMARK VINA RESULT:    -8.362      1.811      7.170
REMARK INTER + INTRA:         -11.813
REMARK INTER:                 -11.141
REMARK INTRA:                  -0.672
REMARK UNBOUND:                -0.519
REMARK SMILES CCCCNc1nc(Nc2ccc3nc[nH]c3c2)c2cnn(C)c2n1
REMARK SMILES IDX 5 1 4 3 3 4 2 5 1 6 6 7 7 8 25 9 8 10 24 11 19 12 22 13
REMARK SMILES IDX 20 14 21 15 23 16 9 17 10 19 11 20 18 21 12 22 17 23 13 24
REMARK SMILES IDX 16 25 14 26 15 27
REMARK H PARENT 5 2 9 18 16 28
ROOT
ATOM      1  N   UNL     1       3.013  41.869  51.320  1.00  0.00    -0.354 N 
ATOM      2  H   UNL     1       2.626  42.234  50.455  1.00  0.00     0.163 HD
ENDROOT
BRANCH   1   3
ATOM      3  C   UNL     1       4.410  41.480  51.259  1.00  0.00     0.116 C 
BRANCH   3   4
ATOM      4  C   UNL     1       4.897  41.492  49.806  1.00  0.00     0.021 C 
BRANCH   4   5
ATOM      5  C   UNL     1       6.424  41.513  49.699  1.00  0.00    -0.002 C 
ATOM      6  C   UNL     1       6.939  42.911  49.392  1.00  0.00     0.004 C 
ENDBRANCH   4   5
ENDBRANCH   3   4
ENDBRANCH   1   3
BRANCH   1   7
ATOM      7  C   UNL     1       2.720  42.830  52.282  1.00  0.00     0.226 A 
ATOM      8  N   UNL     1       3.741  43.656  52.570  1.00  0.00    -0.195 NA
ATOM      9  N   UNL     1       1.503  42.870  52.839  1.00  0.00    -0.193 NA
ATOM     10  C   UNL     1       3.601  44.653  53.483  1.00  0.00     0.147 A 
ATOM     11  C   UNL     1       1.377  43.855  53.738  1.00  0.00     0.165 A 
ATOM     12  C   UNL     1       2.352  44.761  54.108  1.00  0.00     0.082 A 
ATOM     13  N   UNL     1       0.267  44.170  54.473  1.00  0.00    -0.250 N 
ATOM     14  C   UNL     1       1.723  45.572  55.077  1.00  0.00     0.149 A 
ATOM     15  N   UNL     1       0.454  45.217  55.311  1.00  0.00    -0.179 NA
ATOM     16  C   UNL     1      -1.015  43.514  54.431  1.00  0.00     0.176 C 
BRANCH  10  17
ATOM     17  N   UNL     1       4.660  45.512  53.813  1.00  0.00    -0.339 N 
ATOM     18  H   UNL     1       4.492  46.064  54.643  1.00  0.00     0.168 HD
BRANCH  17  19
ATOM     19  C   UNL     1       5.875  45.811  53.165  1.00  0.00     0.042 A 
ATOM     20  C   UNL     1       6.016  45.851  51.771  1.00  0.00     0.028 A 
ATOM     21  C   UNL     1       7.013  46.028  53.971  1.00  0.00     0.054 A 
ATOM     22  C   UNL     1       7.249  46.119  51.151  1.00  0.00     0.033 A 
ATOM     23  C   UNL     1       8.231  46.292  53.335  1.00  0.00     0.067 A 
ATOM     24  C   UNL     1       8.372  46.342  51.954  1.00  0.00     0.088 A 
ATOM     25  N   UNL     1       9.493  46.542  53.811  1.00  0.00    -0.345 N 
ATOM     26  N   UNL     1       9.671  46.618  51.602  1.00  0.00    -0.237 NA
ATOM     27  C   UNL     1      10.317  46.733  52.739  1.00  0.00     0.197 A 
ATOM     28  H   UNL     1       9.766  46.580  54.782  1.00  0.00     0.168 HD
ENDBRANCH  17  19
ENDBRANCH  10  17
ENDBRANCH   1   7
TORSDOF 6
ENDMDL
MODEL 12
REMARK VINA RESULT:    -8.359      1.532      4.092
REMARK INTER + INTRA:         -11.809
REMARK INTER:                 -10.903
REMARK INTRA:                  -0.906
REMARK UNBOUND:                -0.519
REMARK SMILES CCCCNc1nc(Nc2ccc3nc[nH]c3c2)c2cnn(C)c2n1
REMARK SMILES IDX 5 1 4 3 3 4 2 5 1 6 6 7 7 8 25 9 8 10 24 11 19 12 22 13
REMARK SMILES IDX 20 14 21 15 23 16 9 17 10 19 11 20 18 21 12 22 17 23 13 24
REMARK SMILES IDX 16 25 14 26 15 27
REMARK H PARENT 5 2 9 18 16 28
ROOT
ATOM      1  N   UNL     1       7.658  45.035  49.444  1.00  0.00    -0.354 N 
ATOM      2  H   UNL     1       8.384  45.652  49.092  1.00  0.00     0.163 HD
ENDROOT
BRANCH   1   3
ATOM      3  C   UNL     1       8.006  43.626  49.479  1.00  0.00     0.116 C 
BRANCH   3   4
ATOM      4  C   UNL     1       6.818  42.779  49.013  1.00  0.00     0.021 C 
BRANCH   4   5
ATOM      5  C   UNL     1       6.503  41.630  49.974  1.00  0.00    -0.002 C 
ATOM      6  C   UNL     1       5.022  41.587  50.320  1.00  0.00     0.004 C 
ENDBRANCH   4   5
ENDBRANCH   3   4
ENDBRANCH   1   3
BRANCH   1   7
ATOM      7  C   UNL     1       7.291  45.572  50.673  1.00  0.00     0.226 A 
ATOM      8  N   UNL     1       5.963  45.694  50.851  1.00  0.00    -0.195 NA
ATOM      9  N   UNL     1       8.232  45.925  51.558  1.00  0.00    -0.193 NA
ATOM     10  C   UNL     1       5.453  46.193  52.008  1.00  0.00     0.147 A 
ATOM     11  C   UNL     1       7.717  46.417  52.692  1.00  0.00     0.165 A 
ATOM     12  C   UNL     1       6.378  46.581  52.985  1.00  0.00     0.082 A 
ATOM     13  N   UNL     1       8.404  46.856  53.791  1.00  0.00    -0.250 N 
ATOM     14  C   UNL     1       6.372  47.133  54.284  1.00  0.00     0.149 A 
ATOM     15  N   UNL     1       7.601  47.311  54.783  1.00  0.00    -0.179 NA
ATOM     16  C   UNL     1       9.833  46.876  53.970  1.00  0.00     0.176 C 
BRANCH  10  17
ATOM     17  N   UNL     1       4.073  46.346  52.205  1.00  0.00    -0.339 N 
ATOM     18  H   UNL     1       3.742  47.289  52.056  1.00  0.00     0.168 HD
BRANCH  17  19
ATOM     19  C   UNL     1       3.075  45.455  52.649  1.00  0.00     0.042 A 
ATOM     20  C   UNL     1       3.106  44.076  52.399  1.00  0.00     0.028 A 
ATOM     21  C   UNL     1       1.967  45.999  53.333  1.00  0.00     0.054 A 
ATOM     22  C   UNL     1       2.079  43.216  52.826  1.00  0.00     0.033 A 
ATOM     23  C   UNL     1       0.954  45.126  53.748  1.00  0.00     0.067 A 
ATOM     24  C   UNL     1       0.987  43.758  53.511  1.00  0.00     0.088 A 
ATOM     25  N   UNL     1      -0.226  45.324  54.419  1.00  0.00    -0.345 N 
ATOM     26  N   UNL     1      -0.130  43.144  54.023  1.00  0.00    -0.237 NA
ATOM     27  C   UNL     1      -0.837  44.110  54.562  1.00  0.00     0.197 A 
ATOM     28  H   UNL     1      -0.581  46.208  54.750  1.00  0.00     0.168 HD
ENDBRANCH  17  19
ENDBRANCH  10  17
ENDBRANCH   1   7
TORSDOF 6
ENDMDL
MODEL 13
REMARK VINA RESULT:    -8.263      1.629      2.394
REMARK INTER + INTRA:         -11.680
REMARK INTER:                 -11.073
REMARK INTRA:                  -0.608
REMARK UNBOUND:                -0.519
REMARK SMILES CCCCNc1nc(Nc2ccc3nc[nH]c3c2)c2cnn(C)c2n1
REMARK SMILES IDX 5 1 4 3 3 4 2 5 1 6 6 7 7 8 25 9 8 10 24 11 19 12 22 13
REMARK SMILES IDX 20 14 21 15 23 16 9 17 10 19 11 20 18 21 12 22 17 23 13 24
REMARK SMILES IDX 16 25 14 26 15 27
REMARK H PARENT 5 2 9 18 16 28
ROOT
ATOM      1  N   UNL     1       6.838  46.371  51.189  1.00  0.00    -0.354 N 
ATOM      2  H   UNL     1       6.233  47.018  50.690  1.00  0.00     0.163 HD
ENDROOT
BRANCH   1   3
ATOM      3  C   UNL     1       7.446  46.898  52.397  1.00  0.00     0.116 C 
BRANCH   3   4
ATOM      4  C   UNL     1       8.829  47.475  52.082  1.00  0.00     0.021 C 
BRANCH   4   5
ATOM      5  C   UNL     1       9.945  46.797  52.881  1.00  0.00    -0.002 C 
ATOM      6  C   UNL     1       9.876  47.170  54.355  1.00  0.00     0.004 C 
ENDBRANCH   4   5
ENDBRANCH   3   4
ENDBRANCH   1   3
BRANCH   1   7
ATOM      7  C   UNL     1       6.068  45.228  51.377  1.00  0.00     0.226 A 
ATOM      8  N   UNL     1       5.307  45.249  52.486  1.00  0.00    -0.195 NA
ATOM      9  N   UNL     1       6.132  44.225  50.493  1.00  0.00    -0.193 NA
ATOM     10  C   UNL     1       4.492  44.206  52.797  1.00  0.00     0.147 A 
ATOM     11  C   UNL     1       5.327  43.203  50.811  1.00  0.00     0.165 A 
ATOM     12  C   UNL     1       4.502  43.117  51.915  1.00  0.00     0.082 A 
ATOM     13  N   UNL     1       5.153  42.038  50.116  1.00  0.00    -0.250 N 
ATOM     14  C   UNL     1       3.881  41.856  51.789  1.00  0.00     0.149 A 
ATOM     15  N   UNL     1       4.275  41.187  50.699  1.00  0.00    -0.179 NA
ATOM     16  C   UNL     1       5.793  41.661  48.881  1.00  0.00     0.176 C 
BRANCH  10  17
ATOM     17  N   UNL     1       3.705  44.199  53.958  1.00  0.00    -0.339 N 
ATOM     18  H   UNL     1       4.217  43.956  54.795  1.00  0.00     0.168 HD
BRANCH  17  19
ATOM     19  C   UNL     1       2.325  44.389  54.168  1.00  0.00     0.042 A 
ATOM     20  C   UNL     1       1.353  44.124  53.194  1.00  0.00     0.028 A 
ATOM     21  C   UNL     1       1.917  44.921  55.410  1.00  0.00     0.054 A 
ATOM     22  C   UNL     1      -0.015  44.354  53.421  1.00  0.00     0.033 A 
ATOM     23  C   UNL     1       0.551  45.144  55.616  1.00  0.00     0.067 A 
ATOM     24  C   UNL     1      -0.416  44.873  54.655  1.00  0.00     0.088 A 
ATOM     25  N   UNL     1      -0.161  45.637  56.680  1.00  0.00    -0.345 N 
ATOM     26  N   UNL     1      -1.670  45.186  55.120  1.00  0.00    -0.237 NA
ATOM     27  C   UNL     1      -1.483  45.640  56.337  1.00  0.00     0.197 A 
ATOM     28  H   UNL     1       0.223  45.942  57.562  1.00  0.00     0.168 HD
ENDBRANCH  17  19
ENDBRANCH  10  17
ENDBRANCH   1   7
TORSDOF 6
ENDMDL
MODEL 14
REMARK VINA RESULT:    -8.136      2.096      6.635
REMARK INTER + INTRA:         -11.509
REMARK INTER:                 -11.008
REMARK INTRA:                  -0.501
REMARK UNBOUND:                -0.519
REMARK SMILES CCCCNc1nc(Nc2ccc3nc[nH]c3c2)c2cnn(C)c2n1
REMARK SMILES IDX 5 1 4 3 3 4 2 5 1 6 6 7 7 8 25 9 8 10 24 11 19 12 22 13
REMARK SMILES IDX 20 14 21 15 23 16 9 17 10 19 11 20 18 21 12 22 17 23 13 24
REMARK SMILES IDX 16 25 14 26 15 27
REMARK H PARENT 5 2 9 18 16 28
ROOT
ATOM      1  N   UNL     1       3.770  45.740  55.115  1.00  0.00    -0.354 N 
ATOM      2  H   UNL     1       4.519  45.144  55.456  1.00  0.00     0.163 HD
ENDROOT
BRANCH   1   3
ATOM      3  C   UNL     1       4.194  46.851  54.283  1.00  0.00     0.116 C 
BRANCH   3   4
ATOM      4  C   UNL     1       5.719  46.853  54.143  1.00  0.00     0.021 C 
BRANCH   4   5
ATOM      5  C   UNL     1       6.176  47.044  52.694  1.00  0.00    -0.002 C 
ATOM      6  C   UNL     1       7.584  47.616  52.628  1.00  0.00     0.004 C 
ENDBRANCH   4   5
ENDBRANCH   3   4
ENDBRANCH   1   3
BRANCH   1   7
ATOM      7  C   UNL     1       2.866  44.873  54.510  1.00  0.00     0.226 A 
ATOM      8  N   UNL     1       3.382  44.144  53.505  1.00  0.00    -0.195 NA
ATOM      9  N   UNL     1       1.598  44.824  54.938  1.00  0.00    -0.193 NA
ATOM     10  C   UNL     1       2.621  43.246  52.826  1.00  0.00     0.147 A 
ATOM     11  C   UNL     1       0.857  43.936  54.260  1.00  0.00     0.165 A 
ATOM     12  C   UNL     1       1.281  43.134  53.219  1.00  0.00     0.082 A 
ATOM     13  N   UNL     1      -0.464  43.640  54.455  1.00  0.00    -0.250 N 
ATOM     14  C   UNL     1       0.133  42.399  52.857  1.00  0.00     0.149 A 
ATOM     15  N   UNL     1      -0.938  42.703  53.600  1.00  0.00    -0.179 NA
ATOM     16  C   UNL     1      -1.345  44.212  55.441  1.00  0.00     0.176 C 
BRANCH  10  17
ATOM     17  N   UNL     1       3.136  42.491  51.762  1.00  0.00    -0.339 N 
ATOM     18  H   UNL     1       2.540  41.723  51.482  1.00  0.00     0.168 HD
BRANCH  17  19
ATOM     19  C   UNL     1       4.358  42.549  51.062  1.00  0.00     0.042 A 
ATOM     20  C   UNL     1       4.953  41.433  50.457  1.00  0.00     0.028 A 
ATOM     21  C   UNL     1       5.032  43.788  51.020  1.00  0.00     0.054 A 
ATOM     22  C   UNL     1       6.190  41.515  49.794  1.00  0.00     0.033 A 
ATOM     23  C   UNL     1       6.263  43.847  50.357  1.00  0.00     0.067 A 
ATOM     24  C   UNL     1       6.851  42.746  49.747  1.00  0.00     0.088 A 
ATOM     25  N   UNL     1       7.152  44.868  50.137  1.00  0.00    -0.345 N 
ATOM     26  N   UNL     1       8.051  43.085  49.173  1.00  0.00    -0.237 NA
ATOM     27  C   UNL     1       8.203  44.365  49.424  1.00  0.00     0.197 A 
ATOM     28  H   UNL     1       7.049  45.824  50.446  1.00  0.00     0.168 HD
ENDBRANCH  17  19
ENDBRANCH  10  17
ENDBRANCH   1   7
TORSDOF 6
ENDMDL
MODEL 15
REMARK VINA RESULT:    -8.133      1.612      4.272
REMARK INTER + INTRA:         -11.505
REMARK INTER:                 -10.547
REMARK INTRA:                  -0.957
REMARK UNBOUND:                -0.519
REMARK SMILES CCCCNc1nc(Nc2ccc3nc[nH]c3c2)c2cnn(C)c2n1
REMARK SMILES IDX 5 1 4 3 3 4 2 5 1 6 6 7 7 8 25 9 8 10 24 11 19 12 22 13
REMARK SMILES IDX 20 14 21 15 23 16 9 17 10 19 11 20 18 21 12 22 17 23 13 24
REMARK SMILES IDX 16 25 14 26 15 27
REMARK H PARENT 5 2 9 18 16 28
ROOT
ATOM      1  N   UNL     1       6.721  43.417  49.203  1.00  0.00    -0.354 N 
ATOM      2  H   UNL     1       7.508  43.500  48.566  1.00  0.00     0.163 HD
ENDROOT
BRANCH   1   3
ATOM      3  C   UNL     1       6.561  42.113  49.822  1.00  0.00     0.116 C 
BRANCH   3   4
ATOM      4  C   UNL     1       5.144  41.586  49.580  1.00  0.00     0.021 C 
BRANCH   4   5
ATOM      5  C   UNL     1       4.383  41.327  50.883  1.00  0.00    -0.002 C 
ATOM      6  C   UNL     1       3.400  42.448  51.183  1.00  0.00     0.004 C 
ENDBRANCH   4   5
ENDBRANCH   3   4
ENDBRANCH   1   3
BRANCH   1   7
ATOM      7  C   UNL     1       6.869  44.470  50.100  1.00  0.00     0.226 A 
ATOM      8  N   UNL     1       5.711  44.959  50.577  1.00  0.00    -0.195 NA
ATOM      9  N   UNL     1       8.093  44.916  50.413  1.00  0.00    -0.193 NA
ATOM     10  C   UNL     1       5.697  45.983  51.471  1.00  0.00     0.147 A 
ATOM     11  C   UNL     1       8.065  45.925  51.293  1.00  0.00     0.165 A 
ATOM     12  C   UNL     1       6.941  46.501  51.851  1.00  0.00     0.082 A 
ATOM     13  N   UNL     1       9.136  46.593  51.821  1.00  0.00    -0.250 N 
ATOM     14  C   UNL     1       7.451  47.511  52.696  1.00  0.00     0.149 A 
ATOM     15  N   UNL     1       8.787  47.580  52.680  1.00  0.00    -0.179 NA
ATOM     16  C   UNL     1      10.530  46.348  51.551  1.00  0.00     0.176 C 
BRANCH  10  17
ATOM     17  N   UNL     1       4.499  46.520  51.966  1.00  0.00    -0.339 N 
ATOM     18  H   UNL     1       4.189  47.346  51.473  1.00  0.00     0.168 HD
BRANCH  17  19
ATOM     19  C   UNL     1       3.689  46.175  53.067  1.00  0.00     0.042 A 
ATOM     20  C   UNL     1       4.194  45.947  54.354  1.00  0.00     0.028 A 
ATOM     21  C   UNL     1       2.307  46.003  52.836  1.00  0.00     0.054 A 
ATOM     22  C   UNL     1       3.366  45.572  55.426  1.00  0.00     0.033 A 
ATOM     23  C   UNL     1       1.500  45.628  53.916  1.00  0.00     0.067 A 
ATOM     24  C   UNL     1       1.996  45.411  55.196  1.00  0.00     0.088 A 
ATOM     25  N   UNL     1       0.155  45.385  54.031  1.00  0.00    -0.345 N 
ATOM     26  N   UNL     1       0.989  45.054  56.059  1.00  0.00    -0.237 NA
ATOM     27  C   UNL     1      -0.102  45.048  55.329  1.00  0.00     0.197 A 
ATOM     28  H   UNL     1      -0.526  45.445  53.288  1.00  0.00     0.168 HD
ENDBRANCH  17  19
ENDBRANCH  10  17
ENDBRANCH   1   7
TORSDOF 6
ENDMDL
MODEL 16
REMARK VINA RESULT:    -8.109      2.319      7.400
REMARK INTER + INTRA:         -11.472
REMARK INTER:                 -10.890
REMARK INTRA:                  -0.582
REMARK UNBOUND:                -0.519
REMARK SMILES CCCCNc1nc(Nc2ccc3nc[nH]c3c2)c2cnn(C)c2n1
REMARK SMILES IDX 5 1 4 3 3 4 2 5 1 6 6 7 7 8 25 9 8 10 24 11 19 12 22 13
REMARK SMILES IDX 20 14 21 15 23 16 9 17 10 19 11 20 18 21 12 22 17 23 13 24
REMARK SMILES IDX 16 25 14 26 15 27
REMARK H PARENT 5 2 9 18 16 28
ROOT
ATOM      1  N   UNL     1       5.975  41.335  49.068  1.00  0.00    -0.354 N 
ATOM      2  H   UNL     1       6.035  40.531  49.686  1.00  0.00     0.163 HD
ENDROOT
BRANCH   1   3
ATOM      3  C   UNL     1       5.146  41.151  47.891  1.00  0.00     0.116 C 
BRANCH   3   4
ATOM      4  C   UNL     1       5.848  41.726  46.657  1.00  0.00     0.021 C 
BRANCH   4   5
ATOM      5  C   UNL     1       5.008  41.585  45.385  1.00  0.00    -0.002 C 
ATOM      6  C   UNL     1       5.214  42.769  44.451  1.00  0.00     0.004 C 
ENDBRANCH   4   5
ENDBRANCH   3   4
ENDBRANCH   1   3
BRANCH   1   7
ATOM      7  C   UNL     1       5.592  42.393  49.887  1.00  0.00     0.226 A 
ATOM      8  N   UNL     1       6.425  43.449  49.855  1.00  0.00    -0.195 NA
ATOM      9  N   UNL     1       4.478  42.300  50.624  1.00  0.00    -0.193 NA
ATOM     10  C   UNL     1       6.176  44.562  50.594  1.00  0.00     0.147 A 
ATOM     11  C   UNL     1       4.245  43.402  51.349  1.00  0.00     0.165 A 
ATOM     12  C   UNL     1       5.024  44.541  51.391  1.00  0.00     0.082 A 
ATOM     13  N   UNL     1       3.193  43.629  52.195  1.00  0.00    -0.250 N 
ATOM     14  C   UNL     1       4.352  45.388  52.298  1.00  0.00     0.149 A 
ATOM     15  N   UNL     1       3.239  44.840  52.798  1.00  0.00    -0.179 NA
ATOM     16  C   UNL     1       2.101  42.734  52.481  1.00  0.00     0.176 C 
BRANCH  10  17
ATOM     17  N   UNL     1       7.042  45.665  50.590  1.00  0.00    -0.339 N 
ATOM     18  H   UNL     1       7.006  46.207  49.737  1.00  0.00     0.168 HD
BRANCH  17  19
ATOM     19  C   UNL     1       8.007  46.117  51.512  1.00  0.00     0.042 A 
ATOM     20  C   UNL     1       9.385  45.931  51.339  1.00  0.00     0.028 A 
ATOM     21  C   UNL     1       7.546  46.740  52.691  1.00  0.00     0.054 A 
ATOM     22  C   UNL     1      10.323  46.362  52.293  1.00  0.00     0.033 A 
ATOM     23  C   UNL     1       8.496  47.162  53.629  1.00  0.00     0.067 A 
ATOM     24  C   UNL     1       9.863  46.988  53.455  1.00  0.00     0.088 A 
ATOM     25  N   UNL     1       8.388  47.785  54.846  1.00  0.00    -0.345 N 
ATOM     26  N   UNL     1      10.562  47.491  54.525  1.00  0.00    -0.237 NA
ATOM     27  C   UNL     1       9.648  47.963  55.341  1.00  0.00     0.197 A 
ATOM     28  H   UNL     1       7.529  48.065  55.296  1.00  0.00     0.168 HD
ENDBRANCH  17  19
ENDBRANCH  10  17
ENDBRANCH   1   7
TORSDOF 6
ENDMDL
MODEL 17
REMARK VINA RESULT:    -8.002      1.801      4.458
REMARK INTER + INTRA:         -11.327
REMARK INTER:                 -10.479
REMARK INTRA:                  -0.848
REMARK UNBOUND:                -0.519
REMARK SMILES CCCCNc1nc(Nc2ccc3nc[nH]c3c2)c2cnn(C)c2n1
REMARK SMILES IDX 5 1 4 3 3 4 2 5 1 6 6 7 7 8 25 9 8 10 24 11 19 12 22 13
REMARK SMILES IDX 20 14 21 15 23 16 9 17 10 19 11 20 18 21 12 22 17 23 13 24
REMARK SMILES IDX 16 25 14 26 15 27
REMARK H PARENT 5 2 9 18 16 28
ROOT
ATOM      1  N   UNL     1       7.612  44.873  49.597  1.00  0.00    -0.354 N 
ATOM      2  H   UNL     1       8.445  45.427  49.422  1.00  0.00     0.163 HD
ENDROOT
BRANCH   1   3
ATOM      3  C   UNL     1       7.751  43.450  49.343  1.00  0.00     0.116 C 
BRANCH   3   4
ATOM      4  C   UNL     1       6.760  43.009  48.262  1.00  0.00     0.021 C 
BRANCH   4   5
ATOM      5  C   UNL     1       5.923  41.800  48.690  1.00  0.00    -0.002 C 
ATOM      6  C   UNL     1       6.267  41.362  50.106  1.00  0.00     0.004 C 
ENDBRANCH   4   5
ENDBRANCH   3   4
ENDBRANCH   1   3
BRANCH   1   7
ATOM      7  C   UNL     1       7.228  45.196  50.894  1.00  0.00     0.226 A 
ATOM      8  N   UNL     1       6.122  44.560  51.320  1.00  0.00    -0.195 NA
ATOM      9  N   UNL     1       7.942  46.080  51.603  1.00  0.00    -0.193 NA
ATOM     10  C   UNL     1       5.632  44.766  52.571  1.00  0.00     0.147 A 
ATOM     11  C   UNL     1       7.448  46.276  52.833  1.00  0.00     0.165 A 
ATOM     12  C   UNL     1       6.329  45.677  53.376  1.00  0.00     0.082 A 
ATOM     13  N   UNL     1       7.945  47.103  53.802  1.00  0.00    -0.250 N 
ATOM     14  C   UNL     1       6.240  46.220  54.675  1.00  0.00     0.149 A 
ATOM     15  N   UNL     1       7.216  47.095  54.944  1.00  0.00    -0.179 NA
ATOM     16  C   UNL     1       9.116  47.938  53.714  1.00  0.00     0.176 C 
BRANCH  10  17
ATOM     17  N   UNL     1       4.470  44.127  53.028  1.00  0.00    -0.339 N 
ATOM     18  H   UNL     1       4.608  43.581  53.867  1.00  0.00     0.168 HD
BRANCH  17  19
ATOM     19  C   UNL     1       3.167  44.036  52.496  1.00  0.00     0.042 A 
ATOM     20  C   UNL     1       2.805  43.126  51.494  1.00  0.00     0.028 A 
ATOM     21  C   UNL     1       2.201  44.948  52.971  1.00  0.00     0.054 A 
ATOM     22  C   UNL     1       1.506  43.081  50.959  1.00  0.00     0.033 A 
ATOM     23  C   UNL     1       0.913  44.888  52.425  1.00  0.00     0.067 A 
ATOM     24  C   UNL     1       0.549  43.980  51.438  1.00  0.00     0.088 A 
ATOM     25  N   UNL     1      -0.230  45.609  52.658  1.00  0.00    -0.345 N 
ATOM     26  N   UNL     1      -0.769  44.141  51.087  1.00  0.00    -0.237 NA
ATOM     27  C   UNL     1      -1.208  45.125  51.837  1.00  0.00     0.197 A 
ATOM     28  H   UNL     1      -0.332  46.364  53.320  1.00  0.00     0.168 HD
ENDBRANCH  17  19
ENDBRANCH  10  17
ENDBRANCH   1   7
TORSDOF 6
ENDMDL
MODEL 18
REMARK VINA RESULT:    -7.970      1.812      6.423
REMARK INTER + INTRA:         -11.284
REMARK INTER:                 -10.195
REMARK INTRA:                  -1.090
REMARK UNBOUND:                -0.519
REMARK SMILES CCCCNc1nc(Nc2ccc3nc[nH]c3c2)c2cnn(C)c2n1
REMARK SMILES IDX 5 1 4 3 3 4 2 5 1 6 6 7 7 8 25 9 8 10 24 11 19 12 22 13
REMARK SMILES IDX 20 14 21 15 23 16 9 17 10 19 11 20 18 21 12 22 17 23 13 24
REMARK SMILES IDX 16 25 14 26 15 27
REMARK H PARENT 5 2 9 18 16 28
ROOT
ATOM      1  N   UNL     1       2.149  45.697  51.700  1.00  0.00    -0.354 N 
ATOM      2  H   UNL     1       1.408  45.003  51.670  1.00  0.00     0.163 HD
ENDROOT
BRANCH   1   3
ATOM      3  C   UNL     1       2.295  46.394  52.964  1.00  0.00     0.116 C 
BRANCH   3   4
ATOM      4  C   UNL     1       2.507  45.388  54.099  1.00  0.00     0.021 C 
BRANCH   4   5
ATOM      5  C   UNL     1       3.791  45.655  54.889  1.00  0.00    -0.002 C 
ATOM      6  C   UNL     1       4.320  47.057  54.629  1.00  0.00     0.004 C 
ENDBRANCH   4   5
ENDBRANCH   3   4
ENDBRANCH   1   3
BRANCH   1   7
ATOM      7  C   UNL     1       3.291  45.027  51.272  1.00  0.00     0.226 A 
ATOM      8  N   UNL     1       4.390  45.797  51.193  1.00  0.00    -0.195 NA
ATOM      9  N   UNL     1       3.228  43.722  50.975  1.00  0.00    -0.193 NA
ATOM     10  C   UNL     1       5.584  45.278  50.800  1.00  0.00     0.147 A 
ATOM     11  C   UNL     1       4.410  43.223  50.587  1.00  0.00     0.165 A 
ATOM     12  C   UNL     1       5.599  43.916  50.475  1.00  0.00     0.082 A 
ATOM     13  N   UNL     1       4.686  41.933  50.226  1.00  0.00    -0.250 N 
ATOM     14  C   UNL     1       6.525  42.947  50.031  1.00  0.00     0.149 A 
ATOM     15  N   UNL     1       5.977  41.736  49.870  1.00  0.00    -0.179 NA
ATOM     16  C   UNL     1       3.764  40.826  50.192  1.00  0.00     0.176 C 
BRANCH  10  17
ATOM     17  N   UNL     1       6.737  46.069  50.692  1.00  0.00    -0.339 N 
ATOM     18  H   UNL     1       6.868  46.474  49.776  1.00  0.00     0.168 HD
BRANCH  17  19
ATOM     19  C   UNL     1       7.788  46.341  51.592  1.00  0.00     0.042 A 
ATOM     20  C   UNL     1       9.101  45.888  51.404  1.00  0.00     0.028 A 
ATOM     21  C   UNL     1       7.477  47.064  52.763  1.00  0.00     0.054 A 
ATOM     22  C   UNL     1      10.121  46.146  52.335  1.00  0.00     0.033 A 
ATOM     23  C   UNL     1       8.507  47.310  53.679  1.00  0.00     0.067 A 
ATOM     24  C   UNL     1       9.811  46.870  53.490  1.00  0.00     0.088 A 
ATOM     25  N   UNL     1       8.543  47.965  54.883  1.00  0.00    -0.345 N 
ATOM     26  N   UNL     1      10.613  47.248  54.539  1.00  0.00    -0.237 NA
ATOM     27  C   UNL     1       9.823  47.903  55.358  1.00  0.00     0.197 A 
ATOM     28  H   UNL     1       7.763  48.414  55.340  1.00  0.00     0.168 HD
ENDBRANCH  17  19
ENDBRANCH  10  17
ENDBRANCH   1   7
TORSDOF 6
ENDMDL
MODEL 19
REMARK VINA RESULT:    -7.926      2.272      7.319
REMARK INTER + INTRA:         -11.225
REMARK INTER:                 -10.530
REMARK INTRA:                  -0.694
REMARK UNBOUND:                -0.519
REMARK SMILES CCCCNc1nc(Nc2ccc3nc[nH]c3c2)c2cnn(C)c2n1
REMARK SMILES IDX 5 1 4 3 3 4 2 5 1 6 6 7 7 8 25 9 8 10 24 11 19 12 22 13
REMARK SMILES IDX 20 14 21 15 23 16 9 17 10 19 11 20 18 21 12 22 17 23 13 24
REMARK SMILES IDX 16 25 14 26 15 27
REMARK H PARENT 5 2 9 18 16 28
ROOT
ATOM      1  N   UNL     1       2.022  45.448  56.453  1.00  0.00    -0.354 N 
ATOM      2  H   UNL     1       2.379  46.394  56.549  1.00  0.00     0.163 HD
ENDROOT
BRANCH   1   3
ATOM      3  C   UNL     1       0.734  45.204  57.076  1.00  0.00     0.116 C 
BRANCH   3   4
ATOM      4  C   UNL     1       0.140  46.519  57.589  1.00  0.00     0.021 C 
BRANCH   4   5
ATOM      5  C   UNL     1       0.936  47.106  58.758  1.00  0.00    -0.002 C 
ATOM      6  C   UNL     1       0.045  47.927  59.679  1.00  0.00     0.004 C 
ENDBRANCH   4   5
ENDBRANCH   3   4
ENDBRANCH   1   3
BRANCH   1   7
ATOM      7  C   UNL     1       2.067  45.181  55.088  1.00  0.00     0.226 A 
ATOM      8  N   UNL     1       2.939  45.941  54.403  1.00  0.00    -0.195 NA
ATOM      9  N   UNL     1       1.275  44.236  54.565  1.00  0.00    -0.193 NA
ATOM     10  C   UNL     1       3.101  45.787  53.062  1.00  0.00     0.147 A 
ATOM     11  C   UNL     1       1.442  44.095  53.243  1.00  0.00     0.165 A 
ATOM     12  C   UNL     1       2.308  44.813  52.442  1.00  0.00     0.082 A 
ATOM     13  N   UNL     1       0.797  43.218  52.416  1.00  0.00    -0.250 N 
ATOM     14  C   UNL     1       2.097  44.290  51.148  1.00  0.00     0.149 A 
ATOM     15  N   UNL     1       1.174  43.322  51.119  1.00  0.00    -0.179 NA
ATOM     16  C   UNL     1      -0.199  42.246  52.789  1.00  0.00     0.176 C 
BRANCH  10  17
ATOM     17  N   UNL     1       3.992  46.582  52.325  1.00  0.00    -0.339 N 
ATOM     18  H   UNL     1       3.555  47.379  51.883  1.00  0.00     0.168 HD
BRANCH  17  19
ATOM     19  C   UNL     1       5.360  46.439  52.019  1.00  0.00     0.042 A 
ATOM     20  C   UNL     1       5.833  45.678  50.941  1.00  0.00     0.028 A 
ATOM     21  C   UNL     1       6.293  47.055  52.880  1.00  0.00     0.054 A 
ATOM     22  C   UNL     1       7.206  45.526  50.679  1.00  0.00     0.033 A 
ATOM     23  C   UNL     1       7.655  46.891  52.603  1.00  0.00     0.067 A 
ATOM     24  C   UNL     1       8.126  46.146  51.529  1.00  0.00     0.088 A 
ATOM     25  N   UNL     1       8.791  47.345  53.223  1.00  0.00    -0.345 N 
ATOM     26  N   UNL     1       9.500  46.151  51.494  1.00  0.00    -0.237 NA
ATOM     27  C   UNL     1       9.867  46.879  52.523  1.00  0.00     0.197 A 
ATOM     28  H   UNL     1       8.827  47.922  54.050  1.00  0.00     0.168 HD
ENDBRANCH  17  19
ENDBRANCH  10  17
ENDBRANCH   1   7
TORSDOF 6
ENDMDL
MODEL 20
REMARK VINA RESULT:    -7.764      1.991      7.566
REMARK INTER + INTRA:         -11.006
REMARK INTER:                 -10.193
REMARK INTRA:                  -0.813
REMARK UNBOUND:                -0.519
REMARK SMILES CCCCNc1nc(Nc2ccc3nc[nH]c3c2)c2cnn(C)c2n1
REMARK SMILES IDX 5 1 4 3 3 4 2 5 1 6 6 7 7 8 25 9 8 10 24 11 19 12 22 13
REMARK SMILES IDX 20 14 21 15 23 16 9 17 10 19 11 20 18 21 12 22 17 23 13 24
REMARK SMILES IDX 16 25 14 26 15 27
REMARK H PARENT 5 2 9 18 16 28
ROOT
ATOM      1  N   UNL     1       1.881  45.605  56.456  1.00  0.00    -0.354 N 
ATOM      2  H   UNL     1       2.028  46.609  56.509  1.00  0.00     0.163 HD
ENDROOT
BRANCH   1   3
ATOM      3  C   UNL     1       0.672  45.121  57.097  1.00  0.00     0.116 C 
BRANCH   3   4
ATOM      4  C   UNL     1      -0.342  46.261  57.237  1.00  0.00     0.021 C 
BRANCH   4   5
ATOM      5  C   UNL     1      -1.751  45.849  56.802  1.00  0.00    -0.002 C 
ATOM      6  C   UNL     1      -1.925  44.338  56.842  1.00  0.00     0.004 C 
ENDBRANCH   4   5
ENDBRANCH   3   4
ENDBRANCH   1   3
BRANCH   1   7
ATOM      7  C   UNL     1       1.983  45.296  55.103  1.00  0.00     0.226 A 
ATOM      8  N   UNL     1       2.868  46.050  54.427  1.00  0.00    -0.195 NA
ATOM      9  N   UNL     1       1.229  44.320  54.581  1.00  0.00    -0.193 NA
ATOM     10  C   UNL     1       3.085  45.856  53.099  1.00  0.00     0.147 A 
ATOM     11  C   UNL     1       1.450  44.140  53.272  1.00  0.00     0.165 A 
ATOM     12  C   UNL     1       2.334  44.848  52.481  1.00  0.00     0.082 A 
ATOM     13  N   UNL     1       0.853  43.225  52.449  1.00  0.00    -0.250 N 
ATOM     14  C   UNL     1       2.183  44.280  51.198  1.00  0.00     0.149 A 
ATOM     15  N   UNL     1       1.279  43.294  51.166  1.00  0.00    -0.179 NA
ATOM     16  C   UNL     1      -0.139  42.246  52.816  1.00  0.00     0.176 C 
BRANCH  10  17
ATOM     17  N   UNL     1       3.989  46.644  52.372  1.00  0.00    -0.339 N 
ATOM     18  H   UNL     1       3.565  47.448  51.931  1.00  0.00     0.168 HD
BRANCH  17  19
ATOM     19  C   UNL     1       5.358  46.486  52.074  1.00  0.00     0.042 A 
ATOM     20  C   UNL     1       5.831  45.694  51.018  1.00  0.00     0.028 A 
ATOM     21  C   UNL     1       6.291  47.121  52.920  1.00  0.00     0.054 A 
ATOM     22  C   UNL     1       7.203  45.528  50.765  1.00  0.00     0.033 A 
ATOM     23  C   UNL     1       7.654  46.942  52.652  1.00  0.00     0.067 A 
ATOM     24  C   UNL     1       8.125  46.166  51.601  1.00  0.00     0.088 A 
ATOM     25  N   UNL     1       8.790  47.408  53.263  1.00  0.00    -0.345 N 
ATOM     26  N   UNL     1       9.498  46.164  51.569  1.00  0.00    -0.237 NA
ATOM     27  C   UNL     1       9.866  46.918  52.579  1.00  0.00     0.197 A 
ATOM     28  H   UNL     1       8.826  48.008  54.074  1.00  0.00     0.168 HD
ENDBRANCH  17  19
ENDBRANCH  10  17
ENDBRANCH   1   7
TORSDOF 6
ENDMDL
