MODEL 1
REMARK VINA RESULT:    -8.312      0.000      0.000
REMARK INTER + INTRA:         -12.751
REMARK INTER:                 -11.714
REMARK INTRA:                  -1.037
REMARK UNBOUND:                -1.037
REMARK SMILES CCCCNc1nc(Nc2ccc(C(C)=O)cc2)c2cnn(C)c2n1
REMARK SMILES IDX 6 1 7 2 8 3 19 4 20 5 21 6 22 7 23 8 24 9 25 10 5 11 4 13
REMARK SMILES IDX 3 14 2 15 1 16 9 17 10 19 11 20 18 21 12 22 17 23 13 24
REMARK SMILES IDX 14 25 15 26 16 27
REMARK H PARENT 5 12 9 18
ROOT
ATOM      1  C   UNL     1       3.344  42.551  51.594  1.00  0.00     0.226 A 
ATOM      2  N   UNL     1       3.972  43.574  52.207  1.00  0.00    -0.195 NA
ATOM      3  C   UNL     1       3.278  44.677  52.578  1.00  0.00     0.147 A 
ATOM      4  C   UNL     1       1.918  44.727  52.267  1.00  0.00     0.082 A 
ATOM      5  C   UNL     1       0.837  45.626  52.377  1.00  0.00     0.149 A 
ATOM      6  N   UNL     1      -0.305  45.128  51.888  1.00  0.00    -0.179 NA
ATOM      7  N   UNL     1       0.060  43.904  51.439  1.00  0.00    -0.250 N 
ATOM      8  C   UNL     1      -0.924  43.057  50.811  1.00  0.00     0.176 C 
ATOM      9  C   UNL     1       1.383  43.620  51.638  1.00  0.00     0.165 A 
ATOM     10  N   UNL     1       2.040  42.503  51.292  1.00  0.00    -0.193 NA
ENDROOT
BRANCH   1  11
ATOM     11  N   UNL     1       4.067  41.422  51.224  1.00  0.00    -0.354 N 
ATOM     12  H   UNL     1       4.682  41.226  52.007  1.00  0.00     0.163 HD
BRANCH  11  13
ATOM     13  C   UNL     1       4.710  41.514  49.925  1.00  0.00     0.116 C 
BRANCH  13  14
ATOM     14  C   UNL     1       6.187  41.890  50.084  1.00  0.00     0.021 C 
BRANCH  14  15
ATOM     15  C   UNL     1       6.480  43.338  49.681  1.00  0.00    -0.002 C 
ATOM     16  C   UNL     1       7.932  43.513  49.262  1.00  0.00     0.004 C 
ENDBRANCH  14  15
ENDBRANCH  13  14
ENDBRANCH  11  13
ENDBRANCH   1  11
BRANCH   3  17
ATOM     17  N   UNL     1       4.007  45.706  53.192  1.00  0.00    -0.339 N 
ATOM     18  H   UNL     1       3.471  46.563  53.073  1.00  0.00     0.168 HD
BRANCH  17  19
ATOM     19  C   UNL     1       5.393  45.956  53.143  1.00  0.00     0.040 A 
ATOM     20  C   UNL     1       5.976  46.220  51.897  1.00  0.00     0.027 A 
ATOM     21  C   UNL     1       6.221  45.921  54.268  1.00  0.00     0.027 A 
ATOM     22  C   UNL     1       7.349  46.466  51.775  1.00  0.00     0.014 A 
ATOM     23  C   UNL     1       7.595  46.166  54.154  1.00  0.00     0.014 A 
ATOM     24  C   UNL     1       8.167  46.443  52.907  1.00  0.00     0.017 A 
BRANCH  24  25
ATOM     25  C   UNL     1       9.637  46.696  52.837  1.00  0.00     0.159 C 
ATOM     26  C   UNL     1      10.420  46.134  51.679  1.00  0.00     0.093 C 
ATOM     27  O   UNL     1      10.189  47.353  53.718  1.00  0.00    -0.295 OA
ENDBRANCH  24  25
ENDBRANCH  17  19
ENDBRANCH   3  17
TORSDOF 7
ENDMDL
MODEL 2
REMARK VINA RESULT:    -8.169      0.870      1.017
REMARK INTER + INTRA:         -12.550
REMARK INTER:                 -11.605
REMARK INTRA:                  -0.944
REMARK UNBOUND:                -1.037
REMARK SMILES CCCCNc1nc(Nc2ccc(C(C)=O)cc2)c2cnn(C)c2n1
REMARK SMILES IDX 6 1 7 2 8 3 19 4 20 5 21 6 22 7 23 8 24 9 25 10 5 11 4 13
REMARK SMILES IDX 3 14 2 15 1 16 9 17 10 19 11 20 18 21 12 22 17 23 13 24
REMARK SMILES IDX 14 25 15 26 16 27
REMARK H PARENT 5 12 9 18
ROOT
ATOM      1  C   UNL     1       3.440  42.549  51.558  1.00  0.00     0.226 A 
ATOM      2  N   UNL     1       4.120  43.713  51.562  1.00  0.00    -0.195 NA
ATOM      3  C   UNL     1       3.491  44.869  51.886  1.00  0.00     0.147 A 
ATOM      4  C   UNL     1       2.125  44.813  52.168  1.00  0.00     0.082 A 
ATOM      5  C   UNL     1       1.069  45.693  52.478  1.00  0.00     0.149 A 
ATOM      6  N   UNL     1      -0.098  45.063  52.657  1.00  0.00    -0.179 NA
ATOM      7  N   UNL     1       0.215  43.765  52.435  1.00  0.00    -0.250 N 
ATOM      8  C   UNL     1      -0.817  42.762  52.519  1.00  0.00     0.176 C 
ATOM      9  C   UNL     1       1.535  43.565  52.133  1.00  0.00     0.165 A 
ATOM     10  N   UNL     1       2.141  42.403  51.850  1.00  0.00    -0.193 NA
ENDROOT
BRANCH   1  11
ATOM     11  N   UNL     1       4.098  41.369  51.231  1.00  0.00    -0.354 N 
ATOM     12  H   UNL     1       4.790  41.234  51.960  1.00  0.00     0.163 HD
BRANCH  11  13
ATOM     13  C   UNL     1       4.598  41.311  49.869  1.00  0.00     0.116 C 
BRANCH  13  14
ATOM     14  C   UNL     1       6.109  41.561  49.843  1.00  0.00     0.021 C 
BRANCH  14  15
ATOM     15  C   UNL     1       6.515  42.664  48.861  1.00  0.00    -0.002 C 
ATOM     16  C   UNL     1       7.813  43.334  49.285  1.00  0.00     0.004 C 
ENDBRANCH  14  15
ENDBRANCH  13  14
ENDBRANCH  11  13
ENDBRANCH   1  11
BRANCH   3  17
ATOM     17  N   UNL     1       4.263  46.040  51.848  1.00  0.00    -0.339 N 
ATOM     18  H   UNL     1       4.055  46.505  50.967  1.00  0.00     0.168 HD
BRANCH  17  19
ATOM     19  C   UNL     1       5.610  46.222  52.218  1.00  0.00     0.040 A 
ATOM     20  C   UNL     1       6.582  46.225  51.209  1.00  0.00     0.027 A 
ATOM     21  C   UNL     1       6.031  46.365  53.544  1.00  0.00     0.027 A 
ATOM     22  C   UNL     1       7.940  46.390  51.508  1.00  0.00     0.014 A 
ATOM     23  C   UNL     1       7.387  46.529  53.851  1.00  0.00     0.014 A 
ATOM     24  C   UNL     1       8.349  46.546  52.835  1.00  0.00     0.017 A 
BRANCH  24  25
ATOM     25  C   UNL     1       9.783  46.724  53.213  1.00  0.00     0.159 C 
ATOM     26  C   UNL     1      10.117  47.227  54.593  1.00  0.00     0.093 C 
ATOM     27  O   UNL     1      10.668  46.461  52.401  1.00  0.00    -0.295 OA
ENDBRANCH  24  25
ENDBRANCH  17  19
ENDBRANCH   3  17
TORSDOF 7
ENDMDL
MODEL 3
REMARK VINA RESULT:    -8.159      1.174      1.276
REMARK INTER + INTRA:         -12.536
REMARK INTER:                 -11.452
REMARK INTRA:                  -1.083
REMARK UNBOUND:                -1.037
REMARK SMILES CCCCNc1nc(Nc2ccc(C(C)=O)cc2)c2cnn(C)c2n1
REMARK SMILES IDX 6 1 7 2 8 3 19 4 20 5 21 6 22 7 23 8 24 9 25 10 5 11 4 13
REMARK SMILES IDX 3 14 2 15 1 16 9 17 10 19 11 20 18 21 12 22 17 23 13 24
REMARK SMILES IDX 14 25 15 26 16 27
REMARK H PARENT 5 12 9 18
ROOT
ATOM      1  C   UNL     1       2.636  42.323  51.137  1.00  0.00     0.226 A 
ATOM      2  N   UNL     1       3.348  42.925  52.109  1.00  0.00    -0.195 NA
ATOM      3  C   UNL     1       2.790  43.910  52.854  1.00  0.00     0.147 A 
ATOM      4  C   UNL     1       1.483  44.297  52.550  1.00  0.00     0.082 A 
ATOM      5  C   UNL     1       0.538  45.256  52.965  1.00  0.00     0.149 A 
ATOM      6  N   UNL     1      -0.617  45.173  52.293  1.00  0.00    -0.179 NA
ATOM      7  N   UNL     1      -0.394  44.162  51.423  1.00  0.00    -0.250 N 
ATOM      8  C   UNL     1      -1.431  43.785  50.494  1.00  0.00     0.176 C 
ATOM      9  C   UNL     1       0.852  43.608  51.534  1.00  0.00     0.165 A 
ATOM     10  N   UNL     1       1.369  42.608  50.806  1.00  0.00    -0.193 NA
ENDROOT
BRANCH   1  11
ATOM     11  N   UNL     1       3.218  41.309  50.384  1.00  0.00    -0.354 N 
ATOM     12  H   UNL     1       2.683  40.474  50.596  1.00  0.00     0.163 HD
BRANCH  11  13
ATOM     13  C   UNL     1       4.657  41.192  50.537  1.00  0.00     0.116 C 
BRANCH  13  14
ATOM     14  C   UNL     1       5.363  41.489  49.210  1.00  0.00     0.021 C 
BRANCH  14  15
ATOM     15  C   UNL     1       6.562  42.428  49.370  1.00  0.00    -0.002 C 
ATOM     16  C   UNL     1       6.177  43.697  50.114  1.00  0.00     0.004 C 
ENDBRANCH  14  15
ENDBRANCH  13  14
ENDBRANCH  11  13
ENDBRANCH   1  11
BRANCH   3  17
ATOM     17  N   UNL     1       3.603  44.501  53.833  1.00  0.00    -0.339 N 
ATOM     18  H   UNL     1       2.984  44.876  54.548  1.00  0.00     0.168 HD
BRANCH  17  19
ATOM     19  C   UNL     1       4.741  45.313  53.661  1.00  0.00     0.040 A 
ATOM     20  C   UNL     1       4.839  46.082  52.493  1.00  0.00     0.027 A 
ATOM     21  C   UNL     1       5.794  45.367  54.579  1.00  0.00     0.027 A 
ATOM     22  C   UNL     1       5.947  46.903  52.254  1.00  0.00     0.014 A 
ATOM     23  C   UNL     1       6.907  46.185  54.346  1.00  0.00     0.014 A 
ATOM     24  C   UNL     1       6.988  46.961  53.184  1.00  0.00     0.017 A 
BRANCH  24  25
ATOM     25  C   UNL     1       8.195  47.816  52.981  1.00  0.00     0.159 C 
ATOM     26  C   UNL     1       9.552  47.257  53.320  1.00  0.00     0.093 C 
ATOM     27  O   UNL     1       8.070  48.959  52.545  1.00  0.00    -0.295 OA
ENDBRANCH  24  25
ENDBRANCH  17  19
ENDBRANCH   3  17
TORSDOF 7
ENDMDL
MODEL 4
REMARK VINA RESULT:    -8.145      4.050      7.379
REMARK INTER + INTRA:         -12.515
REMARK INTER:                 -11.763
REMARK INTRA:                  -0.752
REMARK UNBOUND:                -1.037
REMARK SMILES CCCCNc1nc(Nc2ccc(C(C)=O)cc2)c2cnn(C)c2n1
REMARK SMILES IDX 6 1 7 2 8 3 19 4 20 5 21 6 22 7 23 8 24 9 25 10 5 11 4 13
REMARK SMILES IDX 3 14 2 15 1 16 9 17 10 19 11 20 18 21 12 22 17 23 13 24
REMARK SMILES IDX 14 25 15 26 16 27
REMARK H PARENT 5 12 9 18
ROOT
ATOM      1  C   UNL     1       6.689  44.974  50.826  1.00  0.00     0.226 A 
ATOM      2  N   UNL     1       6.825  43.933  49.981  1.00  0.00    -0.195 NA
ATOM      3  C   UNL     1       5.945  42.902  50.021  1.00  0.00     0.147 A 
ATOM      4  C   UNL     1       4.936  42.943  50.985  1.00  0.00     0.082 A 
ATOM      5  C   UNL     1       3.878  42.134  51.446  1.00  0.00     0.149 A 
ATOM      6  N   UNL     1       3.194  42.697  52.450  1.00  0.00    -0.179 NA
ATOM      7  N   UNL     1       3.841  43.869  52.645  1.00  0.00    -0.250 N 
ATOM      8  C   UNL     1       3.393  44.761  53.686  1.00  0.00     0.176 C 
ATOM      9  C   UNL     1       4.896  44.060  51.795  1.00  0.00     0.165 A 
ATOM     10  N   UNL     1       5.731  45.108  51.753  1.00  0.00    -0.193 NA
ENDROOT
BRANCH   1  11
ATOM     11  N   UNL     1       7.594  46.029  50.770  1.00  0.00    -0.354 N 
ATOM     12  H   UNL     1       8.491  45.603  50.563  1.00  0.00     0.163 HD
BRANCH  11  13
ATOM     13  C   UNL     1       7.566  46.913  51.921  1.00  0.00     0.116 C 
BRANCH  13  14
ATOM     14  C   UNL     1       8.918  47.613  52.092  1.00  0.00     0.021 C 
BRANCH  14  15
ATOM     15  C   UNL     1       9.913  46.794  52.919  1.00  0.00    -0.002 C 
ATOM     16  C   UNL     1       9.952  47.265  54.364  1.00  0.00     0.004 C 
ENDBRANCH  14  15
ENDBRANCH  13  14
ENDBRANCH  11  13
ENDBRANCH   1  11
BRANCH   3  17
ATOM     17  N   UNL     1       6.167  41.847  49.123  1.00  0.00    -0.339 N 
ATOM     18  H   UNL     1       7.161  41.846  48.906  1.00  0.00     0.168 HD
BRANCH  17  19
ATOM     19  C   UNL     1       5.397  41.460  48.010  1.00  0.00     0.040 A 
ATOM     20  C   UNL     1       5.782  41.919  46.743  1.00  0.00     0.027 A 
ATOM     21  C   UNL     1       4.248  40.668  48.106  1.00  0.00     0.027 A 
ATOM     22  C   UNL     1       5.056  41.581  45.595  1.00  0.00     0.014 A 
ATOM     23  C   UNL     1       3.516  40.326  46.962  1.00  0.00     0.014 A 
ATOM     24  C   UNL     1       3.917  40.777  45.700  1.00  0.00     0.017 A 
BRANCH  24  25
ATOM     25  C   UNL     1       3.103  40.386  44.511  1.00  0.00     0.159 C 
ATOM     26  C   UNL     1       1.629  40.699  44.501  1.00  0.00     0.093 C 
ATOM     27  O   UNL     1       3.638  39.816  43.561  1.00  0.00    -0.295 OA
ENDBRANCH  24  25
ENDBRANCH  17  19
ENDBRANCH   3  17
TORSDOF 7
ENDMDL
MODEL 5
REMARK VINA RESULT:    -8.010      3.330      7.328
REMARK INTER + INTRA:         -12.325
REMARK INTER:                 -11.431
REMARK INTRA:                  -0.894
REMARK UNBOUND:                -1.037
REMARK SMILES CCCCNc1nc(Nc2ccc(C(C)=O)cc2)c2cnn(C)c2n1
REMARK SMILES IDX 6 1 7 2 8 3 19 4 20 5 21 6 22 7 23 8 24 9 25 10 5 11 4 13
REMARK SMILES IDX 3 14 2 15 1 16 9 17 10 19 11 20 18 21 12 22 17 23 13 24
REMARK SMILES IDX 14 25 15 26 16 27
REMARK H PARENT 5 12 9 18
ROOT
ATOM      1  C   UNL     1       6.095  46.153  52.189  1.00  0.00     0.226 A 
ATOM      2  N   UNL     1       5.043  45.606  52.830  1.00  0.00    -0.195 NA
ATOM      3  C   UNL     1       4.594  44.376  52.479  1.00  0.00     0.147 A 
ATOM      4  C   UNL     1       5.228  43.729  51.416  1.00  0.00     0.082 A 
ATOM      5  C   UNL     1       5.102  42.538  50.674  1.00  0.00     0.149 A 
ATOM      6  N   UNL     1       6.028  42.422  49.715  1.00  0.00    -0.179 NA
ATOM      7  N   UNL     1       6.739  43.567  49.834  1.00  0.00    -0.250 N 
ATOM      8  C   UNL     1       7.837  43.818  48.933  1.00  0.00     0.176 C 
ATOM      9  C   UNL     1       6.294  44.386  50.836  1.00  0.00     0.165 A 
ATOM     10  N   UNL     1       6.780  45.586  51.187  1.00  0.00    -0.193 NA
ENDROOT
BRANCH   1  11
ATOM     11  N   UNL     1       6.551  47.412  52.563  1.00  0.00    -0.354 N 
ATOM     12  H   UNL     1       5.822  48.058  52.277  1.00  0.00     0.163 HD
BRANCH  11  13
ATOM     13  C   UNL     1       7.892  47.732  52.107  1.00  0.00     0.116 C 
BRANCH  13  14
ATOM     14  C   UNL     1       8.846  47.858  53.298  1.00  0.00     0.021 C 
BRANCH  14  15
ATOM     15  C   UNL     1       9.915  46.761  53.325  1.00  0.00    -0.002 C 
ATOM     16  C   UNL     1      10.281  46.310  51.920  1.00  0.00     0.004 C 
ENDBRANCH  14  15
ENDBRANCH  13  14
ENDBRANCH  11  13
ENDBRANCH   1  11
BRANCH   3  17
ATOM     17  N   UNL     1       3.482  43.886  53.180  1.00  0.00    -0.339 N 
ATOM     18  H   UNL     1       3.818  43.138  53.784  1.00  0.00     0.168 HD
BRANCH  17  19
ATOM     19  C   UNL     1       2.185  43.617  52.701  1.00  0.00     0.040 A 
ATOM     20  C   UNL     1       1.405  42.677  53.387  1.00  0.00     0.027 A 
ATOM     21  C   UNL     1       1.648  44.213  51.556  1.00  0.00     0.027 A 
ATOM     22  C   UNL     1       0.112  42.354  52.960  1.00  0.00     0.014 A 
ATOM     23  C   UNL     1       0.356  43.894  51.121  1.00  0.00     0.014 A 
ATOM     24  C   UNL     1      -0.422  42.966  51.823  1.00  0.00     0.017 A 
BRANCH  24  25
ATOM     25  C   UNL     1      -1.793  42.660  51.319  1.00  0.00     0.159 C 
ATOM     26  C   UNL     1      -2.224  43.217  49.987  1.00  0.00     0.093 C 
ATOM     27  O   UNL     1      -2.552  41.963  51.991  1.00  0.00    -0.295 OA
ENDBRANCH  24  25
ENDBRANCH  17  19
ENDBRANCH   3  17
TORSDOF 7
ENDMDL
MODEL 6
REMARK VINA RESULT:    -8.008      2.820      3.460
REMARK INTER + INTRA:         -12.322
REMARK INTER:                 -10.927
REMARK INTRA:                  -1.396
REMARK UNBOUND:                -1.037
REMARK SMILES CCCCNc1nc(Nc2ccc(C(C)=O)cc2)c2cnn(C)c2n1
REMARK SMILES IDX 6 1 7 2 8 3 19 4 20 5 21 6 22 7 23 8 24 9 25 10 5 11 4 13
REMARK SMILES IDX 3 14 2 15 1 16 9 17 10 19 11 20 18 21 12 22 17 23 13 24
REMARK SMILES IDX 14 25 15 26 16 27
REMARK H PARENT 5 12 9 18
ROOT
ATOM      1  C   UNL     1       1.254  43.891  53.808  1.00  0.00     0.226 A 
ATOM      2  N   UNL     1       2.334  44.589  54.212  1.00  0.00    -0.195 NA
ATOM      3  C   UNL     1       2.301  45.287  55.374  1.00  0.00     0.147 A 
ATOM      4  C   UNL     1       1.108  45.288  56.100  1.00  0.00     0.082 A 
ATOM      5  C   UNL     1       0.579  45.876  57.266  1.00  0.00     0.149 A 
ATOM      6  N   UNL     1      -0.687  45.510  57.503  1.00  0.00    -0.179 NA
ATOM      7  N   UNL     1      -0.974  44.697  56.461  1.00  0.00    -0.250 N 
ATOM      8  C   UNL     1      -2.287  44.112  56.358  1.00  0.00     0.176 C 
ATOM      9  C   UNL     1       0.069  44.537  55.589  1.00  0.00     0.165 A 
ATOM     10  N   UNL     1       0.087  43.810  54.462  1.00  0.00    -0.193 NA
ENDROOT
BRANCH   1  11
ATOM     11  N   UNL     1       1.303  43.174  52.619  1.00  0.00    -0.354 N 
ATOM     12  H   UNL     1       1.510  42.218  52.888  1.00  0.00     0.163 HD
BRANCH  11  13
ATOM     13  C   UNL     1       2.170  43.744  51.603  1.00  0.00     0.116 C 
BRANCH  13  14
ATOM     14  C   UNL     1       3.437  42.898  51.444  1.00  0.00     0.021 C 
BRANCH  14  15
ATOM     15  C   UNL     1       4.722  43.703  51.661  1.00  0.00    -0.002 C 
ATOM     16  C   UNL     1       4.689  45.016  50.894  1.00  0.00     0.004 C 
ENDBRANCH  14  15
ENDBRANCH  13  14
ENDBRANCH  11  13
ENDBRANCH   1  11
BRANCH   3  17
ATOM     17  N   UNL     1       3.458  46.004  55.713  1.00  0.00    -0.339 N 
ATOM     18  H   UNL     1       3.153  46.865  56.162  1.00  0.00     0.168 HD
BRANCH  17  19
ATOM     19  C   UNL     1       4.626  46.206  54.953  1.00  0.00     0.040 A 
ATOM     20  C   UNL     1       4.659  47.284  54.059  1.00  0.00     0.027 A 
ATOM     21  C   UNL     1       5.742  45.366  55.018  1.00  0.00     0.027 A 
ATOM     22  C   UNL     1       5.783  47.537  53.265  1.00  0.00     0.014 A 
ATOM     23  C   UNL     1       6.870  45.611  54.226  1.00  0.00     0.014 A 
ATOM     24  C   UNL     1       6.900  46.700  53.347  1.00  0.00     0.017 A 
BRANCH  24  25
ATOM     25  C   UNL     1       8.125  46.919  52.523  1.00  0.00     0.159 C 
ATOM     26  C   UNL     1       9.421  47.254  53.216  1.00  0.00     0.093 C 
ATOM     27  O   UNL     1       8.065  46.827  51.298  1.00  0.00    -0.295 OA
ENDBRANCH  24  25
ENDBRANCH  17  19
ENDBRANCH   3  17
TORSDOF 7
ENDMDL
MODEL 7
REMARK VINA RESULT:    -7.972      2.012      4.460
REMARK INTER + INTRA:         -12.272
REMARK INTER:                 -11.478
REMARK INTRA:                  -0.795
REMARK UNBOUND:                -1.037
REMARK SMILES CCCCNc1nc(Nc2ccc(C(C)=O)cc2)c2cnn(C)c2n1
REMARK SMILES IDX 6 1 7 2 8 3 19 4 20 5 21 6 22 7 23 8 24 9 25 10 5 11 4 13
REMARK SMILES IDX 3 14 2 15 1 16 9 17 10 19 11 20 18 21 12 22 17 23 13 24
REMARK SMILES IDX 14 25 15 26 16 27
REMARK H PARENT 5 12 9 18
ROOT
ATOM      1  C   UNL     1       3.613  45.016  51.206  1.00  0.00     0.226 A 
ATOM      2  N   UNL     1       4.801  45.652  51.187  1.00  0.00    -0.195 NA
ATOM      3  C   UNL     1       5.920  44.999  50.789  1.00  0.00     0.147 A 
ATOM      4  C   UNL     1       5.800  43.651  50.445  1.00  0.00     0.082 A 
ATOM      5  C   UNL     1       6.627  42.580  50.050  1.00  0.00     0.149 A 
ATOM      6  N   UNL     1       5.946  41.447  49.841  1.00  0.00    -0.179 NA
ATOM      7  N   UNL     1       4.671  41.796  50.129  1.00  0.00    -0.250 N 
ATOM      8  C   UNL     1       3.626  40.807  50.036  1.00  0.00     0.176 C 
ATOM      9  C   UNL     1       4.533  43.105  50.501  1.00  0.00     0.165 A 
ATOM     10  N   UNL     1       3.406  43.739  50.858  1.00  0.00    -0.193 NA
ENDROOT
BRANCH   1  11
ATOM     11  N   UNL     1       2.472  45.700  51.610  1.00  0.00    -0.354 N 
ATOM     12  H   UNL     1       2.198  46.263  50.812  1.00  0.00     0.163 HD
BRANCH  11  13
ATOM     13  C   UNL     1       2.607  46.412  52.868  1.00  0.00     0.116 C 
BRANCH  13  14
ATOM     14  C   UNL     1       2.761  45.425  54.029  1.00  0.00     0.021 C 
BRANCH  14  15
ATOM     15  C   UNL     1       3.751  45.906  55.094  1.00  0.00    -0.002 C 
ATOM     16  C   UNL     1       4.883  44.909  55.289  1.00  0.00     0.004 C 
ENDBRANCH  14  15
ENDBRANCH  13  14
ENDBRANCH  11  13
ENDBRANCH   1  11
BRANCH   3  17
ATOM     17  N   UNL     1       7.120  45.725  50.817  1.00  0.00    -0.339 N 
ATOM     18  H   UNL     1       7.764  45.260  50.181  1.00  0.00     0.168 HD
BRANCH  17  19
ATOM     19  C   UNL     1       7.797  46.267  51.927  1.00  0.00     0.040 A 
ATOM     20  C   UNL     1       7.048  46.600  53.064  1.00  0.00     0.027 A 
ATOM     21  C   UNL     1       9.171  46.522  51.941  1.00  0.00     0.027 A 
ATOM     22  C   UNL     1       7.655  47.153  54.198  1.00  0.00     0.014 A 
ATOM     23  C   UNL     1       9.785  47.076  53.071  1.00  0.00     0.014 A 
ATOM     24  C   UNL     1       9.032  47.391  54.208  1.00  0.00     0.017 A 
BRANCH  24  25
ATOM     25  C   UNL     1       9.733  47.980  55.387  1.00  0.00     0.159 C 
ATOM     26  C   UNL     1      11.008  47.343  55.872  1.00  0.00     0.093 C 
ATOM     27  O   UNL     1       9.264  48.970  55.947  1.00  0.00    -0.295 OA
ENDBRANCH  24  25
ENDBRANCH  17  19
ENDBRANCH   3  17
TORSDOF 7
ENDMDL
MODEL 8
REMARK VINA RESULT:    -7.940      3.451      6.746
REMARK INTER + INTRA:         -12.227
REMARK INTER:                 -11.982
REMARK INTRA:                  -0.245
REMARK UNBOUND:                -1.037
REMARK SMILES CCCCNc1nc(Nc2ccc(C(C)=O)cc2)c2cnn(C)c2n1
REMARK SMILES IDX 6 1 7 2 8 3 19 4 20 5 21 6 22 7 23 8 24 9 25 10 5 11 4 13
REMARK SMILES IDX 3 14 2 15 1 16 9 17 10 19 11 20 18 21 12 22 17 23 13 24
REMARK SMILES IDX 14 25 15 26 16 27
REMARK H PARENT 5 12 9 18
ROOT
ATOM      1  C   UNL     1       6.154  46.204  51.932  1.00  0.00     0.226 A 
ATOM      2  N   UNL     1       4.991  45.661  52.344  1.00  0.00    -0.195 NA
ATOM      3  C   UNL     1       4.595  44.455  51.869  1.00  0.00     0.147 A 
ATOM      4  C   UNL     1       5.406  43.829  50.920  1.00  0.00     0.082 A 
ATOM      5  C   UNL     1       5.401  42.667  50.123  1.00  0.00     0.149 A 
ATOM      6  N   UNL     1       6.489  42.562  49.351  1.00  0.00    -0.179 NA
ATOM      7  N   UNL     1       7.185  43.684  49.644  1.00  0.00    -0.250 N 
ATOM      8  C   UNL     1       8.436  43.938  48.975  1.00  0.00     0.176 C 
ATOM      9  C   UNL     1       6.574  44.479  50.575  1.00  0.00     0.165 A 
ATOM     10  N   UNL     1       7.006  45.654  51.056  1.00  0.00    -0.193 NA
ENDROOT
BRANCH   1  11
ATOM     11  N   UNL     1       6.553  47.438  52.432  1.00  0.00    -0.354 N 
ATOM     12  H   UNL     1       5.851  48.098  52.112  1.00  0.00     0.163 HD
BRANCH  11  13
ATOM     13  C   UNL     1       7.931  47.793  52.143  1.00  0.00     0.116 C 
BRANCH  13  14
ATOM     14  C   UNL     1       8.733  47.926  53.441  1.00  0.00     0.021 C 
BRANCH  14  15
ATOM     15  C   UNL     1       9.955  47.004  53.484  1.00  0.00    -0.002 C 
ATOM     16  C   UNL     1      10.261  46.425  52.111  1.00  0.00     0.004 C 
ENDBRANCH  14  15
ENDBRANCH  13  14
ENDBRANCH  11  13
ENDBRANCH   1  11
BRANCH   3  17
ATOM     17  N   UNL     1       3.363  43.968  52.330  1.00  0.00    -0.339 N 
ATOM     18  H   UNL     1       2.744  43.911  51.524  1.00  0.00     0.168 HD
BRANCH  17  19
ATOM     19  C   UNL     1       2.655  44.321  53.496  1.00  0.00     0.040 A 
ATOM     20  C   UNL     1       1.327  43.894  53.622  1.00  0.00     0.027 A 
ATOM     21  C   UNL     1       3.199  45.103  54.520  1.00  0.00     0.027 A 
ATOM     22  C   UNL     1       0.562  44.218  54.749  1.00  0.00     0.014 A 
ATOM     23  C   UNL     1       2.441  45.432  55.650  1.00  0.00     0.014 A 
ATOM     24  C   UNL     1       1.119  44.988  55.773  1.00  0.00     0.017 A 
BRANCH  24  25
ATOM     25  C   UNL     1       0.351  45.366  56.997  1.00  0.00     0.159 C 
ATOM     26  C   UNL     1       0.904  46.433  57.905  1.00  0.00     0.093 C 
ATOM     27  O   UNL     1      -0.714  44.806  57.250  1.00  0.00    -0.295 OA
ENDBRANCH  24  25
ENDBRANCH  17  19
ENDBRANCH   3  17
TORSDOF 7
ENDMDL
MODEL 9
REMARK VINA RESULT:    -7.858      2.638      3.594
REMARK INTER + INTRA:         -12.111
REMARK INTER:                 -11.469
REMARK INTRA:                  -0.642
REMARK UNBOUND:                -1.037
REMARK SMILES CCCCNc1nc(Nc2ccc(C(C)=O)cc2)c2cnn(C)c2n1
REMARK SMILES IDX 6 1 7 2 8 3 19 4 20 5 21 6 22 7 23 8 24 9 25 10 5 11 4 13
REMARK SMILES IDX 3 14 2 15 1 16 9 17 10 19 11 20 18 21 12 22 17 23 13 24
REMARK SMILES IDX 14 25 15 26 16 27
REMARK H PARENT 5 12 9 18
ROOT
ATOM      1  C   UNL     1       6.081  42.542  49.572  1.00  0.00     0.226 A 
ATOM      2  N   UNL     1       6.921  43.586  49.718  1.00  0.00    -0.195 NA
ATOM      3  C   UNL     1       6.609  44.599  50.563  1.00  0.00     0.147 A 
ATOM      4  C   UNL     1       5.385  44.538  51.231  1.00  0.00     0.082 A 
ATOM      5  C   UNL     1       4.619  45.326  52.114  1.00  0.00     0.149 A 
ATOM      6  N   UNL     1       3.459  44.749  52.451  1.00  0.00    -0.179 NA
ATOM      7  N   UNL     1       3.477  43.590  51.754  1.00  0.00    -0.250 N 
ATOM      8  C   UNL     1       2.355  42.688  51.848  1.00  0.00     0.176 C 
ATOM      9  C   UNL     1       4.608  43.420  51.003  1.00  0.00     0.165 A 
ATOM     10  N   UNL     1       4.908  42.389  50.201  1.00  0.00    -0.193 NA
ENDROOT
BRANCH   1  11
ATOM     11  N   UNL     1       6.415  41.506  48.707  1.00  0.00    -0.354 N 
ATOM     12  H   UNL     1       7.325  41.751  48.330  1.00  0.00     0.163 HD
BRANCH  11  13
ATOM     13  C   UNL     1       5.394  41.180  47.728  1.00  0.00     0.116 C 
BRANCH  13  14
ATOM     14  C   UNL     1       5.643  41.940  46.421  1.00  0.00     0.021 C 
BRANCH  14  15
ATOM     15  C   UNL     1       4.646  41.574  45.318  1.00  0.00    -0.002 C 
ATOM     16  C   UNL     1       5.325  40.822  44.184  1.00  0.00     0.004 C 
ENDBRANCH  14  15
ENDBRANCH  13  14
ENDBRANCH  11  13
ENDBRANCH   1  11
BRANCH   3  17
ATOM     17  N   UNL     1       7.525  45.659  50.643  1.00  0.00    -0.339 N 
ATOM     18  H   UNL     1       8.253  45.476  49.956  1.00  0.00     0.168 HD
BRANCH  17  19
ATOM     19  C   UNL     1       8.047  46.289  51.790  1.00  0.00     0.040 A 
ATOM     20  C   UNL     1       9.259  45.818  52.313  1.00  0.00     0.027 A 
ATOM     21  C   UNL     1       7.403  47.337  52.453  1.00  0.00     0.027 A 
ATOM     22  C   UNL     1       9.829  46.391  53.455  1.00  0.00     0.014 A 
ATOM     23  C   UNL     1       7.966  47.914  53.598  1.00  0.00     0.014 A 
ATOM     24  C   UNL     1       9.185  47.448  54.104  1.00  0.00     0.017 A 
BRANCH  24  25
ATOM     25  C   UNL     1       9.744  48.096  55.327  1.00  0.00     0.159 C 
ATOM     26  C   UNL     1      11.016  47.552  55.924  1.00  0.00     0.093 C 
ATOM     27  O   UNL     1       9.165  49.056  55.831  1.00  0.00    -0.295 OA
ENDBRANCH  24  25
ENDBRANCH  17  19
ENDBRANCH   3  17
TORSDOF 7
ENDMDL
MODEL 10
REMARK VINA RESULT:    -7.842      3.306      7.030
REMARK INTER + INTRA:         -12.089
REMARK INTER:                 -11.511
REMARK INTRA:                  -0.578
REMARK UNBOUND:                -1.037
REMARK SMILES CCCCNc1nc(Nc2ccc(C(C)=O)cc2)c2cnn(C)c2n1
REMARK SMILES IDX 6 1 7 2 8 3 19 4 20 5 21 6 22 7 23 8 24 9 25 10 5 11 4 13
REMARK SMILES IDX 3 14 2 15 1 16 9 17 10 19 11 20 18 21 12 22 17 23 13 24
REMARK SMILES IDX 14 25 15 26 16 27
REMARK H PARENT 5 12 9 18
ROOT
ATOM      1  C   UNL     1       7.245  46.812  51.967  1.00  0.00     0.226 A 
ATOM      2  N   UNL     1       6.180  47.004  52.770  1.00  0.00    -0.195 NA
ATOM      3  C   UNL     1       5.159  46.112  52.777  1.00  0.00     0.147 A 
ATOM      4  C   UNL     1       5.236  45.027  51.901  1.00  0.00     0.082 A 
ATOM      5  C   UNL     1       4.450  43.925  51.508  1.00  0.00     0.149 A 
ATOM      6  N   UNL     1       5.046  43.167  50.580  1.00  0.00    -0.179 NA
ATOM      7  N   UNL     1       6.217  43.809  50.362  1.00  0.00    -0.250 N 
ATOM      8  C   UNL     1       7.141  43.288  49.386  1.00  0.00     0.176 C 
ATOM      9  C   UNL     1       6.374  44.933  51.126  1.00  0.00     0.165 A 
ATOM     10  N   UNL     1       7.413  45.782  51.127  1.00  0.00    -0.193 NA
ENDROOT
BRANCH   1  11
ATOM     11  N   UNL     1       8.288  47.731  51.975  1.00  0.00    -0.354 N 
ATOM     12  H   UNL     1       8.130  48.325  51.167  1.00  0.00     0.163 HD
BRANCH  11  13
ATOM     13  C   UNL     1       9.612  47.143  52.076  1.00  0.00     0.116 C 
BRANCH  13  14
ATOM     14  C   UNL     1       9.842  46.582  53.483  1.00  0.00     0.021 C 
BRANCH  14  15
ATOM     15  C   UNL     1       9.563  47.606  54.587  1.00  0.00    -0.002 C 
ATOM     16  C   UNL     1      10.615  47.541  55.683  1.00  0.00     0.004 C 
ENDBRANCH  14  15
ENDBRANCH  13  14
ENDBRANCH  11  13
ENDBRANCH   1  11
BRANCH   3  17
ATOM     17  N   UNL     1       4.078  46.395  53.625  1.00  0.00    -0.339 N 
ATOM     18  H   UNL     1       4.453  46.474  54.568  1.00  0.00     0.168 HD
BRANCH  17  19
ATOM     19  C   UNL     1       2.789  45.828  53.630  1.00  0.00     0.040 A 
ATOM     20  C   UNL     1       2.456  44.943  54.664  1.00  0.00     0.027 A 
ATOM     21  C   UNL     1       1.835  46.075  52.638  1.00  0.00     0.027 A 
ATOM     22  C   UNL     1       1.196  44.336  54.725  1.00  0.00     0.014 A 
ATOM     23  C   UNL     1       0.573  45.471  52.691  1.00  0.00     0.014 A 
ATOM     24  C   UNL     1       0.244  44.601  53.737  1.00  0.00     0.017 A 
BRANCH  24  25
ATOM     25  C   UNL     1      -1.114  43.981  53.748  1.00  0.00     0.159 C 
ATOM     26  C   UNL     1      -2.298  44.807  53.319  1.00  0.00     0.093 C 
ATOM     27  O   UNL     1      -1.251  42.812  54.107  1.00  0.00    -0.295 OA
ENDBRANCH  24  25
ENDBRANCH  17  19
ENDBRANCH   3  17
TORSDOF 7
ENDMDL
MODEL 11
REMARK VINA RESULT:    -7.796      3.205      6.363
REMARK INTER + INTRA:         -12.024
REMARK INTER:                 -11.329
REMARK INTRA:                  -0.695
REMARK UNBOUND:                -1.037
REMARK SMILES CCCCNc1nc(Nc2ccc(C(C)=O)cc2)c2cnn(C)c2n1
REMARK SMILES IDX 6 1 7 2 8 3 19 4 20 5 21 6 22 7 23 8 24 9 25 10 5 11 4 13
REMARK SMILES IDX 3 14 2 15 1 16 9 17 10 19 11 20 18 21 12 22 17 23 13 24
REMARK SMILES IDX 14 25 15 26 16 27
REMARK H PARENT 5 12 9 18
ROOT
ATOM      1  C   UNL     1       6.935  45.493  50.894  1.00  0.00     0.226 A 
ATOM      2  N   UNL     1       5.996  46.172  51.583  1.00  0.00    -0.195 NA
ATOM      3  C   UNL     1       4.819  45.578  51.900  1.00  0.00     0.147 A 
ATOM      4  C   UNL     1       4.606  44.273  51.453  1.00  0.00     0.082 A 
ATOM      5  C   UNL     1       3.586  43.301  51.467  1.00  0.00     0.149 A 
ATOM      6  N   UNL     1       3.942  42.164  50.856  1.00  0.00    -0.179 NA
ATOM      7  N   UNL     1       5.199  42.425  50.428  1.00  0.00    -0.250 N 
ATOM      8  C   UNL     1       5.920  41.418  49.690  1.00  0.00     0.176 C 
ATOM      9  C   UNL     1       5.639  43.678  50.756  1.00  0.00     0.165 A 
ATOM     10  N   UNL     1       6.825  44.230  50.461  1.00  0.00    -0.193 NA
ENDROOT
BRANCH   1  11
ATOM     11  N   UNL     1       8.140  46.112  50.582  1.00  0.00    -0.354 N 
ATOM     12  H   UNL     1       8.761  45.363  50.292  1.00  0.00     0.163 HD
BRANCH  11  13
ATOM     13  C   UNL     1       8.655  46.993  51.614  1.00  0.00     0.116 C 
BRANCH  13  14
ATOM     14  C   UNL     1       9.894  46.378  52.274  1.00  0.00     0.021 C 
BRANCH  14  15
ATOM     15  C   UNL     1      10.017  46.733  53.758  1.00  0.00    -0.002 C 
ATOM     16  C   UNL     1       9.034  47.826  54.150  1.00  0.00     0.004 C 
ENDBRANCH  14  15
ENDBRANCH  13  14
ENDBRANCH  11  13
ENDBRANCH   1  11
BRANCH   3  17
ATOM     17  N   UNL     1       3.886  46.357  52.600  1.00  0.00    -0.339 N 
ATOM     18  H   UNL     1       4.386  47.168  52.960  1.00  0.00     0.168 HD
BRANCH  17  19
ATOM     19  C   UNL     1       2.878  45.939  53.490  1.00  0.00     0.040 A 
ATOM     20  C   UNL     1       1.574  45.795  52.997  1.00  0.00     0.027 A 
ATOM     21  C   UNL     1       3.103  45.692  54.848  1.00  0.00     0.027 A 
ATOM     22  C   UNL     1       0.523  45.393  53.829  1.00  0.00     0.014 A 
ATOM     23  C   UNL     1       2.056  45.291  55.686  1.00  0.00     0.014 A 
ATOM     24  C   UNL     1       0.760  45.135  55.181  1.00  0.00     0.017 A 
BRANCH  24  25
ATOM     25  C   UNL     1      -0.322  44.706  56.115  1.00  0.00     0.159 C 
ATOM     26  C   UNL     1      -1.544  44.026  55.554  1.00  0.00     0.093 C 
ATOM     27  O   UNL     1      -0.208  44.911  57.322  1.00  0.00    -0.295 OA
ENDBRANCH  24  25
ENDBRANCH  17  19
ENDBRANCH   3  17
TORSDOF 7
ENDMDL
MODEL 12
REMARK VINA RESULT:    -7.765      2.407      4.315
REMARK INTER + INTRA:         -11.980
REMARK INTER:                 -10.777
REMARK INTRA:                  -1.202
REMARK UNBOUND:                -1.037
REMARK SMILES CCCCNc1nc(Nc2ccc(C(C)=O)cc2)c2cnn(C)c2n1
REMARK SMILES IDX 6 1 7 2 8 3 19 4 20 5 21 6 22 7 23 8 24 9 25 10 5 11 4 13
REMARK SMILES IDX 3 14 2 15 1 16 9 17 10 19 11 20 18 21 12 22 17 23 13 24
REMARK SMILES IDX 14 25 15 26 16 27
REMARK H PARENT 5 12 9 18
ROOT
ATOM      1  C   UNL     1       1.899  45.025  55.106  1.00  0.00     0.226 A 
ATOM      2  N   UNL     1       2.363  44.839  53.855  1.00  0.00    -0.195 NA
ATOM      3  C   UNL     1       1.556  44.318  52.898  1.00  0.00     0.147 A 
ATOM      4  C   UNL     1       0.260  43.951  53.267  1.00  0.00     0.082 A 
ATOM      5  C   UNL     1      -0.874  43.346  52.690  1.00  0.00     0.149 A 
ATOM      6  N   UNL     1      -1.895  43.232  53.548  1.00  0.00    -0.179 NA
ATOM      7  N   UNL     1      -1.395  43.750  54.693  1.00  0.00    -0.250 N 
ATOM      8  C   UNL     1      -2.217  43.780  55.877  1.00  0.00     0.176 C 
ATOM      9  C   UNL     1      -0.104  44.190  54.576  1.00  0.00     0.165 A 
ATOM     10  N   UNL     1       0.662  44.735  55.532  1.00  0.00    -0.193 NA
ENDROOT
BRANCH   1  11
ATOM     11  N   UNL     1       2.735  45.566  56.077  1.00  0.00    -0.354 N 
ATOM     12  H   UNL     1       2.152  46.202  56.611  1.00  0.00     0.163 HD
BRANCH  11  13
ATOM     13  C   UNL     1       3.974  46.125  55.567  1.00  0.00     0.116 C 
BRANCH  13  14
ATOM     14  C   UNL     1       5.080  45.065  55.569  1.00  0.00     0.021 C 
BRANCH  14  15
ATOM     15  C   UNL     1       5.809  44.959  54.226  1.00  0.00    -0.002 C 
ATOM     16  C   UNL     1       6.731  46.148  54.001  1.00  0.00     0.004 C 
ENDBRANCH  14  15
ENDBRANCH  13  14
ENDBRANCH  11  13
ENDBRANCH   1  11
BRANCH   3  17
ATOM     17  N   UNL     1       2.120  44.136  51.627  1.00  0.00    -0.339 N 
ATOM     18  H   UNL     1       1.722  43.281  51.244  1.00  0.00     0.168 HD
BRANCH  17  19
ATOM     19  C   UNL     1       3.459  44.305  51.223  1.00  0.00     0.040 A 
ATOM     20  C   UNL     1       4.280  43.172  51.156  1.00  0.00     0.027 A 
ATOM     21  C   UNL     1       4.020  45.548  50.917  1.00  0.00     0.027 A 
ATOM     22  C   UNL     1       5.623  43.269  50.772  1.00  0.00     0.014 A 
ATOM     23  C   UNL     1       5.362  45.654  50.534  1.00  0.00     0.014 A 
ATOM     24  C   UNL     1       6.171  44.514  50.455  1.00  0.00     0.017 A 
BRANCH  24  25
ATOM     25  C   UNL     1       7.596  44.678  50.042  1.00  0.00     0.159 C 
ATOM     26  C   UNL     1       8.142  43.810  48.938  1.00  0.00     0.093 C 
ATOM     27  O   UNL     1       8.305  45.512  50.604  1.00  0.00    -0.295 OA
ENDBRANCH  24  25
ENDBRANCH  17  19
ENDBRANCH   3  17
TORSDOF 7
ENDMDL
MODEL 13
REMARK VINA RESULT:    -7.720      3.374      7.217
REMARK INTER + INTRA:         -11.916
REMARK INTER:                 -11.139
REMARK INTRA:                  -0.777
REMARK UNBOUND:                -1.037
REMARK SMILES CCCCNc1nc(Nc2ccc(C(C)=O)cc2)c2cnn(C)c2n1
REMARK SMILES IDX 6 1 7 2 8 3 19 4 20 5 21 6 22 7 23 8 24 9 25 10 5 11 4 13
REMARK SMILES IDX 3 14 2 15 1 16 9 17 10 19 11 20 18 21 12 22 17 23 13 24
REMARK SMILES IDX 14 25 15 26 16 27
REMARK H PARENT 5 12 9 18
ROOT
ATOM      1  C   UNL     1       5.796  45.639  52.019  1.00  0.00     0.226 A 
ATOM      2  N   UNL     1       4.777  45.454  52.881  1.00  0.00    -0.195 NA
ATOM      3  C   UNL     1       4.047  44.312  52.841  1.00  0.00     0.147 A 
ATOM      4  C   UNL     1       4.362  43.371  51.859  1.00  0.00     0.082 A 
ATOM      5  C   UNL     1       3.889  42.129  51.391  1.00  0.00     0.149 A 
ATOM      6  N   UNL     1       4.607  41.652  50.367  1.00  0.00    -0.179 NA
ATOM      7  N   UNL     1       5.536  42.615  50.166  1.00  0.00    -0.250 N 
ATOM      8  C   UNL     1       6.499  42.461  49.105  1.00  0.00     0.176 C 
ATOM      9  C   UNL     1       5.427  43.669  51.032  1.00  0.00     0.165 A 
ATOM     10  N   UNL     1       6.186  44.774  51.073  1.00  0.00    -0.193 NA
ENDROOT
BRANCH   1  11
ATOM     11  N   UNL     1       6.541  46.812  52.075  1.00  0.00    -0.354 N 
ATOM     12  H   UNL     1       5.949  47.527  51.665  1.00  0.00     0.163 HD
BRANCH  11  13
ATOM     13  C   UNL     1       7.879  46.707  51.521  1.00  0.00     0.116 C 
BRANCH  13  14
ATOM     14  C   UNL     1       8.848  47.615  52.285  1.00  0.00     0.021 C 
BRANCH  14  15
ATOM     15  C   UNL     1       9.923  46.834  53.046  1.00  0.00    -0.002 C 
ATOM     16  C   UNL     1      10.000  47.270  54.501  1.00  0.00     0.004 C 
ENDBRANCH  14  15
ENDBRANCH  13  14
ENDBRANCH  11  13
ENDBRANCH   1  11
BRANCH   3  17
ATOM     17  N   UNL     1       2.991  44.204  53.758  1.00  0.00    -0.339 N 
ATOM     18  H   UNL     1       3.312  43.599  54.511  1.00  0.00     0.168 HD
BRANCH  17  19
ATOM     19  C   UNL     1       1.617  44.026  53.505  1.00  0.00     0.040 A 
ATOM     20  C   UNL     1       0.897  45.099  52.963  1.00  0.00     0.027 A 
ATOM     21  C   UNL     1       0.927  42.846  53.796  1.00  0.00     0.027 A 
ATOM     22  C   UNL     1      -0.473  44.994  52.696  1.00  0.00     0.014 A 
ATOM     23  C   UNL     1      -0.443  42.733  53.533  1.00  0.00     0.014 A 
ATOM     24  C   UNL     1      -1.151  43.805  52.978  1.00  0.00     0.017 A 
BRANCH  24  25
ATOM     25  C   UNL     1      -2.611  43.637  52.717  1.00  0.00     0.159 C 
ATOM     26  C   UNL     1      -3.532  44.810  52.932  1.00  0.00     0.093 C 
ATOM     27  O   UNL     1      -3.045  42.551  52.334  1.00  0.00    -0.295 OA
ENDBRANCH  24  25
ENDBRANCH  17  19
ENDBRANCH   3  17
TORSDOF 7
ENDMDL
MODEL 14
REMARK VINA RESULT:    -7.701      3.202      6.770
REMARK INTER + INTRA:         -11.890
REMARK INTER:                 -10.636
REMARK INTRA:                  -1.254
REMARK UNBOUND:                -1.037
REMARK SMILES CCCCNc1nc(Nc2ccc(C(C)=O)cc2)c2cnn(C)c2n1
REMARK SMILES IDX 6 1 7 2 8 3 19 4 20 5 21 6 22 7 23 8 24 9 25 10 5 11 4 13
REMARK SMILES IDX 3 14 2 15 1 16 9 17 10 19 11 20 18 21 12 22 17 23 13 24
REMARK SMILES IDX 14 25 15 26 16 27
REMARK H PARENT 5 12 9 18
ROOT
ATOM      1  C   UNL     1       7.173  45.460  50.649  1.00  0.00     0.226 A 
ATOM      2  N   UNL     1       5.852  45.686  50.800  1.00  0.00    -0.195 NA
ATOM      3  C   UNL     1       5.389  46.306  51.912  1.00  0.00     0.147 A 
ATOM      4  C   UNL     1       6.314  46.657  52.897  1.00  0.00     0.082 A 
ATOM      5  C   UNL     1       6.326  47.229  54.185  1.00  0.00     0.149 A 
ATOM      6  N   UNL     1       7.559  47.336  54.695  1.00  0.00    -0.179 NA
ATOM      7  N   UNL     1       8.340  46.802  53.728  1.00  0.00    -0.250 N 
ATOM      8  C   UNL     1       9.765  46.722  53.931  1.00  0.00     0.176 C 
ATOM      9  C   UNL     1       7.640  46.376  52.632  1.00  0.00     0.165 A 
ATOM     10  N   UNL     1       8.128  45.796  51.526  1.00  0.00    -0.193 NA
ENDROOT
BRANCH   1  11
ATOM     11  N   UNL     1       7.636  44.829  49.500  1.00  0.00    -0.354 N 
ATOM     12  H   UNL     1       7.051  45.176  48.747  1.00  0.00     0.163 HD
BRANCH  11  13
ATOM     13  C   UNL     1       7.740  43.384  49.603  1.00  0.00     0.116 C 
BRANCH  13  14
ATOM     14  C   UNL     1       6.491  42.714  49.021  1.00  0.00     0.021 C 
BRANCH  14  15
ATOM     15  C   UNL     1       5.847  41.714  49.986  1.00  0.00    -0.002 C 
ATOM     16  C   UNL     1       4.723  42.358  50.782  1.00  0.00     0.004 C 
ENDBRANCH  14  15
ENDBRANCH  13  14
ENDBRANCH  11  13
ENDBRANCH   1  11
BRANCH   3  17
ATOM     17  N   UNL     1       4.001  46.486  52.003  1.00  0.00    -0.339 N 
ATOM     18  H   UNL     1       3.844  47.294  52.602  1.00  0.00     0.168 HD
BRANCH  17  19
ATOM     19  C   UNL     1       2.995  45.515  52.175  1.00  0.00     0.040 A 
ATOM     20  C   UNL     1       2.865  44.908  53.431  1.00  0.00     0.027 A 
ATOM     21  C   UNL     1       2.140  45.102  51.149  1.00  0.00     0.027 A 
ATOM     22  C   UNL     1       1.894  43.929  53.669  1.00  0.00     0.014 A 
ATOM     23  C   UNL     1       1.167  44.121  51.378  1.00  0.00     0.014 A 
ATOM     24  C   UNL     1       1.035  43.532  52.641  1.00  0.00     0.017 A 
BRANCH  24  25
ATOM     25  C   UNL     1      -0.017  42.491  52.835  1.00  0.00     0.159 C 
ATOM     26  C   UNL     1      -1.202  42.467  51.904  1.00  0.00     0.093 C 
ATOM     27  O   UNL     1       0.091  41.672  53.747  1.00  0.00    -0.295 OA
ENDBRANCH  24  25
ENDBRANCH  17  19
ENDBRANCH   3  17
TORSDOF 7
ENDMDL
MODEL 15
REMARK VINA RESULT:    -7.696      3.290      6.653
REMARK INTER + INTRA:         -11.883
REMARK INTER:                 -10.652
REMARK INTRA:                  -1.231
REMARK UNBOUND:                -1.037
REMARK SMILES CCCCNc1nc(Nc2ccc(C(C)=O)cc2)c2cnn(C)c2n1
REMARK SMILES IDX 6 1 7 2 8 3 19 4 20 5 21 6 22 7 23 8 24 9 25 10 5 11 4 13
REMARK SMILES IDX 3 14 2 15 1 16 9 17 10 19 11 20 18 21 12 22 17 23 13 24
REMARK SMILES IDX 14 25 15 26 16 27
REMARK H PARENT 5 12 9 18
ROOT
ATOM      1  C   UNL     1       7.110  44.689  50.246  1.00  0.00     0.226 A 
ATOM      2  N   UNL     1       5.802  44.992  50.362  1.00  0.00    -0.195 NA
ATOM      3  C   UNL     1       5.396  45.941  51.240  1.00  0.00     0.147 A 
ATOM      4  C   UNL     1       6.367  46.551  52.036  1.00  0.00     0.082 A 
ATOM      5  C   UNL     1       6.442  47.494  53.081  1.00  0.00     0.149 A 
ATOM      6  N   UNL     1       7.696  47.715  53.492  1.00  0.00    -0.179 NA
ATOM      7  N   UNL     1       8.427  46.884  52.715  1.00  0.00    -0.250 N 
ATOM      8  C   UNL     1       9.857  46.826  52.887  1.00  0.00     0.176 C 
ATOM      9  C   UNL     1       7.675  46.161  51.830  1.00  0.00     0.165 A 
ATOM     10  N   UNL     1       8.106  45.250  50.944  1.00  0.00    -0.193 NA
ENDROOT
BRANCH   1  11
ATOM     11  N   UNL     1       7.514  43.717  49.337  1.00  0.00    -0.354 N 
ATOM     12  H   UNL     1       7.989  44.222  48.596  1.00  0.00     0.163 HD
BRANCH  11  13
ATOM     13  C   UNL     1       6.462  42.813  48.909  1.00  0.00     0.116 C 
BRANCH  13  14
ATOM     14  C   UNL     1       6.328  41.644  49.891  1.00  0.00     0.021 C 
BRANCH  14  15
ATOM     15  C   UNL     1       4.876  41.203  50.099  1.00  0.00    -0.002 C 
ATOM     16  C   UNL     1       4.229  41.951  51.254  1.00  0.00     0.004 C 
ENDBRANCH  14  15
ENDBRANCH  13  14
ENDBRANCH  11  13
ENDBRANCH   1  11
BRANCH   3  17
ATOM     17  N   UNL     1       4.016  46.184  51.315  1.00  0.00    -0.339 N 
ATOM     18  H   UNL     1       3.899  47.174  51.519  1.00  0.00     0.168 HD
BRANCH  17  19
ATOM     19  C   UNL     1       3.016  45.410  51.935  1.00  0.00     0.040 A 
ATOM     20  C   UNL     1       1.975  44.910  51.142  1.00  0.00     0.027 A 
ATOM     21  C   UNL     1       2.990  45.142  53.307  1.00  0.00     0.027 A 
ATOM     22  C   UNL     1       0.944  44.142  51.695  1.00  0.00     0.014 A 
ATOM     23  C   UNL     1       1.961  44.376  53.868  1.00  0.00     0.014 A 
ATOM     24  C   UNL     1       0.934  43.868  53.065  1.00  0.00     0.017 A 
BRANCH  24  25
ATOM     25  C   UNL     1      -0.141  43.057  53.710  1.00  0.00     0.159 C 
ATOM     26  C   UNL     1      -1.067  43.723  54.695  1.00  0.00     0.093 C 
ATOM     27  O   UNL     1      -0.258  41.864  53.435  1.00  0.00    -0.295 OA
ENDBRANCH  24  25
ENDBRANCH  17  19
ENDBRANCH   3  17
TORSDOF 7
ENDMDL
MODEL 16
REMARK VINA RESULT:    -7.646      3.193      6.753
REMARK INTER + INTRA:         -11.813
REMARK INTER:                 -10.521
REMARK INTRA:                  -1.292
REMARK UNBOUND:                -1.037
REMARK SMILES CCCCNc1nc(Nc2ccc(C(C)=O)cc2)c2cnn(C)c2n1
REMARK SMILES IDX 6 1 7 2 8 3 19 4 20 5 21 6 22 7 23 8 24 9 25 10 5 11 4 13
REMARK SMILES IDX 3 14 2 15 1 16 9 17 10 19 11 20 18 21 12 22 17 23 13 24
REMARK SMILES IDX 14 25 15 26 16 27
REMARK H PARENT 5 12 9 18
ROOT
ATOM      1  C   UNL     1       6.780  44.174  50.035  1.00  0.00     0.226 A 
ATOM      2  N   UNL     1       5.547  44.544  50.434  1.00  0.00    -0.195 NA
ATOM      3  C   UNL     1       5.387  45.605  51.263  1.00  0.00     0.147 A 
ATOM      4  C   UNL     1       6.535  46.260  51.712  1.00  0.00     0.082 A 
ATOM      5  C   UNL     1       6.882  47.313  52.582  1.00  0.00     0.149 A 
ATOM      6  N   UNL     1       8.202  47.526  52.639  1.00  0.00    -0.179 NA
ATOM      7  N   UNL     1       8.703  46.580  51.811  1.00  0.00    -0.250 N 
ATOM      8  C   UNL     1      10.130  46.482  51.628  1.00  0.00     0.176 C 
ATOM      9  C   UNL     1       7.744  45.793  51.236  1.00  0.00     0.165 A 
ATOM     10  N   UNL     1       7.927  44.769  50.389  1.00  0.00    -0.193 NA
ENDROOT
BRANCH   1  11
ATOM     11  N   UNL     1       6.930  43.088  49.180  1.00  0.00    -0.354 N 
ATOM     12  H   UNL     1       6.469  43.359  48.317  1.00  0.00     0.163 HD
BRANCH  11  13
ATOM     13  C   UNL     1       6.520  41.813  49.741  1.00  0.00     0.116 C 
BRANCH  13  14
ATOM     14  C   UNL     1       5.394  41.198  48.904  1.00  0.00     0.021 C 
BRANCH  14  15
ATOM     15  C   UNL     1       4.062  41.127  49.656  1.00  0.00    -0.002 C 
ATOM     16  C   UNL     1       4.232  41.499  51.121  1.00  0.00     0.004 C 
ENDBRANCH  14  15
ENDBRANCH  13  14
ENDBRANCH  11  13
ENDBRANCH   1  11
BRANCH   3  17
ATOM     17  N   UNL     1       4.074  45.913  51.648  1.00  0.00    -0.339 N 
ATOM     18  H   UNL     1       4.133  46.669  52.327  1.00  0.00     0.168 HD
BRANCH  17  19
ATOM     19  C   UNL     1       3.013  45.036  51.948  1.00  0.00     0.040 A 
ATOM     20  C   UNL     1       2.083  44.750  50.940  1.00  0.00     0.027 A 
ATOM     21  C   UNL     1       2.821  44.462  53.208  1.00  0.00     0.027 A 
ATOM     22  C   UNL     1       0.999  43.895  51.172  1.00  0.00     0.014 A 
ATOM     23  C   UNL     1       1.739  43.607  53.449  1.00  0.00     0.014 A 
ATOM     24  C   UNL     1       0.823  43.315  52.431  1.00  0.00     0.017 A 
BRANCH  24  25
ATOM     25  C   UNL     1      -0.315  42.398  52.737  1.00  0.00     0.159 C 
ATOM     26  C   UNL     1      -1.559  42.470  51.890  1.00  0.00     0.093 C 
ATOM     27  O   UNL     1      -0.227  41.601  53.670  1.00  0.00    -0.295 OA
ENDBRANCH  24  25
ENDBRANCH  17  19
ENDBRANCH   3  17
TORSDOF 7
ENDMDL
MODEL 17
REMARK VINA RESULT:    -7.536      2.807      5.101
REMARK INTER + INTRA:         -11.657
REMARK INTER:                 -10.900
REMARK INTRA:                  -0.757
REMARK UNBOUND:                -1.037
REMARK SMILES CCCCNc1nc(Nc2ccc(C(C)=O)cc2)c2cnn(C)c2n1
REMARK SMILES IDX 6 1 7 2 8 3 19 4 20 5 21 6 22 7 23 8 24 9 25 10 5 11 4 13
REMARK SMILES IDX 3 14 2 15 1 16 9 17 10 19 11 20 18 21 12 22 17 23 13 24
REMARK SMILES IDX 14 25 15 26 16 27
REMARK H PARENT 5 12 9 18
ROOT
ATOM      1  C   UNL     1       0.555  45.039  54.432  1.00  0.00     0.226 A 
ATOM      2  N   UNL     1       1.883  44.824  54.516  1.00  0.00    -0.195 NA
ATOM      3  C   UNL     1       2.547  44.242  53.487  1.00  0.00     0.147 A 
ATOM      4  C   UNL     1       1.804  43.843  52.374  1.00  0.00     0.082 A 
ATOM      5  C   UNL     1       2.005  43.178  51.148  1.00  0.00     0.149 A 
ATOM      6  N   UNL     1       0.882  43.059  50.431  1.00  0.00    -0.179 NA
ATOM      7  N   UNL     1      -0.052  43.635  51.222  1.00  0.00    -0.250 N 
ATOM      8  C   UNL     1      -1.425  43.679  50.783  1.00  0.00     0.176 C 
ATOM      9  C   UNL     1       0.450  44.115  52.401  1.00  0.00     0.165 A 
ATOM     10  N   UNL     1      -0.223  44.721  53.390  1.00  0.00    -0.193 NA
ENDROOT
BRANCH   1  11
ATOM     11  N   UNL     1      -0.112  45.643  55.492  1.00  0.00    -0.354 N 
ATOM     12  H   UNL     1      -0.006  46.641  55.344  1.00  0.00     0.163 HD
BRANCH  11  13
ATOM     13  C   UNL     1       0.270  45.156  56.805  1.00  0.00     0.116 C 
BRANCH  13  14
ATOM     14  C   UNL     1       0.832  46.299  57.657  1.00  0.00     0.021 C 
BRANCH  14  15
ATOM     15  C   UNL     1      -0.261  47.165  58.289  1.00  0.00    -0.002 C 
ATOM     16  C   UNL     1       0.238  47.857  59.548  1.00  0.00     0.004 C 
ENDBRANCH  14  15
ENDBRANCH  13  14
ENDBRANCH  11  13
ENDBRANCH   1  11
BRANCH   3  17
ATOM     17  N   UNL     1       3.923  44.034  53.660  1.00  0.00    -0.339 N 
ATOM     18  H   UNL     1       4.038  43.500  54.518  1.00  0.00     0.168 HD
BRANCH  17  19
ATOM     19  C   UNL     1       4.983  44.943  53.474  1.00  0.00     0.040 A 
ATOM     20  C   UNL     1       5.274  45.368  52.171  1.00  0.00     0.027 A 
ATOM     21  C   UNL     1       5.781  45.419  54.519  1.00  0.00     0.027 A 
ATOM     22  C   UNL     1       6.320  46.262  51.914  1.00  0.00     0.014 A 
ATOM     23  C   UNL     1       6.830  46.312  54.270  1.00  0.00     0.014 A 
ATOM     24  C   UNL     1       7.104  46.742  52.967  1.00  0.00     0.017 A 
BRANCH  24  25
ATOM     25  C   UNL     1       8.233  47.695  52.753  1.00  0.00     0.159 C 
ATOM     26  C   UNL     1       9.647  47.191  52.879  1.00  0.00     0.093 C 
ATOM     27  O   UNL     1       8.000  48.871  52.479  1.00  0.00    -0.295 OA
ENDBRANCH  24  25
ENDBRANCH  17  19
ENDBRANCH   3  17
TORSDOF 7
ENDMDL
