MODEL 1
REMARK VINA RESULT:    -8.037      0.000      0.000
REMARK INTER + INTRA:         -12.637
REMARK INTER:                 -11.326
REMARK INTRA:                  -1.311
REMARK UNBOUND:                -1.311
REMARK SMILES Cn1ncc2c(Nc3ccc(Cl)cc3)nc(NCCC[NH+](C)C)nc21
REMARK SMILES IDX 18 1 19 2 20 3 21 4 22 5 23 6 17 8 16 10 15 11 24 12 6 13
REMARK SMILES IDX 25 14 5 15 2 16 4 17 3 18 1 19 7 20 8 22 9 23 14 24 10 25
REMARK SMILES IDX 13 26 11 27 12 28
REMARK H PARENT 21 7 17 9 7 21
ROOT
ATOM      1  C   UNL     1       2.743  44.154  53.022  1.00  0.00     0.122 C 
ENDROOT
BRANCH   1   2
ATOM      2  C   UNL     1       2.002  45.117  53.953  1.00  0.00     0.083 C 
BRANCH   2   3
ATOM      3  C   UNL     1       2.910  45.554  55.095  1.00  0.00     0.263 C 
BRANCH   3   4
ATOM      4  N   UNL     1       4.284  45.992  54.626  1.00  0.00    -0.340 N 
ATOM      5  C   UNL     1       5.423  45.301  55.322  1.00  0.00     0.332 C 
ATOM      6  C   UNL     1       4.468  47.486  54.585  1.00  0.00     0.332 C 
ATOM      7  H   UNL     1       4.338  45.688  53.644  1.00  0.00     0.347 HD
ENDBRANCH   3   4
ENDBRANCH   2   3
ENDBRANCH   1   2
BRANCH   1   8
ATOM      8  N   UNL     1       2.997  44.822  51.766  1.00  0.00    -0.354 N 
ATOM      9  H   UNL     1       2.429  44.560  50.966  1.00  0.00     0.163 HD
BRANCH   8  10
ATOM     10  C   UNL     1       4.313  44.765  51.314  1.00  0.00     0.226 A 
ATOM     11  N   UNL     1       5.167  45.756  51.629  1.00  0.00    -0.195 NA
ATOM     12  N   UNL     1       4.603  43.684  50.583  1.00  0.00    -0.193 NA
ATOM     13  C   UNL     1       6.447  45.746  51.165  1.00  0.00     0.147 A 
ATOM     14  C   UNL     1       5.864  43.690  50.127  1.00  0.00     0.165 A 
ATOM     15  C   UNL     1       6.820  44.660  50.364  1.00  0.00     0.082 A 
ATOM     16  N   UNL     1       6.467  42.752  49.332  1.00  0.00    -0.250 N 
ATOM     17  C   UNL     1       7.960  44.204  49.671  1.00  0.00     0.149 A 
ATOM     18  N   UNL     1       7.756  43.042  49.041  1.00  0.00    -0.179 NA
ATOM     19  C   UNL     1       5.877  41.549  48.804  1.00  0.00     0.176 C 
BRANCH  13  20
ATOM     20  N   UNL     1       7.339  46.792  51.444  1.00  0.00    -0.339 N 
ATOM     21  H   UNL     1       7.334  47.532  50.754  1.00  0.00     0.168 HD
BRANCH  20  22
ATOM     22  C   UNL     1       8.261  46.983  52.486  1.00  0.00     0.040 A 
ATOM     23  C   UNL     1       7.855  47.703  53.623  1.00  0.00     0.027 A 
ATOM     24  C   UNL     1       9.554  46.447  52.479  1.00  0.00     0.027 A 
ATOM     25  C   UNL     1       8.717  47.892  54.708  1.00  0.00     0.022 A 
ATOM     26  C   UNL     1      10.423  46.637  53.559  1.00  0.00     0.022 A 
ATOM     27  C   UNL     1      10.000  47.357  54.670  1.00  0.00     0.041 A 
ATOM     28  Cl  UNL     1      11.067  47.581  56.000  1.00  0.00    -0.084 Cl
ENDBRANCH  20  22
ENDBRANCH  13  20
ENDBRANCH   8  10
ENDBRANCH   1   8
TORSDOF 7
ENDMDL
MODEL 2
REMARK VINA RESULT:    -8.010      1.055      1.169
REMARK INTER + INTRA:         -12.599
REMARK INTER:                 -11.418
REMARK INTRA:                  -1.181
REMARK UNBOUND:                -1.311
REMARK SMILES Cn1ncc2c(Nc3ccc(Cl)cc3)nc(NCCC[NH+](C)C)nc21
REMARK SMILES IDX 18 1 19 2 20 3 21 4 22 5 23 6 17 8 16 10 15 11 24 12 6 13
REMARK SMILES IDX 25 14 5 15 2 16 4 17 3 18 1 19 7 20 8 22 9 23 14 24 10 25
REMARK SMILES IDX 13 26 11 27 12 28
REMARK H PARENT 21 7 17 9 7 21
ROOT
ATOM      1  C   UNL     1       1.648  44.894  52.685  1.00  0.00     0.122 C 
ENDROOT
BRANCH   1   2
ATOM      2  C   UNL     1       1.770  45.633  54.020  1.00  0.00     0.083 C 
BRANCH   2   3
ATOM      3  C   UNL     1       2.849  44.992  54.883  1.00  0.00     0.263 C 
BRANCH   3   4
ATOM      4  N   UNL     1       4.227  45.574  54.639  1.00  0.00    -0.340 N 
ATOM      5  C   UNL     1       5.318  44.943  55.458  1.00  0.00     0.332 C 
ATOM      6  C   UNL     1       4.275  47.078  54.695  1.00  0.00     0.332 C 
ATOM      7  H   UNL     1       4.446  45.336  53.662  1.00  0.00     0.347 HD
ENDBRANCH   3   4
ENDBRANCH   2   3
ENDBRANCH   1   2
BRANCH   1   8
ATOM      8  N   UNL     1       2.410  45.608  51.686  1.00  0.00    -0.354 N 
ATOM      9  H   UNL     1       1.943  45.850  50.816  1.00  0.00     0.163 HD
BRANCH   8  10
ATOM     10  C   UNL     1       3.606  45.007  51.304  1.00  0.00     0.226 A 
ATOM     11  N   UNL     1       4.747  45.720  51.331  1.00  0.00    -0.195 NA
ATOM     12  N   UNL     1       3.492  43.728  50.933  1.00  0.00    -0.193 NA
ATOM     13  C   UNL     1       5.923  45.170  50.922  1.00  0.00     0.147 A 
ATOM     14  C   UNL     1       4.656  43.200  50.526  1.00  0.00     0.165 A 
ATOM     15  C   UNL     1       5.880  43.839  50.488  1.00  0.00     0.082 A 
ATOM     16  N   UNL     1       4.878  41.931  50.061  1.00  0.00    -0.250 N 
ATOM     17  C   UNL     1       6.769  42.864  49.990  1.00  0.00     0.149 A 
ATOM     18  N   UNL     1       6.168  41.699  49.729  1.00  0.00    -0.179 NA
ATOM     19  C   UNL     1       3.906  40.880  49.899  1.00  0.00     0.176 C 
BRANCH  13  20
ATOM     20  N   UNL     1       7.114  45.911  50.900  1.00  0.00    -0.339 N 
ATOM     21  H   UNL     1       7.413  46.181  49.972  1.00  0.00     0.168 HD
BRANCH  20  22
ATOM     22  C   UNL     1       7.984  46.315  51.926  1.00  0.00     0.040 A 
ATOM     23  C   UNL     1       7.434  46.744  53.146  1.00  0.00     0.027 A 
ATOM     24  C   UNL     1       9.378  46.264  51.820  1.00  0.00     0.027 A 
ATOM     25  C   UNL     1       8.250  47.122  54.217  1.00  0.00     0.022 A 
ATOM     26  C   UNL     1      10.201  46.646  52.885  1.00  0.00     0.022 A 
ATOM     27  C   UNL     1       9.634  47.071  54.080  1.00  0.00     0.041 A 
ATOM     28  Cl  UNL     1      10.646  47.531  55.391  1.00  0.00    -0.084 Cl
ENDBRANCH  20  22
ENDBRANCH  13  20
ENDBRANCH   8  10
ENDBRANCH   1   8
TORSDOF 7
ENDMDL
MODEL 3
REMARK VINA RESULT:    -7.915      1.417      1.759
REMARK INTER + INTRA:         -12.464
REMARK INTER:                 -11.475
REMARK INTRA:                  -0.990
REMARK UNBOUND:                -1.311
REMARK SMILES Cn1ncc2c(Nc3ccc(Cl)cc3)nc(NCCC[NH+](C)C)nc21
REMARK SMILES IDX 18 1 19 2 20 3 21 4 22 5 23 6 17 8 16 10 15 11 24 12 6 13
REMARK SMILES IDX 25 14 5 15 2 16 4 17 3 18 1 19 7 20 8 22 9 23 14 24 10 25
REMARK SMILES IDX 13 26 11 27 12 28
REMARK H PARENT 21 7 17 9 7 21
ROOT
ATOM      1  C   UNL     1       1.094  44.910  52.067  1.00  0.00     0.122 C 
ENDROOT
BRANCH   1   2
ATOM      2  C   UNL     1       0.629  44.966  53.524  1.00  0.00     0.083 C 
BRANCH   2   3
ATOM      3  C   UNL     1       1.437  43.995  54.375  1.00  0.00     0.263 C 
BRANCH   3   4
ATOM      4  N   UNL     1       2.056  44.648  55.595  1.00  0.00    -0.340 N 
ATOM      5  C   UNL     1       1.088  45.443  56.426  1.00  0.00     0.332 C 
ATOM      6  C   UNL     1       3.317  45.417  55.304  1.00  0.00     0.332 C 
ATOM      7  H   UNL     1       2.352  43.865  56.194  1.00  0.00     0.347 HD
ENDBRANCH   3   4
ENDBRANCH   2   3
ENDBRANCH   1   2
BRANCH   1   8
ATOM      8  N   UNL     1       2.181  45.845  51.888  1.00  0.00    -0.354 N 
ATOM      9  H   UNL     1       2.046  46.611  51.233  1.00  0.00     0.163 HD
BRANCH   8  10
ATOM     10  C   UNL     1       3.405  45.279  51.540  1.00  0.00     0.226 A 
ATOM     11  N   UNL     1       4.517  46.036  51.563  1.00  0.00    -0.195 NA
ATOM     12  N   UNL     1       3.344  43.987  51.204  1.00  0.00    -0.193 NA
ATOM     13  C   UNL     1       5.720  45.519  51.186  1.00  0.00     0.147 A 
ATOM     14  C   UNL     1       4.533  43.492  50.829  1.00  0.00     0.165 A 
ATOM     15  C   UNL     1       5.733  44.177  50.790  1.00  0.00     0.082 A 
ATOM     16  N   UNL     1       4.810  42.221  50.403  1.00  0.00    -0.250 N 
ATOM     17  C   UNL     1       6.665  43.223  50.333  1.00  0.00     0.149 A 
ATOM     18  N   UNL     1       6.113  42.028  50.096  1.00  0.00    -0.179 NA
ATOM     19  C   UNL     1       3.880  41.130  50.258  1.00  0.00     0.176 C 
BRANCH  13  20
ATOM     20  N   UNL     1       6.882  46.304  51.160  1.00  0.00    -0.339 N 
ATOM     21  H   UNL     1       7.090  46.701  50.253  1.00  0.00     0.168 HD
BRANCH  20  22
ATOM     22  C   UNL     1       7.827  46.610  52.152  1.00  0.00     0.040 A 
ATOM     23  C   UNL     1       7.369  47.043  53.409  1.00  0.00     0.027 A 
ATOM     24  C   UNL     1       9.207  46.457  51.978  1.00  0.00     0.027 A 
ATOM     25  C   UNL     1       8.261  47.326  54.449  1.00  0.00     0.022 A 
ATOM     26  C   UNL     1      10.106  46.743  53.011  1.00  0.00     0.022 A 
ATOM     27  C   UNL     1       9.629  47.174  54.243  1.00  0.00     0.041 A 
ATOM     28  Cl  UNL     1      10.734  47.516  55.515  1.00  0.00    -0.084 Cl
ENDBRANCH  20  22
ENDBRANCH  13  20
ENDBRANCH   8  10
ENDBRANCH   1   8
TORSDOF 7
ENDMDL
MODEL 4
REMARK VINA RESULT:    -7.898      1.928      5.348
REMARK INTER + INTRA:         -12.441
REMARK INTER:                 -11.710
REMARK INTRA:                  -0.731
REMARK UNBOUND:                -1.311
REMARK SMILES Cn1ncc2c(Nc3ccc(Cl)cc3)nc(NCCC[NH+](C)C)nc21
REMARK SMILES IDX 18 1 19 2 20 3 21 4 22 5 23 6 17 8 16 10 15 11 24 12 6 13
REMARK SMILES IDX 25 14 5 15 2 16 4 17 3 18 1 19 7 20 8 22 9 23 14 24 10 25
REMARK SMILES IDX 13 26 11 27 12 28
REMARK H PARENT 21 7 17 9 7 21
ROOT
ATOM      1  C   UNL     1       5.782  41.546  50.061  1.00  0.00     0.122 C 
ENDROOT
BRANCH   1   2
ATOM      2  C   UNL     1       5.383  41.329  48.599  1.00  0.00     0.083 C 
BRANCH   2   3
ATOM      3  C   UNL     1       4.104  40.506  48.516  1.00  0.00     0.263 C 
BRANCH   3   4
ATOM      4  N   UNL     1       3.911  39.843  47.166  1.00  0.00    -0.340 N 
ATOM      5  C   UNL     1       3.719  40.806  46.028  1.00  0.00     0.332 C 
ATOM      6  C   UNL     1       2.876  38.750  47.164  1.00  0.00     0.332 C 
ATOM      7  H   UNL     1       4.803  39.368  46.975  1.00  0.00     0.347 HD
ENDBRANCH   3   4
ENDBRANCH   2   3
ENDBRANCH   1   2
BRANCH   1   8
ATOM      8  N   UNL     1       4.603  41.902  50.819  1.00  0.00    -0.354 N 
ATOM      9  H   UNL     1       3.698  41.640  50.439  1.00  0.00     0.163 HD
BRANCH   8  10
ATOM     10  C   UNL     1       4.487  43.251  51.142  1.00  0.00     0.226 A 
ATOM     11  N   UNL     1       5.557  44.058  51.021  1.00  0.00    -0.195 NA
ATOM     12  N   UNL     1       3.272  43.620  51.559  1.00  0.00    -0.193 NA
ATOM     13  C   UNL     1       5.482  45.372  51.371  1.00  0.00     0.147 A 
ATOM     14  C   UNL     1       3.213  44.914  51.907  1.00  0.00     0.165 A 
ATOM     15  C   UNL     1       4.247  45.829  51.848  1.00  0.00     0.082 A 
ATOM     16  N   UNL     1       2.132  45.597  52.397  1.00  0.00    -0.250 N 
ATOM     17  C   UNL     1       3.678  47.030  52.318  1.00  0.00     0.149 A 
ATOM     18  N   UNL     1       2.390  46.899  52.653  1.00  0.00    -0.179 NA
ATOM     19  C   UNL     1       0.814  45.074  52.652  1.00  0.00     0.176 C 
BRANCH  13  20
ATOM     20  N   UNL     1       6.598  46.219  51.295  1.00  0.00    -0.339 N 
ATOM     21  H   UNL     1       6.722  46.656  50.392  1.00  0.00     0.168 HD
BRANCH  20  22
ATOM     22  C   UNL     1       7.592  46.542  52.233  1.00  0.00     0.040 A 
ATOM     23  C   UNL     1       7.204  46.851  53.548  1.00  0.00     0.027 A 
ATOM     24  C   UNL     1       8.961  46.522  51.943  1.00  0.00     0.027 A 
ATOM     25  C   UNL     1       8.152  47.143  54.535  1.00  0.00     0.022 A 
ATOM     26  C   UNL     1       9.914  46.819  52.923  1.00  0.00     0.022 A 
ATOM     27  C   UNL     1       9.506  47.126  54.216  1.00  0.00     0.041 A 
ATOM     28  Cl  UNL     1      10.679  47.481  55.421  1.00  0.00    -0.084 Cl
ENDBRANCH  20  22
ENDBRANCH  13  20
ENDBRANCH   8  10
ENDBRANCH   1   8
TORSDOF 7
ENDMDL
MODEL 5
REMARK VINA RESULT:    -7.874      1.378      1.788
REMARK INTER + INTRA:         -12.407
REMARK INTER:                 -11.565
REMARK INTRA:                  -0.842
REMARK UNBOUND:                -1.311
REMARK SMILES Cn1ncc2c(Nc3ccc(Cl)cc3)nc(NCCC[NH+](C)C)nc21
REMARK SMILES IDX 18 1 19 2 20 3 21 4 22 5 23 6 17 8 16 10 15 11 24 12 6 13
REMARK SMILES IDX 25 14 5 15 2 16 4 17 3 18 1 19 7 20 8 22 9 23 14 24 10 25
REMARK SMILES IDX 13 26 11 27 12 28
REMARK H PARENT 21 7 17 9 7 21
ROOT
ATOM      1  C   UNL     1       2.229  42.886  52.348  1.00  0.00     0.122 C 
ENDROOT
BRANCH   1   2
ATOM      2  C   UNL     1       1.044  43.170  53.274  1.00  0.00     0.083 C 
BRANCH   2   3
ATOM      3  C   UNL     1       0.349  44.462  52.864  1.00  0.00     0.263 C 
BRANCH   3   4
ATOM      4  N   UNL     1       0.908  45.684  53.565  1.00  0.00    -0.340 N 
ATOM      5  C   UNL     1       1.965  46.413  52.784  1.00  0.00     0.332 C 
ATOM      6  C   UNL     1       1.328  45.434  54.989  1.00  0.00     0.332 C 
ATOM      7  H   UNL     1       0.116  46.338  53.630  1.00  0.00     0.347 HD
ENDBRANCH   3   4
ENDBRANCH   2   3
ENDBRANCH   1   2
BRANCH   1   8
ATOM      8  N   UNL     1       3.445  43.316  53.002  1.00  0.00    -0.354 N 
ATOM      9  H   UNL     1       3.385  44.097  53.648  1.00  0.00     0.163 HD
BRANCH   8  10
ATOM     10  C   UNL     1       4.503  43.625  52.151  1.00  0.00     0.226 A 
ATOM     11  N   UNL     1       5.224  44.741  52.367  1.00  0.00    -0.195 NA
ATOM     12  N   UNL     1       4.701  42.743  51.167  1.00  0.00    -0.193 NA
ATOM     13  C   UNL     1       6.237  45.089  51.526  1.00  0.00     0.147 A 
ATOM     14  C   UNL     1       5.697  43.101  50.343  1.00  0.00     0.165 A 
ATOM     15  C   UNL     1       6.487  44.230  50.449  1.00  0.00     0.082 A 
ATOM     16  N   UNL     1       6.135  42.437  49.228  1.00  0.00    -0.250 N 
ATOM     17  C   UNL     1       7.370  44.144  49.353  1.00  0.00     0.149 A 
ATOM     18  N   UNL     1       7.164  43.055  48.604  1.00  0.00    -0.179 NA
ATOM     19  C   UNL     1       5.618  41.205  48.688  1.00  0.00     0.176 C 
BRANCH  13  20
ATOM     20  N   UNL     1       6.970  46.271  51.707  1.00  0.00    -0.339 N 
ATOM     21  H   UNL     1       6.767  46.990  51.025  1.00  0.00     0.168 HD
BRANCH  20  22
ATOM     22  C   UNL     1       7.958  46.625  52.640  1.00  0.00     0.040 A 
ATOM     23  C   UNL     1       7.558  47.156  53.878  1.00  0.00     0.027 A 
ATOM     24  C   UNL     1       9.327  46.429  52.426  1.00  0.00     0.027 A 
ATOM     25  C   UNL     1       8.494  47.492  54.861  1.00  0.00     0.022 A 
ATOM     26  C   UNL     1      10.270  46.767  53.402  1.00  0.00     0.022 A 
ATOM     27  C   UNL     1       9.850  47.296  54.617  1.00  0.00     0.041 A 
ATOM     28  Cl  UNL     1      11.009  47.702  55.820  1.00  0.00    -0.084 Cl
ENDBRANCH  20  22
ENDBRANCH  13  20
ENDBRANCH   8  10
ENDBRANCH   1   8
TORSDOF 7
ENDMDL
MODEL 6
REMARK VINA RESULT:    -7.753      2.102      5.698
REMARK INTER + INTRA:         -12.236
REMARK INTER:                 -11.596
REMARK INTRA:                  -0.640
REMARK UNBOUND:                -1.311
REMARK SMILES Cn1ncc2c(Nc3ccc(Cl)cc3)nc(NCCC[NH+](C)C)nc21
REMARK SMILES IDX 18 1 19 2 20 3 21 4 22 5 23 6 17 8 16 10 15 11 24 12 6 13
REMARK SMILES IDX 25 14 5 15 2 16 4 17 3 18 1 19 7 20 8 22 9 23 14 24 10 25
REMARK SMILES IDX 13 26 11 27 12 28
REMARK H PARENT 21 7 17 9 7 21
ROOT
ATOM      1  C   UNL     1       5.416  41.224  48.196  1.00  0.00     0.122 C 
ENDROOT
BRANCH   1   2
ATOM      2  C   UNL     1       5.777  41.785  46.818  1.00  0.00     0.083 C 
BRANCH   2   3
ATOM      3  C   UNL     1       4.631  41.566  45.839  1.00  0.00     0.263 C 
BRANCH   3   4
ATOM      4  N   UNL     1       4.543  40.138  45.339  1.00  0.00    -0.340 N 
ATOM      5  C   UNL     1       4.973  39.958  43.910  1.00  0.00     0.332 C 
ATOM      6  C   UNL     1       3.223  39.471  45.622  1.00  0.00     0.332 C 
ATOM      7  H   UNL     1       5.232  39.618  45.899  1.00  0.00     0.347 HD
ENDBRANCH   3   4
ENDBRANCH   2   3
ENDBRANCH   1   2
BRANCH   1   8
ATOM      8  N   UNL     1       6.375  41.707  49.163  1.00  0.00    -0.354 N 
ATOM      9  H   UNL     1       6.781  41.033  49.805  1.00  0.00     0.163 HD
BRANCH   8  10
ATOM     10  C   UNL     1       5.938  42.759  49.964  1.00  0.00     0.226 A 
ATOM     11  N   UNL     1       6.696  43.865  50.079  1.00  0.00    -0.195 NA
ATOM     12  N   UNL     1       4.761  42.551  50.561  1.00  0.00    -0.193 NA
ATOM     13  C   UNL     1       6.313  44.890  50.890  1.00  0.00     0.147 A 
ATOM     14  C   UNL     1       4.399  43.565  51.361  1.00  0.00     0.165 A 
ATOM     15  C   UNL     1       5.103  44.734  51.576  1.00  0.00     0.082 A 
ATOM     16  N   UNL     1       3.271  43.655  52.133  1.00  0.00    -0.250 N 
ATOM     17  C   UNL     1       4.308  45.459  52.488  1.00  0.00     0.149 A 
ATOM     18  N   UNL     1       3.190  44.811  52.831  1.00  0.00    -0.179 NA
ATOM     19  C   UNL     1       2.223  42.676  52.261  1.00  0.00     0.176 C 
BRANCH  13  20
ATOM     20  N   UNL     1       7.111  46.032  51.059  1.00  0.00    -0.339 N 
ATOM     21  H   UNL     1       7.074  46.679  50.283  1.00  0.00     0.168 HD
BRANCH  20  22
ATOM     22  C   UNL     1       7.978  46.422  52.092  1.00  0.00     0.040 A 
ATOM     23  C   UNL     1       7.427  46.807  53.326  1.00  0.00     0.027 A 
ATOM     24  C   UNL     1       9.373  46.398  51.979  1.00  0.00     0.027 A 
ATOM     25  C   UNL     1       8.241  47.169  54.404  1.00  0.00     0.022 A 
ATOM     26  C   UNL     1      10.194  46.764  53.051  1.00  0.00     0.022 A 
ATOM     27  C   UNL     1       9.625  47.146  54.260  1.00  0.00     0.041 A 
ATOM     28  Cl  UNL     1      10.635  47.586  55.580  1.00  0.00    -0.084 Cl
ENDBRANCH  20  22
ENDBRANCH  13  20
ENDBRANCH   8  10
ENDBRANCH   1   8
TORSDOF 7
ENDMDL
MODEL 7
REMARK VINA RESULT:    -7.641      1.564      2.547
REMARK INTER + INTRA:         -12.079
REMARK INTER:                 -11.115
REMARK INTRA:                  -0.964
REMARK UNBOUND:                -1.311
REMARK SMILES Cn1ncc2c(Nc3ccc(Cl)cc3)nc(NCCC[NH+](C)C)nc21
REMARK SMILES IDX 18 1 19 2 20 3 21 4 22 5 23 6 17 8 16 10 15 11 24 12 6 13
REMARK SMILES IDX 25 14 5 15 2 16 4 17 3 18 1 19 7 20 8 22 9 23 14 24 10 25
REMARK SMILES IDX 13 26 11 27 12 28
REMARK H PARENT 21 7 17 9 7 21
ROOT
ATOM      1  C   UNL     1       2.258  46.133  53.445  1.00  0.00     0.122 C 
ENDROOT
BRANCH   1   2
ATOM      2  C   UNL     1       1.212  45.224  54.097  1.00  0.00     0.083 C 
BRANCH   2   3
ATOM      3  C   UNL     1       0.080  44.934  53.121  1.00  0.00     0.263 C 
BRANCH   3   4
ATOM      4  N   UNL     1      -0.141  43.451  52.892  1.00  0.00    -0.340 N 
ATOM      5  C   UNL     1       0.907  42.569  53.512  1.00  0.00     0.332 C 
ATOM      6  C   UNL     1      -0.410  43.087  51.456  1.00  0.00     0.332 C 
ATOM      7  H   UNL     1      -1.013  43.233  53.392  1.00  0.00     0.347 HD
ENDBRANCH   3   4
ENDBRANCH   2   3
ENDBRANCH   1   2
BRANCH   1   8
ATOM      8  N   UNL     1       2.336  45.817  52.036  1.00  0.00    -0.354 N 
ATOM      9  H   UNL     1       1.598  45.245  51.637  1.00  0.00     0.163 HD
BRANCH   8  10
ATOM     10  C   UNL     1       3.524  45.222  51.622  1.00  0.00     0.226 A 
ATOM     11  N   UNL     1       4.662  45.940  51.624  1.00  0.00    -0.195 NA
ATOM     12  N   UNL     1       3.405  43.944  51.250  1.00  0.00    -0.193 NA
ATOM     13  C   UNL     1       5.831  45.395  51.184  1.00  0.00     0.147 A 
ATOM     14  C   UNL     1       4.561  43.422  50.813  1.00  0.00     0.165 A 
ATOM     15  C   UNL     1       5.782  44.066  50.746  1.00  0.00     0.082 A 
ATOM     16  N   UNL     1       4.776  42.156  50.337  1.00  0.00    -0.250 N 
ATOM     17  C   UNL     1       6.661  43.096  50.223  1.00  0.00     0.149 A 
ATOM     18  N   UNL     1       6.058  41.929  49.972  1.00  0.00    -0.179 NA
ATOM     19  C   UNL     1       3.804  41.102  50.196  1.00  0.00     0.176 C 
BRANCH  13  20
ATOM     20  N   UNL     1       7.018  46.141  51.134  1.00  0.00    -0.339 N 
ATOM     21  H   UNL     1       7.271  46.451  50.206  1.00  0.00     0.168 HD
BRANCH  20  22
ATOM     22  C   UNL     1       7.936  46.505  52.133  1.00  0.00     0.040 A 
ATOM     23  C   UNL     1       7.444  46.922  53.382  1.00  0.00     0.027 A 
ATOM     24  C   UNL     1       9.323  46.424  51.971  1.00  0.00     0.027 A 
ATOM     25  C   UNL     1       8.310  47.260  54.427  1.00  0.00     0.022 A 
ATOM     26  C   UNL     1      10.196  46.766  53.010  1.00  0.00     0.022 A 
ATOM     27  C   UNL     1       9.686  47.181  54.234  1.00  0.00     0.041 A 
ATOM     28  Cl  UNL     1      10.759  47.591  55.513  1.00  0.00    -0.084 Cl
ENDBRANCH  20  22
ENDBRANCH  13  20
ENDBRANCH   8  10
ENDBRANCH   1   8
TORSDOF 7
ENDMDL
MODEL 8
REMARK VINA RESULT:    -7.537      3.014      5.764
REMARK INTER + INTRA:         -11.932
REMARK INTER:                 -11.380
REMARK INTRA:                  -0.552
REMARK UNBOUND:                -1.311
REMARK SMILES Cn1ncc2c(Nc3ccc(Cl)cc3)nc(NCCC[NH+](C)C)nc21
REMARK SMILES IDX 18 1 19 2 20 3 21 4 22 5 23 6 17 8 16 10 15 11 24 12 6 13
REMARK SMILES IDX 25 14 5 15 2 16 4 17 3 18 1 19 7 20 8 22 9 23 14 24 10 25
REMARK SMILES IDX 13 26 11 27 12 28
REMARK H PARENT 21 7 17 9 7 21
ROOT
ATOM      1  C   UNL     1       3.986  45.854  55.207  1.00  0.00     0.122 C 
ENDROOT
BRANCH   1   2
ATOM      2  C   UNL     1       2.703  45.932  54.376  1.00  0.00     0.083 C 
BRANCH   2   3
ATOM      3  C   UNL     1       2.453  44.609  53.663  1.00  0.00     0.263 C 
BRANCH   3   4
ATOM      4  N   UNL     1       1.424  43.743  54.362  1.00  0.00    -0.340 N 
ATOM      5  C   UNL     1       0.897  42.613  53.524  1.00  0.00     0.332 C 
ATOM      6  C   UNL     1       0.318  44.522  55.024  1.00  0.00     0.332 C 
ATOM      7  H   UNL     1       1.935  43.296  55.135  1.00  0.00     0.347 HD
ENDBRANCH   3   4
ENDBRANCH   2   3
ENDBRANCH   1   2
BRANCH   1   8
ATOM      8  N   UNL     1       4.789  47.025  54.937  1.00  0.00    -0.354 N 
ATOM      9  H   UNL     1       4.326  47.835  54.535  1.00  0.00     0.163 HD
BRANCH   8  10
ATOM     10  C   UNL     1       5.908  46.810  54.137  1.00  0.00     0.226 A 
ATOM     11  N   UNL     1       5.763  46.221  52.936  1.00  0.00    -0.195 NA
ATOM     12  N   UNL     1       7.060  47.229  54.669  1.00  0.00    -0.193 NA
ATOM     13  C   UNL     1       6.846  45.960  52.152  1.00  0.00     0.147 A 
ATOM     14  C   UNL     1       8.119  46.960  53.891  1.00  0.00     0.165 A 
ATOM     15  C   UNL     1       8.096  46.342  52.655  1.00  0.00     0.082 A 
ATOM     16  N   UNL     1       9.436  47.231  54.153  1.00  0.00    -0.250 N 
ATOM     17  C   UNL     1       9.449  46.296  52.261  1.00  0.00     0.149 A 
ATOM     18  N   UNL     1      10.272  46.837  53.165  1.00  0.00    -0.179 NA
ATOM     19  C   UNL     1       9.978  47.862  55.329  1.00  0.00     0.176 C 
BRANCH  13  20
ATOM     20  N   UNL     1       6.721  45.306  50.918  1.00  0.00    -0.339 N 
ATOM     21  H   UNL     1       7.148  45.799  50.145  1.00  0.00     0.168 HD
BRANCH  20  22
ATOM     22  C   UNL     1       6.080  44.110  50.554  1.00  0.00     0.040 A 
ATOM     23  C   UNL     1       4.821  43.823  51.110  1.00  0.00     0.027 A 
ATOM     24  C   UNL     1       6.603  43.208  49.621  1.00  0.00     0.027 A 
ATOM     25  C   UNL     1       4.118  42.667  50.757  1.00  0.00     0.022 A 
ATOM     26  C   UNL     1       5.908  42.046  49.267  1.00  0.00     0.022 A 
ATOM     27  C   UNL     1       4.668  41.781  49.835  1.00  0.00     0.041 A 
ATOM     28  Cl  UNL     1       3.811  40.359  49.391  1.00  0.00    -0.084 Cl
ENDBRANCH  20  22
ENDBRANCH  13  20
ENDBRANCH   8  10
ENDBRANCH   1   8
TORSDOF 7
ENDMDL
MODEL 9
REMARK VINA RESULT:    -7.535      1.697      4.776
REMARK INTER + INTRA:         -11.929
REMARK INTER:                 -11.209
REMARK INTRA:                  -0.720
REMARK UNBOUND:                -1.311
REMARK SMILES Cn1ncc2c(Nc3ccc(Cl)cc3)nc(NCCC[NH+](C)C)nc21
REMARK SMILES IDX 18 1 19 2 20 3 21 4 22 5 23 6 17 8 16 10 15 11 24 12 6 13
REMARK SMILES IDX 25 14 5 15 2 16 4 17 3 18 1 19 7 20 8 22 9 23 14 24 10 25
REMARK SMILES IDX 13 26 11 27 12 28
REMARK H PARENT 21 7 17 9 7 21
ROOT
ATOM      1  C   UNL     1       3.456  41.202  50.091  1.00  0.00     0.122 C 
ENDROOT
BRANCH   1   2
ATOM      2  C   UNL     1       4.423  40.777  48.983  1.00  0.00     0.083 C 
BRANCH   2   3
ATOM      3  C   UNL     1       5.829  41.277  49.286  1.00  0.00     0.263 C 
BRANCH   3   4
ATOM      4  N   UNL     1       6.228  42.472  48.443  1.00  0.00    -0.340 N 
ATOM      5  C   UNL     1       6.104  42.251  46.962  1.00  0.00     0.332 C 
ATOM      6  C   UNL     1       7.561  43.066  48.817  1.00  0.00     0.332 C 
ATOM      7  H   UNL     1       5.537  43.199  48.670  1.00  0.00     0.347 HD
ENDBRANCH   3   4
ENDBRANCH   2   3
ENDBRANCH   1   2
BRANCH   1   8
ATOM      8  N   UNL     1       4.220  41.733  51.198  1.00  0.00    -0.354 N 
ATOM      9  H   UNL     1       4.054  41.340  52.120  1.00  0.00     0.163 HD
BRANCH   8  10
ATOM     10  C   UNL     1       4.145  43.112  51.369  1.00  0.00     0.226 A 
ATOM     11  N   UNL     1       5.245  43.865  51.184  1.00  0.00    -0.195 NA
ATOM     12  N   UNL     1       2.935  43.565  51.714  1.00  0.00    -0.193 NA
ATOM     13  C   UNL     1       5.209  45.212  51.386  1.00  0.00     0.147 A 
ATOM     14  C   UNL     1       2.916  44.890  51.916  1.00  0.00     0.165 A 
ATOM     15  C   UNL     1       3.983  45.759  51.781  1.00  0.00     0.082 A 
ATOM     16  N   UNL     1       1.851  45.659  52.302  1.00  0.00    -0.250 N 
ATOM     17  C   UNL     1       3.448  47.023  52.103  1.00  0.00     0.149 A 
ATOM     18  N   UNL     1       2.150  46.973  52.420  1.00  0.00    -0.179 NA
ATOM     19  C   UNL     1       0.510  45.211  52.583  1.00  0.00     0.176 C 
BRANCH  13  20
ATOM     20  N   UNL     1       6.356  46.007  51.243  1.00  0.00    -0.339 N 
ATOM     21  H   UNL     1       6.495  46.365  50.308  1.00  0.00     0.168 HD
BRANCH  20  22
ATOM     22  C   UNL     1       7.363  46.368  52.153  1.00  0.00     0.040 A 
ATOM     23  C   UNL     1       6.993  46.743  53.456  1.00  0.00     0.027 A 
ATOM     24  C   UNL     1       8.729  46.323  51.850  1.00  0.00     0.027 A 
ATOM     25  C   UNL     1       7.953  47.076  54.417  1.00  0.00     0.022 A 
ATOM     26  C   UNL     1       9.695  46.660  52.804  1.00  0.00     0.022 A 
ATOM     27  C   UNL     1       9.303  47.033  54.084  1.00  0.00     0.041 A 
ATOM     28  Cl  UNL     1      10.493  47.436  55.258  1.00  0.00    -0.084 Cl
ENDBRANCH  20  22
ENDBRANCH  13  20
ENDBRANCH   8  10
ENDBRANCH   1   8
TORSDOF 7
ENDMDL
MODEL 10
REMARK VINA RESULT:    -7.511      3.700      7.315
REMARK INTER + INTRA:         -11.895
REMARK INTER:                 -10.978
REMARK INTRA:                  -0.917
REMARK UNBOUND:                -1.311
REMARK SMILES Cn1ncc2c(Nc3ccc(Cl)cc3)nc(NCCC[NH+](C)C)nc21
REMARK SMILES IDX 18 1 19 2 20 3 21 4 22 5 23 6 17 8 16 10 15 11 24 12 6 13
REMARK SMILES IDX 25 14 5 15 2 16 4 17 3 18 1 19 7 20 8 22 9 23 14 24 10 25
REMARK SMILES IDX 13 26 11 27 12 28
REMARK H PARENT 21 7 17 9 7 21
ROOT
ATOM      1  C   UNL     1       9.028  45.674  51.069  1.00  0.00     0.122 C 
ENDROOT
BRANCH   1   2
ATOM      2  C   UNL     1       9.691  46.836  51.814  1.00  0.00     0.083 C 
BRANCH   2   3
ATOM      3  C   UNL     1       8.634  47.735  52.441  1.00  0.00     0.263 C 
BRANCH   3   4
ATOM      4  N   UNL     1       8.597  47.641  53.954  1.00  0.00    -0.340 N 
ATOM      5  C   UNL     1       9.898  47.218  54.577  1.00  0.00     0.332 C 
ATOM      6  C   UNL     1       7.430  46.855  54.490  1.00  0.00     0.332 C 
ATOM      7  H   UNL     1       8.441  48.606  54.276  1.00  0.00     0.347 HD
ENDBRANCH   3   4
ENDBRANCH   2   3
ENDBRANCH   1   2
BRANCH   1   8
ATOM      8  N   UNL     1       7.643  46.006  50.826  1.00  0.00    -0.354 N 
ATOM      9  H   UNL     1       7.218  46.723  51.407  1.00  0.00     0.163 HD
BRANCH   8  10
ATOM     10  C   UNL     1       6.756  44.933  50.864  1.00  0.00     0.226 A 
ATOM     11  N   UNL     1       6.906  43.917  49.994  1.00  0.00    -0.195 NA
ATOM     12  N   UNL     1       5.808  45.028  51.801  1.00  0.00    -0.193 NA
ATOM     13  C   UNL     1       6.028  42.875  49.981  1.00  0.00     0.147 A 
ATOM     14  C   UNL     1       4.946  44.000  51.773  1.00  0.00     0.165 A 
ATOM     15  C   UNL     1       4.985  42.918  50.914  1.00  0.00     0.082 A 
ATOM     16  N   UNL     1       3.853  43.808  52.573  1.00  0.00    -0.250 N 
ATOM     17  C   UNL     1       3.874  42.134  51.289  1.00  0.00     0.149 A 
ATOM     18  N   UNL     1       3.179  42.667  52.299  1.00  0.00    -0.179 NA
ATOM     19  C   UNL     1       3.379  44.672  53.624  1.00  0.00     0.176 C 
BRANCH  13  20
ATOM     20  N   UNL     1       6.140  41.830  49.052  1.00  0.00    -0.339 N 
ATOM     21  H   UNL     1       6.952  41.243  49.189  1.00  0.00     0.168 HD
BRANCH  20  22
ATOM     22  C   UNL     1       5.351  41.472  47.947  1.00  0.00     0.040 A 
ATOM     23  C   UNL     1       5.739  41.913  46.670  1.00  0.00     0.027 A 
ATOM     24  C   UNL     1       4.222  40.651  48.040  1.00  0.00     0.027 A 
ATOM     25  C   UNL     1       5.014  41.557  45.528  1.00  0.00     0.022 A 
ATOM     26  C   UNL     1       3.489  40.295  46.903  1.00  0.00     0.022 A 
ATOM     27  C   UNL     1       3.889  40.748  45.651  1.00  0.00     0.041 A 
ATOM     28  Cl  UNL     1       2.993  40.301  44.254  1.00  0.00    -0.084 Cl
ENDBRANCH  20  22
ENDBRANCH  13  20
ENDBRANCH   8  10
ENDBRANCH   1   8
TORSDOF 7
ENDMDL
MODEL 11
REMARK VINA RESULT:    -7.508      1.454      2.400
REMARK INTER + INTRA:         -11.892
REMARK INTER:                 -11.056
REMARK INTRA:                  -0.836
REMARK UNBOUND:                -1.311
REMARK SMILES Cn1ncc2c(Nc3ccc(Cl)cc3)nc(NCCC[NH+](C)C)nc21
REMARK SMILES IDX 18 1 19 2 20 3 21 4 22 5 23 6 17 8 16 10 15 11 24 12 6 13
REMARK SMILES IDX 25 14 5 15 2 16 4 17 3 18 1 19 7 20 8 22 9 23 14 24 10 25
REMARK SMILES IDX 13 26 11 27 12 28
REMARK H PARENT 21 7 17 9 7 21
ROOT
ATOM      1  C   UNL     1       2.789  44.784  53.673  1.00  0.00     0.122 C 
ENDROOT
BRANCH   1   2
ATOM      2  C   UNL     1       1.424  44.490  54.300  1.00  0.00     0.083 C 
BRANCH   2   3
ATOM      3  C   UNL     1       0.797  43.263  53.651  1.00  0.00     0.263 C 
BRANCH   3   4
ATOM      4  N   UNL     1      -0.347  43.605  52.717  1.00  0.00    -0.340 N 
ATOM      5  C   UNL     1      -0.218  43.013  51.341  1.00  0.00     0.332 C 
ATOM      6  C   UNL     1      -0.683  45.072  52.673  1.00  0.00     0.332 C 
ATOM      7  H   UNL     1      -1.173  43.154  53.133  1.00  0.00     0.347 HD
ENDBRANCH   3   4
ENDBRANCH   2   3
ENDBRANCH   1   2
BRANCH   1   8
ATOM      8  N   UNL     1       3.194  43.645  52.880  1.00  0.00    -0.354 N 
ATOM      9  H   UNL     1       3.360  42.766  53.363  1.00  0.00     0.163 HD
BRANCH   8  10
ATOM     10  C   UNL     1       4.317  43.841  52.082  1.00  0.00     0.226 A 
ATOM     11  N   UNL     1       5.091  44.925  52.279  1.00  0.00    -0.195 NA
ATOM     12  N   UNL     1       4.518  42.893  51.163  1.00  0.00    -0.193 NA
ATOM     13  C   UNL     1       6.171  45.163  51.485  1.00  0.00     0.147 A 
ATOM     14  C   UNL     1       5.581  43.143  50.383  1.00  0.00     0.165 A 
ATOM     15  C   UNL     1       6.431  44.229  50.475  1.00  0.00     0.082 A 
ATOM     16  N   UNL     1       6.042  42.390  49.336  1.00  0.00    -0.250 N 
ATOM     17  C   UNL     1       7.369  44.027  49.442  1.00  0.00     0.149 A 
ATOM     18  N   UNL     1       7.142  42.909  48.745  1.00  0.00    -0.179 NA
ATOM     19  C   UNL     1       5.484  41.160  48.835  1.00  0.00     0.176 C 
BRANCH  13  20
ATOM     20  N   UNL     1       6.963  46.310  51.645  1.00  0.00    -0.339 N 
ATOM     21  H   UNL     1       6.817  47.014  50.934  1.00  0.00     0.168 HD
BRANCH  20  22
ATOM     22  C   UNL     1       7.946  46.643  52.591  1.00  0.00     0.040 A 
ATOM     23  C   UNL     1       7.538  47.070  53.866  1.00  0.00     0.027 A 
ATOM     24  C   UNL     1       9.319  46.522  52.352  1.00  0.00     0.027 A 
ATOM     25  C   UNL     1       8.470  47.380  54.862  1.00  0.00     0.022 A 
ATOM     26  C   UNL     1      10.259  46.835  53.340  1.00  0.00     0.022 A 
ATOM     27  C   UNL     1       9.830  47.260  54.592  1.00  0.00     0.041 A 
ATOM     28  Cl  UNL     1      10.985  47.635  55.809  1.00  0.00    -0.084 Cl
ENDBRANCH  20  22
ENDBRANCH  13  20
ENDBRANCH   8  10
ENDBRANCH   1   8
TORSDOF 7
ENDMDL
MODEL 12
REMARK VINA RESULT:    -7.411      2.640      6.260
REMARK INTER + INTRA:         -11.755
REMARK INTER:                 -11.264
REMARK INTRA:                  -0.491
REMARK UNBOUND:                -1.311
REMARK SMILES Cn1ncc2c(Nc3ccc(Cl)cc3)nc(NCCC[NH+](C)C)nc21
REMARK SMILES IDX 18 1 19 2 20 3 21 4 22 5 23 6 17 8 16 10 15 11 24 12 6 13
REMARK SMILES IDX 25 14 5 15 2 16 4 17 3 18 1 19 7 20 8 22 9 23 14 24 10 25
REMARK SMILES IDX 13 26 11 27 12 28
REMARK H PARENT 21 7 17 9 7 21
ROOT
ATOM      1  C   UNL     1       4.636  47.159  54.517  1.00  0.00     0.122 C 
ENDROOT
BRANCH   1   2
ATOM      2  C   UNL     1       6.126  46.815  54.571  1.00  0.00     0.083 C 
BRANCH   2   3
ATOM      3  C   UNL     1       6.783  47.088  53.224  1.00  0.00     0.263 C 
BRANCH   3   4
ATOM      4  N   UNL     1       8.273  46.809  53.223  1.00  0.00    -0.340 N 
ATOM      5  C   UNL     1       9.042  47.563  54.271  1.00  0.00     0.332 C 
ATOM      6  C   UNL     1       8.913  46.914  51.864  1.00  0.00     0.332 C 
ATOM      7  H   UNL     1       8.357  45.817  53.483  1.00  0.00     0.347 HD
ENDBRANCH   3   4
ENDBRANCH   2   3
ENDBRANCH   1   2
BRANCH   1   8
ATOM      8  N   UNL     1       3.918  46.264  55.396  1.00  0.00    -0.354 N 
ATOM      9  H   UNL     1       4.454  45.742  56.082  1.00  0.00     0.163 HD
BRANCH   8  10
ATOM     10  C   UNL     1       3.117  45.318  54.761  1.00  0.00     0.226 A 
ATOM     11  N   UNL     1       3.618  44.606  53.734  1.00  0.00    -0.195 NA
ATOM     12  N   UNL     1       1.882  45.212  55.258  1.00  0.00    -0.193 NA
ATOM     13  C   UNL     1       2.843  43.704  53.069  1.00  0.00     0.147 A 
ATOM     14  C   UNL     1       1.128  44.326  54.590  1.00  0.00     0.165 A 
ATOM     15  C   UNL     1       1.523  43.558  53.511  1.00  0.00     0.082 A 
ATOM     16  N   UNL     1      -0.182  44.002  54.824  1.00  0.00    -0.250 N 
ATOM     17  C   UNL     1       0.378  42.805  53.180  1.00  0.00     0.149 A 
ATOM     18  N   UNL     1      -0.664  43.067  53.975  1.00  0.00    -0.179 NA
ATOM     19  C   UNL     1      -1.045  44.546  55.841  1.00  0.00     0.176 C 
BRANCH  13  20
ATOM     20  N   UNL     1       3.332  42.986  51.968  1.00  0.00    -0.339 N 
ATOM     21  H   UNL     1       2.760  42.195  51.705  1.00  0.00     0.168 HD
BRANCH  20  22
ATOM     22  C   UNL     1       4.489  43.144  51.187  1.00  0.00     0.040 A 
ATOM     23  C   UNL     1       5.089  44.413  51.118  1.00  0.00     0.027 A 
ATOM     24  C   UNL     1       5.113  42.089  50.511  1.00  0.00     0.027 A 
ATOM     25  C   UNL     1       6.263  44.623  50.388  1.00  0.00     0.022 A 
ATOM     26  C   UNL     1       6.285  42.292  49.774  1.00  0.00     0.022 A 
ATOM     27  C   UNL     1       6.856  43.558  49.717  1.00  0.00     0.041 A 
ATOM     28  Cl  UNL     1       8.301  43.804  48.819  1.00  0.00    -0.084 Cl
ENDBRANCH  20  22
ENDBRANCH  13  20
ENDBRANCH   8  10
ENDBRANCH   1   8
TORSDOF 7
ENDMDL
MODEL 13
REMARK VINA RESULT:    -7.282      3.173      6.802
REMARK INTER + INTRA:         -11.573
REMARK INTER:                 -10.513
REMARK INTRA:                  -1.060
REMARK UNBOUND:                -1.311
REMARK SMILES Cn1ncc2c(Nc3ccc(Cl)cc3)nc(NCCC[NH+](C)C)nc21
REMARK SMILES IDX 18 1 19 2 20 3 21 4 22 5 23 6 17 8 16 10 15 11 24 12 6 13
REMARK SMILES IDX 25 14 5 15 2 16 4 17 3 18 1 19 7 20 8 22 9 23 14 24 10 25
REMARK SMILES IDX 13 26 11 27 12 28
REMARK H PARENT 21 7 17 9 7 21
ROOT
ATOM      1  C   UNL     1       7.797  43.675  49.529  1.00  0.00     0.122 C 
ENDROOT
BRANCH   1   2
ATOM      2  C   UNL     1       6.552  42.873  49.139  1.00  0.00     0.083 C 
BRANCH   2   3
ATOM      3  C   UNL     1       6.433  41.626  50.005  1.00  0.00     0.263 C 
BRANCH   3   4
ATOM      4  N   UNL     1       4.996  41.222  50.267  1.00  0.00    -0.340 N 
ATOM      5  C   UNL     1       4.229  40.835  49.034  1.00  0.00     0.332 C 
ATOM      6  C   UNL     1       4.233  42.196  51.126  1.00  0.00     0.332 C 
ATOM      7  H   UNL     1       5.060  40.363  50.830  1.00  0.00     0.347 HD
ENDBRANCH   3   4
ENDBRANCH   2   3
ENDBRANCH   1   2
BRANCH   1   8
ATOM      8  N   UNL     1       7.454  45.078  49.570  1.00  0.00    -0.354 N 
ATOM      9  H   UNL     1       8.144  45.745  49.238  1.00  0.00     0.163 HD
BRANCH   8  10
ATOM     10  C   UNL     1       7.051  45.558  50.814  1.00  0.00     0.226 A 
ATOM     11  N   UNL     1       5.739  45.645  51.099  1.00  0.00    -0.195 NA
ATOM     12  N   UNL     1       8.054  45.898  51.629  1.00  0.00    -0.193 NA
ATOM     13  C   UNL     1       5.317  46.151  52.291  1.00  0.00     0.147 A 
ATOM     14  C   UNL     1       7.625  46.401  52.797  1.00  0.00     0.165 A 
ATOM     15  C   UNL     1       6.309  46.559  53.190  1.00  0.00     0.082 A 
ATOM     16  N   UNL     1       8.388  46.866  53.834  1.00  0.00    -0.250 N 
ATOM     17  C   UNL     1       6.395  47.122  54.480  1.00  0.00     0.149 A 
ATOM     18  N   UNL     1       7.657  47.310  54.882  1.00  0.00    -0.179 NA
ATOM     19  C   UNL     1       9.826  46.923  53.901  1.00  0.00     0.176 C 
BRANCH  13  20
ATOM     20  N   UNL     1       3.953  46.292  52.589  1.00  0.00    -0.339 N 
ATOM     21  H   UNL     1       3.692  47.221  52.891  1.00  0.00     0.168 HD
BRANCH  20  22
ATOM     22  C   UNL     1       2.893  45.371  52.577  1.00  0.00     0.040 A 
ATOM     23  C   UNL     1       2.110  45.259  51.416  1.00  0.00     0.027 A 
ATOM     24  C   UNL     1       2.604  44.515  53.645  1.00  0.00     0.027 A 
ATOM     25  C   UNL     1       1.065  44.333  51.332  1.00  0.00     0.022 A 
ATOM     26  C   UNL     1       1.557  43.590  53.571  1.00  0.00     0.022 A 
ATOM     27  C   UNL     1       0.793  43.501  52.413  1.00  0.00     0.041 A 
ATOM     28  Cl  UNL     1      -0.487  42.357  52.319  1.00  0.00    -0.084 Cl
ENDBRANCH  20  22
ENDBRANCH  13  20
ENDBRANCH   8  10
ENDBRANCH   1   8
TORSDOF 7
ENDMDL
MODEL 14
REMARK VINA RESULT:    -7.271      2.511      5.984
REMARK INTER + INTRA:         -11.558
REMARK INTER:                 -10.922
REMARK INTRA:                  -0.636
REMARK UNBOUND:                -1.311
REMARK SMILES Cn1ncc2c(Nc3ccc(Cl)cc3)nc(NCCC[NH+](C)C)nc21
REMARK SMILES IDX 18 1 19 2 20 3 21 4 22 5 23 6 17 8 16 10 15 11 24 12 6 13
REMARK SMILES IDX 25 14 5 15 2 16 4 17 3 18 1 19 7 20 8 22 9 23 14 24 10 25
REMARK SMILES IDX 13 26 11 27 12 28
REMARK H PARENT 21 7 17 9 7 21
ROOT
ATOM      1  C   UNL     1       5.118  41.466  50.259  1.00  0.00     0.122 C 
ENDROOT
BRANCH   1   2
ATOM      2  C   UNL     1       5.081  41.105  48.772  1.00  0.00     0.083 C 
BRANCH   2   3
ATOM      3  C   UNL     1       3.765  40.419  48.427  1.00  0.00     0.263 C 
BRANCH   3   4
ATOM      4  N   UNL     1       3.785  39.747  47.068  1.00  0.00    -0.340 N 
ATOM      5  C   UNL     1       3.619  40.690  45.910  1.00  0.00     0.332 C 
ATOM      6  C   UNL     1       2.872  38.554  46.963  1.00  0.00     0.332 C 
ATOM      7  H   UNL     1       4.736  39.365  46.976  1.00  0.00     0.347 HD
ENDBRANCH   3   4
ENDBRANCH   2   3
ENDBRANCH   1   2
BRANCH   1   8
ATOM      8  N   UNL     1       3.782  41.357  50.800  1.00  0.00    -0.354 N 
ATOM      9  H   UNL     1       3.061  40.958  50.206  1.00  0.00     0.163 HD
BRANCH   8  10
ATOM     10  C   UNL     1       3.237  42.540  51.291  1.00  0.00     0.226 A 
ATOM     11  N   UNL     1       4.016  43.392  51.983  1.00  0.00    -0.195 NA
ATOM     12  N   UNL     1       1.942  42.714  51.012  1.00  0.00    -0.193 NA
ATOM     13  C   UNL     1       3.498  44.537  52.511  1.00  0.00     0.147 A 
ATOM     14  C   UNL     1       1.444  43.840  51.543  1.00  0.00     0.165 A 
ATOM     15  C   UNL     1       2.137  44.775  52.288  1.00  0.00     0.082 A 
ATOM     16  N   UNL     1       0.155  44.297  51.468  1.00  0.00    -0.250 N 
ATOM     17  C   UNL     1       1.173  45.754  52.605  1.00  0.00     0.149 A 
ATOM     18  N   UNL     1      -0.036  45.473  52.108  1.00  0.00    -0.179 NA
ATOM     19  C   UNL     1      -0.956  43.665  50.804  1.00  0.00     0.176 C 
BRANCH  13  20
ATOM     20  N   UNL     1       4.282  45.415  53.274  1.00  0.00    -0.339 N 
ATOM     21  H   UNL     1       3.792  45.832  54.054  1.00  0.00     0.168 HD
BRANCH  20  22
ATOM     22  C   UNL     1       5.611  45.846  53.133  1.00  0.00     0.040 A 
ATOM     23  C   UNL     1       6.357  46.124  54.291  1.00  0.00     0.027 A 
ATOM     24  C   UNL     1       6.256  45.964  51.897  1.00  0.00     0.027 A 
ATOM     25  C   UNL     1       7.696  46.520  54.214  1.00  0.00     0.022 A 
ATOM     26  C   UNL     1       7.593  46.366  51.811  1.00  0.00     0.022 A 
ATOM     27  C   UNL     1       8.309  46.640  52.971  1.00  0.00     0.041 A 
ATOM     28  Cl  UNL     1       9.955  47.123  52.865  1.00  0.00    -0.084 Cl
ENDBRANCH  20  22
ENDBRANCH  13  20
ENDBRANCH   8  10
ENDBRANCH   1   8
TORSDOF 7
ENDMDL
MODEL 15
REMARK VINA RESULT:    -7.208      2.579      5.645
REMARK INTER + INTRA:         -11.469
REMARK INTER:                 -10.442
REMARK INTRA:                  -1.027
REMARK UNBOUND:                -1.311
REMARK SMILES Cn1ncc2c(Nc3ccc(Cl)cc3)nc(NCCC[NH+](C)C)nc21
REMARK SMILES IDX 18 1 19 2 20 3 21 4 22 5 23 6 17 8 16 10 15 11 24 12 6 13
REMARK SMILES IDX 25 14 5 15 2 16 4 17 3 18 1 19 7 20 8 22 9 23 14 24 10 25
REMARK SMILES IDX 13 26 11 27 12 28
REMARK H PARENT 21 7 17 9 7 21
ROOT
ATOM      1  C   UNL     1       9.145  45.507  50.920  1.00  0.00     0.122 C 
ENDROOT
BRANCH   1   2
ATOM      2  C   UNL     1       9.951  46.299  51.953  1.00  0.00     0.083 C 
BRANCH   2   3
ATOM      3  C   UNL     1       9.192  47.552  52.369  1.00  0.00     0.263 C 
BRANCH   3   4
ATOM      4  N   UNL     1       8.926  47.617  53.861  1.00  0.00    -0.340 N 
ATOM      5  C   UNL     1      10.098  47.222  54.714  1.00  0.00     0.332 C 
ATOM      6  C   UNL     1       7.657  46.925  54.286  1.00  0.00     0.332 C 
ATOM      7  H   UNL     1       8.767  48.614  54.059  1.00  0.00     0.347 HD
ENDBRANCH   3   4
ENDBRANCH   2   3
ENDBRANCH   1   2
BRANCH   1   8
ATOM      8  N   UNL     1       7.921  46.221  50.636  1.00  0.00    -0.354 N 
ATOM      9  H   UNL     1       7.754  47.093  51.131  1.00  0.00     0.163 HD
BRANCH   8  10
ATOM     10  C   UNL     1       6.750  45.484  50.790  1.00  0.00     0.226 A 
ATOM     11  N   UNL     1       5.652  46.078  51.292  1.00  0.00    -0.195 NA
ATOM     12  N   UNL     1       6.843  44.207  50.407  1.00  0.00    -0.193 NA
ATOM     13  C   UNL     1       4.506  45.370  51.493  1.00  0.00     0.147 A 
ATOM     14  C   UNL     1       5.710  43.519  50.616  1.00  0.00     0.165 A 
ATOM     15  C   UNL     1       4.533  44.015  51.144  1.00  0.00     0.082 A 
ATOM     16  N   UNL     1       5.481  42.194  50.360  1.00  0.00    -0.250 N 
ATOM     17  C   UNL     1       3.662  42.906  51.157  1.00  0.00     0.149 A 
ATOM     18  N   UNL     1       4.229  41.793  50.680  1.00  0.00    -0.179 NA
ATOM     19  C   UNL     1       6.411  41.239  49.813  1.00  0.00     0.176 C 
BRANCH  13  20
ATOM     20  N   UNL     1       3.366  45.960  52.058  1.00  0.00    -0.339 N 
ATOM     21  H   UNL     1       2.940  46.671  51.479  1.00  0.00     0.168 HD
BRANCH  20  22
ATOM     22  C   UNL     1       2.729  45.769  53.295  1.00  0.00     0.040 A 
ATOM     23  C   UNL     1       1.378  45.380  53.305  1.00  0.00     0.027 A 
ATOM     24  C   UNL     1       3.382  45.891  54.526  1.00  0.00     0.027 A 
ATOM     25  C   UNL     1       0.701  45.138  54.505  1.00  0.00     0.022 A 
ATOM     26  C   UNL     1       2.711  45.656  55.731  1.00  0.00     0.022 A 
ATOM     27  C   UNL     1       1.373  45.278  55.715  1.00  0.00     0.041 A 
ATOM     28  Cl  UNL     1       0.552  44.979  57.195  1.00  0.00    -0.084 Cl
ENDBRANCH  20  22
ENDBRANCH  13  20
ENDBRANCH   8  10
ENDBRANCH   1   8
TORSDOF 7
ENDMDL
MODEL 16
REMARK VINA RESULT:    -7.154      3.382      6.569
REMARK INTER + INTRA:         -11.393
REMARK INTER:                 -10.684
REMARK INTRA:                  -0.708
REMARK UNBOUND:                -1.311
REMARK SMILES Cn1ncc2c(Nc3ccc(Cl)cc3)nc(NCCC[NH+](C)C)nc21
REMARK SMILES IDX 18 1 19 2 20 3 21 4 22 5 23 6 17 8 16 10 15 11 24 12 6 13
REMARK SMILES IDX 25 14 5 15 2 16 4 17 3 18 1 19 7 20 8 22 9 23 14 24 10 25
REMARK SMILES IDX 13 26 11 27 12 28
REMARK H PARENT 21 7 17 9 7 21
ROOT
ATOM      1  C   UNL     1       5.719  46.978  53.674  1.00  0.00     0.122 C 
ENDROOT
BRANCH   1   2
ATOM      2  C   UNL     1       7.215  46.725  53.875  1.00  0.00     0.083 C 
BRANCH   2   3
ATOM      3  C   UNL     1       8.033  47.665  52.999  1.00  0.00     0.263 C 
BRANCH   3   4
ATOM      4  N   UNL     1       9.528  47.451  53.134  1.00  0.00    -0.340 N 
ATOM      5  C   UNL     1      10.087  46.404  52.213  1.00  0.00     0.332 C 
ATOM      6  C   UNL     1       9.993  47.263  54.554  1.00  0.00     0.332 C 
ATOM      7  H   UNL     1       9.951  48.338  52.829  1.00  0.00     0.347 HD
ENDBRANCH   3   4
ENDBRANCH   2   3
ENDBRANCH   1   2
BRANCH   1   8
ATOM      8  N   UNL     1       5.398  46.790  52.277  1.00  0.00    -0.354 N 
ATOM      9  H   UNL     1       4.624  47.324  51.892  1.00  0.00     0.163 HD
BRANCH   8  10
ATOM     10  C   UNL     1       5.160  45.473  51.891  1.00  0.00     0.226 A 
ATOM     11  N   UNL     1       4.142  44.791  52.447  1.00  0.00    -0.195 NA
ATOM     12  N   UNL     1       6.005  45.004  50.968  1.00  0.00    -0.193 NA
ATOM     13  C   UNL     1       3.914  43.489  52.119  1.00  0.00     0.147 A 
ATOM     14  C   UNL     1       5.774  43.719  50.659  1.00  0.00     0.165 A 
ATOM     15  C   UNL     1       4.778  42.915  51.179  1.00  0.00     0.082 A 
ATOM     16  N   UNL     1       6.470  42.936  49.777  1.00  0.00    -0.250 N 
ATOM     17  C   UNL     1       4.962  41.672  50.539  1.00  0.00     0.149 A 
ATOM     18  N   UNL     1       5.989  41.676  49.682  1.00  0.00    -0.179 NA
ATOM     19  C   UNL     1       7.612  43.318  48.987  1.00  0.00     0.176 C 
BRANCH  13  20
ATOM     20  N   UNL     1       2.886  42.748  52.721  1.00  0.00    -0.339 N 
ATOM     21  H   UNL     1       3.118  41.777  52.880  1.00  0.00     0.168 HD
BRANCH  20  22
ATOM     22  C   UNL     1       1.584  43.100  53.111  1.00  0.00     0.040 A 
ATOM     23  C   UNL     1       0.498  42.575  52.389  1.00  0.00     0.027 A 
ATOM     24  C   UNL     1       1.302  43.907  54.219  1.00  0.00     0.027 A 
ATOM     25  C   UNL     1      -0.822  42.859  52.753  1.00  0.00     0.022 A 
ATOM     26  C   UNL     1      -0.016  44.200  54.586  1.00  0.00     0.022 A 
ATOM     27  C   UNL     1      -1.073  43.673  53.853  1.00  0.00     0.041 A 
ATOM     28  Cl  UNL     1      -2.691  44.026  54.311  1.00  0.00    -0.084 Cl
ENDBRANCH  20  22
ENDBRANCH  13  20
ENDBRANCH   8  10
ENDBRANCH   1   8
TORSDOF 7
ENDMDL
MODEL 17
REMARK VINA RESULT:    -7.096      3.089      6.654
REMARK INTER + INTRA:         -11.311
REMARK INTER:                  -9.916
REMARK INTRA:                  -1.395
REMARK UNBOUND:                -1.311
REMARK SMILES Cn1ncc2c(Nc3ccc(Cl)cc3)nc(NCCC[NH+](C)C)nc21
REMARK SMILES IDX 18 1 19 2 20 3 21 4 22 5 23 6 17 8 16 10 15 11 24 12 6 13
REMARK SMILES IDX 25 14 5 15 2 16 4 17 3 18 1 19 7 20 8 22 9 23 14 24 10 25
REMARK SMILES IDX 13 26 11 27 12 28
REMARK H PARENT 21 7 17 9 7 21
ROOT
ATOM      1  C   UNL     1       0.011  43.747  51.741  1.00  0.00     0.122 C 
ENDROOT
BRANCH   1   2
ATOM      2  C   UNL     1       1.243  43.366  50.916  1.00  0.00     0.083 C 
BRANCH   2   3
ATOM      3  C   UNL     1       2.307  44.450  51.021  1.00  0.00     0.263 C 
BRANCH   3   4
ATOM      4  N   UNL     1       3.557  43.986  51.742  1.00  0.00    -0.340 N 
ATOM      5  C   UNL     1       4.837  44.521  51.165  1.00  0.00     0.332 C 
ATOM      6  C   UNL     1       3.617  42.498  51.967  1.00  0.00     0.332 C 
ATOM      7  H   UNL     1       3.488  44.396  52.683  1.00  0.00     0.347 HD
ENDBRANCH   3   4
ENDBRANCH   2   3
ENDBRANCH   1   2
BRANCH   1   8
ATOM      8  N   UNL     1       0.064  43.051  53.007  1.00  0.00    -0.354 N 
ATOM      9  H   UNL     1      -0.748  42.508  53.284  1.00  0.00     0.163 HD
BRANCH   8  10
ATOM     10  C   UNL     1       0.368  43.843  54.111  1.00  0.00     0.226 A 
ATOM     11  N   UNL     1       1.651  44.154  54.372  1.00  0.00    -0.195 NA
ATOM     12  N   UNL     1      -0.692  44.226  54.829  1.00  0.00    -0.193 NA
ATOM     13  C   UNL     1       1.980  44.890  55.469  1.00  0.00     0.147 A 
ATOM     14  C   UNL     1      -0.354  44.945  55.910  1.00  0.00     0.165 A 
ATOM     15  C   UNL     1       0.925  45.305  56.291  1.00  0.00     0.082 A 
ATOM     16  N   UNL     1      -1.191  45.464  56.861  1.00  0.00    -0.250 N 
ATOM     17  C   UNL     1       0.742  46.042  57.479  1.00  0.00     0.149 A 
ATOM     18  N   UNL     1      -0.544  46.146  57.833  1.00  0.00    -0.179 NA
ATOM     19  C   UNL     1      -2.626  45.349  56.914  1.00  0.00     0.176 C 
BRANCH  13  20
ATOM     20  N   UNL     1       3.315  45.187  55.784  1.00  0.00    -0.339 N 
ATOM     21  H   UNL     1       3.556  45.025  56.752  1.00  0.00     0.168 HD
BRANCH  20  22
ATOM     22  C   UNL     1       4.367  45.699  55.007  1.00  0.00     0.040 A 
ATOM     23  C   UNL     1       4.155  46.885  54.283  1.00  0.00     0.027 A 
ATOM     24  C   UNL     1       5.640  45.122  54.955  1.00  0.00     0.027 A 
ATOM     25  C   UNL     1       5.176  47.465  53.523  1.00  0.00     0.022 A 
ATOM     26  C   UNL     1       6.665  45.692  54.193  1.00  0.00     0.022 A 
ATOM     27  C   UNL     1       6.429  46.862  53.481  1.00  0.00     0.041 A 
ATOM     28  Cl  UNL     1       7.693  47.567  52.552  1.00  0.00    -0.084 Cl
ENDBRANCH  20  22
ENDBRANCH  13  20
ENDBRANCH   8  10
ENDBRANCH   1   8
TORSDOF 7
ENDMDL
MODEL 18
REMARK VINA RESULT:    -7.078      3.722      6.592
REMARK INTER + INTRA:         -11.285
REMARK INTER:                 -10.112
REMARK INTRA:                  -1.174
REMARK UNBOUND:                -1.311
REMARK SMILES Cn1ncc2c(Nc3ccc(Cl)cc3)nc(NCCC[NH+](C)C)nc21
REMARK SMILES IDX 18 1 19 2 20 3 21 4 22 5 23 6 17 8 16 10 15 11 24 12 6 13
REMARK SMILES IDX 25 14 5 15 2 16 4 17 3 18 1 19 7 20 8 22 9 23 14 24 10 25
REMARK SMILES IDX 13 26 11 27 12 28
REMARK H PARENT 21 7 17 9 7 21
ROOT
ATOM      1  C   UNL     1       2.636  44.480  52.934  1.00  0.00     0.122 C 
ENDROOT
BRANCH   1   2
ATOM      2  C   UNL     1       2.184  44.558  54.394  1.00  0.00     0.083 C 
BRANCH   2   3
ATOM      3  C   UNL     1       2.961  45.641  55.132  1.00  0.00     0.263 C 
BRANCH   3   4
ATOM      4  N   UNL     1       4.391  45.779  54.649  1.00  0.00    -0.340 N 
ATOM      5  C   UNL     1       5.388  44.977  55.437  1.00  0.00     0.332 C 
ATOM      6  C   UNL     1       4.837  47.205  54.456  1.00  0.00     0.332 C 
ATOM      7  H   UNL     1       4.393  45.368  53.705  1.00  0.00     0.347 HD
ENDBRANCH   3   4
ENDBRANCH   2   3
ENDBRANCH   1   2
BRANCH   1   8
ATOM      8  N   UNL     1       3.396  43.266  52.745  1.00  0.00    -0.354 N 
ATOM      9  H   UNL     1       3.810  42.832  53.566  1.00  0.00     0.163 HD
BRANCH   8  10
ATOM     10  C   UNL     1       4.429  43.346  51.815  1.00  0.00     0.226 A 
ATOM     11  N   UNL     1       4.560  42.384  50.883  1.00  0.00    -0.195 NA
ATOM     12  N   UNL     1       5.218  44.416  51.952  1.00  0.00    -0.193 NA
ATOM     13  C   UNL     1       5.586  42.416  49.988  1.00  0.00     0.147 A 
ATOM     14  C   UNL     1       6.229  44.432  51.070  1.00  0.00     0.165 A 
ATOM     15  C   UNL     1       6.477  43.492  50.086  1.00  0.00     0.082 A 
ATOM     16  N   UNL     1       7.223  45.366  50.958  1.00  0.00    -0.250 N 
ATOM     17  C   UNL     1       7.639  43.961  49.440  1.00  0.00     0.149 A 
ATOM     18  N   UNL     1       8.100  45.102  49.962  1.00  0.00    -0.179 NA
ATOM     19  C   UNL     1       7.409  46.541  51.770  1.00  0.00     0.176 C 
BRANCH  13  20
ATOM     20  N   UNL     1       5.766  41.400  49.038  1.00  0.00    -0.339 N 
ATOM     21  H   UNL     1       6.513  40.756  49.260  1.00  0.00     0.168 HD
BRANCH  20  22
ATOM     22  C   UNL     1       5.121  41.134  47.819  1.00  0.00     0.040 A 
ATOM     23  C   UNL     1       3.968  40.330  47.827  1.00  0.00     0.027 A 
ATOM     24  C   UNL     1       5.534  41.672  46.595  1.00  0.00     0.027 A 
ATOM     25  C   UNL     1       3.261  40.062  46.650  1.00  0.00     0.022 A 
ATOM     26  C   UNL     1       4.835  41.404  45.412  1.00  0.00     0.022 A 
ATOM     27  C   UNL     1       3.701  40.602  45.445  1.00  0.00     0.041 A 
ATOM     28  Cl  UNL     1       2.838  40.281  43.993  1.00  0.00    -0.084 Cl
ENDBRANCH  20  22
ENDBRANCH  13  20
ENDBRANCH   8  10
ENDBRANCH   1   8
TORSDOF 7
ENDMDL
MODEL 19
REMARK VINA RESULT:    -7.029      2.881      5.057
REMARK INTER + INTRA:         -11.216
REMARK INTER:                 -10.055
REMARK INTRA:                  -1.161
REMARK UNBOUND:                -1.311
REMARK SMILES Cn1ncc2c(Nc3ccc(Cl)cc3)nc(NCCC[NH+](C)C)nc21
REMARK SMILES IDX 18 1 19 2 20 3 21 4 22 5 23 6 17 8 16 10 15 11 24 12 6 13
REMARK SMILES IDX 25 14 5 15 2 16 4 17 3 18 1 19 7 20 8 22 9 23 14 24 10 25
REMARK SMILES IDX 13 26 11 27 12 28
REMARK H PARENT 21 7 17 9 7 21
ROOT
ATOM      1  C   UNL     1       0.850  45.302  57.086  1.00  0.00     0.122 C 
ENDROOT
BRANCH   1   2
ATOM      2  C   UNL     1      -0.156  46.440  57.280  1.00  0.00     0.083 C 
BRANCH   2   3
ATOM      3  C   UNL     1      -1.532  46.022  56.779  1.00  0.00     0.263 C 
BRANCH   3   4
ATOM      4  N   UNL     1      -1.501  44.753  55.950  1.00  0.00    -0.340 N 
ATOM      5  C   UNL     1      -1.862  44.951  54.505  1.00  0.00     0.332 C 
ATOM      6  C   UNL     1      -2.250  43.602  56.568  1.00  0.00     0.332 C 
ATOM      7  H   UNL     1      -0.515  44.461  55.949  1.00  0.00     0.347 HD
ENDBRANCH   3   4
ENDBRANCH   2   3
ENDBRANCH   1   2
BRANCH   1   8
ATOM      8  N   UNL     1       2.027  45.826  56.432  1.00  0.00    -0.354 N 
ATOM      9  H   UNL     1       2.133  46.835  56.383  1.00  0.00     0.163 HD
BRANCH   8  10
ATOM     10  C   UNL     1       2.240  45.373  55.133  1.00  0.00     0.226 A 
ATOM     11  N   UNL     1       3.120  46.015  54.342  1.00  0.00    -0.195 NA
ATOM     12  N   UNL     1       1.517  44.302  54.792  1.00  0.00    -0.193 NA
ATOM     13  C   UNL     1       3.316  45.618  53.054  1.00  0.00     0.147 A 
ATOM     14  C   UNL     1       1.715  43.926  53.520  1.00  0.00     0.165 A 
ATOM     15  C   UNL     1       2.571  44.520  52.611  1.00  0.00     0.082 A 
ATOM     16  N   UNL     1       1.114  42.892  52.853  1.00  0.00    -0.250 N 
ATOM     17  C   UNL     1       2.410  43.761  51.433  1.00  0.00     0.149 A 
ATOM     18  N   UNL     1       1.527  42.767  51.571  1.00  0.00    -0.179 NA
ATOM     19  C   UNL     1       0.129  41.977  53.371  1.00  0.00     0.176 C 
BRANCH  13  20
ATOM     20  N   UNL     1       4.194  46.302  52.200  1.00  0.00    -0.339 N 
ATOM     21  H   UNL     1       3.732  46.836  51.476  1.00  0.00     0.168 HD
BRANCH  20  22
ATOM     22  C   UNL     1       5.597  46.352  52.145  1.00  0.00     0.040 A 
ATOM     23  C   UNL     1       6.257  45.668  51.110  1.00  0.00     0.027 A 
ATOM     24  C   UNL     1       6.377  47.094  53.039  1.00  0.00     0.027 A 
ATOM     25  C   UNL     1       7.649  45.713  50.982  1.00  0.00     0.022 A 
ATOM     26  C   UNL     1       7.771  47.139  52.921  1.00  0.00     0.022 A 
ATOM     27  C   UNL     1       8.401  46.450  51.891  1.00  0.00     0.041 A 
ATOM     28  Cl  UNL     1      10.112  46.514  51.742  1.00  0.00    -0.084 Cl
ENDBRANCH  20  22
ENDBRANCH  13  20
ENDBRANCH   8  10
ENDBRANCH   1   8
TORSDOF 7
ENDMDL
