MODEL 1
REMARK VINA RESULT:    -7.320      0.000      0.000
REMARK INTER + INTRA:         -13.045
REMARK INTER:                 -12.455
REMARK INTRA:                  -0.590
REMARK UNBOUND:                -0.590
REMARK SMILES c1ccc(Nc2nc(NCc3ccncc3)nc(N3CCCCCC3)n2)cc1
REMARK SMILES IDX 6 1 7 2 8 3 17 4 18 5 26 6 5 7 4 9 1 10 2 11 28 12 3 13
REMARK SMILES IDX 27 14 9 15 10 17 11 18 12 19 16 20 13 21 15 22 14 23 19 24
REMARK SMILES IDX 20 25 21 26 22 27 25 29 24 30 23 31
REMARK H PARENT 5 8 9 16
REMARK Flexibility Score:   44.900
ROOT
ATOM      1  C   UNL     1       6.507  45.167  51.035  1.00  0.00     0.233 A 
ATOM      2  N   UNL     1       6.881  44.326  50.084  1.00  0.00    -0.177 NA
ATOM      3  C   UNL     1       6.109  43.267  49.915  1.00  0.00     0.229 A 
ATOM      4  N   UNL     1       5.028  43.009  50.632  1.00  0.00    -0.177 NA
ATOM      5  C   UNL     1       4.712  43.891  51.573  1.00  0.00     0.231 A 
ATOM      6  N   UNL     1       5.439  44.979  51.803  1.00  0.00    -0.176 NA
ENDROOT
BRANCH   1   7
ATOM      7  N   UNL     1       7.240  46.317  51.326  1.00  0.00    -0.324 N 
ATOM      8  H   UNL     1       7.129  46.977  50.571  1.00  0.00     0.170 HD
BRANCH   7   9
ATOM      9  C   UNL     1       8.158  46.657  52.326  1.00  0.00     0.041 A 
ATOM     10  C   UNL     1       9.895  47.322  54.454  1.00  0.00     0.000 A 
ATOM     11  C   UNL     1      10.397  46.752  53.288  1.00  0.00     0.002 A 
ATOM     12  C   UNL     1       8.529  47.558  54.569  1.00  0.00     0.002 A 
ATOM     13  C   UNL     1       9.533  46.419  52.238  1.00  0.00     0.026 A 
ATOM     14  C   UNL     1       7.672  47.224  53.516  1.00  0.00     0.026 A 
ENDBRANCH   7   9
ENDBRANCH   1   7
BRANCH   3  15
ATOM     15  N   UNL     1       6.415  42.331  48.934  1.00  0.00    -0.350 N 
ATOM     16  H   UNL     1       6.510  42.844  48.065  1.00  0.00     0.164 HD
BRANCH  15  17
ATOM     17  C   UNL     1       5.502  41.208  48.883  1.00  0.00     0.152 C 
BRANCH  17  18
ATOM     18  C   UNL     1       4.885  41.136  47.507  1.00  0.00    -0.026 A 
ATOM     19  C   UNL     1       5.472  41.809  46.429  1.00  0.00     0.025 A 
ATOM     20  C   UNL     1       3.713  40.411  47.277  1.00  0.00     0.025 A 
ATOM     21  C   UNL     1       4.872  41.723  45.184  1.00  0.00     0.111 A 
ATOM     22  C   UNL     1       3.190  40.383  45.994  1.00  0.00     0.111 A 
ATOM     23  N   UNL     1       3.744  41.022  44.941  1.00  0.00    -0.265 NA
ENDBRANCH  17  18
ENDBRANCH  15  17
ENDBRANCH   3  15
BRANCH   5  24
ATOM     24  N   UNL     1       3.579  43.671  52.339  1.00  0.00    -0.341 N 
BRANCH  24  25
ATOM     25  C   UNL     1       2.804  42.466  52.083  1.00  0.00     0.119 C 
BRANCH  25  26
ATOM     26  C   UNL     1       1.312  42.717  51.853  1.00  0.00     0.021 C 
BRANCH  26  27
ATOM     27  C   UNL     1       1.002  44.079  51.229  1.00  0.00     0.002 CG0
ATOM     28  G   UNL     1       1.222  45.250  52.186  1.00  0.00     0.000 G0
ENDBRANCH  26  27
ENDBRANCH  25  26
ENDBRANCH  24  25
BRANCH  24  29
ATOM     29  C   UNL     1       3.312  44.520  53.487  1.00  0.00     0.119 C 
BRANCH  29  30
ATOM     30  C   UNL     1       1.826  44.867  53.546  1.00  0.00     0.021 C 
BRANCH  30  31
ATOM     31  C   UNL     1       1.233  45.257  52.191  1.00  0.00     0.002 CG0
ATOM     32  G   UNL     1       1.002  44.098  51.222  1.00  0.00     0.000 G0
ENDBRANCH  30  31
ENDBRANCH  29  30
ENDBRANCH  24  29
ENDBRANCH   5  24
TORSDOF 6
ENDMDL
MODEL 2
REMARK VINA RESULT:    -7.203      2.620      6.402
REMARK INTER + INTRA:         -12.846
REMARK INTER:                 -12.517
REMARK INTRA:                  -0.328
REMARK UNBOUND:                -0.590
REMARK SMILES c1ccc(Nc2nc(NCc3ccncc3)nc(N3CCCCCC3)n2)cc1
REMARK SMILES IDX 6 1 7 2 8 3 17 4 18 5 26 6 5 7 4 9 1 10 2 11 28 12 3 13
REMARK SMILES IDX 27 14 9 15 10 17 11 18 12 19 16 20 13 21 15 22 14 23 19 24
REMARK SMILES IDX 20 25 21 26 22 27 25 29 24 30 23 31
REMARK H PARENT 5 8 9 16
REMARK Flexibility Score:   44.900
ROOT
ATOM      1  C   UNL     1       4.990  46.418  52.572  1.00  0.00     0.233 A 
ATOM      2  N   UNL     1       3.758  46.718  52.951  1.00  0.00    -0.177 NA
ATOM      3  C   UNL     1       2.843  45.791  52.724  1.00  0.00     0.229 A 
ATOM      4  N   UNL     1       3.088  44.628  52.145  1.00  0.00    -0.177 NA
ATOM      5  C   UNL     1       4.344  44.392  51.785  1.00  0.00     0.231 A 
ATOM      6  N   UNL     1       5.318  45.275  51.980  1.00  0.00    -0.176 NA
ENDROOT
BRANCH   1   7
ATOM      7  N   UNL     1       6.047  47.312  52.741  1.00  0.00    -0.324 N 
ATOM      8  H   UNL     1       5.687  48.254  52.716  1.00  0.00     0.170 HD
BRANCH   7   9
ATOM      9  C   UNL     1       7.439  47.173  52.787  1.00  0.00     0.041 A 
ATOM     10  C   UNL     1      10.233  46.828  53.029  1.00  0.00     0.000 A 
ATOM     11  C   UNL     1       9.628  46.815  51.776  1.00  0.00     0.002 A 
ATOM     12  C   UNL     1       9.452  47.006  54.165  1.00  0.00     0.002 A 
ATOM     13  C   UNL     1       8.244  46.981  51.660  1.00  0.00     0.026 A 
ATOM     14  C   UNL     1       8.069  47.172  54.042  1.00  0.00     0.026 A 
ENDBRANCH   7   9
ENDBRANCH   1   7
BRANCH   3  15
ATOM     15  N   UNL     1       1.522  46.011  53.094  1.00  0.00    -0.350 N 
ATOM     16  H   UNL     1       1.543  46.686  53.851  1.00  0.00     0.164 HD
BRANCH  15  17
ATOM     17  C   UNL     1       0.778  44.801  53.377  1.00  0.00     0.152 C 
BRANCH  17  18
ATOM     18  C   UNL     1       0.234  44.874  54.783  1.00  0.00    -0.026 A 
ATOM     19  C   UNL     1       1.046  45.302  55.839  1.00  0.00     0.025 A 
ATOM     20  C   UNL     1      -1.085  44.508  55.067  1.00  0.00     0.025 A 
ATOM     21  C   UNL     1       0.511  45.349  57.115  1.00  0.00     0.111 A 
ATOM     22  C   UNL     1      -1.530  44.593  56.377  1.00  0.00     0.111 A 
ATOM     23  N   UNL     1      -0.761  45.006  57.408  1.00  0.00    -0.265 NA
ENDBRANCH  17  18
ENDBRANCH  15  17
ENDBRANCH   3  15
BRANCH   5  24
ATOM     24  N   UNL     1       4.650  43.179  51.191  1.00  0.00    -0.341 N 
BRANCH  24  25
ATOM     25  C   UNL     1       5.922  43.059  50.496  1.00  0.00     0.119 C 
BRANCH  25  26
ATOM     26  C   UNL     1       6.204  41.661  49.941  1.00  0.00     0.021 C 
BRANCH  26  27
ATOM     27  C   UNL     1       5.277  41.251  48.796  1.00  0.00     0.002 CG0
ATOM     28  G   UNL     1       3.961  40.637  49.270  1.00  0.00     0.000 G0
ENDBRANCH  26  27
ENDBRANCH  25  26
ENDBRANCH  24  25
BRANCH  24  29
ATOM     29  C   UNL     1       3.808  42.023  51.444  1.00  0.00     0.119 C 
BRANCH  29  30
ATOM     30  C   UNL     1       3.112  41.591  50.156  1.00  0.00     0.021 C 
BRANCH  30  31
ATOM     31  C   UNL     1       3.954  40.655  49.287  1.00  0.00     0.002 CG0
ATOM     32  G   UNL     1       5.272  41.242  48.784  1.00  0.00     0.000 G0
ENDBRANCH  30  31
ENDBRANCH  29  30
ENDBRANCH  24  29
ENDBRANCH   5  24
TORSDOF 6
ENDMDL
MODEL 3
REMARK VINA RESULT:    -7.189      1.404      2.035
REMARK INTER + INTRA:         -12.822
REMARK INTER:                 -12.443
REMARK INTRA:                  -0.379
REMARK UNBOUND:                -0.590
REMARK SMILES c1ccc(Nc2nc(NCc3ccncc3)nc(N3CCCCCC3)n2)cc1
REMARK SMILES IDX 6 1 7 2 8 3 17 4 18 5 26 6 5 7 4 9 1 10 2 11 28 12 3 13
REMARK SMILES IDX 27 14 9 15 10 17 11 18 12 19 16 20 13 21 15 22 14 23 19 24
REMARK SMILES IDX 20 25 21 26 22 27 25 29 24 30 23 31
REMARK H PARENT 5 8 9 16
REMARK Flexibility Score:   44.900
ROOT
ATOM      1  C   UNL     1       5.640  44.970  51.273  1.00  0.00     0.233 A 
ATOM      2  N   UNL     1       5.831  43.800  50.685  1.00  0.00    -0.177 NA
ATOM      3  C   UNL     1       4.884  42.898  50.875  1.00  0.00     0.229 A 
ATOM      4  N   UNL     1       3.802  43.096  51.610  1.00  0.00    -0.177 NA
ATOM      5  C   UNL     1       3.675  44.291  52.176  1.00  0.00     0.231 A 
ATOM      6  N   UNL     1       4.585  45.248  52.031  1.00  0.00    -0.176 NA
ENDROOT
BRANCH   1   7
ATOM      7  N   UNL     1       6.568  46.005  51.164  1.00  0.00    -0.324 N 
ATOM      8  H   UNL     1       6.411  46.497  50.297  1.00  0.00     0.170 HD
BRANCH   7   9
ATOM      9  C   UNL     1       7.697  46.380  51.902  1.00  0.00     0.041 A 
ATOM     10  C   UNL     1       9.885  47.131  53.526  1.00  0.00     0.000 A 
ATOM     11  C   UNL     1      10.096  46.447  52.333  1.00  0.00     0.002 A 
ATOM     12  C   UNL     1       8.587  47.437  53.919  1.00  0.00     0.002 A 
ATOM     13  C   UNL     1       9.010  46.072  51.533  1.00  0.00     0.026 A 
ATOM     14  C   UNL     1       7.506  47.061  53.115  1.00  0.00     0.026 A 
ENDBRANCH   7   9
ENDBRANCH   1   7
BRANCH   3  15
ATOM     15  N   UNL     1       4.990  41.641  50.291  1.00  0.00    -0.350 N 
ATOM     16  H   UNL     1       5.141  40.983  51.049  1.00  0.00     0.164 HD
BRANCH  15  17
ATOM     17  C   UNL     1       5.960  41.568  49.219  1.00  0.00     0.152 C 
BRANCH  17  18
ATOM     18  C   UNL     1       5.237  41.329  47.916  1.00  0.00    -0.026 A 
ATOM     19  C   UNL     1       5.747  41.838  46.716  1.00  0.00     0.025 A 
ATOM     20  C   UNL     1       4.041  40.606  47.874  1.00  0.00     0.025 A 
ATOM     21  C   UNL     1       5.050  41.602  45.543  1.00  0.00     0.111 A 
ATOM     22  C   UNL     1       3.420  40.420  46.649  1.00  0.00     0.111 A 
ATOM     23  N   UNL     1       3.898  40.901  45.482  1.00  0.00    -0.265 NA
ENDBRANCH  17  18
ENDBRANCH  15  17
ENDBRANCH   3  15
BRANCH   5  24
ATOM     24  N   UNL     1       2.549  44.549  52.941  1.00  0.00    -0.341 N 
BRANCH  24  25
ATOM     25  C   UNL     1       2.614  45.631  53.910  1.00  0.00     0.119 C 
BRANCH  25  26
ATOM     26  C   UNL     1       2.239  45.220  55.335  1.00  0.00     0.021 C 
BRANCH  26  27
ATOM     27  C   UNL     1       0.741  45.303  55.631  1.00  0.00     0.002 CG0
ATOM     28  G   UNL     1      -0.115  44.481  54.669  1.00  0.00     0.000 G0
ENDBRANCH  26  27
ENDBRANCH  25  26
ENDBRANCH  24  25
BRANCH  24  29
ATOM     29  C   UNL     1       1.297  43.884  52.622  1.00  0.00     0.119 C 
BRANCH  29  30
ATOM     30  C   UNL     1       0.633  43.380  53.900  1.00  0.00     0.021 C 
BRANCH  30  31
ATOM     31  C   UNL     1      -0.117  44.466  54.672  1.00  0.00     0.002 CG0
ATOM     32  G   UNL     1       0.738  45.293  55.631  1.00  0.00     0.000 G0
ENDBRANCH  30  31
ENDBRANCH  29  30
ENDBRANCH  24  29
ENDBRANCH   5  24
TORSDOF 6
ENDMDL
MODEL 4
REMARK VINA RESULT:    -7.171      0.920      1.871
REMARK INTER + INTRA:         -12.792
REMARK INTER:                 -12.483
REMARK INTRA:                  -0.308
REMARK UNBOUND:                -0.590
REMARK SMILES c1ccc(Nc2nc(NCc3ccncc3)nc(N3CCCCCC3)n2)cc1
REMARK SMILES IDX 6 1 7 2 8 3 17 4 18 5 26 6 5 7 4 9 1 10 2 11 28 12 3 13
REMARK SMILES IDX 27 14 9 15 10 17 11 18 12 19 16 20 13 21 15 22 14 23 19 24
REMARK SMILES IDX 20 25 21 26 22 27 25 29 24 30 23 31
REMARK H PARENT 5 8 9 16
REMARK Flexibility Score:   44.900
ROOT
ATOM      1  C   UNL     1       6.077  45.343  51.311  1.00  0.00     0.233 A 
ATOM      2  N   UNL     1       6.689  44.460  50.537  1.00  0.00    -0.177 NA
ATOM      3  C   UNL     1       5.968  43.414  50.174  1.00  0.00     0.229 A 
ATOM      4  N   UNL     1       4.715  43.207  50.542  1.00  0.00    -0.177 NA
ATOM      5  C   UNL     1       4.162  44.129  51.322  1.00  0.00     0.231 A 
ATOM      6  N   UNL     1       4.823  45.207  51.730  1.00  0.00    -0.176 NA
ENDROOT
BRANCH   1   7
ATOM      7  N   UNL     1       6.727  46.484  51.777  1.00  0.00    -0.324 N 
ATOM      8  H   UNL     1       6.316  47.297  51.343  1.00  0.00     0.170 HD
BRANCH   7   9
ATOM      9  C   UNL     1       7.863  46.703  52.565  1.00  0.00     0.041 A 
ATOM     10  C   UNL     1      10.242  47.165  54.019  1.00  0.00     0.000 A 
ATOM     11  C   UNL     1       9.006  47.480  54.574  1.00  0.00     0.002 A 
ATOM     12  C   UNL     1      10.301  46.627  52.738  1.00  0.00     0.002 A 
ATOM     13  C   UNL     1       7.830  47.254  53.849  1.00  0.00     0.026 A 
ATOM     14  C   UNL     1       9.123  46.403  52.020  1.00  0.00     0.026 A 
ENDBRANCH   7   9
ENDBRANCH   1   7
BRANCH   3  15
ATOM     15  N   UNL     1       6.521  42.437  49.355  1.00  0.00    -0.350 N 
ATOM     16  H   UNL     1       6.736  42.888  48.472  1.00  0.00     0.164 HD
BRANCH  15  17
ATOM     17  C   UNL     1       5.722  41.234  49.246  1.00  0.00     0.152 C 
BRANCH  17  18
ATOM     18  C   UNL     1       5.087  41.186  47.878  1.00  0.00    -0.026 A 
ATOM     19  C   UNL     1       3.953  40.399  47.648  1.00  0.00     0.025 A 
ATOM     20  C   UNL     1       5.618  41.913  46.809  1.00  0.00     0.025 A 
ATOM     21  C   UNL     1       3.404  40.377  46.377  1.00  0.00     0.111 A 
ATOM     22  C   UNL     1       4.994  41.828  45.574  1.00  0.00     0.111 A 
ATOM     23  N   UNL     1       3.898  41.077  45.334  1.00  0.00    -0.265 NA
ENDBRANCH  17  18
ENDBRANCH  15  17
ENDBRANCH   3  15
BRANCH   5  24
ATOM     24  N   UNL     1       2.846  43.962  51.720  1.00  0.00    -0.341 N 
BRANCH  24  25
ATOM     25  C   UNL     1       1.859  44.914  51.235  1.00  0.00     0.119 C 
BRANCH  25  26
ATOM     26  C   UNL     1       1.122  45.672  52.341  1.00  0.00     0.021 C 
BRANCH  26  27
ATOM     27  C   UNL     1       1.780  45.556  53.716  1.00  0.00     0.002 CG0
ATOM     28  G   UNL     1       1.584  44.189  54.371  1.00  0.00     0.000 G0
ENDBRANCH  26  27
ENDBRANCH  25  26
ENDBRANCH  24  25
BRANCH  24  29
ATOM     29  C   UNL     1       2.457  42.753  52.426  1.00  0.00     0.119 C 
BRANCH  29  30
ATOM     30  C   UNL     1       1.294  43.050  53.369  1.00  0.00     0.021 C 
BRANCH  30  31
ATOM     31  C   UNL     1       1.577  44.183  54.356  1.00  0.00     0.002 CG0
ATOM     32  G   UNL     1       1.769  45.563  53.728  1.00  0.00     0.000 G0
ENDBRANCH  30  31
ENDBRANCH  29  30
ENDBRANCH  24  29
ENDBRANCH   5  24
TORSDOF 6
ENDMDL
MODEL 5
REMARK VINA RESULT:    -7.058      1.188      1.898
REMARK INTER + INTRA:         -12.600
REMARK INTER:                 -12.011
REMARK INTRA:                  -0.589
REMARK UNBOUND:                -0.590
REMARK SMILES c1ccc(Nc2nc(NCc3ccncc3)nc(N3CCCCCC3)n2)cc1
REMARK SMILES IDX 6 1 7 2 8 3 17 4 18 5 26 6 5 7 4 9 1 10 2 11 28 12 3 13
REMARK SMILES IDX 27 14 9 15 10 17 11 18 12 19 16 20 13 21 15 22 14 23 19 24
REMARK SMILES IDX 20 25 21 26 22 27 25 29 24 30 23 31
REMARK H PARENT 5 8 9 16
REMARK Flexibility Score:   44.900
ROOT
ATOM      1  C   UNL     1       5.302  44.969  51.544  1.00  0.00     0.233 A 
ATOM      2  N   UNL     1       5.711  43.842  50.982  1.00  0.00    -0.177 NA
ATOM      3  C   UNL     1       4.849  42.841  51.003  1.00  0.00     0.229 A 
ATOM      4  N   UNL     1       3.646  42.904  51.549  1.00  0.00    -0.177 NA
ATOM      5  C   UNL     1       3.300  44.061  52.099  1.00  0.00     0.231 A 
ATOM      6  N   UNL     1       4.113  45.112  52.118  1.00  0.00    -0.176 NA
ENDROOT
BRANCH   1   7
ATOM      7  N   UNL     1       6.118  46.098  51.602  1.00  0.00    -0.324 N 
ATOM      8  H   UNL     1       5.746  46.804  50.984  1.00  0.00     0.170 HD
BRANCH   7   9
ATOM      9  C   UNL     1       7.355  46.374  52.197  1.00  0.00     0.041 A 
ATOM     10  C   UNL     1       9.913  46.953  53.248  1.00  0.00     0.000 A 
ATOM     11  C   UNL     1       8.768  47.230  53.989  1.00  0.00     0.002 A 
ATOM     12  C   UNL     1       9.790  46.394  51.981  1.00  0.00     0.002 A 
ATOM     13  C   UNL     1       7.502  46.947  53.463  1.00  0.00     0.026 A 
ATOM     14  C   UNL     1       8.523  46.113  51.462  1.00  0.00     0.026 A 
ENDBRANCH   7   9
ENDBRANCH   1   7
BRANCH   3  15
ATOM     15  N   UNL     1       5.185  41.620  50.431  1.00  0.00    -0.350 N 
ATOM     16  H   UNL     1       5.517  41.029  51.186  1.00  0.00     0.164 HD
BRANCH  15  17
ATOM     17  C   UNL     1       6.082  41.724  49.299  1.00  0.00     0.152 C 
BRANCH  17  18
ATOM     18  C   UNL     1       5.320  41.409  48.035  1.00  0.00    -0.026 A 
ATOM     19  C   UNL     1       4.156  40.633  48.081  1.00  0.00     0.025 A 
ATOM     20  C   UNL     1       5.760  41.871  46.791  1.00  0.00     0.025 A 
ATOM     21  C   UNL     1       3.490  40.361  46.898  1.00  0.00     0.111 A 
ATOM     22  C   UNL     1       5.021  41.548  45.664  1.00  0.00     0.111 A 
ATOM     23  N   UNL     1       3.895  40.804  45.689  1.00  0.00    -0.265 NA
ENDBRANCH  17  18
ENDBRANCH  15  17
ENDBRANCH   3  15
BRANCH   5  24
ATOM     24  N   UNL     1       2.043  44.178  52.669  1.00  0.00    -0.341 N 
BRANCH  24  25
ATOM     25  C   UNL     1       1.531  43.051  53.433  1.00  0.00     0.119 C 
BRANCH  25  26
ATOM     26  C   UNL     1       0.133  42.592  53.013  1.00  0.00     0.021 C 
BRANCH  26  27
ATOM     27  C   UNL     1      -0.183  42.838  51.537  1.00  0.00     0.002 CG0
ATOM     28  G   UNL     1      -0.386  44.314  51.197  1.00  0.00     0.000 G0
ENDBRANCH  26  27
ENDBRANCH  25  26
ENDBRANCH  24  25
BRANCH  24  29
ATOM     29  C   UNL     1       1.369  45.465  52.664  1.00  0.00     0.119 C 
BRANCH  29  30
ATOM     30  C   UNL     1      -0.115  45.277  52.359  1.00  0.00     0.021 C 
BRANCH  30  31
ATOM     31  C   UNL     1      -0.386  44.314  51.202  1.00  0.00     0.002 CG0
ATOM     32  G   UNL     1      -0.185  42.833  51.524  1.00  0.00     0.000 G0
ENDBRANCH  30  31
ENDBRANCH  29  30
ENDBRANCH  24  29
ENDBRANCH   5  24
TORSDOF 6
ENDMDL
MODEL 6
REMARK VINA RESULT:    -7.010      2.580      6.127
REMARK INTER + INTRA:         -12.517
REMARK INTER:                 -12.119
REMARK INTRA:                  -0.398
REMARK UNBOUND:                -0.590
REMARK SMILES c1ccc(Nc2nc(NCc3ccncc3)nc(N3CCCCCC3)n2)cc1
REMARK SMILES IDX 6 1 7 2 8 3 17 4 18 5 26 6 5 7 4 9 1 10 2 11 28 12 3 13
REMARK SMILES IDX 27 14 9 15 10 17 11 18 12 19 16 20 13 21 15 22 14 23 19 24
REMARK SMILES IDX 20 25 21 26 22 27 25 29 24 30 23 31
REMARK H PARENT 5 8 9 16
REMARK Flexibility Score:   44.900
ROOT
ATOM      1  C   UNL     1       5.163  46.469  52.654  1.00  0.00     0.233 A 
ATOM      2  N   UNL     1       3.982  46.757  53.179  1.00  0.00    -0.177 NA
ATOM      3  C   UNL     1       3.042  45.843  53.021  1.00  0.00     0.229 A 
ATOM      4  N   UNL     1       3.212  44.701  52.376  1.00  0.00    -0.177 NA
ATOM      5  C   UNL     1       4.419  44.476  51.870  1.00  0.00     0.231 A 
ATOM      6  N   UNL     1       5.415  45.348  51.987  1.00  0.00    -0.176 NA
ENDROOT
BRANCH   1   7
ATOM      7  N   UNL     1       6.238  47.352  52.737  1.00  0.00    -0.324 N 
ATOM      8  H   UNL     1       5.905  48.291  52.576  1.00  0.00     0.170 HD
BRANCH   7   9
ATOM      9  C   UNL     1       7.624  47.189  52.846  1.00  0.00     0.041 A 
ATOM     10  C   UNL     1      10.398  46.798  53.216  1.00  0.00     0.000 A 
ATOM     11  C   UNL     1       9.847  46.768  51.938  1.00  0.00     0.002 A 
ATOM     12  C   UNL     1       9.572  47.015  54.313  1.00  0.00     0.002 A 
ATOM     13  C   UNL     1       8.472  46.957  51.759  1.00  0.00     0.026 A 
ATOM     14  C   UNL     1       8.200  47.204  54.127  1.00  0.00     0.026 A 
ENDBRANCH   7   9
ENDBRANCH   1   7
BRANCH   3  15
ATOM     15  N   UNL     1       1.771  46.052  53.544  1.00  0.00    -0.350 N 
ATOM     16  H   UNL     1       1.570  47.039  53.428  1.00  0.00     0.164 HD
BRANCH  15  17
ATOM     17  C   UNL     1       1.596  45.548  54.890  1.00  0.00     0.152 C 
BRANCH  17  18
ATOM     18  C   UNL     1       0.272  44.827  54.979  1.00  0.00    -0.026 A 
ATOM     19  C   UNL     1      -0.195  44.066  53.902  1.00  0.00     0.025 A 
ATOM     20  C   UNL     1      -0.520  44.910  56.127  1.00  0.00     0.025 A 
ATOM     21  C   UNL     1      -1.417  43.425  54.021  1.00  0.00     0.111 A 
ATOM     22  C   UNL     1      -1.727  44.229  56.150  1.00  0.00     0.111 A 
ATOM     23  N   UNL     1      -2.194  43.487  55.123  1.00  0.00    -0.265 NA
ENDBRANCH  17  18
ENDBRANCH  15  17
ENDBRANCH   3  15
BRANCH   5  24
ATOM     24  N   UNL     1       4.649  43.285  51.200  1.00  0.00    -0.341 N 
BRANCH  24  25
ATOM     25  C   UNL     1       5.829  43.191  50.356  1.00  0.00     0.119 C 
BRANCH  25  26
ATOM     26  C   UNL     1       6.178  41.766  49.922  1.00  0.00     0.021 C 
BRANCH  26  27
ATOM     27  C   UNL     1       5.239  41.194  48.859  1.00  0.00     0.002 CG0
ATOM     28  G   UNL     1       3.937  40.638  49.434  1.00  0.00     0.000 G0
ENDBRANCH  26  27
ENDBRANCH  25  26
ENDBRANCH  24  25
BRANCH  24  29
ATOM     29  C   UNL     1       3.837  42.120  51.509  1.00  0.00     0.119 C 
BRANCH  29  30
ATOM     30  C   UNL     1       3.119  41.635  50.252  1.00  0.00     0.021 C 
BRANCH  30  31
ATOM     31  C   UNL     1       3.932  40.637  49.427  1.00  0.00     0.002 CG0
ATOM     32  G   UNL     1       5.230  41.185  48.834  1.00  0.00     0.000 G0
ENDBRANCH  30  31
ENDBRANCH  29  30
ENDBRANCH  24  29
ENDBRANCH   5  24
TORSDOF 6
ENDMDL
MODEL 7
REMARK VINA RESULT:    -6.967      1.257      7.085
REMARK INTER + INTRA:         -12.445
REMARK INTER:                 -12.043
REMARK INTRA:                  -0.402
REMARK UNBOUND:                -0.590
REMARK SMILES c1ccc(Nc2nc(NCc3ccncc3)nc(N3CCCCCC3)n2)cc1
REMARK SMILES IDX 6 1 7 2 8 3 17 4 18 5 26 6 5 7 4 9 1 10 2 11 28 12 3 13
REMARK SMILES IDX 27 14 9 15 10 17 11 18 12 19 16 20 13 21 15 22 14 23 19 24
REMARK SMILES IDX 20 25 21 26 22 27 25 29 24 30 23 31
REMARK H PARENT 5 8 9 16
REMARK Flexibility Score:   44.900
ROOT
ATOM      1  C   UNL     1       6.007  42.512  49.446  1.00  0.00     0.233 A 
ATOM      2  N   UNL     1       6.915  43.457  49.262  1.00  0.00    -0.177 NA
ATOM      3  C   UNL     1       6.906  44.444  50.141  1.00  0.00     0.229 A 
ATOM      4  N   UNL     1       6.057  44.536  51.150  1.00  0.00    -0.177 NA
ATOM      5  C   UNL     1       5.169  43.557  51.275  1.00  0.00     0.231 A 
ATOM      6  N   UNL     1       5.115  42.533  50.430  1.00  0.00    -0.176 NA
ENDROOT
BRANCH   1   7
ATOM      7  N   UNL     1       5.899  41.422  48.583  1.00  0.00    -0.324 N 
ATOM      8  H   UNL     1       6.598  40.737  48.830  1.00  0.00     0.170 HD
BRANCH   7   9
ATOM      9  C   UNL     1       5.157  41.170  47.424  1.00  0.00     0.041 A 
ATOM     10  C   UNL     1       3.524  40.658  45.175  1.00  0.00     0.000 A 
ATOM     11  C   UNL     1       4.713  41.366  45.034  1.00  0.00     0.002 A 
ATOM     12  C   UNL     1       3.139  40.208  46.433  1.00  0.00     0.002 A 
ATOM     13  C   UNL     1       5.517  41.623  46.151  1.00  0.00     0.026 A 
ATOM     14  C   UNL     1       3.947  40.467  47.544  1.00  0.00     0.026 A 
ENDBRANCH   7   9
ENDBRANCH   1   7
BRANCH   3  15
ATOM     15  N   UNL     1       7.827  45.479  50.036  1.00  0.00    -0.350 N 
ATOM     16  H   UNL     1       8.025  45.591  49.048  1.00  0.00     0.164 HD
BRANCH  15  17
ATOM     17  C   UNL     1       8.996  45.319  50.876  1.00  0.00     0.152 C 
BRANCH  17  18
ATOM     18  C   UNL     1       8.957  46.349  51.979  1.00  0.00    -0.026 A 
ATOM     19  C   UNL     1       8.022  47.389  51.946  1.00  0.00     0.025 A 
ATOM     20  C   UNL     1       9.854  46.296  53.049  1.00  0.00     0.025 A 
ATOM     21  C   UNL     1       8.022  48.318  52.974  1.00  0.00     0.111 A 
ATOM     22  C   UNL     1       9.772  47.271  54.032  1.00  0.00     0.111 A 
ATOM     23  N   UNL     1       8.876  48.280  54.019  1.00  0.00    -0.265 NA
ENDBRANCH  17  18
ENDBRANCH  15  17
ENDBRANCH   3  15
BRANCH   5  24
ATOM     24  N   UNL     1       4.269  43.604  52.327  1.00  0.00    -0.341 N 
BRANCH  24  25
ATOM     25  C   UNL     1       4.362  44.717  53.258  1.00  0.00     0.119 C 
BRANCH  25  26
ATOM     26  C   UNL     1       3.160  45.663  53.227  1.00  0.00     0.021 C 
BRANCH  26  27
ATOM     27  C   UNL     1       2.591  45.897  51.827  1.00  0.00     0.002 CG0
ATOM     28  G   UNL     1       1.985  44.641  51.199  1.00  0.00     0.000 G0
ENDBRANCH  26  27
ENDBRANCH  25  26
ENDBRANCH  24  25
BRANCH  24  29
ATOM     29  C   UNL     1       3.152  42.675  52.359  1.00  0.00     0.119 C 
BRANCH  29  30
ATOM     30  C   UNL     1       1.842  43.424  52.129  1.00  0.00     0.021 C 
BRANCH  30  31
ATOM     31  C   UNL     1       1.980  44.628  51.197  1.00  0.00     0.002 CG0
ATOM     32  G   UNL     1       2.597  45.876  51.828  1.00  0.00     0.000 G0
ENDBRANCH  30  31
ENDBRANCH  29  30
ENDBRANCH  24  29
ENDBRANCH   5  24
TORSDOF 6
ENDMDL
MODEL 8
REMARK VINA RESULT:    -6.901      1.475      7.104
REMARK INTER + INTRA:         -12.332
REMARK INTER:                 -11.923
REMARK INTRA:                  -0.409
REMARK UNBOUND:                -0.590
REMARK SMILES c1ccc(Nc2nc(NCc3ccncc3)nc(N3CCCCCC3)n2)cc1
REMARK SMILES IDX 6 1 7 2 8 3 17 4 18 5 26 6 5 7 4 9 1 10 2 11 28 12 3 13
REMARK SMILES IDX 27 14 9 15 10 17 11 18 12 19 16 20 13 21 15 22 14 23 19 24
REMARK SMILES IDX 20 25 21 26 22 27 25 29 24 30 23 31
REMARK H PARENT 5 8 9 16
REMARK Flexibility Score:   44.900
ROOT
ATOM      1  C   UNL     1       6.061  43.050  50.129  1.00  0.00     0.233 A 
ATOM      2  N   UNL     1       6.926  44.028  49.915  1.00  0.00    -0.177 NA
ATOM      3  C   UNL     1       6.835  45.066  50.728  1.00  0.00     0.229 A 
ATOM      4  N   UNL     1       5.945  45.176  51.700  1.00  0.00    -0.177 NA
ATOM      5  C   UNL     1       5.104  44.161  51.857  1.00  0.00     0.231 A 
ATOM      6  N   UNL     1       5.133  43.085  51.079  1.00  0.00    -0.176 NA
ENDROOT
BRANCH   1   7
ATOM      7  N   UNL     1       6.040  41.904  49.335  1.00  0.00    -0.324 N 
ATOM      8  H   UNL     1       6.799  41.298  49.612  1.00  0.00     0.170 HD
BRANCH   7   9
ATOM      9  C   UNL     1       5.312  41.518  48.204  1.00  0.00     0.041 A 
ATOM     10  C   UNL     1       3.980  40.748  45.833  1.00  0.00     0.000 A 
ATOM     11  C   UNL     1       3.518  40.315  47.072  1.00  0.00     0.002 A 
ATOM     12  C   UNL     1       5.107  41.559  45.767  1.00  0.00     0.002 A 
ATOM     13  C   UNL     1       4.183  40.693  48.244  1.00  0.00     0.026 A 
ATOM     14  C   UNL     1       5.766  41.934  46.942  1.00  0.00     0.026 A 
ENDBRANCH   7   9
ENDBRANCH   1   7
BRANCH   3  15
ATOM     15  N   UNL     1       7.706  46.140  50.588  1.00  0.00    -0.350 N 
ATOM     16  H   UNL     1       7.735  46.360  49.598  1.00  0.00     0.164 HD
BRANCH  15  17
ATOM     17  C   UNL     1       8.999  45.938  51.206  1.00  0.00     0.152 C 
BRANCH  17  18
ATOM     18  C   UNL     1       9.048  46.697  52.509  1.00  0.00    -0.026 A 
ATOM     19  C   UNL     1      10.040  46.421  53.456  1.00  0.00     0.025 A 
ATOM     20  C   UNL     1       8.102  47.682  52.807  1.00  0.00     0.025 A 
ATOM     21  C   UNL     1      10.047  47.136  54.642  1.00  0.00     0.111 A 
ATOM     22  C   UNL     1       8.195  48.345  54.021  1.00  0.00     0.111 A 
ATOM     23  N   UNL     1       9.147  48.095  54.945  1.00  0.00    -0.265 NA
ENDBRANCH  17  18
ENDBRANCH  15  17
ENDBRANCH   3  15
BRANCH   5  24
ATOM     24  N   UNL     1       4.165  44.226  52.874  1.00  0.00    -0.341 N 
BRANCH  24  25
ATOM     25  C   UNL     1       2.952  43.435  52.736  1.00  0.00     0.119 C 
BRANCH  25  26
ATOM     26  C   UNL     1       1.661  44.217  52.988  1.00  0.00     0.021 C 
BRANCH  26  27
ATOM     27  C   UNL     1       1.272  44.313  54.464  1.00  0.00     0.002 CG0
ATOM     28  G   UNL     1       2.237  45.159  55.294  1.00  0.00     0.000 G0
ENDBRANCH  26  27
ENDBRANCH  25  26
ENDBRANCH  24  25
BRANCH  24  29
ATOM     29  C   UNL     1       4.497  44.904  54.115  1.00  0.00     0.119 C 
BRANCH  29  30
ATOM     30  C   UNL     1       3.365  45.846  54.515  1.00  0.00     0.021 C 
BRANCH  30  31
ATOM     31  C   UNL     1       2.245  45.163  55.301  1.00  0.00     0.002 CG0
ATOM     32  G   UNL     1       1.280  44.323  54.466  1.00  0.00     0.000 G0
ENDBRANCH  30  31
ENDBRANCH  29  30
ENDBRANCH  24  29
ENDBRANCH   5  24
TORSDOF 6
ENDMDL
MODEL 9
REMARK VINA RESULT:    -6.852      2.530      6.474
REMARK INTER + INTRA:         -12.249
REMARK INTER:                 -12.087
REMARK INTRA:                  -0.162
REMARK UNBOUND:                -0.590
REMARK SMILES c1ccc(Nc2nc(NCc3ccncc3)nc(N3CCCCCC3)n2)cc1
REMARK SMILES IDX 6 1 7 2 8 3 17 4 18 5 26 6 5 7 4 9 1 10 2 11 28 12 3 13
REMARK SMILES IDX 27 14 9 15 10 17 11 18 12 19 16 20 13 21 15 22 14 23 19 24
REMARK SMILES IDX 20 25 21 26 22 27 25 29 24 30 23 31
REMARK H PARENT 5 8 9 16
REMARK Flexibility Score:   44.900
ROOT
ATOM      1  C   UNL     1       5.442  44.737  51.644  1.00  0.00     0.233 A 
ATOM      2  N   UNL     1       4.499  44.765  52.573  1.00  0.00    -0.177 NA
ATOM      3  C   UNL     1       3.700  43.714  52.617  1.00  0.00     0.229 A 
ATOM      4  N   UNL     1       3.785  42.678  51.798  1.00  0.00    -0.177 NA
ATOM      5  C   UNL     1       4.750  42.715  50.887  1.00  0.00     0.231 A 
ATOM      6  N   UNL     1       5.591  43.738  50.781  1.00  0.00    -0.176 NA
ENDROOT
BRANCH   1   7
ATOM      7  N   UNL     1       6.343  45.788  51.481  1.00  0.00    -0.324 N 
ATOM      8  H   UNL     1       6.147  46.257  50.609  1.00  0.00     0.170 HD
BRANCH   7   9
ATOM      9  C   UNL     1       7.486  46.204  52.173  1.00  0.00     0.041 A 
ATOM     10  C   UNL     1       9.862  47.082  53.427  1.00  0.00     0.000 A 
ATOM     11  C   UNL     1       8.643  47.166  54.092  1.00  0.00     0.002 A 
ATOM     12  C   UNL     1       9.904  46.568  52.135  1.00  0.00     0.002 A 
ATOM     13  C   UNL     1       7.467  46.736  53.467  1.00  0.00     0.026 A 
ATOM     14  C   UNL     1       8.726  46.139  51.517  1.00  0.00     0.026 A 
ENDBRANCH   7   9
ENDBRANCH   1   7
BRANCH   3  15
ATOM     15  N   UNL     1       2.685  43.648  53.563  1.00  0.00    -0.350 N 
ATOM     16  H   UNL     1       2.297  42.713  53.506  1.00  0.00     0.164 HD
BRANCH  15  17
ATOM     17  C   UNL     1       1.714  44.717  53.464  1.00  0.00     0.152 C 
BRANCH  17  18
ATOM     18  C   UNL     1       0.956  44.819  54.766  1.00  0.00    -0.026 A 
ATOM     19  C   UNL     1       1.603  45.241  55.933  1.00  0.00     0.025 A 
ATOM     20  C   UNL     1      -0.399  44.485  54.841  1.00  0.00     0.025 A 
ATOM     21  C   UNL     1       0.874  45.315  57.108  1.00  0.00     0.111 A 
ATOM     22  C   UNL     1      -1.042  44.594  56.064  1.00  0.00     0.111 A 
ATOM     23  N   UNL     1      -0.436  45.003  57.200  1.00  0.00    -0.265 NA
ENDBRANCH  17  18
ENDBRANCH  15  17
ENDBRANCH   3  15
BRANCH   5  24
ATOM     24  N   UNL     1       4.886  41.644  50.018  1.00  0.00    -0.341 N 
BRANCH  24  25
ATOM     25  C   UNL     1       3.700  40.867  49.699  1.00  0.00     0.119 C 
BRANCH  25  26
ATOM     26  C   UNL     1       3.798  40.081  48.390  1.00  0.00     0.021 C 
BRANCH  26  27
ATOM     27  C   UNL     1       3.946  40.962  47.148  1.00  0.00     0.002 CG0
ATOM     28  G   UNL     1       5.392  41.360  46.855  1.00  0.00     0.000 G0
ENDBRANCH  26  27
ENDBRANCH  25  26
ENDBRANCH  24  25
BRANCH  24  29
ATOM     29  C   UNL     1       6.138  41.454  49.305  1.00  0.00     0.119 C 
BRANCH  29  30
ATOM     30  C   UNL     1       6.083  42.163  47.955  1.00  0.00     0.021 C 
BRANCH  30  31
ATOM     31  C   UNL     1       5.396  41.346  46.860  1.00  0.00     0.002 CG0
ATOM     32  G   UNL     1       3.944  40.966  47.144  1.00  0.00     0.000 G0
ENDBRANCH  30  31
ENDBRANCH  29  30
ENDBRANCH  24  29
ENDBRANCH   5  24
TORSDOF 6
ENDMDL
MODEL 10
REMARK VINA RESULT:    -6.837      2.819      6.641
REMARK INTER + INTRA:         -12.223
REMARK INTER:                 -11.996
REMARK INTRA:                  -0.227
REMARK UNBOUND:                -0.590
REMARK SMILES c1ccc(Nc2nc(NCc3ccncc3)nc(N3CCCCCC3)n2)cc1
REMARK SMILES IDX 6 1 7 2 8 3 17 4 18 5 26 6 5 7 4 9 1 10 2 11 28 12 3 13
REMARK SMILES IDX 27 14 9 15 10 17 11 18 12 19 16 20 13 21 15 22 14 23 19 24
REMARK SMILES IDX 20 25 21 26 22 27 25 29 24 30 23 31
REMARK H PARENT 5 8 9 16
REMARK Flexibility Score:   44.900
ROOT
ATOM      1  C   UNL     1       3.777  43.813  52.977  1.00  0.00     0.233 A 
ATOM      2  N   UNL     1       4.850  44.448  53.420  1.00  0.00    -0.177 NA
ATOM      3  C   UNL     1       4.649  45.299  54.410  1.00  0.00     0.229 A 
ATOM      4  N   UNL     1       3.469  45.548  54.953  1.00  0.00    -0.177 NA
ATOM      5  C   UNL     1       2.433  44.880  54.459  1.00  0.00     0.231 A 
ATOM      6  N   UNL     1       2.556  44.009  53.463  1.00  0.00    -0.176 NA
ENDROOT
BRANCH   1   7
ATOM      7  N   UNL     1       3.847  42.899  51.928  1.00  0.00    -0.324 N 
ATOM      8  H   UNL     1       3.147  42.184  52.066  1.00  0.00     0.170 HD
BRANCH   7   9
ATOM      9  C   UNL     1       4.736  42.705  50.864  1.00  0.00     0.041 A 
ATOM     10  C   UNL     1       6.639  42.411  48.796  1.00  0.00     0.000 A 
ATOM     11  C   UNL     1       5.712  41.404  49.048  1.00  0.00     0.002 A 
ATOM     12  C   UNL     1       6.629  43.563  49.575  1.00  0.00     0.002 A 
ATOM     13  C   UNL     1       4.774  41.551  50.076  1.00  0.00     0.026 A 
ATOM     14  C   UNL     1       5.689  43.704  50.600  1.00  0.00     0.026 A 
ENDBRANCH   7   9
ENDBRANCH   1   7
BRANCH   3  15
ATOM     15  N   UNL     1       5.717  46.008  54.948  1.00  0.00    -0.350 N 
ATOM     16  H   UNL     1       5.498  46.162  55.926  1.00  0.00     0.164 HD
BRANCH  15  17
ATOM     17  C   UNL     1       6.067  47.203  54.207  1.00  0.00     0.152 C 
BRANCH  17  18
ATOM     18  C   UNL     1       7.404  46.995  53.538  1.00  0.00    -0.026 A 
ATOM     19  C   UNL     1       8.592  47.223  54.241  1.00  0.00     0.025 A 
ATOM     20  C   UNL     1       7.489  46.582  52.206  1.00  0.00     0.025 A 
ATOM     21  C   UNL     1       9.799  47.026  53.589  1.00  0.00     0.111 A 
ATOM     22  C   UNL     1       8.744  46.410  51.643  1.00  0.00     0.111 A 
ATOM     23  N   UNL     1       9.902  46.622  52.305  1.00  0.00    -0.265 NA
ENDBRANCH  17  18
ENDBRANCH  15  17
ENDBRANCH   3  15
BRANCH   5  24
ATOM     24  N   UNL     1       1.179  45.096  55.008  1.00  0.00    -0.341 N 
BRANCH  24  25
ATOM     25  C   UNL     1       0.018  44.922  54.150  1.00  0.00     0.119 C 
BRANCH  25  26
ATOM     26  C   UNL     1      -0.893  43.761  54.555  1.00  0.00     0.021 C 
BRANCH  26  27
ATOM     27  C   UNL     1      -1.969  44.143  55.573  1.00  0.00     0.002 CG0
ATOM     28  G   UNL     1      -1.399  44.641  56.901  1.00  0.00     0.000 G0
ENDBRANCH  26  27
ENDBRANCH  25  26
ENDBRANCH  24  25
BRANCH  24  29
ATOM     29  C   UNL     1       1.046  45.285  56.442  1.00  0.00     0.119 C 
BRANCH  29  30
ATOM     30  C   UNL     1      -0.359  45.777  56.776  1.00  0.00     0.021 C 
BRANCH  30  31
ATOM     31  C   UNL     1      -1.388  44.654  56.907  1.00  0.00     0.002 CG0
ATOM     32  G   UNL     1      -1.976  44.151  55.589  1.00  0.00     0.000 G0
ENDBRANCH  30  31
ENDBRANCH  29  30
ENDBRANCH  24  29
ENDBRANCH   5  24
TORSDOF 6
ENDMDL
MODEL 11
REMARK VINA RESULT:    -6.779      3.242      7.209
REMARK INTER + INTRA:         -12.124
REMARK INTER:                 -11.836
REMARK INTRA:                  -0.289
REMARK UNBOUND:                -0.590
REMARK SMILES c1ccc(Nc2nc(NCc3ccncc3)nc(N3CCCCCC3)n2)cc1
REMARK SMILES IDX 6 1 7 2 8 3 17 4 18 5 26 6 5 7 4 9 1 10 2 11 28 12 3 13
REMARK SMILES IDX 27 14 9 15 10 17 11 18 12 19 16 20 13 21 15 22 14 23 19 24
REMARK SMILES IDX 20 25 21 26 22 27 25 29 24 30 23 31
REMARK H PARENT 5 8 9 16
REMARK Flexibility Score:   44.900
ROOT
ATOM      1  C   UNL     1       5.104  46.797  53.718  1.00  0.00     0.233 A 
ATOM      2  N   UNL     1       4.577  46.806  54.932  1.00  0.00    -0.177 NA
ATOM      3  C   UNL     1       3.498  46.062  55.098  1.00  0.00     0.229 A 
ATOM      4  N   UNL     1       2.932  45.345  54.141  1.00  0.00    -0.177 NA
ATOM      5  C   UNL     1       3.508  45.384  52.946  1.00  0.00     0.231 A 
ATOM      6  N   UNL     1       4.594  46.109  52.702  1.00  0.00    -0.176 NA
ENDROOT
BRANCH   1   7
ATOM      7  N   UNL     1       6.236  47.548  53.404  1.00  0.00    -0.324 N 
ATOM      8  H   UNL     1       5.956  48.499  53.214  1.00  0.00     0.170 HD
BRANCH   7   9
ATOM      9  C   UNL     1       7.579  47.232  53.171  1.00  0.00     0.041 A 
ATOM     10  C   UNL     1      10.266  46.622  52.542  1.00  0.00     0.000 A 
ATOM     11  C   UNL     1       9.934  47.131  53.794  1.00  0.00     0.002 A 
ATOM     12  C   UNL     1       9.265  46.420  51.597  1.00  0.00     0.002 A 
ATOM     13  C   UNL     1       8.603  47.437  54.100  1.00  0.00     0.026 A 
ATOM     14  C   UNL     1       7.938  46.727  51.910  1.00  0.00     0.026 A 
ENDBRANCH   7   9
ENDBRANCH   1   7
BRANCH   3  15
ATOM     15  N   UNL     1       2.877  46.001  56.340  1.00  0.00    -0.350 N 
ATOM     16  H   UNL     1       3.560  45.617  56.985  1.00  0.00     0.164 HD
BRANCH  15  17
ATOM     17  C   UNL     1       1.599  45.321  56.330  1.00  0.00     0.152 C 
BRANCH  17  18
ATOM     18  C   UNL     1       0.628  46.082  57.198  1.00  0.00    -0.026 A 
ATOM     19  C   UNL     1      -0.738  46.098  56.893  1.00  0.00     0.025 A 
ATOM     20  C   UNL     1       1.066  46.796  58.317  1.00  0.00     0.025 A 
ATOM     21  C   UNL     1      -1.595  46.814  57.712  1.00  0.00     0.111 A 
ATOM     22  C   UNL     1       0.129  47.480  59.077  1.00  0.00     0.111 A 
ATOM     23  N   UNL     1      -1.193  47.504  58.800  1.00  0.00    -0.265 NA
ENDBRANCH  17  18
ENDBRANCH  15  17
ENDBRANCH   3  15
BRANCH   5  24
ATOM     24  N   UNL     1       2.959  44.635  51.918  1.00  0.00    -0.341 N 
BRANCH  24  25
ATOM     25  C   UNL     1       1.809  45.179  51.214  1.00  0.00     0.119 C 
BRANCH  25  26
ATOM     26  C   UNL     1       0.459  44.705  51.756  1.00  0.00     0.021 C 
BRANCH  26  27
ATOM     27  C   UNL     1       0.254  43.192  51.670  1.00  0.00     0.002 CG0
ATOM     28  G   UNL     1       1.449  42.386  52.179  1.00  0.00     0.000 G0
ENDBRANCH  26  27
ENDBRANCH  25  26
ENDBRANCH  24  25
BRANCH  24  29
ATOM     29  C   UNL     1       3.652  43.449  51.444  1.00  0.00     0.119 C 
BRANCH  29  30
ATOM     30  C   UNL     1       2.659  42.308  51.244  1.00  0.00     0.021 C 
BRANCH  30  31
ATOM     31  C   UNL     1       1.455  42.370  52.185  1.00  0.00     0.002 CG0
ATOM     32  G   UNL     1       0.270  43.190  51.674  1.00  0.00     0.000 G0
ENDBRANCH  30  31
ENDBRANCH  29  30
ENDBRANCH  24  29
ENDBRANCH   5  24
TORSDOF 6
ENDMDL
MODEL 12
REMARK VINA RESULT:    -6.775      2.731      6.642
REMARK INTER + INTRA:         -12.117
REMARK INTER:                 -11.864
REMARK INTRA:                  -0.253
REMARK UNBOUND:                -0.590
REMARK SMILES c1ccc(Nc2nc(NCc3ccncc3)nc(N3CCCCCC3)n2)cc1
REMARK SMILES IDX 6 1 7 2 8 3 17 4 18 5 26 6 5 7 4 9 1 10 2 11 28 12 3 13
REMARK SMILES IDX 27 14 9 15 10 17 11 18 12 19 16 20 13 21 15 22 14 23 19 24
REMARK SMILES IDX 20 25 21 26 22 27 25 29 24 30 23 31
REMARK H PARENT 5 8 9 16
REMARK Flexibility Score:   44.900
ROOT
ATOM      1  C   UNL     1       3.834  43.765  52.957  1.00  0.00     0.233 A 
ATOM      2  N   UNL     1       4.875  44.520  53.271  1.00  0.00    -0.177 NA
ATOM      3  C   UNL     1       4.643  45.489  54.139  1.00  0.00     0.229 A 
ATOM      4  N   UNL     1       3.463  45.740  54.680  1.00  0.00    -0.177 NA
ATOM      5  C   UNL     1       2.460  44.948  54.319  1.00  0.00     0.231 A 
ATOM      6  N   UNL     1       2.615  43.954  53.452  1.00  0.00    -0.176 NA
ENDROOT
BRANCH   1   7
ATOM      7  N   UNL     1       3.937  42.717  52.044  1.00  0.00    -0.324 N 
ATOM      8  H   UNL     1       3.398  41.933  52.381  1.00  0.00     0.170 HD
BRANCH   7   9
ATOM      9  C   UNL     1       4.710  42.499  50.898  1.00  0.00     0.041 A 
ATOM     10  C   UNL     1       6.141  41.992  48.514  1.00  0.00     0.000 A 
ATOM     11  C   UNL     1       6.491  43.064  49.330  1.00  0.00     0.002 A 
ATOM     12  C   UNL     1       5.076  41.175  48.875  1.00  0.00     0.002 A 
ATOM     13  C   UNL     1       5.777  43.315  50.508  1.00  0.00     0.026 A 
ATOM     14  C   UNL     1       4.368  41.431  50.053  1.00  0.00     0.026 A 
ENDBRANCH   7   9
ENDBRANCH   1   7
BRANCH   3  15
ATOM     15  N   UNL     1       5.676  46.330  54.537  1.00  0.00    -0.350 N 
ATOM     16  H   UNL     1       5.389  46.742  55.419  1.00  0.00     0.164 HD
BRANCH  15  17
ATOM     17  C   UNL     1       6.087  47.281  53.525  1.00  0.00     0.152 C 
BRANCH  17  18
ATOM     18  C   UNL     1       7.499  46.966  53.096  1.00  0.00    -0.026 A 
ATOM     19  C   UNL     1       7.746  46.335  51.872  1.00  0.00     0.025 A 
ATOM     20  C   UNL     1       8.590  47.283  53.911  1.00  0.00     0.025 A 
ATOM     21  C   UNL     1       9.055  46.058  51.518  1.00  0.00     0.111 A 
ATOM     22  C   UNL     1       9.864  46.968  53.466  1.00  0.00     0.111 A 
ATOM     23  N   UNL     1      10.122  46.363  52.287  1.00  0.00    -0.265 NA
ENDBRANCH  17  18
ENDBRANCH  15  17
ENDBRANCH   3  15
BRANCH   5  24
ATOM     24  N   UNL     1       1.209  45.163  54.874  1.00  0.00    -0.341 N 
BRANCH  24  25
ATOM     25  C   UNL     1       0.043  44.969  54.027  1.00  0.00     0.119 C 
BRANCH  25  26
ATOM     26  C   UNL     1      -0.809  43.754  54.401  1.00  0.00     0.021 C 
BRANCH  26  27
ATOM     27  C   UNL     1      -1.875  44.046  55.458  1.00  0.00     0.002 CG0
ATOM     28  G   UNL     1      -1.298  44.564  56.776  1.00  0.00     0.000 G0
ENDBRANCH  26  27
ENDBRANCH  25  26
ENDBRANCH  24  25
BRANCH  24  29
ATOM     29  C   UNL     1       1.085  45.373  56.306  1.00  0.00     0.119 C 
BRANCH  29  30
ATOM     30  C   UNL     1      -0.348  45.766  56.654  1.00  0.00     0.021 C 
BRANCH  30  31
ATOM     31  C   UNL     1      -1.298  44.575  56.782  1.00  0.00     0.002 CG0
ATOM     32  G   UNL     1      -1.865  44.048  55.463  1.00  0.00     0.000 G0
ENDBRANCH  30  31
ENDBRANCH  29  30
ENDBRANCH  24  29
ENDBRANCH   5  24
TORSDOF 6
ENDMDL
MODEL 13
REMARK VINA RESULT:    -6.763      2.904      6.863
REMARK INTER + INTRA:         -12.097
REMARK INTER:                 -11.794
REMARK INTRA:                  -0.303
REMARK UNBOUND:                -0.590
REMARK SMILES c1ccc(Nc2nc(NCc3ccncc3)nc(N3CCCCCC3)n2)cc1
REMARK SMILES IDX 6 1 7 2 8 3 17 4 18 5 26 6 5 7 4 9 1 10 2 11 28 12 3 13
REMARK SMILES IDX 27 14 9 15 10 17 11 18 12 19 16 20 13 21 15 22 14 23 19 24
REMARK SMILES IDX 20 25 21 26 22 27 25 29 24 30 23 31
REMARK H PARENT 5 8 9 16
REMARK Flexibility Score:   44.900
ROOT
ATOM      1  C   UNL     1       5.130  45.962  53.392  1.00  0.00     0.233 A 
ATOM      2  N   UNL     1       4.215  45.807  54.336  1.00  0.00    -0.177 NA
ATOM      3  C   UNL     1       3.381  44.795  54.171  1.00  0.00     0.229 A 
ATOM      4  N   UNL     1       3.408  43.967  53.140  1.00  0.00    -0.177 NA
ATOM      5  C   UNL     1       4.348  44.181  52.227  1.00  0.00     0.231 A 
ATOM      6  N   UNL     1       5.221  45.178  52.323  1.00  0.00    -0.176 NA
ENDROOT
BRANCH   1   7
ATOM      7  N   UNL     1       6.061  46.998  53.437  1.00  0.00    -0.324 N 
ATOM      8  H   UNL     1       5.572  47.878  53.497  1.00  0.00     0.170 HD
BRANCH   7   9
ATOM      9  C   UNL     1       7.450  47.064  53.275  1.00  0.00     0.041 A 
ATOM     10  C   UNL     1      10.270  47.131  53.098  1.00  0.00     0.000 A 
ATOM     11  C   UNL     1       9.495  47.017  51.948  1.00  0.00     0.002 A 
ATOM     12  C   UNL     1       9.647  47.205  54.339  1.00  0.00     0.002 A 
ATOM     13  C   UNL     1       8.099  46.979  52.040  1.00  0.00     0.026 A 
ATOM     14  C   UNL     1       8.252  47.167  54.424  1.00  0.00     0.026 A 
ENDBRANCH   7   9
ENDBRANCH   1   7
BRANCH   3  15
ATOM     15  N   UNL     1       2.391  44.547  55.113  1.00  0.00    -0.350 N 
ATOM     16  H   UNL     1       2.563  43.614  55.474  1.00  0.00     0.164 HD
BRANCH  15  17
ATOM     17  C   UNL     1       1.045  44.774  54.630  1.00  0.00     0.152 C 
BRANCH  17  18
ATOM     18  C   UNL     1       0.195  45.294  55.764  1.00  0.00    -0.026 A 
ATOM     19  C   UNL     1      -1.189  45.086  55.769  1.00  0.00     0.025 A 
ATOM     20  C   UNL     1       0.763  46.002  56.827  1.00  0.00     0.025 A 
ATOM     21  C   UNL     1      -1.934  45.585  56.824  1.00  0.00     0.111 A 
ATOM     22  C   UNL     1      -0.067  46.458  57.839  1.00  0.00     0.111 A 
ATOM     23  N   UNL     1      -1.403  46.265  57.862  1.00  0.00    -0.265 NA
ENDBRANCH  17  18
ENDBRANCH  15  17
ENDBRANCH   3  15
BRANCH   5  24
ATOM     24  N   UNL     1       4.424  43.328  51.137  1.00  0.00    -0.341 N 
BRANCH  24  25
ATOM     25  C   UNL     1       3.266  42.504  50.832  1.00  0.00     0.119 C 
BRANCH  25  26
ATOM     26  C   UNL     1       3.600  41.043  50.522  1.00  0.00     0.021 C 
BRANCH  26  27
ATOM     27  C   UNL     1       4.055  40.803  49.082  1.00  0.00     0.002 CG0
ATOM     28  G   UNL     1       5.473  41.300  48.802  1.00  0.00     0.000 G0
ENDBRANCH  26  27
ENDBRANCH  25  26
ENDBRANCH  24  25
BRANCH  24  29
ATOM     29  C   UNL     1       5.553  43.425  50.228  1.00  0.00     0.119 C 
BRANCH  29  30
ATOM     30  C   UNL     1       6.139  42.039  49.972  1.00  0.00     0.021 C 
BRANCH  30  31
ATOM     31  C   UNL     1       5.474  41.295  48.813  1.00  0.00     0.002 CG0
ATOM     32  G   UNL     1       4.058  40.791  49.088  1.00  0.00     0.000 G0
ENDBRANCH  30  31
ENDBRANCH  29  30
ENDBRANCH  24  29
ENDBRANCH   5  24
TORSDOF 6
ENDMDL
MODEL 14
REMARK VINA RESULT:    -6.747      2.530      7.763
REMARK INTER + INTRA:         -12.071
REMARK INTER:                 -11.598
REMARK INTRA:                  -0.473
REMARK UNBOUND:                -0.590
REMARK SMILES c1ccc(Nc2nc(NCc3ccncc3)nc(N3CCCCCC3)n2)cc1
REMARK SMILES IDX 6 1 7 2 8 3 17 4 18 5 26 6 5 7 4 9 1 10 2 11 28 12 3 13
REMARK SMILES IDX 27 14 9 15 10 17 11 18 12 19 16 20 13 21 15 22 14 23 19 24
REMARK SMILES IDX 20 25 21 26 22 27 25 29 24 30 23 31
REMARK H PARENT 5 8 9 16
REMARK Flexibility Score:   44.900
ROOT
ATOM      1  C   UNL     1       5.040  42.161  50.329  1.00  0.00     0.233 A 
ATOM      2  N   UNL     1       4.065  41.868  51.175  1.00  0.00    -0.177 NA
ATOM      3  C   UNL     1       3.831  42.765  52.117  1.00  0.00     0.229 A 
ATOM      4  N   UNL     1       4.507  43.892  52.259  1.00  0.00    -0.177 NA
ATOM      5  C   UNL     1       5.475  44.122  51.380  1.00  0.00     0.231 A 
ATOM      6  N   UNL     1       5.770  43.269  50.406  1.00  0.00    -0.176 NA
ENDROOT
BRANCH   1   7
ATOM      7  N   UNL     1       5.399  41.296  49.296  1.00  0.00    -0.324 N 
ATOM      8  H   UNL     1       6.140  40.691  49.617  1.00  0.00     0.170 HD
BRANCH   7   9
ATOM      9  C   UNL     1       5.058  41.206  47.942  1.00  0.00     0.041 A 
ATOM     10  C   UNL     1       4.213  41.006  45.252  1.00  0.00     0.000 A 
ATOM     11  C   UNL     1       5.358  41.728  45.579  1.00  0.00     0.002 A 
ATOM     12  C   UNL     1       3.482  40.388  46.260  1.00  0.00     0.002 A 
ATOM     13  C   UNL     1       5.770  41.829  46.913  1.00  0.00     0.026 A 
ATOM     14  C   UNL     1       3.900  40.492  47.590  1.00  0.00     0.026 A 
ENDBRANCH   7   9
ENDBRANCH   1   7
BRANCH   3  15
ATOM     15  N   UNL     1       2.821  42.550  53.048  1.00  0.00    -0.350 N 
ATOM     16  H   UNL     1       2.755  41.546  53.175  1.00  0.00     0.164 HD
BRANCH  15  17
ATOM     17  C   UNL     1       1.571  43.207  52.727  1.00  0.00     0.152 C 
BRANCH  17  18
ATOM     18  C   UNL     1       1.061  43.924  53.953  1.00  0.00    -0.026 A 
ATOM     19  C   UNL     1       1.935  44.662  54.760  1.00  0.00     0.025 A 
ATOM     20  C   UNL     1      -0.286  43.862  54.319  1.00  0.00     0.025 A 
ATOM     21  C   UNL     1       1.429  45.300  55.880  1.00  0.00     0.111 A 
ATOM     22  C   UNL     1      -0.697  44.538  55.457  1.00  0.00     0.111 A 
ATOM     23  N   UNL     1       0.131  45.257  56.246  1.00  0.00    -0.265 NA
ENDBRANCH  17  18
ENDBRANCH  15  17
ENDBRANCH   3  15
BRANCH   5  24
ATOM     24  N   UNL     1       6.199  45.299  51.480  1.00  0.00    -0.341 N 
BRANCH  24  25
ATOM     25  C   UNL     1       7.379  45.450  50.643  1.00  0.00     0.119 C 
BRANCH  25  26
ATOM     26  C   UNL     1       8.622  45.934  51.393  1.00  0.00     0.021 C 
BRANCH  26  27
ATOM     27  C   UNL     1       8.687  47.452  51.570  1.00  0.00     0.002 CG0
ATOM     28  G   UNL     1       7.666  47.990  52.573  1.00  0.00     0.000 G0
ENDBRANCH  26  27
ENDBRANCH  25  26
ENDBRANCH  24  25
BRANCH  24  29
ATOM     29  C   UNL     1       5.662  46.410  52.247  1.00  0.00     0.119 C 
BRANCH  29  30
ATOM     30  C   UNL     1       6.724  46.947  53.203  1.00  0.00     0.021 C 
BRANCH  30  31
ATOM     31  C   UNL     1       7.646  47.990  52.572  1.00  0.00     0.002 CG0
ATOM     32  G   UNL     1       8.666  47.441  51.574  1.00  0.00     0.000 G0
ENDBRANCH  30  31
ENDBRANCH  29  30
ENDBRANCH  24  29
ENDBRANCH   5  24
TORSDOF 6
ENDMDL
MODEL 15
REMARK VINA RESULT:    -6.733      3.299      7.365
REMARK INTER + INTRA:         -12.046
REMARK INTER:                 -12.304
REMARK INTRA:                   0.258
REMARK UNBOUND:                -0.590
REMARK SMILES c1ccc(Nc2nc(NCc3ccncc3)nc(N3CCCCCC3)n2)cc1
REMARK SMILES IDX 6 1 7 2 8 3 17 4 18 5 26 6 5 7 4 9 1 10 2 11 28 12 3 13
REMARK SMILES IDX 27 14 9 15 10 17 11 18 12 19 16 20 13 21 15 22 14 23 19 24
REMARK SMILES IDX 20 25 21 26 22 27 25 29 24 30 23 31
REMARK H PARENT 5 8 9 16
REMARK Flexibility Score:   44.900
ROOT
ATOM      1  C   UNL     1       5.165  45.914  54.388  1.00  0.00     0.233 A 
ATOM      2  N   UNL     1       4.287  45.811  55.374  1.00  0.00    -0.177 NA
ATOM      3  C   UNL     1       3.247  45.030  55.140  1.00  0.00     0.229 A 
ATOM      4  N   UNL     1       3.041  44.382  54.006  1.00  0.00    -0.177 NA
ATOM      5  C   UNL     1       3.957  44.532  53.057  1.00  0.00     0.231 A 
ATOM      6  N   UNL     1       5.029  45.301  53.218  1.00  0.00    -0.176 NA
ENDROOT
BRANCH   1   7
ATOM      7  N   UNL     1       6.300  46.716  54.499  1.00  0.00    -0.324 N 
ATOM      8  H   UNL     1       6.102  47.483  55.124  1.00  0.00     0.170 HD
BRANCH   7   9
ATOM      9  C   UNL     1       7.535  46.748  53.840  1.00  0.00     0.041 A 
ATOM     10  C   UNL     1       9.948  46.843  52.373  1.00  0.00     0.000 A 
ATOM     11  C   UNL     1       9.931  47.186  53.722  1.00  0.00     0.002 A 
ATOM     12  C   UNL     1       8.767  46.459  51.748  1.00  0.00     0.002 A 
ATOM     13  C   UNL     1       8.733  47.143  54.444  1.00  0.00     0.026 A 
ATOM     14  C   UNL     1       7.574  46.416  52.476  1.00  0.00     0.026 A 
ENDBRANCH   7   9
ENDBRANCH   1   7
BRANCH   3  15
ATOM     15  N   UNL     1       2.275  44.852  56.118  1.00  0.00    -0.350 N 
ATOM     16  H   UNL     1       2.426  43.929  56.510  1.00  0.00     0.164 HD
BRANCH  15  17
ATOM     17  C   UNL     1       0.925  45.108  55.663  1.00  0.00     0.152 C 
BRANCH  17  18
ATOM     18  C   UNL     1       0.180  45.870  56.733  1.00  0.00    -0.026 A 
ATOM     19  C   UNL     1      -1.213  45.992  56.679  1.00  0.00     0.025 A 
ATOM     20  C   UNL     1       0.859  46.478  57.792  1.00  0.00     0.025 A 
ATOM     21  C   UNL     1      -1.858  46.703  57.676  1.00  0.00     0.111 A 
ATOM     22  C   UNL     1       0.123  47.166  58.744  1.00  0.00     0.111 A 
ATOM     23  N   UNL     1      -1.222  47.292  58.711  1.00  0.00    -0.265 NA
ENDBRANCH  17  18
ENDBRANCH  15  17
ENDBRANCH   3  15
BRANCH   5  24
ATOM     24  N   UNL     1       3.790  43.858  51.858  1.00  0.00    -0.341 N 
BRANCH  24  25
ATOM     25  C   UNL     1       4.676  44.196  50.755  1.00  0.00     0.119 C 
BRANCH  25  26
ATOM     26  C   UNL     1       5.900  43.287  50.633  1.00  0.00     0.021 C 
BRANCH  26  27
ATOM     27  C   UNL     1       5.628  41.977  49.892  1.00  0.00     0.002 CG0
ATOM     28  G   UNL     1       4.445  41.193  50.457  1.00  0.00     0.000 G0
ENDBRANCH  26  27
ENDBRANCH  25  26
ENDBRANCH  24  25
BRANCH  24  29
ATOM     29  C   UNL     1       2.895  42.716  51.796  1.00  0.00     0.119 C 
BRANCH  29  30
ATOM     30  C   UNL     1       3.115  41.950  50.494  1.00  0.00     0.021 C 
BRANCH  30  31
ATOM     31  C   UNL     1       4.439  41.187  50.447  1.00  0.00     0.002 CG0
ATOM     32  G   UNL     1       5.629  41.978  49.904  1.00  0.00     0.000 G0
ENDBRANCH  30  31
ENDBRANCH  29  30
ENDBRANCH  24  29
ENDBRANCH   5  24
TORSDOF 6
ENDMDL
MODEL 16
REMARK VINA RESULT:    -6.666      3.482      7.444
REMARK INTER + INTRA:         -11.931
REMARK INTER:                 -11.656
REMARK INTRA:                  -0.276
REMARK UNBOUND:                -0.590
REMARK SMILES c1ccc(Nc2nc(NCc3ccncc3)nc(N3CCCCCC3)n2)cc1
REMARK SMILES IDX 6 1 7 2 8 3 17 4 18 5 26 6 5 7 4 9 1 10 2 11 28 12 3 13
REMARK SMILES IDX 27 14 9 15 10 17 11 18 12 19 16 20 13 21 15 22 14 23 19 24
REMARK SMILES IDX 20 25 21 26 22 27 25 29 24 30 23 31
REMARK H PARENT 5 8 9 16
REMARK Flexibility Score:   44.900
ROOT
ATOM      1  C   UNL     1       4.617  46.191  53.500  1.00  0.00     0.233 A 
ATOM      2  N   UNL     1       4.210  46.544  54.709  1.00  0.00    -0.177 NA
ATOM      3  C   UNL     1       3.206  45.842  55.206  1.00  0.00     0.229 A 
ATOM      4  N   UNL     1       2.603  44.851  54.572  1.00  0.00    -0.177 NA
ATOM      5  C   UNL     1       3.058  44.551  53.361  1.00  0.00     0.231 A 
ATOM      6  N   UNL     1       4.062  45.211  52.795  1.00  0.00    -0.176 NA
ENDROOT
BRANCH   1   7
ATOM      7  N   UNL     1       5.658  46.857  52.854  1.00  0.00    -0.324 N 
ATOM      8  H   UNL     1       5.282  47.379  52.076  1.00  0.00     0.170 HD
BRANCH   7   9
ATOM      9  C   UNL     1       7.053  46.830  52.974  1.00  0.00     0.041 A 
ATOM     10  C   UNL     1       9.877  46.806  53.057  1.00  0.00     0.000 A 
ATOM     11  C   UNL     1       9.143  47.161  54.184  1.00  0.00     0.002 A 
ATOM     12  C   UNL     1       9.211  46.469  51.884  1.00  0.00     0.002 A 
ATOM     13  C   UNL     1       7.744  47.177  54.138  1.00  0.00     0.026 A 
ATOM     14  C   UNL     1       7.814  46.485  51.845  1.00  0.00     0.026 A 
ENDBRANCH   7   9
ENDBRANCH   1   7
BRANCH   3  15
ATOM     15  N   UNL     1       2.713  46.132  56.473  1.00  0.00    -0.350 N 
ATOM     16  H   UNL     1       3.454  45.909  57.128  1.00  0.00     0.164 HD
BRANCH  15  17
ATOM     17  C   UNL     1       1.435  45.518  56.765  1.00  0.00     0.152 C 
BRANCH  17  18
ATOM     18  C   UNL     1       0.655  46.418  57.692  1.00  0.00    -0.026 A 
ATOM     19  C   UNL     1      -0.678  46.742  57.414  1.00  0.00     0.025 A 
ATOM     20  C   UNL     1       1.243  46.958  58.839  1.00  0.00     0.025 A 
ATOM     21  C   UNL     1      -1.356  47.576  58.286  1.00  0.00     0.111 A 
ATOM     22  C   UNL     1       0.480  47.781  59.652  1.00  0.00     0.111 A 
ATOM     23  N   UNL     1      -0.808  48.101  59.402  1.00  0.00    -0.265 NA
ENDBRANCH  17  18
ENDBRANCH  15  17
ENDBRANCH   3  15
BRANCH   5  24
ATOM     24  N   UNL     1       2.467  43.509  52.667  1.00  0.00    -0.341 N 
BRANCH  24  25
ATOM     25  C   UNL     1       1.743  42.503  53.428  1.00  0.00     0.119 C 
BRANCH  25  26
ATOM     26  C   UNL     1       0.225  42.545  53.238  1.00  0.00     0.021 C 
BRANCH  26  27
ATOM     27  C   UNL     1      -0.322  43.938  52.925  1.00  0.00     0.002 CG0
ATOM     28  G   UNL     1       0.016  44.423  51.516  1.00  0.00     0.000 G0
ENDBRANCH  26  27
ENDBRANCH  25  26
ENDBRANCH  24  25
BRANCH  24  29
ATOM     29  C   UNL     1       2.411  43.553  51.216  1.00  0.00     0.119 C 
BRANCH  29  30
ATOM     30  C   UNL     1       0.959  43.491  50.747  1.00  0.00     0.021 C 
BRANCH  30  31
ATOM     31  C   UNL     1       0.024  44.423  51.519  1.00  0.00     0.002 CG0
ATOM     32  G   UNL     1      -0.342  43.959  52.928  1.00  0.00     0.000 G0
ENDBRANCH  30  31
ENDBRANCH  29  30
ENDBRANCH  24  29
ENDBRANCH   5  24
TORSDOF 6
ENDMDL
MODEL 17
REMARK VINA RESULT:    -6.636      2.488      7.831
REMARK INTER + INTRA:         -11.881
REMARK INTER:                 -11.461
REMARK INTRA:                  -0.420
REMARK UNBOUND:                -0.590
REMARK SMILES c1ccc(Nc2nc(NCc3ccncc3)nc(N3CCCCCC3)n2)cc1
REMARK SMILES IDX 6 1 7 2 8 3 17 4 18 5 26 6 5 7 4 9 1 10 2 11 28 12 3 13
REMARK SMILES IDX 27 14 9 15 10 17 11 18 12 19 16 20 13 21 15 22 14 23 19 24
REMARK SMILES IDX 20 25 21 26 22 27 25 29 24 30 23 31
REMARK H PARENT 5 8 9 16
REMARK Flexibility Score:   44.900
ROOT
ATOM      1  C   UNL     1       4.856  41.974  50.174  1.00  0.00     0.233 A 
ATOM      2  N   UNL     1       3.842  41.681  50.973  1.00  0.00    -0.177 NA
ATOM      3  C   UNL     1       3.631  42.522  51.970  1.00  0.00     0.229 A 
ATOM      4  N   UNL     1       4.365  43.596  52.208  1.00  0.00    -0.177 NA
ATOM      5  C   UNL     1       5.369  43.830  51.372  1.00  0.00     0.231 A 
ATOM      6  N   UNL     1       5.644  43.030  50.347  1.00  0.00    -0.176 NA
ENDROOT
BRANCH   1   7
ATOM      7  N   UNL     1       5.195  41.164  49.092  1.00  0.00    -0.324 N 
ATOM      8  H   UNL     1       5.925  40.526  49.375  1.00  0.00     0.170 HD
BRANCH   7   9
ATOM      9  C   UNL     1       4.850  41.158  47.736  1.00  0.00     0.041 A 
ATOM     10  C   UNL     1       4.310  41.174  44.962  1.00  0.00     0.000 A 
ATOM     11  C   UNL     1       3.516  40.429  45.829  1.00  0.00     0.002 A 
ATOM     12  C   UNL     1       5.377  41.906  45.469  1.00  0.00     0.002 A 
ATOM     13  C   UNL     1       3.790  40.419  47.202  1.00  0.00     0.026 A 
ATOM     14  C   UNL     1       5.644  41.893  46.841  1.00  0.00     0.026 A 
ENDBRANCH   7   9
ENDBRANCH   1   7
BRANCH   3  15
ATOM     15  N   UNL     1       2.584  42.302  52.858  1.00  0.00    -0.350 N 
ATOM     16  H   UNL     1       2.478  41.296  52.935  1.00  0.00     0.164 HD
BRANCH  15  17
ATOM     17  C   UNL     1       1.370  43.020  52.530  1.00  0.00     0.152 C 
BRANCH  17  18
ATOM     18  C   UNL     1       0.885  43.755  53.756  1.00  0.00    -0.026 A 
ATOM     19  C   UNL     1      -0.459  43.689  54.138  1.00  0.00     0.025 A 
ATOM     20  C   UNL     1       1.758  44.524  54.530  1.00  0.00     0.025 A 
ATOM     21  C   UNL     1      -0.866  44.383  55.266  1.00  0.00     0.111 A 
ATOM     22  C   UNL     1       1.256  45.179  55.644  1.00  0.00     0.111 A 
ATOM     23  N   UNL     1      -0.037  45.125  56.030  1.00  0.00    -0.265 NA
ENDBRANCH  17  18
ENDBRANCH  15  17
ENDBRANCH   3  15
BRANCH   5  24
ATOM     24  N   UNL     1       6.155  44.953  51.573  1.00  0.00    -0.341 N 
BRANCH  24  25
ATOM     25  C   UNL     1       6.128  45.581  52.884  1.00  0.00     0.119 C 
BRANCH  25  26
ATOM     26  C   UNL     1       6.213  47.109  52.850  1.00  0.00     0.021 C 
BRANCH  26  27
ATOM     27  C   UNL     1       7.644  47.649  52.853  1.00  0.00     0.002 CG0
ATOM     28  G   UNL     1       8.434  47.287  51.596  1.00  0.00     0.000 G0
ENDBRANCH  26  27
ENDBRANCH  25  26
ENDBRANCH  24  25
BRANCH  24  29
ATOM     29  C   UNL     1       7.119  45.345  50.559  1.00  0.00     0.119 C 
BRANCH  29  30
ATOM     30  C   UNL     1       8.415  45.805  51.221  1.00  0.00     0.021 C 
BRANCH  30  31
ATOM     31  C   UNL     1       8.425  47.291  51.584  1.00  0.00     0.002 CG0
ATOM     32  G   UNL     1       7.649  47.659  52.848  1.00  0.00     0.000 G0
ENDBRANCH  30  31
ENDBRANCH  29  30
ENDBRANCH  24  29
ENDBRANCH   5  24
TORSDOF 6
ENDMDL
MODEL 18
REMARK VINA RESULT:    -6.510      3.042      7.666
REMARK INTER + INTRA:         -11.667
REMARK INTER:                 -11.389
REMARK INTRA:                  -0.278
REMARK UNBOUND:                -0.590
REMARK SMILES c1ccc(Nc2nc(NCc3ccncc3)nc(N3CCCCCC3)n2)cc1
REMARK SMILES IDX 6 1 7 2 8 3 17 4 18 5 26 6 5 7 4 9 1 10 2 11 28 12 3 13
REMARK SMILES IDX 27 14 9 15 10 17 11 18 12 19 16 20 13 21 15 22 14 23 19 24
REMARK SMILES IDX 20 25 21 26 22 27 25 29 24 30 23 31
REMARK H PARENT 5 8 9 16
REMARK Flexibility Score:   44.900
ROOT
ATOM      1  C   UNL     1       2.965  44.884  55.017  1.00  0.00     0.233 A 
ATOM      2  N   UNL     1       3.864  45.812  55.307  1.00  0.00    -0.177 NA
ATOM      3  C   UNL     1       4.799  46.014  54.396  1.00  0.00     0.229 A 
ATOM      4  N   UNL     1       4.885  45.350  53.255  1.00  0.00    -0.177 NA
ATOM      5  C   UNL     1       3.955  44.430  53.028  1.00  0.00     0.231 A 
ATOM      6  N   UNL     1       2.984  44.170  53.897  1.00  0.00    -0.176 NA
ENDROOT
BRANCH   1   7
ATOM      7  N   UNL     1       1.934  44.563  55.897  1.00  0.00    -0.324 N 
ATOM      8  H   UNL     1       2.091  43.636  56.265  1.00  0.00     0.170 HD
BRANCH   7   9
ATOM      9  C   UNL     1       0.721  45.174  56.238  1.00  0.00     0.041 A 
ATOM     10  C   UNL     1      -1.804  46.272  56.877  1.00  0.00     0.000 A 
ATOM     11  C   UNL     1      -0.668  46.664  57.579  1.00  0.00     0.002 A 
ATOM     12  C   UNL     1      -1.690  45.329  55.862  1.00  0.00     0.002 A 
ATOM     13  C   UNL     1       0.580  46.114  57.263  1.00  0.00     0.026 A 
ATOM     14  C   UNL     1      -0.440  44.784  55.551  1.00  0.00     0.026 A 
ENDBRANCH   7   9
ENDBRANCH   1   7
BRANCH   3  15
ATOM     15  N   UNL     1       5.783  46.973  54.607  1.00  0.00    -0.350 N 
ATOM     16  H   UNL     1       5.449  47.568  55.357  1.00  0.00     0.164 HD
BRANCH  15  17
ATOM     17  C   UNL     1       6.192  47.674  53.408  1.00  0.00     0.152 C 
BRANCH  17  18
ATOM     18  C   UNL     1       7.616  47.299  53.078  1.00  0.00    -0.026 A 
ATOM     19  C   UNL     1       8.638  47.497  54.014  1.00  0.00     0.025 A 
ATOM     20  C   UNL     1       7.952  46.759  51.834  1.00  0.00     0.025 A 
ATOM     21  C   UNL     1       9.932  47.146  53.671  1.00  0.00     0.111 A 
ATOM     22  C   UNL     1       9.278  46.436  51.586  1.00  0.00     0.111 A 
ATOM     23  N   UNL     1      10.276  46.617  52.478  1.00  0.00    -0.265 NA
ENDBRANCH  17  18
ENDBRANCH  15  17
ENDBRANCH   3  15
BRANCH   5  24
ATOM     24  N   UNL     1       3.995  43.721  51.839  1.00  0.00    -0.341 N 
BRANCH  24  25
ATOM     25  C   UNL     1       4.604  44.360  50.682  1.00  0.00     0.119 C 
BRANCH  25  26
ATOM     26  C   UNL     1       6.061  43.960  50.439  1.00  0.00     0.021 C 
BRANCH  26  27
ATOM     27  C   UNL     1       6.223  42.661  49.648  1.00  0.00     0.002 CG0
ATOM     28  G   UNL     1       5.491  41.474  50.273  1.00  0.00     0.000 G0
ENDBRANCH  26  27
ENDBRANCH  25  26
ENDBRANCH  24  25
BRANCH  24  29
ATOM     29  C   UNL     1       3.625  42.316  51.828  1.00  0.00     0.119 C 
BRANCH  29  30
ATOM     30  C   UNL     1       3.983  41.692  50.481  1.00  0.00     0.021 C 
BRANCH  30  31
ATOM     31  C   UNL     1       5.484  41.477  50.284  1.00  0.00     0.002 CG0
ATOM     32  G   UNL     1       6.233  42.648  49.647  1.00  0.00     0.000 G0
ENDBRANCH  30  31
ENDBRANCH  29  30
ENDBRANCH  24  29
ENDBRANCH   5  24
TORSDOF 6
ENDMDL
MODEL 19
REMARK VINA RESULT:    -6.470      2.324      5.864
REMARK INTER + INTRA:         -11.599
REMARK INTER:                 -11.219
REMARK INTRA:                  -0.380
REMARK UNBOUND:                -0.590
REMARK SMILES c1ccc(Nc2nc(NCc3ccncc3)nc(N3CCCCCC3)n2)cc1
REMARK SMILES IDX 6 1 7 2 8 3 17 4 18 5 26 6 5 7 4 9 1 10 2 11 28 12 3 13
REMARK SMILES IDX 27 14 9 15 10 17 11 18 12 19 16 20 13 21 15 22 14 23 19 24
REMARK SMILES IDX 20 25 21 26 22 27 25 29 24 30 23 31
REMARK H PARENT 5 8 9 16
REMARK Flexibility Score:   44.900
ROOT
ATOM      1  C   UNL     1       4.426  43.476  51.991  1.00  0.00     0.233 A 
ATOM      2  N   UNL     1       4.755  42.758  50.929  1.00  0.00    -0.177 NA
ATOM      3  C   UNL     1       5.806  43.182  50.249  1.00  0.00     0.229 A 
ATOM      4  N   UNL     1       6.510  44.258  50.559  1.00  0.00    -0.177 NA
ATOM      5  C   UNL     1       6.124  44.935  51.633  1.00  0.00     0.231 A 
ATOM      6  N   UNL     1       5.078  44.571  52.367  1.00  0.00    -0.176 NA
ENDROOT
BRANCH   1   7
ATOM      7  N   UNL     1       3.332  43.146  52.789  1.00  0.00    -0.324 N 
ATOM      8  H   UNL     1       3.573  42.355  53.368  1.00  0.00     0.170 HD
BRANCH   7   9
ATOM      9  C   UNL     1       2.000  43.573  52.837  1.00  0.00     0.041 A 
ATOM     10  C   UNL     1      -0.702  44.365  53.080  1.00  0.00     0.000 A 
ATOM     11  C   UNL     1       0.190  45.128  52.333  1.00  0.00     0.002 A 
ATOM     12  C   UNL     1      -0.254  43.211  53.714  1.00  0.00     0.002 A 
ATOM     13  C   UNL     1       1.529  44.736  52.219  1.00  0.00     0.026 A 
ATOM     14  C   UNL     1       1.084  42.825  53.595  1.00  0.00     0.026 A 
ENDBRANCH   7   9
ENDBRANCH   1   7
BRANCH   3  15
ATOM     15  N   UNL     1       6.233  42.490  49.122  1.00  0.00    -0.350 N 
ATOM     16  H   UNL     1       6.172  43.138  48.345  1.00  0.00     0.164 HD
BRANCH  15  17
ATOM     17  C   UNL     1       5.560  41.225  48.915  1.00  0.00     0.152 C 
BRANCH  17  18
ATOM     18  C   UNL     1       4.992  41.191  47.517  1.00  0.00    -0.026 A 
ATOM     19  C   UNL     1       5.589  41.929  46.489  1.00  0.00     0.025 A 
ATOM     20  C   UNL     1       3.856  40.435  47.216  1.00  0.00     0.025 A 
ATOM     21  C   UNL     1       5.034  41.877  45.222  1.00  0.00     0.111 A 
ATOM     22  C   UNL     1       3.377  40.444  45.915  1.00  0.00     0.111 A 
ATOM     23  N   UNL     1       3.942  41.148  44.910  1.00  0.00    -0.265 NA
ENDBRANCH  17  18
ENDBRANCH  15  17
ENDBRANCH   3  15
BRANCH   5  24
ATOM     24  N   UNL     1       6.843  46.059  52.005  1.00  0.00    -0.341 N 
BRANCH  24  25
ATOM     25  C   UNL     1       8.012  46.416  51.217  1.00  0.00     0.119 C 
BRANCH  25  26
ATOM     26  C   UNL     1       8.943  47.423  51.896  1.00  0.00     0.021 C 
BRANCH  26  27
ATOM     27  C   UNL     1       9.400  47.001  53.293  1.00  0.00     0.002 CG0
ATOM     28  G   UNL     1       8.425  47.404  54.399  1.00  0.00     0.000 G0
ENDBRANCH  26  27
ENDBRANCH  25  26
ENDBRANCH  24  25
BRANCH  24  29
ATOM     29  C   UNL     1       6.308  46.949  53.022  1.00  0.00     0.119 C 
BRANCH  29  30
ATOM     30  C   UNL     1       7.040  46.731  54.344  1.00  0.00     0.021 C 
BRANCH  30  31
ATOM     31  C   UNL     1       8.411  47.405  54.406  1.00  0.00     0.002 CG0
ATOM     32  G   UNL     1       9.391  46.992  53.309  1.00  0.00     0.000 G0
ENDBRANCH  30  31
ENDBRANCH  29  30
ENDBRANCH  24  29
ENDBRANCH   5  24
TORSDOF 6
ENDMDL
MODEL 20
REMARK VINA RESULT:    -6.362      2.568      5.342
REMARK INTER + INTRA:         -11.415
REMARK INTER:                 -11.217
REMARK INTRA:                  -0.198
REMARK UNBOUND:                -0.590
REMARK SMILES c1ccc(Nc2nc(NCc3ccncc3)nc(N3CCCCCC3)n2)cc1
REMARK SMILES IDX 6 1 7 2 8 3 17 4 18 5 26 6 5 7 4 9 1 10 2 11 28 12 3 13
REMARK SMILES IDX 27 14 9 15 10 17 11 18 12 19 16 20 13 21 15 22 14 23 19 24
REMARK SMILES IDX 20 25 21 26 22 27 25 29 24 30 23 31
REMARK H PARENT 5 8 9 16
REMARK Flexibility Score:   44.900
ROOT
ATOM      1  C   UNL     1       4.971  46.461  52.802  1.00  0.00     0.233 A 
ATOM      2  N   UNL     1       3.735  46.808  53.126  1.00  0.00    -0.177 NA
ATOM      3  C   UNL     1       2.792  45.936  52.815  1.00  0.00     0.229 A 
ATOM      4  N   UNL     1       3.013  44.783  52.206  1.00  0.00    -0.177 NA
ATOM      5  C   UNL     1       4.274  44.499  51.905  1.00  0.00     0.231 A 
ATOM      6  N   UNL     1       5.277  45.325  52.185  1.00  0.00    -0.176 NA
ENDROOT
BRANCH   1   7
ATOM      7  N   UNL     1       6.058  47.295  53.061  1.00  0.00    -0.324 N 
ATOM      8  H   UNL     1       5.728  48.244  53.161  1.00  0.00     0.170 HD
BRANCH   7   9
ATOM      9  C   UNL     1       7.446  47.111  53.063  1.00  0.00     0.041 A 
ATOM     10  C   UNL     1      10.251  46.800  52.916  1.00  0.00     0.000 A 
ATOM     11  C   UNL     1       9.629  47.011  54.143  1.00  0.00     0.002 A 
ATOM     12  C   UNL     1       9.482  46.750  51.759  1.00  0.00     0.002 A 
ATOM     13  C   UNL     1       8.240  47.170  54.212  1.00  0.00     0.026 A 
ATOM     14  C   UNL     1       8.095  46.908  51.834  1.00  0.00     0.026 A 
ENDBRANCH   7   9
ENDBRANCH   1   7
BRANCH   3  15
ATOM     15  N   UNL     1       1.464  46.207  53.123  1.00  0.00    -0.350 N 
ATOM     16  H   UNL     1       1.447  47.131  53.541  1.00  0.00     0.164 HD
BRANCH  15  17
ATOM     17  C   UNL     1       0.814  45.173  53.901  1.00  0.00     0.152 C 
BRANCH  17  18
ATOM     18  C   UNL     1      -0.086  44.367  52.998  1.00  0.00    -0.026 A 
ATOM     19  C   UNL     1      -0.778  44.985  51.949  1.00  0.00     0.025 A 
ATOM     20  C   UNL     1      -0.261  42.994  53.190  1.00  0.00     0.025 A 
ATOM     21  C   UNL     1      -1.599  44.211  51.147  1.00  0.00     0.111 A 
ATOM     22  C   UNL     1      -1.103  42.305  52.330  1.00  0.00     0.111 A 
ATOM     23  N   UNL     1      -1.775  42.883  51.312  1.00  0.00    -0.265 NA
ENDBRANCH  17  18
ENDBRANCH  15  17
ENDBRANCH   3  15
BRANCH   5  24
ATOM     24  N   UNL     1       4.555  43.294  51.281  1.00  0.00    -0.341 N 
BRANCH  24  25
ATOM     25  C   UNL     1       3.437  42.474  50.844  1.00  0.00     0.119 C 
BRANCH  25  26
ATOM     26  C   UNL     1       3.834  41.075  50.367  1.00  0.00     0.021 C 
BRANCH  26  27
ATOM     27  C   UNL     1       4.353  41.034  48.929  1.00  0.00     0.002 CG0
ATOM     28  G   UNL     1       5.789  41.537  48.787  1.00  0.00     0.000 G0
ENDBRANCH  26  27
ENDBRANCH  25  26
ENDBRANCH  24  25
BRANCH  24  29
ATOM     29  C   UNL     1       5.923  42.983  50.904  1.00  0.00     0.119 C 
BRANCH  29  30
ATOM     30  C   UNL     1       6.047  42.932  49.383  1.00  0.00     0.021 C 
BRANCH  30  31
ATOM     31  C   UNL     1       5.795  41.543  48.794  1.00  0.00     0.002 CG0
ATOM     32  G   UNL     1       4.360  41.033  48.916  1.00  0.00     0.000 G0
ENDBRANCH  30  31
ENDBRANCH  29  30
ENDBRANCH  24  29
ENDBRANCH   5  24
TORSDOF 6
ENDMDL
