MODEL 1
REMARK VINA RESULT:    -8.967      0.000      0.000
REMARK INTER + INTRA:         -13.855
REMARK INTER:                 -12.636
REMARK INTRA:                  -1.219
REMARK UNBOUND:                -1.219
REMARK SMILES COc1ccc(CNc2nc(Nc3ccccc3C)ncc2[N+](=O)[O-])cc1
REMARK SMILES IDX 8 1 7 3 6 4 3 5 4 6 27 7 5 8 26 9 2 10 1 11 9 12 10 13 22 14
REMARK SMILES IDX 11 15 21 16 20 17 23 18 24 19 25 20 12 21 13 23 14 24 18 25
REMARK SMILES IDX 15 26 17 27 16 28 19 29
REMARK H PARENT 8 2 12 22
ROOT
ATOM      1  N   UNL     1       6.397  47.053  54.904  1.00  0.00    -0.360 N 
ATOM      2  H   UNL     1       6.196  46.238  55.488  1.00  0.00     0.162 HD
ENDROOT
BRANCH   1   3
ATOM      3  C   UNL     1       5.184  47.793  54.581  1.00  0.00     0.150 C 
BRANCH   3   4
ATOM      4  C   UNL     1       4.056  46.812  54.368  1.00  0.00    -0.029 A 
ATOM      5  C   UNL     1       1.925  45.008  53.979  1.00  0.00     0.118 A 
ATOM      6  C   UNL     1       2.220  45.976  53.017  1.00  0.00     0.047 A 
ATOM      7  C   UNL     1       2.694  44.947  55.141  1.00  0.00     0.047 A 
ATOM      8  C   UNL     1       3.273  46.874  53.208  1.00  0.00     0.009 A 
ATOM      9  C   UNL     1       3.751  45.845  55.336  1.00  0.00     0.009 A 
BRANCH   5  10
ATOM     10  O   UNL     1       0.871  44.194  53.668  1.00  0.00    -0.497 OA
ATOM     11  C   UNL     1       1.166  42.825  53.421  1.00  0.00     0.278 C 
ENDBRANCH   5  10
ENDBRANCH   3   4
ENDBRANCH   1   3
BRANCH   1  12
ATOM     12  C   UNL     1       7.219  46.716  53.819  1.00  0.00     0.210 A 
ATOM     13  N   UNL     1       6.646  46.137  52.740  1.00  0.00    -0.188 NA
ATOM     14  C   UNL     1       8.557  47.057  53.781  1.00  0.00     0.329 A 
ATOM     15  C   UNL     1       7.389  45.882  51.644  1.00  0.00     0.229 A 
ATOM     16  C   UNL     1       9.257  46.775  52.634  1.00  0.00     0.204 A 
ATOM     17  N   UNL     1       8.692  46.183  51.564  1.00  0.00    -0.214 NA
BRANCH  14  18
ATOM     18  N   UNL     1       9.243  47.655  54.895  1.00  0.00     0.068 N 
ATOM     19  O   UNL     1      10.275  47.099  55.302  1.00  0.00    -0.258 OA
ATOM     20  O   UNL     1       8.782  48.713  55.345  1.00  0.00    -0.258 OA
ENDBRANCH  14  18
BRANCH  15  21
ATOM     21  N   UNL     1       6.701  45.269  50.603  1.00  0.00    -0.324 N 
ATOM     22  H   UNL     1       6.753  45.866  49.791  1.00  0.00     0.170 HD
BRANCH  21  23
ATOM     23  C   UNL     1       6.100  44.014  50.424  1.00  0.00     0.044 A 
ATOM     24  C   UNL     1       4.904  43.653  51.062  1.00  0.00     0.026 A 
ATOM     25  C   UNL     1       6.680  43.074  49.536  1.00  0.00    -0.027 A 
ATOM     26  C   UNL     1       4.307  42.405  50.856  1.00  0.00     0.002 A 
ATOM     27  C   UNL     1       6.072  41.821  49.337  1.00  0.00     0.005 A 
ATOM     28  C   UNL     1       4.892  41.488  49.995  1.00  0.00     0.000 A 
ATOM     29  C   UNL     1       7.953  43.373  48.785  1.00  0.00     0.046 C 
ENDBRANCH  21  23
ENDBRANCH  15  21
ENDBRANCH   1  12
TORSDOF 7
ENDMDL
MODEL 2
REMARK VINA RESULT:    -8.895      3.108      5.482
REMARK INTER + INTRA:         -13.755
REMARK INTER:                 -12.669
REMARK INTRA:                  -1.086
REMARK UNBOUND:                -1.219
REMARK SMILES COc1ccc(CNc2nc(Nc3ccccc3C)ncc2[N+](=O)[O-])cc1
REMARK SMILES IDX 8 1 7 3 6 4 3 5 4 6 27 7 5 8 26 9 2 10 1 11 9 12 10 13 22 14
REMARK SMILES IDX 11 15 21 16 20 17 23 18 24 19 25 20 12 21 13 23 14 24 18 25
REMARK SMILES IDX 15 26 17 27 16 28 19 29
REMARK H PARENT 8 2 12 22
ROOT
ATOM      1  N   UNL     1       4.212  43.255  51.676  1.00  0.00    -0.360 N 
ATOM      2  H   UNL     1       3.878  42.308  51.485  1.00  0.00     0.162 HD
ENDROOT
BRANCH   1   3
ATOM      3  C   UNL     1       3.130  44.229  51.616  1.00  0.00     0.150 C 
BRANCH   3   4
ATOM      4  C   UNL     1       2.594  44.449  53.011  1.00  0.00    -0.029 A 
ATOM      5  C   UNL     1       1.570  44.889  55.600  1.00  0.00     0.118 A 
ATOM      6  C   UNL     1       0.810  44.217  54.641  1.00  0.00     0.047 A 
ATOM      7  C   UNL     1       2.843  45.347  55.261  1.00  0.00     0.047 A 
ATOM      8  C   UNL     1       1.312  44.001  53.356  1.00  0.00     0.009 A 
ATOM      9  C   UNL     1       3.350  45.132  53.973  1.00  0.00     0.009 A 
BRANCH   5  10
ATOM     10  O   UNL     1       0.960  45.033  56.816  1.00  0.00    -0.497 OA
ATOM     11  C   UNL     1      -0.435  45.302  56.808  1.00  0.00     0.278 C 
ENDBRANCH   5  10
ENDBRANCH   3   4
ENDBRANCH   1   3
BRANCH   1  12
ATOM     12  C   UNL     1       5.354  43.558  50.919  1.00  0.00     0.210 A 
ATOM     13  N   UNL     1       6.038  44.685  51.220  1.00  0.00    -0.188 NA
ATOM     14  C   UNL     1       5.850  42.692  49.964  1.00  0.00     0.329 A 
ATOM     15  C   UNL     1       7.190  44.960  50.573  1.00  0.00     0.229 A 
ATOM     16  C   UNL     1       7.029  43.028  49.346  1.00  0.00     0.204 A 
ATOM     17  N   UNL     1       7.704  44.157  49.633  1.00  0.00    -0.214 NA
BRANCH  14  18
ATOM     18  N   UNL     1       5.169  41.486  49.574  1.00  0.00     0.068 N 
ATOM     19  O   UNL     1       5.183  41.180  48.372  1.00  0.00    -0.258 OA
ATOM     20  O   UNL     1       4.652  40.809  50.473  1.00  0.00    -0.258 OA
ENDBRANCH  14  18
BRANCH  15  21
ATOM     21  N   UNL     1       7.798  46.152  50.950  1.00  0.00    -0.324 N 
ATOM     22  H   UNL     1       7.731  46.801  50.181  1.00  0.00     0.170 HD
BRANCH  21  23
ATOM     23  C   UNL     1       8.337  46.648  52.147  1.00  0.00     0.044 A 
ATOM     24  C   UNL     1       7.557  47.309  53.108  1.00  0.00     0.026 A 
ATOM     25  C   UNL     1       9.709  46.446  52.440  1.00  0.00    -0.027 A 
ATOM     26  C   UNL     1       8.106  47.777  54.306  1.00  0.00     0.002 A 
ATOM     27  C   UNL     1      10.251  46.923  53.648  1.00  0.00     0.005 A 
ATOM     28  C   UNL     1       9.453  47.586  54.575  1.00  0.00     0.000 A 
ATOM     29  C   UNL     1      10.626  45.728  51.484  1.00  0.00     0.046 C 
ENDBRANCH  21  23
ENDBRANCH  15  21
ENDBRANCH   1  12
TORSDOF 7
ENDMDL
MODEL 3
REMARK VINA RESULT:    -8.894      2.841      5.589
REMARK INTER + INTRA:         -13.753
REMARK INTER:                 -12.866
REMARK INTRA:                  -0.888
REMARK UNBOUND:                -1.219
REMARK SMILES COc1ccc(CNc2nc(Nc3ccccc3C)ncc2[N+](=O)[O-])cc1
REMARK SMILES IDX 8 1 7 3 6 4 3 5 4 6 27 7 5 8 26 9 2 10 1 11 9 12 10 13 22 14
REMARK SMILES IDX 11 15 21 16 20 17 23 18 24 19 25 20 12 21 13 23 14 24 18 25
REMARK SMILES IDX 15 26 17 27 16 28 19 29
REMARK H PARENT 8 2 12 22
ROOT
ATOM      1  N   UNL     1       2.731  46.718  52.846  1.00  0.00    -0.360 N 
ATOM      2  H   UNL     1       1.829  46.279  53.045  1.00  0.00     0.162 HD
ENDROOT
BRANCH   1   3
ATOM      3  C   UNL     1       3.091  46.592  51.439  1.00  0.00     0.150 C 
BRANCH   3   4
ATOM      4  C   UNL     1       3.614  45.197  51.193  1.00  0.00    -0.029 A 
ATOM      5  C   UNL     1       4.588  42.599  50.694  1.00  0.00     0.118 A 
ATOM      6  C   UNL     1       5.405  43.714  50.495  1.00  0.00     0.047 A 
ATOM      7  C   UNL     1       3.279  42.785  51.137  1.00  0.00     0.047 A 
ATOM      8  C   UNL     1       4.925  45.002  50.738  1.00  0.00     0.009 A 
ATOM      9  C   UNL     1       2.794  44.076  51.382  1.00  0.00     0.009 A 
BRANCH   5  10
ATOM     10  O   UNL     1       5.182  41.398  50.420  1.00  0.00    -0.497 OA
ATOM     11  C   UNL     1       6.534  41.433  49.982  1.00  0.00     0.278 C 
ENDBRANCH   5  10
ENDBRANCH   3   4
ENDBRANCH   1   3
BRANCH   1  12
ATOM     12  C   UNL     1       3.710  46.318  53.768  1.00  0.00     0.210 A 
ATOM     13  N   UNL     1       4.968  46.786  53.607  1.00  0.00    -0.188 NA
ATOM     14  C   UNL     1       3.400  45.560  54.882  1.00  0.00     0.329 A 
ATOM     15  C   UNL     1       5.912  46.494  54.525  1.00  0.00     0.229 A 
ATOM     16  C   UNL     1       4.405  45.304  55.781  1.00  0.00     0.204 A 
ATOM     17  N   UNL     1       5.663  45.755  55.614  1.00  0.00    -0.214 NA
BRANCH  14  18
ATOM     18  N   UNL     1       2.092  45.010  55.112  1.00  0.00     0.068 N 
ATOM     19  O   UNL     1       1.680  44.150  54.319  1.00  0.00    -0.258 OA
ATOM     20  O   UNL     1       1.481  45.398  56.118  1.00  0.00    -0.258 OA
ENDBRANCH  14  18
BRANCH  15  21
ATOM     21  N   UNL     1       7.173  47.012  54.249  1.00  0.00    -0.324 N 
ATOM     22  H   UNL     1       7.400  47.693  54.957  1.00  0.00     0.170 HD
BRANCH  21  23
ATOM     23  C   UNL     1       8.181  46.707  53.321  1.00  0.00     0.044 A 
ATOM     24  C   UNL     1       7.900  46.217  52.037  1.00  0.00     0.026 A 
ATOM     25  C   UNL     1       9.539  46.936  53.655  1.00  0.00    -0.027 A 
ATOM     26  C   UNL     1       8.916  45.939  51.117  1.00  0.00     0.002 A 
ATOM     27  C   UNL     1      10.554  46.652  52.722  1.00  0.00     0.005 A 
ATOM     28  C   UNL     1      10.243  46.155  51.460  1.00  0.00     0.000 A 
ATOM     29  C   UNL     1       9.943  47.482  55.001  1.00  0.00     0.046 C 
ENDBRANCH  21  23
ENDBRANCH  15  21
ENDBRANCH   1  12
TORSDOF 7
ENDMDL
MODEL 4
REMARK VINA RESULT:    -8.879      2.750      5.929
REMARK INTER + INTRA:         -13.732
REMARK INTER:                 -12.167
REMARK INTRA:                  -1.565
REMARK UNBOUND:                -1.219
REMARK SMILES COc1ccc(CNc2nc(Nc3ccccc3C)ncc2[N+](=O)[O-])cc1
REMARK SMILES IDX 8 1 7 3 6 4 3 5 4 6 27 7 5 8 26 9 2 10 1 11 9 12 10 13 22 14
REMARK SMILES IDX 11 15 21 16 20 17 23 18 24 19 25 20 12 21 13 23 14 24 18 25
REMARK SMILES IDX 15 26 17 27 16 28 19 29
REMARK H PARENT 8 2 12 22
ROOT
ATOM      1  N   UNL     1       2.013  44.093  54.749  1.00  0.00    -0.360 N 
ATOM      2  H   UNL     1       1.293  43.651  55.326  1.00  0.00     0.162 HD
ENDROOT
BRANCH   1   3
ATOM      3  C   UNL     1       2.065  45.533  54.965  1.00  0.00     0.150 C 
BRANCH   3   4
ATOM      4  C   UNL     1       3.451  46.027  54.624  1.00  0.00    -0.029 A 
ATOM      5  C   UNL     1       6.035  46.932  53.952  1.00  0.00     0.118 A 
ATOM      6  C   UNL     1       4.908  47.480  53.335  1.00  0.00     0.047 A 
ATOM      7  C   UNL     1       5.867  45.924  54.902  1.00  0.00     0.047 A 
ATOM      8  C   UNL     1       3.627  47.032  53.663  1.00  0.00     0.009 A 
ATOM      9  C   UNL     1       4.584  45.473  55.234  1.00  0.00     0.009 A 
BRANCH   5  10
ATOM     10  O   UNL     1       7.227  47.460  53.541  1.00  0.00    -0.497 OA
ATOM     11  C   UNL     1       8.400  46.718  53.846  1.00  0.00     0.278 C 
ENDBRANCH   5  10
ENDBRANCH   3   4
ENDBRANCH   1   3
BRANCH   1  12
ATOM     12  C   UNL     1       1.925  43.675  53.412  1.00  0.00     0.210 A 
ATOM     13  N   UNL     1       3.067  43.326  52.777  1.00  0.00    -0.188 NA
ATOM     14  C   UNL     1       0.711  43.508  52.776  1.00  0.00     0.329 A 
ATOM     15  C   UNL     1       3.010  42.834  51.522  1.00  0.00     0.229 A 
ATOM     16  C   UNL     1       0.721  42.999  51.501  1.00  0.00     0.204 A 
ATOM     17  N   UNL     1       1.858  42.665  50.860  1.00  0.00    -0.214 NA
BRANCH  14  18
ATOM     18  N   UNL     1      -0.543  43.876  53.376  1.00  0.00     0.068 N 
ATOM     19  O   UNL     1      -0.994  43.139  54.266  1.00  0.00    -0.258 OA
ATOM     20  O   UNL     1      -1.068  44.932  52.995  1.00  0.00    -0.258 OA
ENDBRANCH  14  18
BRANCH  15  21
ATOM     21  N   UNL     1       4.244  42.526  50.961  1.00  0.00    -0.324 N 
ATOM     22  H   UNL     1       4.240  41.552  50.697  1.00  0.00     0.170 HD
BRANCH  21  23
ATOM     23  C   UNL     1       5.372  43.274  50.592  1.00  0.00     0.044 A 
ATOM     24  C   UNL     1       5.638  44.548  51.117  1.00  0.00     0.026 A 
ATOM     25  C   UNL     1       6.318  42.725  49.690  1.00  0.00    -0.027 A 
ATOM     26  C   UNL     1       6.779  45.270  50.755  1.00  0.00     0.002 A 
ATOM     27  C   UNL     1       7.462  43.462  49.331  1.00  0.00     0.005 A 
ATOM     28  C   UNL     1       7.690  44.728  49.860  1.00  0.00     0.000 A 
ATOM     29  C   UNL     1       6.136  41.356  49.087  1.00  0.00     0.046 C 
ENDBRANCH  21  23
ENDBRANCH  15  21
ENDBRANCH   1  12
TORSDOF 7
ENDMDL
MODEL 5
REMARK VINA RESULT:    -8.852      3.342      5.538
REMARK INTER + INTRA:         -13.694
REMARK INTER:                 -12.732
REMARK INTRA:                  -0.962
REMARK UNBOUND:                -1.219
REMARK SMILES COc1ccc(CNc2nc(Nc3ccccc3C)ncc2[N+](=O)[O-])cc1
REMARK SMILES IDX 8 1 7 3 6 4 3 5 4 6 27 7 5 8 26 9 2 10 1 11 9 12 10 13 22 14
REMARK SMILES IDX 11 15 21 16 20 17 23 18 24 19 25 20 12 21 13 23 14 24 18 25
REMARK SMILES IDX 15 26 17 27 16 28 19 29
REMARK H PARENT 8 2 12 22
ROOT
ATOM      1  N   UNL     1       4.052  43.346  51.577  1.00  0.00    -0.360 N 
ATOM      2  H   UNL     1       3.244  43.346  50.950  1.00  0.00     0.162 HD
ENDROOT
BRANCH   1   3
ATOM      3  C   UNL     1       3.827  44.190  52.743  1.00  0.00     0.150 C 
BRANCH   3   4
ATOM      4  C   UNL     1       2.435  43.933  53.270  1.00  0.00    -0.029 A 
ATOM      5  C   UNL     1      -0.177  43.462  54.219  1.00  0.00     0.118 A 
ATOM      6  C   UNL     1       0.444  42.547  53.366  1.00  0.00     0.047 A 
ATOM      7  C   UNL     1       0.508  44.618  54.593  1.00  0.00     0.047 A 
ATOM      8  C   UNL     1       1.737  42.779  52.892  1.00  0.00     0.009 A 
ATOM      9  C   UNL     1       1.805  44.854  54.118  1.00  0.00     0.009 A 
BRANCH   5  10
ATOM     10  O   UNL     1      -1.440  43.114  54.610  1.00  0.00    -0.497 OA
ATOM     11  C   UNL     1      -1.985  43.810  55.723  1.00  0.00     0.278 C 
ENDBRANCH   5  10
ENDBRANCH   3   4
ENDBRANCH   1   3
BRANCH   1  12
ATOM     12  C   UNL     1       5.245  43.574  50.875  1.00  0.00     0.210 A 
ATOM     13  N   UNL     1       5.947  44.695  51.156  1.00  0.00    -0.188 NA
ATOM     14  C   UNL     1       5.768  42.642  49.999  1.00  0.00     0.329 A 
ATOM     15  C   UNL     1       7.142  44.901  50.566  1.00  0.00     0.229 A 
ATOM     16  C   UNL     1       6.991  42.909  49.436  1.00  0.00     0.204 A 
ATOM     17  N   UNL     1       7.685  44.033  49.702  1.00  0.00    -0.214 NA
BRANCH  14  18
ATOM     18  N   UNL     1       5.073  41.437  49.633  1.00  0.00     0.068 N 
ATOM     19  O   UNL     1       4.501  40.806  50.534  1.00  0.00    -0.258 OA
ATOM     20  O   UNL     1       5.053  41.135  48.432  1.00  0.00    -0.258 OA
ENDBRANCH  14  18
BRANCH  15  21
ATOM     21  N   UNL     1       7.766  46.094  50.914  1.00  0.00    -0.324 N 
ATOM     22  H   UNL     1       7.684  46.735  50.140  1.00  0.00     0.170 HD
BRANCH  21  23
ATOM     23  C   UNL     1       8.335  46.600  52.093  1.00  0.00     0.044 A 
ATOM     24  C   UNL     1       7.583  47.280  53.062  1.00  0.00     0.026 A 
ATOM     25  C   UNL     1       9.711  46.390  52.358  1.00  0.00    -0.027 A 
ATOM     26  C   UNL     1       8.162  47.759  54.241  1.00  0.00     0.002 A 
ATOM     27  C   UNL     1      10.285  46.877  53.547  1.00  0.00     0.005 A 
ATOM     28  C   UNL     1       9.513  47.559  54.483  1.00  0.00     0.000 A 
ATOM     29  C   UNL     1      10.601  45.651  51.391  1.00  0.00     0.046 C 
ENDBRANCH  21  23
ENDBRANCH  15  21
ENDBRANCH   1  12
TORSDOF 7
ENDMDL
MODEL 6
REMARK VINA RESULT:    -8.780      2.852      6.353
REMARK INTER + INTRA:         -13.593
REMARK INTER:                 -12.306
REMARK INTRA:                  -1.286
REMARK UNBOUND:                -1.219
REMARK SMILES COc1ccc(CNc2nc(Nc3ccccc3C)ncc2[N+](=O)[O-])cc1
REMARK SMILES IDX 8 1 7 3 6 4 3 5 4 6 27 7 5 8 26 9 2 10 1 11 9 12 10 13 22 14
REMARK SMILES IDX 11 15 21 16 20 17 23 18 24 19 25 20 12 21 13 23 14 24 18 25
REMARK SMILES IDX 15 26 17 27 16 28 19 29
REMARK H PARENT 8 2 12 22
ROOT
ATOM      1  N   UNL     1       3.043  43.572  52.239  1.00  0.00    -0.360 N 
ATOM      2  H   UNL     1       2.082  43.362  52.516  1.00  0.00     0.162 HD
ENDROOT
BRANCH   1   3
ATOM      3  C   UNL     1       3.892  42.390  52.303  1.00  0.00     0.150 C 
BRANCH   3   4
ATOM      4  C   UNL     1       4.416  42.090  50.918  1.00  0.00    -0.029 A 
ATOM      5  C   UNL     1       5.381  41.565  48.322  1.00  0.00     0.118 A 
ATOM      6  C   UNL     1       6.054  42.453  49.164  1.00  0.00     0.047 A 
ATOM      7  C   UNL     1       4.219  40.943  48.779  1.00  0.00     0.047 A 
ATOM      8  C   UNL     1       5.577  42.718  50.449  1.00  0.00     0.009 A 
ATOM      9  C   UNL     1       3.737  41.207  50.067  1.00  0.00     0.009 A 
BRANCH   5  10
ATOM     10  O   UNL     1       5.954  41.396  47.092  1.00  0.00    -0.497 OA
ATOM     11  C   UNL     1       5.100  41.516  45.962  1.00  0.00     0.278 C 
ENDBRANCH   5  10
ENDBRANCH   3   4
ENDBRANCH   1   3
BRANCH   1  12
ATOM     12  C   UNL     1       3.528  44.712  52.899  1.00  0.00     0.210 A 
ATOM     13  N   UNL     1       4.599  45.347  52.372  1.00  0.00    -0.188 NA
ATOM     14  C   UNL     1       2.880  45.256  53.991  1.00  0.00     0.329 A 
ATOM     15  C   UNL     1       5.035  46.496  52.928  1.00  0.00     0.229 A 
ATOM     16  C   UNL     1       3.371  46.430  54.507  1.00  0.00     0.204 A 
ATOM     17  N   UNL     1       4.447  47.056  53.994  1.00  0.00    -0.214 NA
BRANCH  14  18
ATOM     18  N   UNL     1       1.748  44.630  54.620  1.00  0.00     0.068 N 
ATOM     19  O   UNL     1       0.862  44.170  53.885  1.00  0.00    -0.258 OA
ATOM     20  O   UNL     1       1.757  44.550  55.856  1.00  0.00    -0.258 OA
ENDBRANCH  14  18
BRANCH  15  21
ATOM     21  N   UNL     1       6.153  47.051  52.317  1.00  0.00    -0.324 N 
ATOM     22  H   UNL     1       5.842  47.739  51.647  1.00  0.00     0.170 HD
BRANCH  21  23
ATOM     23  C   UNL     1       7.538  46.951  52.519  1.00  0.00     0.044 A 
ATOM     24  C   UNL     1       8.174  47.474  53.655  1.00  0.00     0.026 A 
ATOM     25  C   UNL     1       8.341  46.263  51.575  1.00  0.00    -0.027 A 
ATOM     26  C   UNL     1       9.553  47.346  53.851  1.00  0.00     0.002 A 
ATOM     27  C   UNL     1       9.728  46.142  51.781  1.00  0.00     0.005 A 
ATOM     28  C   UNL     1      10.330  46.682  52.914  1.00  0.00     0.000 A 
ATOM     29  C   UNL     1       7.751  45.647  50.332  1.00  0.00     0.046 C 
ENDBRANCH  21  23
ENDBRANCH  15  21
ENDBRANCH   1  12
TORSDOF 7
ENDMDL
MODEL 7
REMARK VINA RESULT:    -8.761      2.896      6.714
REMARK INTER + INTRA:         -13.565
REMARK INTER:                 -12.347
REMARK INTRA:                  -1.218
REMARK UNBOUND:                -1.219
REMARK SMILES COc1ccc(CNc2nc(Nc3ccccc3C)ncc2[N+](=O)[O-])cc1
REMARK SMILES IDX 8 1 7 3 6 4 3 5 4 6 27 7 5 8 26 9 2 10 1 11 9 12 10 13 22 14
REMARK SMILES IDX 11 15 21 16 20 17 23 18 24 19 25 20 12 21 13 23 14 24 18 25
REMARK SMILES IDX 15 26 17 27 16 28 19 29
REMARK H PARENT 8 2 12 22
ROOT
ATOM      1  N   UNL     1       5.718  45.157  50.440  1.00  0.00    -0.360 N 
ATOM      2  H   UNL     1       6.676  45.159  50.081  1.00  0.00     0.162 HD
ENDROOT
BRANCH   1   3
ATOM      3  C   UNL     1       5.541  46.137  51.503  1.00  0.00     0.150 C 
BRANCH   3   4
ATOM      4  C   UNL     1       6.878  46.393  52.159  1.00  0.00    -0.029 A 
ATOM      5  C   UNL     1       9.363  46.906  53.387  1.00  0.00     0.118 A 
ATOM      6  C   UNL     1       8.197  46.824  54.151  1.00  0.00     0.047 A 
ATOM      7  C   UNL     1       9.284  46.737  52.005  1.00  0.00     0.047 A 
ATOM      8  C   UNL     1       6.964  46.573  53.545  1.00  0.00     0.009 A 
ATOM      9  C   UNL     1       8.049  46.485  51.394  1.00  0.00     0.009 A 
BRANCH   5  10
ATOM     10  O   UNL     1      10.500  47.155  54.104  1.00  0.00    -0.497 OA
ATOM     11  C   UNL     1      10.337  47.484  55.477  1.00  0.00     0.278 C 
ENDBRANCH   5  10
ENDBRANCH   3   4
ENDBRANCH   1   3
BRANCH   1  12
ATOM     12  C   UNL     1       5.281  43.855  50.725  1.00  0.00     0.210 A 
ATOM     13  N   UNL     1       4.325  43.695  51.668  1.00  0.00    -0.188 NA
ATOM     14  C   UNL     1       5.715  42.762  50.000  1.00  0.00     0.329 A 
ATOM     15  C   UNL     1       3.817  42.468  51.904  1.00  0.00     0.229 A 
ATOM     16  C   UNL     1       5.154  41.542  50.285  1.00  0.00     0.204 A 
ATOM     17  N   UNL     1       4.214  41.377  51.235  1.00  0.00    -0.214 NA
BRANCH  14  18
ATOM     18  N   UNL     1       6.742  42.848  48.997  1.00  0.00     0.068 N 
ATOM     19  O   UNL     1       6.437  42.547  47.833  1.00  0.00    -0.258 OA
ATOM     20  O   UNL     1       7.853  43.261  49.355  1.00  0.00    -0.258 OA
ENDBRANCH  14  18
BRANCH  15  21
ATOM     21  N   UNL     1       2.855  42.419  52.906  1.00  0.00    -0.324 N 
ATOM     22  H   UNL     1       3.231  41.899  53.684  1.00  0.00     0.170 HD
BRANCH  21  23
ATOM     23  C   UNL     1       1.599  43.016  53.096  1.00  0.00     0.044 A 
ATOM     24  C   UNL     1       0.419  42.474  52.566  1.00  0.00     0.026 A 
ATOM     25  C   UNL     1       1.487  44.187  53.886  1.00  0.00    -0.027 A 
ATOM     26  C   UNL     1      -0.827  43.070  52.783  1.00  0.00     0.002 A 
ATOM     27  C   UNL     1       0.228  44.779  54.097  1.00  0.00     0.005 A 
ATOM     28  C   UNL     1      -0.923  44.224  53.547  1.00  0.00     0.000 A 
ATOM     29  C   UNL     1       2.692  44.835  54.519  1.00  0.00     0.046 C 
ENDBRANCH  21  23
ENDBRANCH  15  21
ENDBRANCH   1  12
TORSDOF 7
ENDMDL
MODEL 8
REMARK VINA RESULT:    -8.732      3.053      5.690
REMARK INTER + INTRA:         -13.525
REMARK INTER:                 -12.525
REMARK INTRA:                  -1.000
REMARK UNBOUND:                -1.219
REMARK SMILES COc1ccc(CNc2nc(Nc3ccccc3C)ncc2[N+](=O)[O-])cc1
REMARK SMILES IDX 8 1 7 3 6 4 3 5 4 6 27 7 5 8 26 9 2 10 1 11 9 12 10 13 22 14
REMARK SMILES IDX 11 15 21 16 20 17 23 18 24 19 25 20 12 21 13 23 14 24 18 25
REMARK SMILES IDX 15 26 17 27 16 28 19 29
REMARK H PARENT 8 2 12 22
ROOT
ATOM      1  N   UNL     1       4.127  43.088  51.722  1.00  0.00    -0.360 N 
ATOM      2  H   UNL     1       3.881  42.103  51.599  1.00  0.00     0.162 HD
ENDROOT
BRANCH   1   3
ATOM      3  C   UNL     1       2.964  43.954  51.582  1.00  0.00     0.150 C 
BRANCH   3   4
ATOM      4  C   UNL     1       2.418  44.264  52.955  1.00  0.00    -0.029 A 
ATOM      5  C   UNL     1       1.420  44.816  55.533  1.00  0.00     0.118 A 
ATOM      6  C   UNL     1       2.711  45.208  55.173  1.00  0.00     0.047 A 
ATOM      7  C   UNL     1       0.630  44.140  54.603  1.00  0.00     0.047 A 
ATOM      8  C   UNL     1       3.209  44.934  53.897  1.00  0.00     0.009 A 
ATOM      9  C   UNL     1       1.126  43.863  53.324  1.00  0.00     0.009 A 
BRANCH   5  10
ATOM     10  O   UNL     1       1.057  45.147  56.809  1.00  0.00    -0.497 OA
ATOM     11  C   UNL     1      -0.190  45.811  56.972  1.00  0.00     0.278 C 
ENDBRANCH   5  10
ENDBRANCH   3   4
ENDBRANCH   1   3
BRANCH   1  12
ATOM     12  C   UNL     1       5.249  43.435  50.955  1.00  0.00     0.210 A 
ATOM     13  N   UNL     1       5.916  44.567  51.276  1.00  0.00    -0.188 NA
ATOM     14  C   UNL     1       5.746  42.607  49.967  1.00  0.00     0.329 A 
ATOM     15  C   UNL     1       7.050  44.885  50.618  1.00  0.00     0.229 A 
ATOM     16  C   UNL     1       6.907  42.984  49.339  1.00  0.00     0.204 A 
ATOM     17  N   UNL     1       7.564  44.119  49.646  1.00  0.00    -0.214 NA
BRANCH  14  18
ATOM     18  N   UNL     1       5.083  41.399  49.555  1.00  0.00     0.068 N 
ATOM     19  O   UNL     1       4.450  40.767  50.414  1.00  0.00    -0.258 OA
ATOM     20  O   UNL     1       5.151  41.094  48.356  1.00  0.00    -0.258 OA
ENDBRANCH  14  18
BRANCH  15  21
ATOM     21  N   UNL     1       7.641  46.078  51.017  1.00  0.00    -0.324 N 
ATOM     22  H   UNL     1       7.437  46.782  50.325  1.00  0.00     0.170 HD
BRANCH  21  23
ATOM     23  C   UNL     1       8.308  46.507  52.175  1.00  0.00     0.044 A 
ATOM     24  C   UNL     1       9.696  46.381  52.335  1.00  0.00     0.026 A 
ATOM     25  C   UNL     1       7.581  47.134  53.217  1.00  0.00    -0.027 A 
ATOM     26  C   UNL     1      10.349  46.834  53.486  1.00  0.00     0.002 A 
ATOM     27  C   UNL     1       8.247  47.585  54.372  1.00  0.00     0.005 A 
ATOM     28  C   UNL     1       9.624  47.434  54.505  1.00  0.00     0.000 A 
ATOM     29  C   UNL     1       6.090  47.337  53.132  1.00  0.00     0.046 C 
ENDBRANCH  21  23
ENDBRANCH  15  21
ENDBRANCH   1  12
TORSDOF 7
ENDMDL
MODEL 9
REMARK VINA RESULT:    -8.689      3.573      7.282
REMARK INTER + INTRA:         -13.464
REMARK INTER:                 -12.201
REMARK INTRA:                  -1.263
REMARK UNBOUND:                -1.219
REMARK SMILES COc1ccc(CNc2nc(Nc3ccccc3C)ncc2[N+](=O)[O-])cc1
REMARK SMILES IDX 8 1 7 3 6 4 3 5 4 6 27 7 5 8 26 9 2 10 1 11 9 12 10 13 22 14
REMARK SMILES IDX 11 15 21 16 20 17 23 18 24 19 25 20 12 21 13 23 14 24 18 25
REMARK SMILES IDX 15 26 17 27 16 28 19 29
REMARK H PARENT 8 2 12 22
ROOT
ATOM      1  N   UNL     1       5.028  41.769  50.678  1.00  0.00    -0.360 N 
ATOM      2  H   UNL     1       5.196  41.234  51.533  1.00  0.00     0.162 HD
ENDROOT
BRANCH   1   3
ATOM      3  C   UNL     1       6.011  41.459  49.648  1.00  0.00     0.150 C 
BRANCH   3   4
ATOM      4  C   UNL     1       5.295  41.268  48.332  1.00  0.00    -0.029 A 
ATOM      5  C   UNL     1       3.971  40.876  45.875  1.00  0.00     0.118 A 
ATOM      6  C   UNL     1       3.466  40.316  47.050  1.00  0.00     0.047 A 
ATOM      7  C   UNL     1       5.145  41.628  45.928  1.00  0.00     0.047 A 
ATOM      8  C   UNL     1       4.121  40.506  48.269  1.00  0.00     0.009 A 
ATOM      9  C   UNL     1       5.805  41.820  47.149  1.00  0.00     0.009 A 
BRANCH   5  10
ATOM     10  O   UNL     1       3.234  40.614  44.753  1.00  0.00    -0.497 OA
ATOM     11  C   UNL     1       1.923  41.162  44.702  1.00  0.00     0.278 C 
ENDBRANCH   5  10
ENDBRANCH   3   4
ENDBRANCH   1   3
BRANCH   1  12
ATOM     12  C   UNL     1       4.838  43.131  50.956  1.00  0.00     0.210 A 
ATOM     13  N   UNL     1       5.892  43.966  50.807  1.00  0.00    -0.188 NA
ATOM     14  C   UNL     1       3.595  43.649  51.264  1.00  0.00     0.329 A 
ATOM     15  C   UNL     1       5.723  45.293  50.978  1.00  0.00     0.229 A 
ATOM     16  C   UNL     1       3.489  45.009  51.420  1.00  0.00     0.204 A 
ATOM     17  N   UNL     1       4.541  45.841  51.288  1.00  0.00    -0.214 NA
BRANCH  14  18
ATOM     18  N   UNL     1       2.432  42.826  51.459  1.00  0.00     0.068 N 
ATOM     19  O   UNL     1       1.962  42.755  52.605  1.00  0.00    -0.258 OA
ATOM     20  O   UNL     1       1.949  42.277  50.459  1.00  0.00    -0.258 OA
ENDBRANCH  14  18
BRANCH  15  21
ATOM     21  N   UNL     1       6.877  46.052  50.819  1.00  0.00    -0.324 N 
ATOM     22  H   UNL     1       6.877  46.440  49.888  1.00  0.00     0.170 HD
BRANCH  21  23
ATOM     23  C   UNL     1       7.908  46.468  51.675  1.00  0.00     0.044 A 
ATOM     24  C   UNL     1       7.696  47.366  52.731  1.00  0.00     0.026 A 
ATOM     25  C   UNL     1       9.214  45.940  51.513  1.00  0.00    -0.027 A 
ATOM     26  C   UNL     1       8.731  47.752  53.588  1.00  0.00     0.002 A 
ATOM     27  C   UNL     1      10.249  46.338  52.381  1.00  0.00     0.005 A 
ATOM     28  C   UNL     1      10.008  47.240  53.412  1.00  0.00     0.000 A 
ATOM     29  C   UNL     1       9.541  44.953  50.423  1.00  0.00     0.046 C 
ENDBRANCH  21  23
ENDBRANCH  15  21
ENDBRANCH   1  12
TORSDOF 7
ENDMDL
MODEL 10
REMARK VINA RESULT:    -8.678      3.341      5.723
REMARK INTER + INTRA:         -13.448
REMARK INTER:                 -12.643
REMARK INTRA:                  -0.805
REMARK UNBOUND:                -1.219
REMARK SMILES COc1ccc(CNc2nc(Nc3ccccc3C)ncc2[N+](=O)[O-])cc1
REMARK SMILES IDX 8 1 7 3 6 4 3 5 4 6 27 7 5 8 26 9 2 10 1 11 9 12 10 13 22 14
REMARK SMILES IDX 11 15 21 16 20 17 23 18 24 19 25 20 12 21 13 23 14 24 18 25
REMARK SMILES IDX 15 26 17 27 16 28 19 29
REMARK H PARENT 8 2 12 22
ROOT
ATOM      1  N   UNL     1       3.893  43.229  51.623  1.00  0.00    -0.360 N 
ATOM      2  H   UNL     1       3.079  43.189  51.005  1.00  0.00     0.162 HD
ENDROOT
BRANCH   1   3
ATOM      3  C   UNL     1       3.652  44.093  52.772  1.00  0.00     0.150 C 
BRANCH   3   4
ATOM      4  C   UNL     1       2.247  43.858  53.274  1.00  0.00    -0.029 A 
ATOM      5  C   UNL     1      -0.362  43.413  54.244  1.00  0.00     0.118 A 
ATOM      6  C   UNL     1       0.336  44.572  54.590  1.00  0.00     0.047 A 
ATOM      7  C   UNL     1       0.251  42.471  53.416  1.00  0.00     0.047 A 
ATOM      8  C   UNL     1       1.630  44.794  54.114  1.00  0.00     0.009 A 
ATOM      9  C   UNL     1       1.548  42.691  52.937  1.00  0.00     0.009 A 
BRANCH   5  10
ATOM     10  O   UNL     1      -1.617  43.320  54.777  1.00  0.00    -0.497 OA
ATOM     11  C   UNL     1      -1.853  44.016  55.995  1.00  0.00     0.278 C 
ENDBRANCH   5  10
ENDBRANCH   3   4
ENDBRANCH   1   3
BRANCH   1  12
ATOM     12  C   UNL     1       5.071  43.478  50.904  1.00  0.00     0.210 A 
ATOM     13  N   UNL     1       5.766  44.602  51.187  1.00  0.00    -0.188 NA
ATOM     14  C   UNL     1       5.587  42.563  50.007  1.00  0.00     0.329 A 
ATOM     15  C   UNL     1       6.949  44.828  50.579  1.00  0.00     0.229 A 
ATOM     16  C   UNL     1       6.798  42.849  49.426  1.00  0.00     0.204 A 
ATOM     17  N   UNL     1       7.485  43.976  49.694  1.00  0.00    -0.214 NA
BRANCH  14  18
ATOM     18  N   UNL     1       4.898  41.356  49.638  1.00  0.00     0.068 N 
ATOM     19  O   UNL     1       4.990  40.976  48.460  1.00  0.00    -0.258 OA
ATOM     20  O   UNL     1       4.294  40.749  50.533  1.00  0.00    -0.258 OA
ENDBRANCH  14  18
BRANCH  15  21
ATOM     21  N   UNL     1       7.567  46.022  50.932  1.00  0.00    -0.324 N 
ATOM     22  H   UNL     1       7.367  46.708  50.219  1.00  0.00     0.170 HD
BRANCH  21  23
ATOM     23  C   UNL     1       8.258  46.476  52.065  1.00  0.00     0.044 A 
ATOM     24  C   UNL     1       9.653  46.383  52.186  1.00  0.00     0.026 A 
ATOM     25  C   UNL     1       7.547  47.095  53.124  1.00  0.00    -0.027 A 
ATOM     26  C   UNL     1      10.328  46.860  53.313  1.00  0.00     0.002 A 
ATOM     27  C   UNL     1       8.236  47.570  54.255  1.00  0.00     0.005 A 
ATOM     28  C   UNL     1       9.620  47.452  54.349  1.00  0.00     0.000 A 
ATOM     29  C   UNL     1       6.050  47.263  53.082  1.00  0.00     0.046 C 
ENDBRANCH  21  23
ENDBRANCH  15  21
ENDBRANCH   1  12
TORSDOF 7
ENDMDL
MODEL 11
REMARK VINA RESULT:    -8.649      2.169      5.617
REMARK INTER + INTRA:         -13.407
REMARK INTER:                 -12.230
REMARK INTRA:                  -1.177
REMARK UNBOUND:                -1.219
REMARK SMILES COc1ccc(CNc2nc(Nc3ccccc3C)ncc2[N+](=O)[O-])cc1
REMARK SMILES IDX 8 1 7 3 6 4 3 5 4 6 27 7 5 8 26 9 2 10 1 11 9 12 10 13 22 14
REMARK SMILES IDX 11 15 21 16 20 17 23 18 24 19 25 20 12 21 13 23 14 24 18 25
REMARK SMILES IDX 15 26 17 27 16 28 19 29
REMARK H PARENT 8 2 12 22
ROOT
ATOM      1  N   UNL     1       3.976  45.861  54.696  1.00  0.00    -0.360 N 
ATOM      2  H   UNL     1       3.430  45.969  55.554  1.00  0.00     0.162 HD
ENDROOT
BRANCH   1   3
ATOM      3  C   UNL     1       4.320  47.152  54.113  1.00  0.00     0.150 C 
BRANCH   3   4
ATOM      4  C   UNL     1       5.796  47.164  53.790  1.00  0.00    -0.029 A 
ATOM      5  C   UNL     1       8.542  47.164  53.157  1.00  0.00     0.118 A 
ATOM      6  C   UNL     1       7.640  47.912  52.400  1.00  0.00     0.047 A 
ATOM      7  C   UNL     1       8.068  46.408  54.230  1.00  0.00     0.047 A 
ATOM      8  C   UNL     1       6.278  47.912  52.709  1.00  0.00     0.009 A 
ATOM      9  C   UNL     1       6.704  46.406  54.543  1.00  0.00     0.009 A 
BRANCH   5  10
ATOM     10  O   UNL     1       9.844  47.253  52.749  1.00  0.00    -0.497 OA
ATOM     11  C   UNL     1      10.348  46.179  51.964  1.00  0.00     0.278 C 
ENDBRANCH   5  10
ENDBRANCH   3   4
ENDBRANCH   1   3
BRANCH   1  12
ATOM     12  C   UNL     1       3.387  44.932  53.826  1.00  0.00     0.210 A 
ATOM     13  N   UNL     1       4.140  44.432  52.821  1.00  0.00    -0.188 NA
ATOM     14  C   UNL     1       2.113  44.440  54.035  1.00  0.00     0.329 A 
ATOM     15  C   UNL     1       3.635  43.471  52.021  1.00  0.00     0.229 A 
ATOM     16  C   UNL     1       1.659  43.458  53.189  1.00  0.00     0.204 A 
ATOM     17  N   UNL     1       2.402  42.970  52.177  1.00  0.00    -0.214 NA
BRANCH  14  18
ATOM     18  N   UNL     1       1.244  44.935  55.068  1.00  0.00     0.068 N 
ATOM     19  O   UNL     1       1.713  45.050  56.210  1.00  0.00    -0.258 OA
ATOM     20  O   UNL     1       0.094  45.258  54.738  1.00  0.00    -0.258 OA
ENDBRANCH  14  18
BRANCH  15  21
ATOM     21  N   UNL     1       4.490  43.045  51.011  1.00  0.00    -0.324 N 
ATOM     22  H   UNL     1       4.048  42.282  50.520  1.00  0.00     0.170 HD
BRANCH  21  23
ATOM     23  C   UNL     1       5.704  43.512  50.486  1.00  0.00     0.044 A 
ATOM     24  C   UNL     1       6.188  44.804  50.740  1.00  0.00     0.026 A 
ATOM     25  C   UNL     1       6.511  42.651  49.702  1.00  0.00    -0.027 A 
ATOM     26  C   UNL     1       7.411  45.246  50.227  1.00  0.00     0.002 A 
ATOM     27  C   UNL     1       7.740  43.107  49.189  1.00  0.00     0.005 A 
ATOM     28  C   UNL     1       8.187  44.398  49.449  1.00  0.00     0.000 A 
ATOM     29  C   UNL     1       6.092  41.237  49.389  1.00  0.00     0.046 C 
ENDBRANCH  21  23
ENDBRANCH  15  21
ENDBRANCH   1  12
TORSDOF 7
ENDMDL
MODEL 12
REMARK VINA RESULT:    -8.638      3.319      5.452
REMARK INTER + INTRA:         -13.392
REMARK INTER:                 -12.439
REMARK INTRA:                  -0.954
REMARK UNBOUND:                -1.219
REMARK SMILES COc1ccc(CNc2nc(Nc3ccccc3C)ncc2[N+](=O)[O-])cc1
REMARK SMILES IDX 8 1 7 3 6 4 3 5 4 6 27 7 5 8 26 9 2 10 1 11 9 12 10 13 22 14
REMARK SMILES IDX 11 15 21 16 20 17 23 18 24 19 25 20 12 21 13 23 14 24 18 25
REMARK SMILES IDX 15 26 17 27 16 28 19 29
REMARK H PARENT 8 2 12 22
ROOT
ATOM      1  N   UNL     1       3.482  43.989  52.832  1.00  0.00    -0.360 N 
ATOM      2  H   UNL     1       2.959  43.112  52.780  1.00  0.00     0.162 HD
ENDROOT
BRANCH   1   3
ATOM      3  C   UNL     1       2.593  45.144  52.855  1.00  0.00     0.150 C 
BRANCH   3   4
ATOM      4  C   UNL     1       1.699  45.048  54.068  1.00  0.00    -0.029 A 
ATOM      5  C   UNL     1       0.013  44.900  56.322  1.00  0.00     0.118 A 
ATOM      6  C   UNL     1      -0.463  44.555  55.055  1.00  0.00     0.047 A 
ATOM      7  C   UNL     1       1.334  45.327  56.460  1.00  0.00     0.047 A 
ATOM      8  C   UNL     1       0.369  44.630  53.936  1.00  0.00     0.009 A 
ATOM      9  C   UNL     1       2.171  45.403  55.340  1.00  0.00     0.009 A 
BRANCH   5  10
ATOM     10  O   UNL     1      -0.904  44.781  57.330  1.00  0.00    -0.497 OA
ATOM     11  C   UNL     1      -2.214  44.370  56.963  1.00  0.00     0.278 C 
ENDBRANCH   5  10
ENDBRANCH   3   4
ENDBRANCH   1   3
BRANCH   1  12
ATOM     12  C   UNL     1       4.515  44.027  51.883  1.00  0.00     0.210 A 
ATOM     13  N   UNL     1       5.434  45.013  51.980  1.00  0.00    -0.188 NA
ATOM     14  C   UNL     1       4.675  43.034  50.936  1.00  0.00     0.329 A 
ATOM     15  C   UNL     1       6.490  45.028  51.140  1.00  0.00     0.229 A 
ATOM     16  C   UNL     1       5.774  43.103  50.116  1.00  0.00     0.204 A 
ATOM     17  N   UNL     1       6.682  44.094  50.199  1.00  0.00    -0.214 NA
BRANCH  14  18
ATOM     18  N   UNL     1       3.730  41.965  50.758  1.00  0.00     0.068 N 
ATOM     19  O   UNL     1       4.177  40.812  50.655  1.00  0.00    -0.258 OA
ATOM     20  O   UNL     1       2.528  42.262  50.764  1.00  0.00    -0.258 OA
ENDBRANCH  14  18
BRANCH  15  21
ATOM     21  N   UNL     1       7.361  46.097  51.318  1.00  0.00    -0.324 N 
ATOM     22  H   UNL     1       7.335  46.671  50.488  1.00  0.00     0.170 HD
BRANCH  21  23
ATOM     23  C   UNL     1       8.120  46.581  52.395  1.00  0.00     0.044 A 
ATOM     24  C   UNL     1       7.540  47.232  53.493  1.00  0.00     0.026 A 
ATOM     25  C   UNL     1       9.522  46.377  52.416  1.00  0.00    -0.027 A 
ATOM     26  C   UNL     1       8.309  47.688  54.569  1.00  0.00     0.002 A 
ATOM     27  C   UNL     1      10.287  46.842  53.502  1.00  0.00     0.005 A 
ATOM     28  C   UNL     1       9.683  47.495  54.572  1.00  0.00     0.000 A 
ATOM     29  C   UNL     1      10.238  45.669  51.295  1.00  0.00     0.046 C 
ENDBRANCH  21  23
ENDBRANCH  15  21
ENDBRANCH   1  12
TORSDOF 7
ENDMDL
MODEL 13
REMARK VINA RESULT:    -8.638      2.603      5.983
REMARK INTER + INTRA:         -13.391
REMARK INTER:                 -12.245
REMARK INTRA:                  -1.146
REMARK UNBOUND:                -1.219
REMARK SMILES COc1ccc(CNc2nc(Nc3ccccc3C)ncc2[N+](=O)[O-])cc1
REMARK SMILES IDX 8 1 7 3 6 4 3 5 4 6 27 7 5 8 26 9 2 10 1 11 9 12 10 13 22 14
REMARK SMILES IDX 11 15 21 16 20 17 23 18 24 19 25 20 12 21 13 23 14 24 18 25
REMARK SMILES IDX 15 26 17 27 16 28 19 29
REMARK H PARENT 8 2 12 22
ROOT
ATOM      1  N   UNL     1       5.823  45.555  51.022  1.00  0.00    -0.360 N 
ATOM      2  H   UNL     1       5.331  46.166  50.364  1.00  0.00     0.162 HD
ENDROOT
BRANCH   1   3
ATOM      3  C   UNL     1       7.265  45.595  50.817  1.00  0.00     0.150 C 
BRANCH   3   4
ATOM      4  C   UNL     1       7.914  46.210  52.034  1.00  0.00    -0.029 A 
ATOM      5  C   UNL     1       9.109  47.392  54.297  1.00  0.00     0.118 A 
ATOM      6  C   UNL     1       7.735  47.148  54.266  1.00  0.00     0.047 A 
ATOM      7  C   UNL     1       9.886  47.049  53.190  1.00  0.00     0.047 A 
ATOM      8  C   UNL     1       7.139  46.566  53.145  1.00  0.00     0.009 A 
ATOM      9  C   UNL     1       9.292  46.465  52.065  1.00  0.00     0.009 A 
BRANCH   5  10
ATOM     10  O   UNL     1       9.564  47.964  55.453  1.00  0.00    -0.497 OA
ATOM     11  C   UNL     1      10.830  47.530  55.932  1.00  0.00     0.278 C 
ENDBRANCH   5  10
ENDBRANCH   3   4
ENDBRANCH   1   3
BRANCH   1  12
ATOM     12  C   UNL     1       5.244  44.278  51.065  1.00  0.00     0.210 A 
ATOM     13  N   UNL     1       5.551  43.404  50.080  1.00  0.00    -0.188 NA
ATOM     14  C   UNL     1       4.470  43.861  52.131  1.00  0.00     0.329 A 
ATOM     15  C   UNL     1       5.084  42.140  50.138  1.00  0.00     0.229 A 
ATOM     16  C   UNL     1       4.031  42.561  52.133  1.00  0.00     0.204 A 
ATOM     17  N   UNL     1       4.321  41.693  51.144  1.00  0.00    -0.214 NA
BRANCH  14  18
ATOM     18  N   UNL     1       4.083  44.736  53.205  1.00  0.00     0.068 N 
ATOM     19  O   UNL     1       4.565  44.519  54.327  1.00  0.00    -0.258 OA
ATOM     20  O   UNL     1       3.328  45.678  52.927  1.00  0.00    -0.258 OA
ENDBRANCH  14  18
BRANCH  15  21
ATOM     21  N   UNL     1       5.446  41.336  49.064  1.00  0.00    -0.324 N 
ATOM     22  H   UNL     1       6.057  40.608  49.402  1.00  0.00     0.170 HD
BRANCH  21  23
ATOM     23  C   UNL     1       5.059  41.257  47.717  1.00  0.00     0.044 A 
ATOM     24  C   UNL     1       5.703  41.981  46.703  1.00  0.00     0.026 A 
ATOM     25  C   UNL     1       4.007  40.387  47.336  1.00  0.00    -0.027 A 
ATOM     26  C   UNL     1       5.318  41.874  45.363  1.00  0.00     0.002 A 
ATOM     27  C   UNL     1       3.626  40.288  45.985  1.00  0.00     0.005 A 
ATOM     28  C   UNL     1       4.278  41.029  45.004  1.00  0.00     0.000 A 
ATOM     29  C   UNL     1       3.266  39.549  48.346  1.00  0.00     0.046 C 
ENDBRANCH  21  23
ENDBRANCH  15  21
ENDBRANCH   1  12
TORSDOF 7
ENDMDL
MODEL 14
REMARK VINA RESULT:    -8.631      2.741      6.240
REMARK INTER + INTRA:         -13.382
REMARK INTER:                 -12.139
REMARK INTRA:                  -1.243
REMARK UNBOUND:                -1.219
REMARK SMILES COc1ccc(CNc2nc(Nc3ccccc3C)ncc2[N+](=O)[O-])cc1
REMARK SMILES IDX 8 1 7 3 6 4 3 5 4 6 27 7 5 8 26 9 2 10 1 11 9 12 10 13 22 14
REMARK SMILES IDX 11 15 21 16 20 17 23 18 24 19 25 20 12 21 13 23 14 24 18 25
REMARK SMILES IDX 15 26 17 27 16 28 19 29
REMARK H PARENT 8 2 12 22
ROOT
ATOM      1  N   UNL     1       3.333  44.170  52.233  1.00  0.00    -0.360 N 
ATOM      2  H   UNL     1       2.314  44.126  52.301  1.00  0.00     0.162 HD
ENDROOT
BRANCH   1   3
ATOM      3  C   UNL     1       3.938  42.851  52.365  1.00  0.00     0.150 C 
BRANCH   3   4
ATOM      4  C   UNL     1       4.480  42.426  51.020  1.00  0.00    -0.029 A 
ATOM      5  C   UNL     1       5.505  41.602  48.527  1.00  0.00     0.118 A 
ATOM      6  C   UNL     1       4.379  40.982  49.072  1.00  0.00     0.047 A 
ATOM      7  C   UNL     1       6.124  42.633  49.236  1.00  0.00     0.047 A 
ATOM      8  C   UNL     1       3.871  41.385  50.308  1.00  0.00     0.009 A 
ATOM      9  C   UNL     1       5.616  43.040  50.475  1.00  0.00     0.009 A 
BRANCH   5  10
ATOM     10  O   UNL     1       5.898  41.112  47.313  1.00  0.00    -0.497 OA
ATOM     11  C   UNL     1       5.472  41.828  46.161  1.00  0.00     0.278 C 
ENDBRANCH   5  10
ENDBRANCH   3   4
ENDBRANCH   1   3
BRANCH   1  12
ATOM     12  C   UNL     1       3.859  45.173  53.062  1.00  0.00     0.210 A 
ATOM     13  N   UNL     1       5.001  45.785  52.677  1.00  0.00    -0.188 NA
ATOM     14  C   UNL     1       3.190  45.618  54.186  1.00  0.00     0.329 A 
ATOM     15  C   UNL     1       5.486  46.814  53.403  1.00  0.00     0.229 A 
ATOM     16  C   UNL     1       3.733  46.672  54.878  1.00  0.00     0.204 A 
ATOM     17  N   UNL     1       4.879  47.274  54.505  1.00  0.00    -0.214 NA
BRANCH  14  18
ATOM     18  N   UNL     1       1.983  45.005  54.671  1.00  0.00     0.068 N 
ATOM     19  O   UNL     1       1.958  44.639  55.856  1.00  0.00    -0.258 OA
ATOM     20  O   UNL     1       1.030  44.926  53.884  1.00  0.00    -0.258 OA
ENDBRANCH  14  18
BRANCH  15  21
ATOM     21  N   UNL     1       6.674  47.355  52.925  1.00  0.00    -0.324 N 
ATOM     22  H   UNL     1       6.639  48.356  53.045  1.00  0.00     0.170 HD
BRANCH  21  23
ATOM     23  C   UNL     1       7.884  46.818  52.460  1.00  0.00     0.044 A 
ATOM     24  C   UNL     1       7.977  46.093  51.263  1.00  0.00     0.026 A 
ATOM     25  C   UNL     1       9.080  47.041  53.188  1.00  0.00    -0.027 A 
ATOM     26  C   UNL     1       9.195  45.584  50.804  1.00  0.00     0.002 A 
ATOM     27  C   UNL     1      10.300  46.522  52.717  1.00  0.00     0.005 A 
ATOM     28  C   UNL     1      10.357  45.796  51.531  1.00  0.00     0.000 A 
ATOM     29  C   UNL     1       9.090  47.826  54.474  1.00  0.00     0.046 C 
ENDBRANCH  21  23
ENDBRANCH  15  21
ENDBRANCH   1  12
TORSDOF 7
ENDMDL
MODEL 15
REMARK VINA RESULT:    -8.524      3.196      7.253
REMARK INTER + INTRA:         -13.232
REMARK INTER:                 -11.733
REMARK INTRA:                  -1.499
REMARK UNBOUND:                -1.219
REMARK SMILES COc1ccc(CNc2nc(Nc3ccccc3C)ncc2[N+](=O)[O-])cc1
REMARK SMILES IDX 8 1 7 3 6 4 3 5 4 6 27 7 5 8 26 9 2 10 1 11 9 12 10 13 22 14
REMARK SMILES IDX 11 15 21 16 20 17 23 18 24 19 25 20 12 21 13 23 14 24 18 25
REMARK SMILES IDX 15 26 17 27 16 28 19 29
REMARK H PARENT 8 2 12 22
ROOT
ATOM      1  N   UNL     1       2.224  42.317  52.655  1.00  0.00    -0.360 N 
ATOM      2  H   UNL     1       3.054  41.804  52.962  1.00  0.00     0.162 HD
ENDROOT
BRANCH   1   3
ATOM      3  C   UNL     1       2.308  42.680  51.246  1.00  0.00     0.150 C 
BRANCH   3   4
ATOM      4  C   UNL     1       3.756  42.650  50.820  1.00  0.00    -0.029 A 
ATOM      5  C   UNL     1       6.450  42.612  49.991  1.00  0.00     0.118 A 
ATOM      6  C   UNL     1       5.861  43.798  50.435  1.00  0.00     0.047 A 
ATOM      7  C   UNL     1       5.687  41.445  49.955  1.00  0.00     0.047 A 
ATOM      8  C   UNL     1       4.525  43.821  50.843  1.00  0.00     0.009 A 
ATOM      9  C   UNL     1       4.348  41.464  50.364  1.00  0.00     0.009 A 
BRANCH   5  10
ATOM     10  O   UNL     1       7.762  42.729  49.622  1.00  0.00    -0.497 OA
ATOM     11  C   UNL     1       8.217  44.027  49.262  1.00  0.00     0.278 C 
ENDBRANCH   5  10
ENDBRANCH   3   4
ENDBRANCH   1   3
BRANCH   1  12
ATOM     12  C   UNL     1       1.909  43.358  53.541  1.00  0.00     0.210 A 
ATOM     13  N   UNL     1       2.876  44.255  53.841  1.00  0.00    -0.188 NA
ATOM     14  C   UNL     1       0.627  43.551  54.018  1.00  0.00     0.329 A 
ATOM     15  C   UNL     1       2.583  45.319  54.616  1.00  0.00     0.229 A 
ATOM     16  C   UNL     1       0.394  44.656  54.798  1.00  0.00     0.204 A 
ATOM     17  N   UNL     1       1.358  45.542  55.111  1.00  0.00    -0.214 NA
BRANCH  14  18
ATOM     18  N   UNL     1      -0.449  42.631  53.761  1.00  0.00     0.068 N 
ATOM     19  O   UNL     1      -0.200  41.418  53.834  1.00  0.00    -0.258 OA
ATOM     20  O   UNL     1      -1.565  43.113  53.528  1.00  0.00    -0.258 OA
ENDBRANCH  14  18
BRANCH  15  21
ATOM     21  N   UNL     1       3.656  46.164  54.875  1.00  0.00    -0.324 N 
ATOM     22  H   UNL     1       3.500  46.616  55.763  1.00  0.00     0.170 HD
BRANCH  21  23
ATOM     23  C   UNL     1       4.892  46.404  54.255  1.00  0.00     0.044 A 
ATOM     24  C   UNL     1       6.116  46.121  54.879  1.00  0.00     0.026 A 
ATOM     25  C   UNL     1       4.931  46.911  52.932  1.00  0.00    -0.027 A 
ATOM     26  C   UNL     1       7.339  46.346  54.239  1.00  0.00     0.002 A 
ATOM     27  C   UNL     1       6.167  47.135  52.297  1.00  0.00     0.005 A 
ATOM     28  C   UNL     1       7.364  46.855  52.948  1.00  0.00     0.000 A 
ATOM     29  C   UNL     1       3.671  47.227  52.167  1.00  0.00     0.046 C 
ENDBRANCH  21  23
ENDBRANCH  15  21
ENDBRANCH   1  12
TORSDOF 7
ENDMDL
MODEL 16
REMARK VINA RESULT:    -8.421      3.184      7.255
REMARK INTER + INTRA:         -13.086
REMARK INTER:                 -11.552
REMARK INTRA:                  -1.534
REMARK UNBOUND:                -1.219
REMARK SMILES COc1ccc(CNc2nc(Nc3ccccc3C)ncc2[N+](=O)[O-])cc1
REMARK SMILES IDX 8 1 7 3 6 4 3 5 4 6 27 7 5 8 26 9 2 10 1 11 9 12 10 13 22 14
REMARK SMILES IDX 11 15 21 16 20 17 23 18 24 19 25 20 12 21 13 23 14 24 18 25
REMARK SMILES IDX 15 26 17 27 16 28 19 29
REMARK H PARENT 8 2 12 22
ROOT
ATOM      1  N   UNL     1       2.163  42.299  52.563  1.00  0.00    -0.360 N 
ATOM      2  H   UNL     1       2.977  41.783  52.906  1.00  0.00     0.162 HD
ENDROOT
BRANCH   1   3
ATOM      3  C   UNL     1       2.272  42.588  51.139  1.00  0.00     0.150 C 
BRANCH   3   4
ATOM      4  C   UNL     1       3.731  42.573  50.748  1.00  0.00    -0.029 A 
ATOM      5  C   UNL     1       6.444  42.564  49.986  1.00  0.00     0.118 A 
ATOM      6  C   UNL     1       5.842  43.735  50.452  1.00  0.00     0.047 A 
ATOM      7  C   UNL     1       5.685  41.398  49.896  1.00  0.00     0.047 A 
ATOM      8  C   UNL     1       4.496  43.744  50.827  1.00  0.00     0.009 A 
ATOM      9  C   UNL     1       4.336  41.403  50.271  1.00  0.00     0.009 A 
BRANCH   5  10
ATOM     10  O   UNL     1       7.764  42.694  49.654  1.00  0.00    -0.497 OA
ATOM     11  C   UNL     1       8.210  43.991  49.279  1.00  0.00     0.278 C 
ENDBRANCH   5  10
ENDBRANCH   3   4
ENDBRANCH   1   3
BRANCH   1  12
ATOM     12  C   UNL     1       1.862  43.390  53.391  1.00  0.00     0.210 A 
ATOM     13  N   UNL     1       2.825  44.316  53.600  1.00  0.00    -0.188 NA
ATOM     14  C   UNL     1       0.594  43.597  53.898  1.00  0.00     0.329 A 
ATOM     15  C   UNL     1       2.543  45.424  54.317  1.00  0.00     0.229 A 
ATOM     16  C   UNL     1       0.370  44.747  54.614  1.00  0.00     0.204 A 
ATOM     17  N   UNL     1       1.332  45.663  54.838  1.00  0.00    -0.214 NA
BRANCH  14  18
ATOM     18  N   UNL     1      -0.476  42.650  53.736  1.00  0.00     0.068 N 
ATOM     19  O   UNL     1      -0.200  41.445  53.839  1.00  0.00    -0.258 OA
ATOM     20  O   UNL     1      -1.614  43.103  53.550  1.00  0.00    -0.258 OA
ENDBRANCH  14  18
BRANCH  15  21
ATOM     21  N   UNL     1       3.612  46.297  54.484  1.00  0.00    -0.324 N 
ATOM     22  H   UNL     1       3.397  46.921  55.248  1.00  0.00     0.170 HD
BRANCH  21  23
ATOM     23  C   UNL     1       4.897  46.398  53.931  1.00  0.00     0.044 A 
ATOM     24  C   UNL     1       5.181  47.218  52.829  1.00  0.00     0.026 A 
ATOM     25  C   UNL     1       5.975  45.688  54.517  1.00  0.00    -0.027 A 
ATOM     26  C   UNL     1       6.473  47.324  52.304  1.00  0.00     0.002 A 
ATOM     27  C   UNL     1       7.270  45.800  53.979  1.00  0.00     0.005 A 
ATOM     28  C   UNL     1       7.517  46.613  52.877  1.00  0.00     0.000 A 
ATOM     29  C   UNL     1       5.778  44.797  55.717  1.00  0.00     0.046 C 
ENDBRANCH  21  23
ENDBRANCH  15  21
ENDBRANCH   1  12
TORSDOF 7
ENDMDL
MODEL 17
REMARK VINA RESULT:    -8.413      2.691      6.643
REMARK INTER + INTRA:         -13.075
REMARK INTER:                 -11.928
REMARK INTRA:                  -1.147
REMARK UNBOUND:                -1.219
REMARK SMILES COc1ccc(CNc2nc(Nc3ccccc3C)ncc2[N+](=O)[O-])cc1
REMARK SMILES IDX 8 1 7 3 6 4 3 5 4 6 27 7 5 8 26 9 2 10 1 11 9 12 10 13 22 14
REMARK SMILES IDX 11 15 21 16 20 17 23 18 24 19 25 20 12 21 13 23 14 24 18 25
REMARK SMILES IDX 15 26 17 27 16 28 19 29
REMARK H PARENT 8 2 12 22
ROOT
ATOM      1  N   UNL     1       3.679  43.036  52.618  1.00  0.00    -0.360 N 
ATOM      2  H   UNL     1       4.402  42.324  52.751  1.00  0.00     0.162 HD
ENDROOT
BRANCH   1   3
ATOM      3  C   UNL     1       3.615  43.483  51.232  1.00  0.00     0.150 C 
BRANCH   3   4
ATOM      4  C   UNL     1       5.018  43.546  50.675  1.00  0.00    -0.029 A 
ATOM      5  C   UNL     1       7.621  43.681  49.602  1.00  0.00     0.118 A 
ATOM      6  C   UNL     1       6.985  44.833  50.070  1.00  0.00     0.047 A 
ATOM      7  C   UNL     1       6.949  42.460  49.665  1.00  0.00     0.047 A 
ATOM      8  C   UNL     1       5.694  44.770  50.599  1.00  0.00     0.009 A 
ATOM      9  C   UNL     1       5.655  42.394  50.195  1.00  0.00     0.009 A 
BRANCH   5  10
ATOM     10  O   UNL     1       8.881  43.882  49.111  1.00  0.00    -0.497 OA
ATOM     11  C   UNL     1       9.853  44.387  50.018  1.00  0.00     0.278 C 
ENDBRANCH   5  10
ENDBRANCH   3   4
ENDBRANCH   1   3
BRANCH   1  12
ATOM     12  C   UNL     1       3.771  44.047  53.586  1.00  0.00     0.210 A 
ATOM     13  N   UNL     1       4.986  44.591  53.826  1.00  0.00    -0.188 NA
ATOM     14  C   UNL     1       2.654  44.569  54.208  1.00  0.00     0.329 A 
ATOM     15  C   UNL     1       5.096  45.626  54.684  1.00  0.00     0.229 A 
ATOM     16  C   UNL     1       2.833  45.625  55.066  1.00  0.00     0.204 A 
ATOM     17  N   UNL     1       4.044  46.158  55.320  1.00  0.00    -0.214 NA
BRANCH  14  18
ATOM     18  N   UNL     1       1.333  44.031  54.021  1.00  0.00     0.068 N 
ATOM     19  O   UNL     1       1.226  42.805  53.867  1.00  0.00    -0.258 OA
ATOM     20  O   UNL     1       0.384  44.826  54.071  1.00  0.00    -0.258 OA
ENDBRANCH  14  18
BRANCH  15  21
ATOM     21  N   UNL     1       6.393  46.093  54.869  1.00  0.00    -0.324 N 
ATOM     22  H   UNL     1       6.630  45.997  55.845  1.00  0.00     0.170 HD
BRANCH  21  23
ATOM     23  C   UNL     1       7.417  46.522  54.011  1.00  0.00     0.044 A 
ATOM     24  C   UNL     1       8.752  46.125  54.173  1.00  0.00     0.026 A 
ATOM     25  C   UNL     1       7.108  47.354  52.906  1.00  0.00    -0.027 A 
ATOM     26  C   UNL     1       9.757  46.544  53.295  1.00  0.00     0.002 A 
ATOM     27  C   UNL     1       8.127  47.772  52.030  1.00  0.00     0.005 A 
ATOM     28  C   UNL     1       9.445  47.369  52.224  1.00  0.00     0.000 A 
ATOM     29  C   UNL     1       5.701  47.818  52.631  1.00  0.00     0.046 C 
ENDBRANCH  21  23
ENDBRANCH  15  21
ENDBRANCH   1  12
TORSDOF 7
ENDMDL
MODEL 18
REMARK VINA RESULT:    -8.390      2.789      6.907
REMARK INTER + INTRA:         -13.043
REMARK INTER:                 -11.993
REMARK INTRA:                  -1.050
REMARK UNBOUND:                -1.219
REMARK SMILES COc1ccc(CNc2nc(Nc3ccccc3C)ncc2[N+](=O)[O-])cc1
REMARK SMILES IDX 8 1 7 3 6 4 3 5 4 6 27 7 5 8 26 9 2 10 1 11 9 12 10 13 22 14
REMARK SMILES IDX 11 15 21 16 20 17 23 18 24 19 25 20 12 21 13 23 14 24 18 25
REMARK SMILES IDX 15 26 17 27 16 28 19 29
REMARK H PARENT 8 2 12 22
ROOT
ATOM      1  N   UNL     1       6.864  44.211  50.654  1.00  0.00    -0.360 N 
ATOM      2  H   UNL     1       7.563  43.815  51.287  1.00  0.00     0.162 HD
ENDROOT
BRANCH   1   3
ATOM      3  C   UNL     1       6.985  45.661  50.560  1.00  0.00     0.150 C 
BRANCH   3   4
ATOM      4  C   UNL     1       7.656  46.177  51.811  1.00  0.00    -0.029 A 
ATOM      5  C   UNL     1       8.896  47.175  54.137  1.00  0.00     0.118 A 
ATOM      6  C   UNL     1       7.506  47.075  54.061  1.00  0.00     0.047 A 
ATOM      7  C   UNL     1       9.667  46.781  53.043  1.00  0.00     0.047 A 
ATOM      8  C   UNL     1       6.888  46.584  52.909  1.00  0.00     0.009 A 
ATOM      9  C   UNL     1       9.051  46.288  51.887  1.00  0.00     0.009 A 
BRANCH   5  10
ATOM     10  O   UNL     1       9.371  47.671  55.320  1.00  0.00    -0.497 OA
ATOM     11  C   UNL     1      10.738  47.422  55.620  1.00  0.00     0.278 C 
ENDBRANCH   5  10
ENDBRANCH   3   4
ENDBRANCH   1   3
BRANCH   1  12
ATOM     12  C   UNL     1       5.581  43.719  50.936  1.00  0.00     0.210 A 
ATOM     13  N   UNL     1       4.714  44.531  51.581  1.00  0.00    -0.188 NA
ATOM     14  C   UNL     1       5.153  42.488  50.479  1.00  0.00     0.329 A 
ATOM     15  C   UNL     1       3.445  44.124  51.788  1.00  0.00     0.229 A 
ATOM     16  C   UNL     1       3.848  42.135  50.716  1.00  0.00     0.204 A 
ATOM     17  N   UNL     1       2.986  42.935  51.374  1.00  0.00    -0.214 NA
BRANCH  14  18
ATOM     18  N   UNL     1       6.020  41.560  49.803  1.00  0.00     0.068 N 
ATOM     19  O   UNL     1       5.660  41.138  48.694  1.00  0.00    -0.258 OA
ATOM     20  O   UNL     1       7.094  41.281  50.355  1.00  0.00    -0.258 OA
ENDBRANCH  14  18
BRANCH  15  21
ATOM     21  N   UNL     1       2.647  45.031  52.477  1.00  0.00    -0.324 N 
ATOM     22  H   UNL     1       2.633  45.898  51.963  1.00  0.00     0.170 HD
BRANCH  21  23
ATOM     23  C   UNL     1       1.809  44.950  53.600  1.00  0.00     0.044 A 
ATOM     24  C   UNL     1       0.473  44.531  53.515  1.00  0.00     0.026 A 
ATOM     25  C   UNL     1       2.321  45.258  54.885  1.00  0.00    -0.027 A 
ATOM     26  C   UNL     1      -0.341  44.435  54.648  1.00  0.00     0.002 A 
ATOM     27  C   UNL     1       1.491  45.161  56.018  1.00  0.00     0.005 A 
ATOM     28  C   UNL     1       0.167  44.752  55.899  1.00  0.00     0.000 A 
ATOM     29  C   UNL     1       3.749  45.698  55.086  1.00  0.00     0.046 C 
ENDBRANCH  21  23
ENDBRANCH  15  21
ENDBRANCH   1  12
TORSDOF 7
ENDMDL
MODEL 19
REMARK VINA RESULT:    -8.319      2.986      5.423
REMARK INTER + INTRA:         -12.943
REMARK INTER:                 -11.537
REMARK INTRA:                  -1.405
REMARK UNBOUND:                -1.219
REMARK SMILES COc1ccc(CNc2nc(Nc3ccccc3C)ncc2[N+](=O)[O-])cc1
REMARK SMILES IDX 8 1 7 3 6 4 3 5 4 6 27 7 5 8 26 9 2 10 1 11 9 12 10 13 22 14
REMARK SMILES IDX 11 15 21 16 20 17 23 18 24 19 25 20 12 21 13 23 14 24 18 25
REMARK SMILES IDX 15 26 17 27 16 28 19 29
REMARK H PARENT 8 2 12 22
ROOT
ATOM      1  N   UNL     1       3.832  43.501  53.426  1.00  0.00    -0.360 N 
ATOM      2  H   UNL     1       4.647  43.004  53.794  1.00  0.00     0.162 HD
ENDROOT
BRANCH   1   3
ATOM      3  C   UNL     1       3.372  42.923  52.170  1.00  0.00     0.150 C 
BRANCH   3   4
ATOM      4  C   UNL     1       1.863  42.866  52.182  1.00  0.00    -0.029 A 
ATOM      5  C   UNL     1      -0.952  42.724  52.197  1.00  0.00     0.118 A 
ATOM      6  C   UNL     1      -0.210  42.216  53.265  1.00  0.00     0.047 A 
ATOM      7  C   UNL     1      -0.283  43.299  51.116  1.00  0.00     0.047 A 
ATOM      8  C   UNL     1       1.185  42.281  53.259  1.00  0.00     0.009 A 
ATOM      9  C   UNL     1       1.115  43.367  51.107  1.00  0.00     0.009 A 
BRANCH   5  10
ATOM     10  O   UNL     1      -2.307  42.596  52.330  1.00  0.00    -0.497 OA
ATOM     11  C   UNL     1      -3.013  42.049  51.224  1.00  0.00     0.278 C 
ENDBRANCH   5  10
ENDBRANCH   3   4
ENDBRANCH   1   3
BRANCH   1  12
ATOM     12  C   UNL     1       4.037  44.889  53.424  1.00  0.00     0.210 A 
ATOM     13  N   UNL     1       5.113  45.374  52.765  1.00  0.00    -0.188 NA
ATOM     14  C   UNL     1       3.122  45.764  53.976  1.00  0.00     0.329 A 
ATOM     15  C   UNL     1       5.291  46.708  52.667  1.00  0.00     0.229 A 
ATOM     16  C   UNL     1       3.358  47.109  53.837  1.00  0.00     0.204 A 
ATOM     17  N   UNL     1       4.437  47.595  53.195  1.00  0.00    -0.214 NA
BRANCH  14  18
ATOM     18  N   UNL     1       1.965  45.325  54.711  1.00  0.00     0.068 N 
ATOM     19  O   UNL     1       0.849  45.613  54.254  1.00  0.00    -0.258 OA
ATOM     20  O   UNL     1       2.162  44.647  55.729  1.00  0.00    -0.258 OA
ENDBRANCH  14  18
BRANCH  15  21
ATOM     21  N   UNL     1       6.439  47.094  51.983  1.00  0.00    -0.324 N 
ATOM     22  H   UNL     1       6.173  47.736  51.252  1.00  0.00     0.170 HD
BRANCH  21  23
ATOM     23  C   UNL     1       7.814  46.887  52.173  1.00  0.00     0.044 A 
ATOM     24  C   UNL     1       8.527  47.482  53.224  1.00  0.00     0.026 A 
ATOM     25  C   UNL     1       8.521  46.015  51.308  1.00  0.00    -0.027 A 
ATOM     26  C   UNL     1       9.893  47.248  53.411  1.00  0.00     0.002 A 
ATOM     27  C   UNL     1       9.896  45.788  51.504  1.00  0.00     0.005 A 
ATOM     28  C   UNL     1      10.579  46.403  52.550  1.00  0.00     0.000 A 
ATOM     29  C   UNL     1       7.841  45.310  50.163  1.00  0.00     0.046 C 
ENDBRANCH  21  23
ENDBRANCH  15  21
ENDBRANCH   1  12
TORSDOF 7
ENDMDL
MODEL 20
REMARK VINA RESULT:    -8.228      1.660      4.815
REMARK INTER + INTRA:         -12.814
REMARK INTER:                 -12.113
REMARK INTRA:                  -0.702
REMARK UNBOUND:                -1.219
REMARK SMILES COc1ccc(CNc2nc(Nc3ccccc3C)ncc2[N+](=O)[O-])cc1
REMARK SMILES IDX 8 1 7 3 6 4 3 5 4 6 27 7 5 8 26 9 2 10 1 11 9 12 10 13 22 14
REMARK SMILES IDX 11 15 21 16 20 17 23 18 24 19 25 20 12 21 13 23 14 24 18 25
REMARK SMILES IDX 15 26 17 27 16 28 19 29
REMARK H PARENT 8 2 12 22
ROOT
ATOM      1  N   UNL     1       8.096  45.757  51.300  1.00  0.00    -0.360 N 
ATOM      2  H   UNL     1       9.015  46.141  51.070  1.00  0.00     0.162 HD
ENDROOT
BRANCH   1   3
ATOM      3  C   UNL     1       7.249  45.646  50.119  1.00  0.00     0.150 C 
BRANCH   3   4
ATOM      4  C   UNL     1       6.495  44.338  50.180  1.00  0.00    -0.029 A 
ATOM      5  C   UNL     1       5.099  41.894  50.330  1.00  0.00     0.118 A 
ATOM      6  C   UNL     1       4.578  43.047  50.920  1.00  0.00     0.047 A 
ATOM      7  C   UNL     1       6.326  41.963  49.669  1.00  0.00     0.047 A 
ATOM      8  C   UNL     1       5.268  44.259  50.850  1.00  0.00     0.009 A 
ATOM      9  C   UNL     1       7.021  43.177  49.597  1.00  0.00     0.009 A 
BRANCH   5  10
ATOM     10  O   UNL     1       4.323  40.777  50.471  1.00  0.00    -0.497 OA
ATOM     11  C   UNL     1       3.501  40.420  49.367  1.00  0.00     0.278 C 
ENDBRANCH   5  10
ENDBRANCH   3   4
ENDBRANCH   1   3
BRANCH   1  12
ATOM     12  C   UNL     1       7.528  46.411  52.403  1.00  0.00     0.210 A 
ATOM     13  N   UNL     1       6.185  46.561  52.435  1.00  0.00    -0.188 NA
ATOM     14  C   UNL     1       8.285  46.801  53.492  1.00  0.00     0.329 A 
ATOM     15  C   UNL     1       5.598  47.105  53.521  1.00  0.00     0.229 A 
ATOM     16  C   UNL     1       7.627  47.342  54.568  1.00  0.00     0.204 A 
ATOM     17  N   UNL     1       6.290  47.508  54.595  1.00  0.00    -0.214 NA
BRANCH  14  18
ATOM     18  N   UNL     1       9.719  46.694  53.525  1.00  0.00     0.068 N 
ATOM     19  O   UNL     1      10.318  46.647  52.440  1.00  0.00    -0.258 OA
ATOM     20  O   UNL     1      10.264  46.703  54.637  1.00  0.00    -0.258 OA
ENDBRANCH  14  18
BRANCH  15  21
ATOM     21  N   UNL     1       4.216  47.227  53.437  1.00  0.00    -0.324 N 
ATOM     22  H   UNL     1       3.980  48.207  53.474  1.00  0.00     0.170 HD
BRANCH  21  23
ATOM     23  C   UNL     1       3.161  46.333  53.197  1.00  0.00     0.044 A 
ATOM     24  C   UNL     1       2.535  46.224  51.946  1.00  0.00     0.026 A 
ATOM     25  C   UNL     1       2.722  45.467  54.229  1.00  0.00    -0.027 A 
ATOM     26  C   UNL     1       1.500  45.312  51.718  1.00  0.00     0.002 A 
ATOM     27  C   UNL     1       1.678  44.554  53.989  1.00  0.00     0.005 A 
ATOM     28  C   UNL     1       1.070  44.479  52.740  1.00  0.00     0.000 A 
ATOM     29  C   UNL     1       3.344  45.490  55.602  1.00  0.00     0.046 C 
ENDBRANCH  21  23
ENDBRANCH  15  21
ENDBRANCH   1  12
TORSDOF 7
ENDMDL
