MODEL 1
REMARK VINA RESULT:    -8.796      0.000      0.000
REMARK INTER + INTRA:         -12.577
REMARK INTER:                 -11.881
REMARK INTRA:                  -0.696
REMARK UNBOUND:                -0.696
REMARK SMILES CCCCNc1nc(Nc2ccc(F)cc2F)c2cnn(C)c2n1
REMARK SMILES IDX 5 1 4 3 3 4 2 5 1 6 6 7 7 8 24 9 8 10 23 11 18 12 21 13
REMARK SMILES IDX 19 14 20 15 22 16 9 17 10 19 11 20 16 21 12 22 15 23 13 24
REMARK SMILES IDX 17 25 14 26
REMARK H PARENT 5 2 9 18
ROOT
ATOM      1  N   UNL     1       6.223  41.559  49.336  1.00  0.00    -0.354 N 
ATOM      2  H   UNL     1       6.386  40.809  50.001  1.00  0.00     0.163 HD
ENDROOT
BRANCH   1   3
ATOM      3  C   UNL     1       5.395  41.203  48.195  1.00  0.00     0.116 C 
BRANCH   3   4
ATOM      4  C   UNL     1       5.840  41.970  46.947  1.00  0.00     0.021 C 
BRANCH   4   5
ATOM      5  C   UNL     1       5.103  41.538  45.678  1.00  0.00    -0.002 C 
ATOM      6  C   UNL     1       5.181  42.558  44.553  1.00  0.00     0.004 C 
ENDBRANCH   4   5
ENDBRANCH   3   4
ENDBRANCH   1   3
BRANCH   1   7
ATOM      7  C   UNL     1       5.794  42.645  50.089  1.00  0.00     0.226 A 
ATOM      8  N   UNL     1       6.542  43.764  50.137  1.00  0.00    -0.195 NA
ATOM      9  N   UNL     1       4.626  42.462  50.717  1.00  0.00    -0.193 NA
ATOM     10  C   UNL     1       6.156  44.817  50.900  1.00  0.00     0.147 A 
ATOM     11  C   UNL     1       4.239  43.535  51.424  1.00  0.00     0.165 A 
ATOM     12  C   UNL     1       4.927  44.725  51.556  1.00  0.00     0.082 A 
ATOM     13  N   UNL     1       3.089  43.680  52.151  1.00  0.00    -0.250 N 
ATOM     14  C   UNL     1       4.079  45.531  52.341  1.00  0.00     0.149 A 
ATOM     15  N   UNL     1       2.963  44.899  52.725  1.00  0.00    -0.179 NA
ATOM     16  C   UNL     1       2.048  42.700  52.332  1.00  0.00     0.176 C 
BRANCH  10  17
ATOM     17  N   UNL     1       6.994  45.937  50.890  1.00  0.00    -0.337 N 
ATOM     18  H   UNL     1       7.248  46.152  49.928  1.00  0.00     0.168 HD
BRANCH  17  19
ATOM     19  C   UNL     1       7.990  46.352  51.796  1.00  0.00     0.076 A 
ATOM     20  C   UNL     1       9.345  46.018  51.670  1.00  0.00     0.032 A 
ATOM     21  C   UNL     1       7.605  47.105  52.922  1.00  0.00     0.149 A 
ATOM     22  C   UNL     1      10.273  46.426  52.634  1.00  0.00     0.041 A 
ATOM     23  C   UNL     1       8.519  47.515  53.888  1.00  0.00     0.080 A 
ATOM     24  C   UNL     1       9.850  47.168  53.733  1.00  0.00     0.126 A 
ATOM     25  F   UNL     1       6.316  47.447  53.074  1.00  0.00    -0.205 F 
ATOM     26  F   UNL     1      10.746  47.554  54.650  1.00  0.00    -0.207 F 
ENDBRANCH  17  19
ENDBRANCH  10  17
ENDBRANCH   1   7
TORSDOF 6
ENDMDL
MODEL 2
REMARK VINA RESULT:    -8.772      1.859      4.580
REMARK INTER + INTRA:         -12.545
REMARK INTER:                 -11.541
REMARK INTRA:                  -1.004
REMARK UNBOUND:                -0.696
REMARK SMILES CCCCNc1nc(Nc2ccc(F)cc2F)c2cnn(C)c2n1
REMARK SMILES IDX 5 1 4 3 3 4 2 5 1 6 6 7 7 8 24 9 8 10 23 11 18 12 21 13
REMARK SMILES IDX 19 14 20 15 22 16 9 17 10 19 11 20 16 21 12 22 15 23 13 24
REMARK SMILES IDX 17 25 14 26
REMARK H PARENT 5 2 9 18
ROOT
ATOM      1  N   UNL     1       2.650  45.215  52.559  1.00  0.00    -0.354 N 
ATOM      2  H   UNL     1       2.155  44.379  52.851  1.00  0.00     0.163 HD
ENDROOT
BRANCH   1   3
ATOM      3  C   UNL     1       2.931  46.168  53.621  1.00  0.00     0.116 C 
BRANCH   3   4
ATOM      4  C   UNL     1       3.307  45.437  54.913  1.00  0.00     0.021 C 
BRANCH   4   5
ATOM      5  C   UNL     1       4.751  45.690  55.353  1.00  0.00    -0.002 C 
ATOM      6  C   UNL     1       5.707  44.573  54.971  1.00  0.00     0.004 C 
ENDBRANCH   4   5
ENDBRANCH   3   4
ENDBRANCH   1   3
BRANCH   1   7
ATOM      7  C   UNL     1       3.745  44.770  51.829  1.00  0.00     0.226 A 
ATOM      8  N   UNL     1       4.817  45.570  51.673  1.00  0.00    -0.195 NA
ATOM      9  N   UNL     1       3.619  43.532  51.335  1.00  0.00    -0.193 NA
ATOM     10  C   UNL     1       5.876  45.165  50.930  1.00  0.00     0.147 A 
ATOM     11  C   UNL     1       4.699  43.133  50.646  1.00  0.00     0.165 A 
ATOM     12  C   UNL     1       5.844  43.869  50.411  1.00  0.00     0.082 A 
ATOM     13  N   UNL     1       4.899  41.921  50.042  1.00  0.00    -0.250 N 
ATOM     14  C   UNL     1       6.685  42.988  49.701  1.00  0.00     0.149 A 
ATOM     15  N   UNL     1       6.112  41.803  49.454  1.00  0.00    -0.179 NA
ATOM     16  C   UNL     1       3.979  40.812  49.998  1.00  0.00     0.176 C 
BRANCH  10  17
ATOM     17  N   UNL     1       6.945  46.061  50.822  1.00  0.00    -0.337 N 
ATOM     18  H   UNL     1       7.322  46.013  49.877  1.00  0.00     0.168 HD
BRANCH  17  19
ATOM     19  C   UNL     1       7.929  46.440  51.756  1.00  0.00     0.076 A 
ATOM     20  C   UNL     1       9.272  46.051  51.673  1.00  0.00     0.032 A 
ATOM     21  C   UNL     1       7.540  47.214  52.866  1.00  0.00     0.149 A 
ATOM     22  C   UNL     1      10.186  46.427  52.664  1.00  0.00     0.041 A 
ATOM     23  C   UNL     1       8.439  47.593  53.858  1.00  0.00     0.080 A 
ATOM     24  C   UNL     1       9.760  47.191  53.746  1.00  0.00     0.126 A 
ATOM     25  F   UNL     1       6.262  47.610  52.977  1.00  0.00    -0.205 F 
ATOM     26  F   UNL     1      10.642  47.546  54.689  1.00  0.00    -0.207 F 
ENDBRANCH  17  19
ENDBRANCH  10  17
ENDBRANCH   1   7
TORSDOF 6
ENDMDL
MODEL 3
REMARK VINA RESULT:    -8.699      1.859      2.495
REMARK INTER + INTRA:         -12.446
REMARK INTER:                 -11.803
REMARK INTRA:                  -0.643
REMARK UNBOUND:                -0.696
REMARK SMILES CCCCNc1nc(Nc2ccc(F)cc2F)c2cnn(C)c2n1
REMARK SMILES IDX 5 1 4 3 3 4 2 5 1 6 6 7 7 8 24 9 8 10 23 11 18 12 21 13
REMARK SMILES IDX 19 14 20 15 22 16 9 17 10 19 11 20 16 21 12 22 15 23 13 24
REMARK SMILES IDX 17 25 14 26
REMARK H PARENT 5 2 9 18
ROOT
ATOM      1  N   UNL     1       4.476  41.942  51.471  1.00  0.00    -0.354 N 
ATOM      2  H   UNL     1       3.689  41.510  51.944  1.00  0.00     0.163 HD
ENDROOT
BRANCH   1   3
ATOM      3  C   UNL     1       4.668  41.527  50.090  1.00  0.00     0.116 C 
BRANCH   3   4
ATOM      4  C   UNL     1       6.158  41.516  49.735  1.00  0.00     0.021 C 
BRANCH   4   5
ATOM      5  C   UNL     1       6.552  42.619  48.750  1.00  0.00    -0.002 C 
ATOM      6  C   UNL     1       7.807  43.375  49.154  1.00  0.00     0.004 C 
ENDBRANCH   4   5
ENDBRANCH   3   4
ENDBRANCH   1   3
BRANCH   1   7
ATOM      7  C   UNL     1       4.343  43.308  51.688  1.00  0.00     0.226 A 
ATOM      8  N   UNL     1       5.413  44.114  51.553  1.00  0.00    -0.195 NA
ATOM      9  N   UNL     1       3.108  43.702  52.020  1.00  0.00    -0.193 NA
ATOM     10  C   UNL     1       5.309  45.444  51.800  1.00  0.00     0.147 A 
ATOM     11  C   UNL     1       3.017  45.027  52.210  1.00  0.00     0.165 A 
ATOM     12  C   UNL     1       4.044  45.945  52.113  1.00  0.00     0.082 A 
ATOM     13  N   UNL     1       1.897  45.746  52.530  1.00  0.00    -0.250 N 
ATOM     14  C   UNL     1       3.421  47.189  52.345  1.00  0.00     0.149 A 
ATOM     15  N   UNL     1       2.116  47.078  52.618  1.00  0.00    -0.179 NA
ATOM     16  C   UNL     1       0.569  45.229  52.752  1.00  0.00     0.176 C 
BRANCH  10  17
ATOM     17  N   UNL     1       6.470  46.205  51.636  1.00  0.00    -0.337 N 
ATOM     18  H   UNL     1       6.817  46.079  50.687  1.00  0.00     0.168 HD
BRANCH  17  19
ATOM     19  C   UNL     1       7.515  46.501  52.535  1.00  0.00     0.076 A 
ATOM     20  C   UNL     1       7.311  47.008  53.825  1.00  0.00     0.032 A 
ATOM     21  C   UNL     1       8.844  46.326  52.103  1.00  0.00     0.149 A 
ATOM     22  C   UNL     1       8.399  47.323  54.646  1.00  0.00     0.041 A 
ATOM     23  C   UNL     1       9.933  46.637  52.911  1.00  0.00     0.080 A 
ATOM     24  C   UNL     1       9.697  47.137  54.181  1.00  0.00     0.126 A 
ATOM     25  F   UNL     1       9.077  45.838  50.875  1.00  0.00    -0.205 F 
ATOM     26  F   UNL     1      10.732  47.441  54.975  1.00  0.00    -0.207 F 
ENDBRANCH  17  19
ENDBRANCH  10  17
ENDBRANCH   1   7
TORSDOF 6
ENDMDL
MODEL 4
REMARK VINA RESULT:    -8.666      1.584      4.765
REMARK INTER + INTRA:         -12.401
REMARK INTER:                 -11.467
REMARK INTRA:                  -0.935
REMARK UNBOUND:                -0.696
REMARK SMILES CCCCNc1nc(Nc2ccc(F)cc2F)c2cnn(C)c2n1
REMARK SMILES IDX 5 1 4 3 3 4 2 5 1 6 6 7 7 8 24 9 8 10 23 11 18 12 21 13
REMARK SMILES IDX 19 14 20 15 22 16 9 17 10 19 11 20 16 21 12 22 15 23 13 24
REMARK SMILES IDX 17 25 14 26
REMARK H PARENT 5 2 9 18
ROOT
ATOM      1  N   UNL     1       3.080  43.388  52.904  1.00  0.00    -0.354 N 
ATOM      2  H   UNL     1       3.461  42.899  53.708  1.00  0.00     0.163 HD
ENDROOT
BRANCH   1   3
ATOM      3  C   UNL     1       2.158  44.467  53.219  1.00  0.00     0.116 C 
BRANCH   3   4
ATOM      4  C   UNL     1       1.550  44.267  54.610  1.00  0.00     0.021 C 
BRANCH   4   5
ATOM      5  C   UNL     1       1.907  45.385  55.592  1.00  0.00    -0.002 C 
ATOM      6  C   UNL     1       3.361  45.821  55.514  1.00  0.00     0.004 C 
ENDBRANCH   4   5
ENDBRANCH   3   4
ENDBRANCH   1   3
BRANCH   1   7
ATOM      7  C   UNL     1       4.172  43.724  52.115  1.00  0.00     0.226 A 
ATOM      8  N   UNL     1       4.830  44.878  52.338  1.00  0.00    -0.195 NA
ATOM      9  N   UNL     1       4.477  42.825  51.171  1.00  0.00    -0.193 NA
ATOM     10  C   UNL     1       5.874  45.239  51.551  1.00  0.00     0.147 A 
ATOM     11  C   UNL     1       5.543  43.179  50.437  1.00  0.00     0.165 A 
ATOM     12  C   UNL     1       6.283  44.338  50.567  1.00  0.00     0.082 A 
ATOM     13  N   UNL     1       6.123  42.472  49.420  1.00  0.00    -0.250 N 
ATOM     14  C   UNL     1       7.312  44.201  49.613  1.00  0.00     0.149 A 
ATOM     15  N   UNL     1       7.214  43.076  48.895  1.00  0.00    -0.179 NA
ATOM     16  C   UNL     1       5.700  41.195  48.900  1.00  0.00     0.176 C 
BRANCH  10  17
ATOM     17  N   UNL     1       6.497  46.453  51.856  1.00  0.00    -0.337 N 
ATOM     18  H   UNL     1       6.399  47.084  51.062  1.00  0.00     0.168 HD
BRANCH  17  19
ATOM     19  C   UNL     1       7.661  46.732  52.599  1.00  0.00     0.076 A 
ATOM     20  C   UNL     1       8.958  46.644  52.077  1.00  0.00     0.032 A 
ATOM     21  C   UNL     1       7.526  47.071  53.960  1.00  0.00     0.149 A 
ATOM     22  C   UNL     1      10.072  46.890  52.888  1.00  0.00     0.041 A 
ATOM     23  C   UNL     1       8.625  47.316  54.776  1.00  0.00     0.080 A 
ATOM     24  C   UNL     1       9.894  47.221  54.228  1.00  0.00     0.126 A 
ATOM     25  F   UNL     1       6.298  47.169  54.493  1.00  0.00    -0.205 F 
ATOM     26  F   UNL     1      10.965  47.455  54.996  1.00  0.00    -0.207 F 
ENDBRANCH  17  19
ENDBRANCH  10  17
ENDBRANCH   1   7
TORSDOF 6
ENDMDL
MODEL 5
REMARK VINA RESULT:    -8.611      1.695      2.145
REMARK INTER + INTRA:         -12.328
REMARK INTER:                 -11.652
REMARK INTRA:                  -0.675
REMARK UNBOUND:                -0.696
REMARK SMILES CCCCNc1nc(Nc2ccc(F)cc2F)c2cnn(C)c2n1
REMARK SMILES IDX 5 1 4 3 3 4 2 5 1 6 6 7 7 8 24 9 8 10 23 11 18 12 21 13
REMARK SMILES IDX 19 14 20 15 22 16 9 17 10 19 11 20 16 21 12 22 15 23 13 24
REMARK SMILES IDX 17 25 14 26
REMARK H PARENT 5 2 9 18
ROOT
ATOM      1  N   UNL     1       4.616  41.931  51.420  1.00  0.00    -0.354 N 
ATOM      2  H   UNL     1       3.870  41.433  51.896  1.00  0.00     0.163 HD
ENDROOT
BRANCH   1   3
ATOM      3  C   UNL     1       4.845  41.528  50.042  1.00  0.00     0.116 C 
BRANCH   3   4
ATOM      4  C   UNL     1       6.341  41.553  49.716  1.00  0.00     0.021 C 
BRANCH   4   5
ATOM      5  C   UNL     1       6.729  42.673  48.747  1.00  0.00    -0.002 C 
ATOM      6  C   UNL     1       7.913  43.501  49.219  1.00  0.00     0.004 C 
ENDBRANCH   4   5
ENDBRANCH   3   4
ENDBRANCH   1   3
BRANCH   1   7
ATOM      7  C   UNL     1       4.364  43.281  51.631  1.00  0.00     0.226 A 
ATOM      8  N   UNL     1       5.343  44.184  51.431  1.00  0.00    -0.195 NA
ATOM      9  N   UNL     1       3.117  43.560  52.027  1.00  0.00    -0.193 NA
ATOM     10  C   UNL     1       5.124  45.501  51.671  1.00  0.00     0.147 A 
ATOM     11  C   UNL     1       2.908  44.872  52.209  1.00  0.00     0.165 A 
ATOM     12  C   UNL     1       3.835  45.883  52.047  1.00  0.00     0.082 A 
ATOM     13  N   UNL     1       1.742  45.485  52.582  1.00  0.00    -0.250 N 
ATOM     14  C   UNL     1       3.109  47.065  52.301  1.00  0.00     0.149 A 
ATOM     15  N   UNL     1       1.836  46.833  52.646  1.00  0.00    -0.179 NA
ATOM     16  C   UNL     1       0.485  44.847  52.881  1.00  0.00     0.176 C 
BRANCH  10  17
ATOM     17  N   UNL     1       6.196  46.367  51.436  1.00  0.00    -0.337 N 
ATOM     18  H   UNL     1       6.372  46.413  50.434  1.00  0.00     0.168 HD
BRANCH  17  19
ATOM     19  C   UNL     1       7.369  46.606  52.180  1.00  0.00     0.076 A 
ATOM     20  C   UNL     1       8.662  46.393  51.685  1.00  0.00     0.032 A 
ATOM     21  C   UNL     1       7.243  47.037  53.515  1.00  0.00     0.149 A 
ATOM     22  C   UNL     1       9.781  46.608  52.498  1.00  0.00     0.041 A 
ATOM     23  C   UNL     1       8.348  47.253  54.332  1.00  0.00     0.080 A 
ATOM     24  C   UNL     1       9.612  47.033  53.812  1.00  0.00     0.126 A 
ATOM     25  F   UNL     1       6.019  47.256  54.022  1.00  0.00    -0.205 F 
ATOM     26  F   UNL     1      10.689  47.236  54.582  1.00  0.00    -0.207 F 
ENDBRANCH  17  19
ENDBRANCH  10  17
ENDBRANCH   1   7
TORSDOF 6
ENDMDL
MODEL 6
REMARK VINA RESULT:    -8.568      3.157      7.349
REMARK INTER + INTRA:         -12.269
REMARK INTER:                 -11.503
REMARK INTRA:                  -0.766
REMARK UNBOUND:                -0.696
REMARK SMILES CCCCNc1nc(Nc2ccc(F)cc2F)c2cnn(C)c2n1
REMARK SMILES IDX 5 1 4 3 3 4 2 5 1 6 6 7 7 8 24 9 8 10 23 11 18 12 21 13
REMARK SMILES IDX 19 14 20 15 22 16 9 17 10 19 11 20 16 21 12 22 15 23 13 24
REMARK SMILES IDX 17 25 14 26
REMARK H PARENT 5 2 9 18
ROOT
ATOM      1  N   UNL     1       7.813  45.755  50.484  1.00  0.00    -0.354 N 
ATOM      2  H   UNL     1       7.612  46.216  49.603  1.00  0.00     0.163 HD
ENDROOT
BRANCH   1   3
ATOM      3  C   UNL     1       7.993  46.647  51.619  1.00  0.00     0.116 C 
BRANCH   3   4
ATOM      4  C   UNL     1       9.482  46.834  51.924  1.00  0.00     0.021 C 
BRANCH   4   5
ATOM      5  C   UNL     1       9.856  46.456  53.359  1.00  0.00    -0.002 C 
ATOM      6  C   UNL     1       9.525  47.534  54.378  1.00  0.00     0.004 C 
ENDBRANCH   4   5
ENDBRANCH   3   4
ENDBRANCH   1   3
BRANCH   1   7
ATOM      7  C   UNL     1       6.842  44.771  50.626  1.00  0.00     0.226 A 
ATOM      8  N   UNL     1       6.857  43.694  49.818  1.00  0.00    -0.195 NA
ATOM      9  N   UNL     1       5.952  45.002  51.599  1.00  0.00    -0.193 NA
ATOM     10  C   UNL     1       5.894  42.745  49.917  1.00  0.00     0.147 A 
ATOM     11  C   UNL     1       5.039  44.025  51.713  1.00  0.00     0.165 A 
ATOM     12  C   UNL     1       4.949  42.888  50.935  1.00  0.00     0.082 A 
ATOM     13  N   UNL     1       4.017  43.945  52.620  1.00  0.00    -0.250 N 
ATOM     14  C   UNL     1       3.870  42.171  51.492  1.00  0.00     0.149 A 
ATOM     15  N   UNL     1       3.282  42.815  52.508  1.00  0.00    -0.179 NA
ATOM     16  C   UNL     1       3.687  44.907  53.642  1.00  0.00     0.176 C 
BRANCH  10  17
ATOM     17  N   UNL     1       5.988  41.662  49.038  1.00  0.00    -0.337 N 
ATOM     18  H   UNL     1       6.948  41.324  49.031  1.00  0.00     0.168 HD
BRANCH  17  19
ATOM     19  C   UNL     1       5.340  41.410  47.812  1.00  0.00     0.076 A 
ATOM     20  C   UNL     1       5.773  41.922  46.582  1.00  0.00     0.032 A 
ATOM     21  C   UNL     1       4.160  40.641  47.821  1.00  0.00     0.149 A 
ATOM     22  C   UNL     1       5.051  41.668  45.410  1.00  0.00     0.041 A 
ATOM     23  C   UNL     1       3.434  40.383  46.662  1.00  0.00     0.080 A 
ATOM     24  C   UNL     1       3.890  40.905  45.463  1.00  0.00     0.126 A 
ATOM     25  F   UNL     1       3.717  40.130  48.980  1.00  0.00    -0.205 F 
ATOM     26  F   UNL     1       3.206  40.667  44.336  1.00  0.00    -0.207 F 
ENDBRANCH  17  19
ENDBRANCH  10  17
ENDBRANCH   1   7
TORSDOF 6
ENDMDL
MODEL 7
REMARK VINA RESULT:    -8.515      2.216      2.825
REMARK INTER + INTRA:         -12.197
REMARK INTER:                 -11.338
REMARK INTRA:                  -0.859
REMARK UNBOUND:                -0.696
REMARK SMILES CCCCNc1nc(Nc2ccc(F)cc2F)c2cnn(C)c2n1
REMARK SMILES IDX 5 1 4 3 3 4 2 5 1 6 6 7 7 8 24 9 8 10 23 11 18 12 21 13
REMARK SMILES IDX 19 14 20 15 22 16 9 17 10 19 11 20 16 21 12 22 15 23 13 24
REMARK SMILES IDX 17 25 14 26
REMARK H PARENT 5 2 9 18
ROOT
ATOM      1  N   UNL     1       4.119  41.360  51.191  1.00  0.00    -0.354 N 
ATOM      2  H   UNL     1       3.389  40.677  51.366  1.00  0.00     0.163 HD
ENDROOT
BRANCH   1   3
ATOM      3  C   UNL     1       4.674  41.338  49.848  1.00  0.00     0.116 C 
BRANCH   3   4
ATOM      4  C   UNL     1       6.163  41.696  49.876  1.00  0.00     0.021 C 
BRANCH   4   5
ATOM      5  C   UNL     1       6.475  43.034  49.202  1.00  0.00    -0.002 C 
ATOM      6  C   UNL     1       7.951  43.396  49.225  1.00  0.00     0.004 C 
ENDBRANCH   4   5
ENDBRANCH   3   4
ENDBRANCH   1   3
BRANCH   1   7
ATOM      7  C   UNL     1       3.608  42.577  51.624  1.00  0.00     0.226 A 
ATOM      8  N   UNL     1       4.417  43.466  52.231  1.00  0.00    -0.195 NA
ATOM      9  N   UNL     1       2.304  42.753  51.378  1.00  0.00    -0.193 NA
ATOM     10  C   UNL     1       3.925  44.641  52.694  1.00  0.00     0.147 A 
ATOM     11  C   UNL     1       1.849  43.944  51.799  1.00  0.00     0.165 A 
ATOM     12  C   UNL     1       2.581  44.923  52.443  1.00  0.00     0.082 A 
ATOM     13  N   UNL     1       0.580  44.440  51.676  1.00  0.00    -0.250 N 
ATOM     14  C   UNL     1       1.666  45.982  52.615  1.00  0.00     0.149 A 
ATOM     15  N   UNL     1       0.438  45.692  52.168  1.00  0.00    -0.179 NA
ATOM     16  C   UNL     1      -0.555  43.779  51.081  1.00  0.00     0.176 C 
BRANCH  10  17
ATOM     17  N   UNL     1       4.837  45.503  53.312  1.00  0.00    -0.337 N 
ATOM     18  H   UNL     1       4.324  46.243  53.786  1.00  0.00     0.168 HD
BRANCH  17  19
ATOM     19  C   UNL     1       6.117  45.933  52.910  1.00  0.00     0.076 A 
ATOM     20  C   UNL     1       6.530  46.007  51.573  1.00  0.00     0.032 A 
ATOM     21  C   UNL     1       7.059  46.263  53.904  1.00  0.00     0.149 A 
ATOM     22  C   UNL     1       7.834  46.399  51.251  1.00  0.00     0.041 A 
ATOM     23  C   UNL     1       8.358  46.653  53.595  1.00  0.00     0.080 A 
ATOM     24  C   UNL     1       8.734  46.715  52.263  1.00  0.00     0.126 A 
ATOM     25  F   UNL     1       6.698  46.208  55.196  1.00  0.00    -0.205 F 
ATOM     26  F   UNL     1       9.979  47.090  51.944  1.00  0.00    -0.207 F 
ENDBRANCH  17  19
ENDBRANCH  10  17
ENDBRANCH   1   7
TORSDOF 6
ENDMDL
MODEL 8
REMARK VINA RESULT:    -8.469      1.694      4.328
REMARK INTER + INTRA:         -12.135
REMARK INTER:                 -11.351
REMARK INTRA:                  -0.784
REMARK UNBOUND:                -0.696
REMARK SMILES CCCCNc1nc(Nc2ccc(F)cc2F)c2cnn(C)c2n1
REMARK SMILES IDX 5 1 4 3 3 4 2 5 1 6 6 7 7 8 24 9 8 10 23 11 18 12 21 13
REMARK SMILES IDX 19 14 20 15 22 16 9 17 10 19 11 20 16 21 12 22 15 23 13 24
REMARK SMILES IDX 17 25 14 26
REMARK H PARENT 5 2 9 18
ROOT
ATOM      1  N   UNL     1       3.431  43.453  52.939  1.00  0.00    -0.354 N 
ATOM      2  H   UNL     1       3.585  44.022  53.765  1.00  0.00     0.163 HD
ENDROOT
BRANCH   1   3
ATOM      3  C   UNL     1       2.095  43.538  52.372  1.00  0.00     0.116 C 
BRANCH   3   4
ATOM      4  C   UNL     1       1.911  44.863  51.626  1.00  0.00     0.021 C 
BRANCH   4   5
ATOM      5  C   UNL     1       1.665  46.052  52.557  1.00  0.00    -0.002 C 
ATOM      6  C   UNL     1       2.763  47.102  52.505  1.00  0.00     0.004 C 
ENDBRANCH   4   5
ENDBRANCH   3   4
ENDBRANCH   1   3
BRANCH   1   7
ATOM      7  C   UNL     1       4.482  43.746  52.079  1.00  0.00     0.226 A 
ATOM      8  N   UNL     1       5.217  44.858  52.272  1.00  0.00    -0.195 NA
ATOM      9  N   UNL     1       4.670  42.849  51.103  1.00  0.00    -0.193 NA
ATOM     10  C   UNL     1       6.220  45.177  51.418  1.00  0.00     0.147 A 
ATOM     11  C   UNL     1       5.700  43.158  50.300  1.00  0.00     0.165 A 
ATOM     12  C   UNL     1       6.510  44.273  50.394  1.00  0.00     0.082 A 
ATOM     13  N   UNL     1       6.168  42.440  49.234  1.00  0.00    -0.250 N 
ATOM     14  C   UNL     1       7.460  44.099  49.367  1.00  0.00     0.149 A 
ATOM     15  N   UNL     1       7.250  42.994  48.641  1.00  0.00    -0.179 NA
ATOM     16  C   UNL     1       5.640  41.198  48.727  1.00  0.00     0.176 C 
BRANCH  10  17
ATOM     17  N   UNL     1       6.929  46.351  51.695  1.00  0.00    -0.337 N 
ATOM     18  H   UNL     1       7.114  46.839  50.821  1.00  0.00     0.168 HD
BRANCH  17  19
ATOM     19  C   UNL     1       7.915  46.626  52.663  1.00  0.00     0.076 A 
ATOM     20  C   UNL     1       7.636  47.155  53.930  1.00  0.00     0.032 A 
ATOM     21  C   UNL     1       9.266  46.408  52.329  1.00  0.00     0.149 A 
ATOM     22  C   UNL     1       8.671  47.448  54.824  1.00  0.00     0.041 A 
ATOM     23  C   UNL     1      10.303  46.696  53.210  1.00  0.00     0.080 A 
ATOM     24  C   UNL     1       9.993  47.218  54.455  1.00  0.00     0.126 A 
ATOM     25  F   UNL     1       9.571  45.898  51.125  1.00  0.00    -0.205 F 
ATOM     26  F   UNL     1      10.977  47.501  55.317  1.00  0.00    -0.207 F 
ENDBRANCH  17  19
ENDBRANCH  10  17
ENDBRANCH   1   7
TORSDOF 6
ENDMDL
MODEL 9
REMARK VINA RESULT:    -8.459      0.997      1.403
REMARK INTER + INTRA:         -12.123
REMARK INTER:                 -11.406
REMARK INTRA:                  -0.716
REMARK UNBOUND:                -0.696
REMARK SMILES CCCCNc1nc(Nc2ccc(F)cc2F)c2cnn(C)c2n1
REMARK SMILES IDX 5 1 4 3 3 4 2 5 1 6 6 7 7 8 24 9 8 10 23 11 18 12 21 13
REMARK SMILES IDX 19 14 20 15 22 16 9 17 10 19 11 20 16 21 12 22 15 23 13 24
REMARK SMILES IDX 17 25 14 26
REMARK H PARENT 5 2 9 18
ROOT
ATOM      1  N   UNL     1       4.905  41.800  50.814  1.00  0.00    -0.354 N 
ATOM      2  H   UNL     1       4.008  41.370  50.616  1.00  0.00     0.163 HD
ENDROOT
BRANCH   1   3
ATOM      3  C   UNL     1       5.936  41.565  49.816  1.00  0.00     0.116 C 
BRANCH   3   4
ATOM      4  C   UNL     1       5.306  41.242  48.458  1.00  0.00     0.021 C 
BRANCH   4   5
ATOM      5  C   UNL     1       5.926  42.031  47.302  1.00  0.00    -0.002 C 
ATOM      6  C   UNL     1       5.364  41.656  45.940  1.00  0.00     0.004 C 
ENDBRANCH   4   5
ENDBRANCH   3   4
ENDBRANCH   1   3
BRANCH   1   7
ATOM      7  C   UNL     1       4.629  43.129  51.110  1.00  0.00     0.226 A 
ATOM      8  N   UNL     1       5.604  44.053  51.012  1.00  0.00    -0.195 NA
ATOM      9  N   UNL     1       3.364  43.368  51.475  1.00  0.00    -0.193 NA
ATOM     10  C   UNL     1       5.361  45.347  51.335  1.00  0.00     0.147 A 
ATOM     11  C   UNL     1       3.133  44.663  51.741  1.00  0.00     0.165 A 
ATOM     12  C   UNL     1       4.054  45.691  51.687  1.00  0.00     0.082 A 
ATOM     13  N   UNL     1       1.947  45.237  52.111  1.00  0.00    -0.250 N 
ATOM     14  C   UNL     1       3.304  46.845  51.995  1.00  0.00     0.149 A 
ATOM     15  N   UNL     1       2.022  46.578  52.272  1.00  0.00    -0.179 NA
ATOM     16  C   UNL     1       0.686  44.567  52.314  1.00  0.00     0.176 C 
BRANCH  10  17
ATOM     17  N   UNL     1       6.431  46.238  51.204  1.00  0.00    -0.337 N 
ATOM     18  H   UNL     1       6.692  46.299  50.222  1.00  0.00     0.168 HD
BRANCH  17  19
ATOM     19  C   UNL     1       7.528  46.492  52.051  1.00  0.00     0.076 A 
ATOM     20  C   UNL     1       8.859  46.226  51.702  1.00  0.00     0.032 A 
ATOM     21  C   UNL     1       7.280  46.997  53.342  1.00  0.00     0.149 A 
ATOM     22  C   UNL     1       9.895  46.461  52.613  1.00  0.00     0.041 A 
ATOM     23  C   UNL     1       8.302  47.233  54.256  1.00  0.00     0.080 A 
ATOM     24  C   UNL     1       9.606  46.959  53.879  1.00  0.00     0.126 A 
ATOM     25  F   UNL     1       6.017  47.268  53.710  1.00  0.00    -0.205 F 
ATOM     26  F   UNL     1      10.605  47.181  54.743  1.00  0.00    -0.207 F 
ENDBRANCH  17  19
ENDBRANCH  10  17
ENDBRANCH   1   7
TORSDOF 6
ENDMDL
MODEL 10
REMARK VINA RESULT:    -8.437      2.014      5.158
REMARK INTER + INTRA:         -12.093
REMARK INTER:                 -11.364
REMARK INTRA:                  -0.728
REMARK UNBOUND:                -0.696
REMARK SMILES CCCCNc1nc(Nc2ccc(F)cc2F)c2cnn(C)c2n1
REMARK SMILES IDX 5 1 4 3 3 4 2 5 1 6 6 7 7 8 24 9 8 10 23 11 18 12 21 13
REMARK SMILES IDX 19 14 20 15 22 16 9 17 10 19 11 20 16 21 12 22 15 23 13 24
REMARK SMILES IDX 17 25 14 26
REMARK H PARENT 5 2 9 18
ROOT
ATOM      1  N   UNL     1       3.249  43.651  53.037  1.00  0.00    -0.354 N 
ATOM      2  H   UNL     1       3.543  42.898  53.650  1.00  0.00     0.163 HD
ENDROOT
BRANCH   1   3
ATOM      3  C   UNL     1       2.700  44.817  53.712  1.00  0.00     0.116 C 
BRANCH   3   4
ATOM      4  C   UNL     1       1.517  44.418  54.598  1.00  0.00     0.021 C 
BRANCH   4   5
ATOM      5  C   UNL     1       1.493  45.154  55.939  1.00  0.00    -0.002 C 
ATOM      6  C   UNL     1       0.125  45.163  56.603  1.00  0.00     0.004 C 
ENDBRANCH   4   5
ENDBRANCH   3   4
ENDBRANCH   1   3
BRANCH   1   7
ATOM      7  C   UNL     1       4.320  43.883  52.184  1.00  0.00     0.226 A 
ATOM      8  N   UNL     1       5.080  44.983  52.347  1.00  0.00    -0.195 NA
ATOM      9  N   UNL     1       4.498  42.946  51.245  1.00  0.00    -0.193 NA
ATOM     10  C   UNL     1       6.105  45.244  51.498  1.00  0.00     0.147 A 
ATOM     11  C   UNL     1       5.548  43.199  50.448  1.00  0.00     0.165 A 
ATOM     12  C   UNL     1       6.385  44.295  50.513  1.00  0.00     0.082 A 
ATOM     13  N   UNL     1       6.012  42.429  49.416  1.00  0.00    -0.250 N 
ATOM     14  C   UNL     1       7.346  44.058  49.508  1.00  0.00     0.149 A 
ATOM     15  N   UNL     1       7.118  42.932  48.821  1.00  0.00    -0.179 NA
ATOM     16  C   UNL     1       5.459  41.183  48.947  1.00  0.00     0.176 C 
BRANCH  10  17
ATOM     17  N   UNL     1       6.840  46.408  51.742  1.00  0.00    -0.337 N 
ATOM     18  H   UNL     1       7.015  46.881  50.858  1.00  0.00     0.168 HD
BRANCH  17  19
ATOM     19  C   UNL     1       7.851  46.679  52.685  1.00  0.00     0.076 A 
ATOM     20  C   UNL     1       7.608  47.222  53.954  1.00  0.00     0.032 A 
ATOM     21  C   UNL     1       9.191  46.441  52.322  1.00  0.00     0.149 A 
ATOM     22  C   UNL     1       8.667  47.509  54.822  1.00  0.00     0.041 A 
ATOM     23  C   UNL     1      10.252  46.724  53.177  1.00  0.00     0.080 A 
ATOM     24  C   UNL     1       9.977  47.260  54.424  1.00  0.00     0.126 A 
ATOM     25  F   UNL     1       9.462  45.918  51.116  1.00  0.00    -0.205 F 
ATOM     26  F   UNL     1      10.984  47.538  55.261  1.00  0.00    -0.207 F 
ENDBRANCH  17  19
ENDBRANCH  10  17
ENDBRANCH   1   7
TORSDOF 6
ENDMDL
MODEL 11
REMARK VINA RESULT:    -8.369      2.992      7.033
REMARK INTER + INTRA:         -12.001
REMARK INTER:                 -11.163
REMARK INTRA:                  -0.838
REMARK UNBOUND:                -0.696
REMARK SMILES CCCCNc1nc(Nc2ccc(F)cc2F)c2cnn(C)c2n1
REMARK SMILES IDX 5 1 4 3 3 4 2 5 1 6 6 7 7 8 24 9 8 10 23 11 18 12 21 13
REMARK SMILES IDX 19 14 20 15 22 16 9 17 10 19 11 20 16 21 12 22 15 23 13 24
REMARK SMILES IDX 17 25 14 26
REMARK H PARENT 5 2 9 18
ROOT
ATOM      1  N   UNL     1       4.715  46.986  54.958  1.00  0.00    -0.354 N 
ATOM      2  H   UNL     1       4.125  47.623  54.433  1.00  0.00     0.163 HD
ENDROOT
BRANCH   1   3
ATOM      3  C   UNL     1       4.043  45.802  55.469  1.00  0.00     0.116 C 
BRANCH   3   4
ATOM      4  C   UNL     1       2.550  45.843  55.132  1.00  0.00     0.021 C 
BRANCH   4   5
ATOM      5  C   UNL     1       2.210  45.152  53.809  1.00  0.00    -0.002 C 
ATOM      6  C   UNL     1       2.028  46.117  52.649  1.00  0.00     0.004 C 
ENDBRANCH   4   5
ENDBRANCH   3   4
ENDBRANCH   1   3
BRANCH   1   7
ATOM      7  C   UNL     1       5.832  46.762  54.163  1.00  0.00     0.226 A 
ATOM      8  N   UNL     1       5.690  46.188  52.954  1.00  0.00    -0.195 NA
ATOM      9  N   UNL     1       6.990  47.163  54.703  1.00  0.00    -0.193 NA
ATOM     10  C   UNL     1       6.775  45.927  52.184  1.00  0.00     0.147 A 
ATOM     11  C   UNL     1       8.043  46.942  53.902  1.00  0.00     0.165 A 
ATOM     12  C   UNL     1       8.019  46.351  52.655  1.00  0.00     0.082 A 
ATOM     13  N   UNL     1       9.353  47.259  54.145  1.00  0.00    -0.250 N 
ATOM     14  C   UNL     1       9.358  46.407  52.217  1.00  0.00     0.149 A 
ATOM     15  N   UNL     1      10.183  46.942  53.125  1.00  0.00    -0.179 NA
ATOM     16  C   UNL     1       9.888  47.884  55.328  1.00  0.00     0.176 C 
BRANCH  10  17
ATOM     17  N   UNL     1       6.533  45.327  50.943  1.00  0.00    -0.337 N 
ATOM     18  H   UNL     1       6.343  46.054  50.256  1.00  0.00     0.168 HD
BRANCH  17  19
ATOM     19  C   UNL     1       5.889  44.118  50.613  1.00  0.00     0.076 A 
ATOM     20  C   UNL     1       4.666  43.712  51.161  1.00  0.00     0.032 A 
ATOM     21  C   UNL     1       6.529  43.238  49.718  1.00  0.00     0.149 A 
ATOM     22  C   UNL     1       4.108  42.475  50.821  1.00  0.00     0.041 A 
ATOM     23  C   UNL     1       5.984  42.006  49.373  1.00  0.00     0.080 A 
ATOM     24  C   UNL     1       4.773  41.634  49.934  1.00  0.00     0.126 A 
ATOM     25  F   UNL     1       7.700  43.596  49.169  1.00  0.00    -0.205 F 
ATOM     26  F   UNL     1       4.231  40.453  49.614  1.00  0.00    -0.207 F 
ENDBRANCH  17  19
ENDBRANCH  10  17
ENDBRANCH   1   7
TORSDOF 6
ENDMDL
MODEL 12
REMARK VINA RESULT:    -8.337      2.872      7.217
REMARK INTER + INTRA:         -11.957
REMARK INTER:                 -11.267
REMARK INTRA:                  -0.690
REMARK UNBOUND:                -0.696
REMARK SMILES CCCCNc1nc(Nc2ccc(F)cc2F)c2cnn(C)c2n1
REMARK SMILES IDX 5 1 4 3 3 4 2 5 1 6 6 7 7 8 24 9 8 10 23 11 18 12 21 13
REMARK SMILES IDX 19 14 20 15 22 16 9 17 10 19 11 20 16 21 12 22 15 23 13 24
REMARK SMILES IDX 17 25 14 26
REMARK H PARENT 5 2 9 18
ROOT
ATOM      1  N   UNL     1       8.682  47.891  52.489  1.00  0.00    -0.354 N 
ATOM      2  H   UNL     1       8.383  48.567  53.184  1.00  0.00     0.163 HD
ENDROOT
BRANCH   1   3
ATOM      3  C   UNL     1       9.912  47.183  52.805  1.00  0.00     0.116 C 
BRANCH   3   4
ATOM      4  C   UNL     1       9.890  46.687  54.254  1.00  0.00     0.021 C 
BRANCH   4   5
ATOM      5  C   UNL     1      10.037  47.813  55.280  1.00  0.00    -0.002 C 
ATOM      6  C   UNL     1      11.077  47.528  56.351  1.00  0.00     0.004 C 
ENDBRANCH   4   5
ENDBRANCH   3   4
ENDBRANCH   1   3
BRANCH   1   7
ATOM      7  C   UNL     1       7.569  47.100  52.229  1.00  0.00     0.226 A 
ATOM      8  N   UNL     1       6.395  47.379  52.826  1.00  0.00    -0.195 NA
ATOM      9  N   UNL     1       7.786  46.097  51.369  1.00  0.00    -0.193 NA
ATOM     10  C   UNL     1       5.310  46.593  52.614  1.00  0.00     0.147 A 
ATOM     11  C   UNL     1       6.687  45.364  51.134  1.00  0.00     0.165 A 
ATOM     12  C   UNL     1       5.440  45.548  51.697  1.00  0.00     0.082 A 
ATOM     13  N   UNL     1       6.567  44.293  50.291  1.00  0.00    -0.250 N 
ATOM     14  C   UNL     1       4.634  44.565  51.085  1.00  0.00     0.149 A 
ATOM     15  N   UNL     1       5.316  43.783  50.240  1.00  0.00    -0.179 NA
ATOM     16  C   UNL     1       7.607  43.706  49.482  1.00  0.00     0.176 C 
BRANCH  10  17
ATOM     17  N   UNL     1       4.133  46.957  53.275  1.00  0.00    -0.337 N 
ATOM     18  H   UNL     1       4.350  47.671  53.968  1.00  0.00     0.168 HD
BRANCH  17  19
ATOM     19  C   UNL     1       3.012  46.191  53.652  1.00  0.00     0.076 A 
ATOM     20  C   UNL     1       1.869  46.039  52.856  1.00  0.00     0.032 A 
ATOM     21  C   UNL     1       3.010  45.581  54.922  1.00  0.00     0.149 A 
ATOM     22  C   UNL     1       0.773  45.301  53.316  1.00  0.00     0.041 A 
ATOM     23  C   UNL     1       1.926  44.845  55.389  1.00  0.00     0.080 A 
ATOM     24  C   UNL     1       0.811  44.715  54.577  1.00  0.00     0.126 A 
ATOM     25  F   UNL     1       4.090  45.701  55.710  1.00  0.00    -0.205 F 
ATOM     26  F   UNL     1      -0.242  44.010  55.008  1.00  0.00    -0.207 F 
ENDBRANCH  17  19
ENDBRANCH  10  17
ENDBRANCH   1   7
TORSDOF 6
ENDMDL
MODEL 13
REMARK VINA RESULT:    -8.258      3.005      7.310
REMARK INTER + INTRA:         -11.850
REMARK INTER:                 -11.033
REMARK INTRA:                  -0.817
REMARK UNBOUND:                -0.696
REMARK SMILES CCCCNc1nc(Nc2ccc(F)cc2F)c2cnn(C)c2n1
REMARK SMILES IDX 5 1 4 3 3 4 2 5 1 6 6 7 7 8 24 9 8 10 23 11 18 12 21 13
REMARK SMILES IDX 19 14 20 15 22 16 9 17 10 19 11 20 16 21 12 22 15 23 13 24
REMARK SMILES IDX 17 25 14 26
REMARK H PARENT 5 2 9 18
ROOT
ATOM      1  N   UNL     1       6.489  47.183  52.662  1.00  0.00    -0.354 N 
ATOM      2  H   UNL     1       6.367  47.132  53.668  1.00  0.00     0.163 HD
ENDROOT
BRANCH   1   3
ATOM      3  C   UNL     1       7.778  47.692  52.222  1.00  0.00     0.116 C 
BRANCH   3   4
ATOM      4  C   UNL     1       8.715  47.888  53.417  1.00  0.00     0.021 C 
BRANCH   4   5
ATOM      5  C   UNL     1       9.905  46.925  53.417  1.00  0.00    -0.002 C 
ATOM      6  C   UNL     1      10.235  46.367  52.042  1.00  0.00     0.004 C 
ENDBRANCH   4   5
ENDBRANCH   3   4
ENDBRANCH   1   3
BRANCH   1   7
ATOM      7  C   UNL     1       6.124  45.934  52.174  1.00  0.00     0.226 A 
ATOM      8  N   UNL     1       5.087  45.276  52.726  1.00  0.00    -0.195 NA
ATOM      9  N   UNL     1       6.871  45.494  51.154  1.00  0.00    -0.193 NA
ATOM     10  C   UNL     1       4.744  44.040  52.287  1.00  0.00     0.147 A 
ATOM     11  C   UNL     1       6.482  44.292  50.702  1.00  0.00     0.165 A 
ATOM     12  C   UNL     1       5.447  43.523  51.198  1.00  0.00     0.082 A 
ATOM     13  N   UNL     1       7.015  43.583  49.661  1.00  0.00    -0.250 N 
ATOM     14  C   UNL     1       5.415  42.396  50.350  1.00  0.00     0.149 A 
ATOM     15  N   UNL     1       6.379  42.414  49.421  1.00  0.00    -0.179 NA
ATOM     16  C   UNL     1       8.130  43.967  48.832  1.00  0.00     0.176 C 
BRANCH  10  17
ATOM     17  N   UNL     1       3.655  43.431  52.919  1.00  0.00    -0.337 N 
ATOM     18  H   UNL     1       3.951  42.531  53.294  1.00  0.00     0.168 HD
BRANCH  17  19
ATOM     19  C   UNL     1       2.283  43.434  52.600  1.00  0.00     0.076 A 
ATOM     20  C   UNL     1       1.777  43.117  51.333  1.00  0.00     0.032 A 
ATOM     21  C   UNL     1       1.362  43.826  53.592  1.00  0.00     0.149 A 
ATOM     22  C   UNL     1       0.403  43.187  51.075  1.00  0.00     0.041 A 
ATOM     23  C   UNL     1      -0.005  43.900  53.347  1.00  0.00     0.080 A 
ATOM     24  C   UNL     1      -0.472  43.580  52.083  1.00  0.00     0.126 A 
ATOM     25  F   UNL     1       1.810  44.133  54.820  1.00  0.00    -0.205 F 
ATOM     26  F   UNL     1      -1.785  43.644  51.827  1.00  0.00    -0.207 F 
ENDBRANCH  17  19
ENDBRANCH  10  17
ENDBRANCH   1   7
TORSDOF 6
ENDMDL
MODEL 14
REMARK VINA RESULT:    -8.257      2.896      7.328
REMARK INTER + INTRA:         -11.849
REMARK INTER:                 -11.038
REMARK INTRA:                  -0.811
REMARK UNBOUND:                -0.696
REMARK SMILES CCCCNc1nc(Nc2ccc(F)cc2F)c2cnn(C)c2n1
REMARK SMILES IDX 5 1 4 3 3 4 2 5 1 6 6 7 7 8 24 9 8 10 23 11 18 12 21 13
REMARK SMILES IDX 19 14 20 15 22 16 9 17 10 19 11 20 16 21 12 22 15 23 13 24
REMARK SMILES IDX 17 25 14 26
REMARK H PARENT 5 2 9 18
ROOT
ATOM      1  N   UNL     1       6.412  47.162  52.541  1.00  0.00    -0.354 N 
ATOM      2  H   UNL     1       6.360  47.330  53.540  1.00  0.00     0.163 HD
ENDROOT
BRANCH   1   3
ATOM      3  C   UNL     1       7.738  47.304  51.960  1.00  0.00     0.116 C 
BRANCH   3   4
ATOM      4  C   UNL     1       8.733  47.809  53.008  1.00  0.00     0.021 C 
BRANCH   4   5
ATOM      5  C   UNL     1       9.943  46.889  53.184  1.00  0.00    -0.002 C 
ATOM      6  C   UNL     1      10.305  46.112  51.928  1.00  0.00     0.004 C 
ENDBRANCH   4   5
ENDBRANCH   3   4
ENDBRANCH   1   3
BRANCH   1   7
ATOM      7  C   UNL     1       5.776  45.946  52.329  1.00  0.00     0.226 A 
ATOM      8  N   UNL     1       4.702  45.613  53.069  1.00  0.00    -0.195 NA
ATOM      9  N   UNL     1       6.318  45.194  51.362  1.00  0.00    -0.193 NA
ATOM     10  C   UNL     1       4.094  44.413  52.901  1.00  0.00     0.147 A 
ATOM     11  C   UNL     1       5.670  44.034  51.178  1.00  0.00     0.165 A 
ATOM     12  C   UNL     1       4.572  43.584  51.884  1.00  0.00     0.082 A 
ATOM     13  N   UNL     1       5.952  43.061  50.258  1.00  0.00    -0.250 N 
ATOM     14  C   UNL     1       4.245  42.356  51.273  1.00  0.00     0.149 A 
ATOM     15  N   UNL     1       5.091  42.018  50.292  1.00  0.00    -0.179 NA
ATOM     16  C   UNL     1       7.024  43.065  49.293  1.00  0.00     0.176 C 
BRANCH  10  17
ATOM     17  N   UNL     1       2.986  44.152  53.714  1.00  0.00    -0.337 N 
ATOM     18  H   UNL     1       3.283  43.586  54.506  1.00  0.00     0.168 HD
BRANCH  17  19
ATOM     19  C   UNL     1       1.636  43.918  53.386  1.00  0.00     0.076 A 
ATOM     20  C   UNL     1       1.030  42.656  53.436  1.00  0.00     0.032 A 
ATOM     21  C   UNL     1       0.856  45.000  52.932  1.00  0.00     0.149 A 
ATOM     22  C   UNL     1      -0.305  42.490  53.050  1.00  0.00     0.041 A 
ATOM     23  C   UNL     1      -0.471  44.847  52.546  1.00  0.00     0.080 A 
ATOM     24  C   UNL     1      -1.040  43.585  52.608  1.00  0.00     0.126 A 
ATOM     25  F   UNL     1       1.402  46.225  52.875  1.00  0.00    -0.205 F 
ATOM     26  F   UNL     1      -2.317  43.417  52.241  1.00  0.00    -0.207 F 
ENDBRANCH  17  19
ENDBRANCH  10  17
ENDBRANCH   1   7
TORSDOF 6
ENDMDL
MODEL 15
REMARK VINA RESULT:    -8.215      2.547      6.622
REMARK INTER + INTRA:         -11.792
REMARK INTER:                 -11.160
REMARK INTRA:                  -0.632
REMARK UNBOUND:                -0.696
REMARK SMILES CCCCNc1nc(Nc2ccc(F)cc2F)c2cnn(C)c2n1
REMARK SMILES IDX 5 1 4 3 3 4 2 5 1 6 6 7 7 8 24 9 8 10 23 11 18 12 21 13
REMARK SMILES IDX 19 14 20 15 22 16 9 17 10 19 11 20 16 21 12 22 15 23 13 24
REMARK SMILES IDX 17 25 14 26
REMARK H PARENT 5 2 9 18
ROOT
ATOM      1  N   UNL     1       8.031  46.300  50.764  1.00  0.00    -0.354 N 
ATOM      2  H   UNL     1       7.868  46.724  49.856  1.00  0.00     0.163 HD
ENDROOT
BRANCH   1   3
ATOM      3  C   UNL     1       8.501  47.212  51.794  1.00  0.00     0.116 C 
BRANCH   3   4
ATOM      4  C   UNL     1       9.870  46.772  52.318  1.00  0.00     0.021 C 
BRANCH   4   5
ATOM      5  C   UNL     1       9.945  46.726  53.846  1.00  0.00    -0.002 C 
ATOM      6  C   UNL     1       9.196  47.860  54.526  1.00  0.00     0.004 C 
ENDBRANCH   4   5
ENDBRANCH   3   4
ENDBRANCH   1   3
BRANCH   1   7
ATOM      7  C   UNL     1       6.877  45.584  51.058  1.00  0.00     0.226 A 
ATOM      8  N   UNL     1       5.916  46.144  51.817  1.00  0.00    -0.195 NA
ATOM      9  N   UNL     1       6.835  44.355  50.531  1.00  0.00    -0.193 NA
ATOM     10  C   UNL     1       4.803  45.443  52.146  1.00  0.00     0.147 A 
ATOM     11  C   UNL     1       5.703  43.698  50.827  1.00  0.00     0.165 A 
ATOM     12  C   UNL     1       4.660  44.165  51.603  1.00  0.00     0.082 A 
ATOM     13  N   UNL     1       5.339  42.443  50.422  1.00  0.00    -0.250 N 
ATOM     14  C   UNL     1       3.702  43.131  51.557  1.00  0.00     0.149 A 
ATOM     15  N   UNL     1       4.114  42.068  50.855  1.00  0.00    -0.179 NA
ATOM     16  C   UNL     1       6.108  41.541  49.601  1.00  0.00     0.176 C 
BRANCH  10  17
ATOM     17  N   UNL     1       3.858  46.104  52.938  1.00  0.00    -0.337 N 
ATOM     18  H   UNL     1       4.325  46.838  53.467  1.00  0.00     0.168 HD
BRANCH  17  19
ATOM     19  C   UNL     1       2.720  45.620  53.613  1.00  0.00     0.076 A 
ATOM     20  C   UNL     1       1.449  45.528  53.030  1.00  0.00     0.032 A 
ATOM     21  C   UNL     1       2.846  45.252  54.967  1.00  0.00     0.149 A 
ATOM     22  C   UNL     1       0.353  45.081  53.777  1.00  0.00     0.041 A 
ATOM     23  C   UNL     1       1.763  44.807  55.719  1.00  0.00     0.080 A 
ATOM     24  C   UNL     1       0.521  44.728  55.112  1.00  0.00     0.126 A 
ATOM     25  F   UNL     1       4.049  45.323  55.557  1.00  0.00    -0.205 F 
ATOM     26  F   UNL     1      -0.534  44.302  55.818  1.00  0.00    -0.207 F 
ENDBRANCH  17  19
ENDBRANCH  10  17
ENDBRANCH   1   7
TORSDOF 6
ENDMDL
MODEL 16
REMARK VINA RESULT:    -8.180      3.048      7.181
REMARK INTER + INTRA:         -11.745
REMARK INTER:                 -11.056
REMARK INTRA:                  -0.689
REMARK UNBOUND:                -0.696
REMARK SMILES CCCCNc1nc(Nc2ccc(F)cc2F)c2cnn(C)c2n1
REMARK SMILES IDX 5 1 4 3 3 4 2 5 1 6 6 7 7 8 24 9 8 10 23 11 18 12 21 13
REMARK SMILES IDX 19 14 20 15 22 16 9 17 10 19 11 20 16 21 12 22 15 23 13 24
REMARK SMILES IDX 17 25 14 26
REMARK H PARENT 5 2 9 18
ROOT
ATOM      1  N   UNL     1       6.536  47.428  52.658  1.00  0.00    -0.354 N 
ATOM      2  H   UNL     1       6.341  47.437  53.654  1.00  0.00     0.163 HD
ENDROOT
BRANCH   1   3
ATOM      3  C   UNL     1       7.876  47.853  52.288  1.00  0.00     0.116 C 
BRANCH   3   4
ATOM      4  C   UNL     1       8.801  47.837  53.508  1.00  0.00     0.021 C 
BRANCH   4   5
ATOM      5  C   UNL     1       9.914  46.791  53.409  1.00  0.00    -0.002 C 
ATOM      6  C   UNL     1      10.261  46.406  51.980  1.00  0.00     0.004 C 
ENDBRANCH   4   5
ENDBRANCH   3   4
ENDBRANCH   1   3
BRANCH   1   7
ATOM      7  C   UNL     1       6.144  46.173  52.208  1.00  0.00     0.226 A 
ATOM      8  N   UNL     1       5.101  45.549  52.788  1.00  0.00    -0.195 NA
ATOM      9  N   UNL     1       6.874  45.691  51.195  1.00  0.00    -0.193 NA
ATOM     10  C   UNL     1       4.732  44.307  52.386  1.00  0.00     0.147 A 
ATOM     11  C   UNL     1       6.460  44.484  50.781  1.00  0.00     0.165 A 
ATOM     12  C   UNL     1       5.416  43.748  51.306  1.00  0.00     0.082 A 
ATOM     13  N   UNL     1       6.972  43.736  49.755  1.00  0.00    -0.250 N 
ATOM     14  C   UNL     1       5.357  42.599  50.490  1.00  0.00     0.149 A 
ATOM     15  N   UNL     1       6.313  42.572  49.553  1.00  0.00    -0.179 NA
ATOM     16  C   UNL     1       8.086  44.077  48.907  1.00  0.00     0.176 C 
BRANCH  10  17
ATOM     17  N   UNL     1       3.638  43.736  53.044  1.00  0.00    -0.337 N 
ATOM     18  H   UNL     1       3.716  42.722  52.996  1.00  0.00     0.168 HD
BRANCH  17  19
ATOM     19  C   UNL     1       2.294  44.149  53.130  1.00  0.00     0.076 A 
ATOM     20  C   UNL     1       1.566  44.189  54.327  1.00  0.00     0.032 A 
ATOM     21  C   UNL     1       1.619  44.498  51.944  1.00  0.00     0.149 A 
ATOM     22  C   UNL     1       0.219  44.566  54.330  1.00  0.00     0.041 A 
ATOM     23  C   UNL     1       0.280  44.873  51.935  1.00  0.00     0.080 A 
ATOM     24  C   UNL     1      -0.410  44.902  53.136  1.00  0.00     0.126 A 
ATOM     25  F   UNL     1       2.286  44.476  50.779  1.00  0.00    -0.205 F 
ATOM     26  F   UNL     1      -1.700  45.262  53.149  1.00  0.00    -0.207 F 
ENDBRANCH  17  19
ENDBRANCH  10  17
ENDBRANCH   1   7
TORSDOF 6
ENDMDL
MODEL 17
REMARK VINA RESULT:    -8.166      2.760      5.834
REMARK INTER + INTRA:         -11.726
REMARK INTER:                 -10.773
REMARK INTRA:                  -0.953
REMARK UNBOUND:                -0.696
REMARK SMILES CCCCNc1nc(Nc2ccc(F)cc2F)c2cnn(C)c2n1
REMARK SMILES IDX 5 1 4 3 3 4 2 5 1 6 6 7 7 8 24 9 8 10 23 11 18 12 21 13
REMARK SMILES IDX 19 14 20 15 22 16 9 17 10 19 11 20 16 21 12 22 15 23 13 24
REMARK SMILES IDX 17 25 14 26
REMARK H PARENT 5 2 9 18
ROOT
ATOM      1  N   UNL     1       7.725  44.989  49.431  1.00  0.00    -0.354 N 
ATOM      2  H   UNL     1       8.522  45.565  49.182  1.00  0.00     0.163 HD
ENDROOT
BRANCH   1   3
ATOM      3  C   UNL     1       7.964  43.555  49.398  1.00  0.00     0.116 C 
BRANCH   3   4
ATOM      4  C   UNL     1       6.691  42.807  48.995  1.00  0.00     0.021 C 
BRANCH   4   5
ATOM      5  C   UNL     1       6.423  41.566  49.851  1.00  0.00    -0.002 C 
ATOM      6  C   UNL     1       5.048  41.559  50.498  1.00  0.00     0.004 C 
ENDBRANCH   4   5
ENDBRANCH   3   4
ENDBRANCH   1   3
BRANCH   1   7
ATOM      7  C   UNL     1       7.247  45.504  50.630  1.00  0.00     0.226 A 
ATOM      8  N   UNL     1       5.921  45.557  50.855  1.00  0.00    -0.195 NA
ATOM      9  N   UNL     1       8.198  45.909  51.481  1.00  0.00    -0.193 NA
ATOM     10  C   UNL     1       5.438  46.093  52.004  1.00  0.00     0.147 A 
ATOM     11  C   UNL     1       7.700  46.388  52.631  1.00  0.00     0.165 A 
ATOM     12  C   UNL     1       6.365  46.503  52.964  1.00  0.00     0.082 A 
ATOM     13  N   UNL     1       8.401  46.854  53.710  1.00  0.00    -0.250 N 
ATOM     14  C   UNL     1       6.378  47.002  54.283  1.00  0.00     0.149 A 
ATOM     15  N   UNL     1       7.614  47.237  54.742  1.00  0.00    -0.179 NA
ATOM     16  C   UNL     1       9.834  46.948  53.838  1.00  0.00     0.176 C 
BRANCH  10  17
ATOM     17  N   UNL     1       4.048  46.109  52.153  1.00  0.00    -0.337 N 
ATOM     18  H   UNL     1       3.760  47.030  52.477  1.00  0.00     0.168 HD
BRANCH  17  19
ATOM     19  C   UNL     1       3.155  45.105  52.579  1.00  0.00     0.076 A 
ATOM     20  C   UNL     1       2.743  44.036  51.773  1.00  0.00     0.032 A 
ATOM     21  C   UNL     1       2.600  45.202  53.870  1.00  0.00     0.149 A 
ATOM     22  C   UNL     1       1.815  43.102  52.247  1.00  0.00     0.041 A 
ATOM     23  C   UNL     1       1.676  44.280  54.351  1.00  0.00     0.080 A 
ATOM     24  C   UNL     1       1.291  43.234  53.528  1.00  0.00     0.126 A 
ATOM     25  F   UNL     1       2.974  46.212  54.672  1.00  0.00    -0.205 F 
ATOM     26  F   UNL     1       0.404  42.335  53.974  1.00  0.00    -0.207 F 
ENDBRANCH  17  19
ENDBRANCH  10  17
ENDBRANCH   1   7
TORSDOF 6
ENDMDL
MODEL 18
REMARK VINA RESULT:    -8.094      3.021      6.093
REMARK INTER + INTRA:         -11.630
REMARK INTER:                 -11.322
REMARK INTRA:                  -0.308
REMARK UNBOUND:                -0.696
REMARK SMILES CCCCNc1nc(Nc2ccc(F)cc2F)c2cnn(C)c2n1
REMARK SMILES IDX 5 1 4 3 3 4 2 5 1 6 6 7 7 8 24 9 8 10 23 11 18 12 21 13
REMARK SMILES IDX 19 14 20 15 22 16 9 17 10 19 11 20 16 21 12 22 15 23 13 24
REMARK SMILES IDX 17 25 14 26
REMARK H PARENT 5 2 9 18
ROOT
ATOM      1  N   UNL     1       5.735  47.020  54.940  1.00  0.00    -0.354 N 
ATOM      2  H   UNL     1       5.559  47.120  55.934  1.00  0.00     0.163 HD
ENDROOT
BRANCH   1   3
ATOM      3  C   UNL     1       7.114  46.726  54.585  1.00  0.00     0.116 C 
BRANCH   3   4
ATOM      4  C   UNL     1       7.547  47.558  53.375  1.00  0.00     0.021 C 
BRANCH   4   5
ATOM      5  C   UNL     1       9.041  47.442  53.065  1.00  0.00    -0.002 C 
ATOM      6  C   UNL     1       9.900  47.194  54.294  1.00  0.00     0.004 C 
ENDBRANCH   4   5
ENDBRANCH   3   4
ENDBRANCH   1   3
BRANCH   1   7
ATOM      7  C   UNL     1       4.778  46.126  54.475  1.00  0.00     0.226 A 
ATOM      8  N   UNL     1       5.035  45.376  53.387  1.00  0.00    -0.195 NA
ATOM      9  N   UNL     1       3.648  46.097  55.192  1.00  0.00    -0.193 NA
ATOM     10  C   UNL     1       4.096  44.529  52.897  1.00  0.00     0.147 A 
ATOM     11  C   UNL     1       2.753  45.216  54.720  1.00  0.00     0.165 A 
ATOM     12  C   UNL     1       2.901  44.407  53.610  1.00  0.00     0.082 A 
ATOM     13  N   UNL     1       1.520  44.926  55.237  1.00  0.00    -0.250 N 
ATOM     14  C   UNL     1       1.720  43.638  53.580  1.00  0.00     0.149 A 
ATOM     15  N   UNL     1       0.862  43.959  54.557  1.00  0.00    -0.179 NA
ATOM     16  C   UNL     1       0.903  45.524  56.395  1.00  0.00     0.176 C 
BRANCH  10  17
ATOM     17  N   UNL     1       4.448  43.791  51.763  1.00  0.00    -0.337 N 
ATOM     18  H   UNL     1       4.090  42.843  51.861  1.00  0.00     0.168 HD
BRANCH  17  19
ATOM     19  C   UNL     1       5.606  43.828  50.961  1.00  0.00     0.076 A 
ATOM     20  C   UNL     1       6.399  44.970  50.791  1.00  0.00     0.032 A 
ATOM     21  C   UNL     1       5.967  42.669  50.247  1.00  0.00     0.149 A 
ATOM     22  C   UNL     1       7.510  44.946  49.940  1.00  0.00     0.041 A 
ATOM     23  C   UNL     1       7.069  42.634  49.398  1.00  0.00     0.080 A 
ATOM     24  C   UNL     1       7.832  43.781  49.252  1.00  0.00     0.126 A 
ATOM     25  F   UNL     1       5.233  41.554  50.389  1.00  0.00    -0.205 F 
ATOM     26  F   UNL     1       8.897  43.768  48.440  1.00  0.00    -0.207 F 
ENDBRANCH  17  19
ENDBRANCH  10  17
ENDBRANCH   1   7
TORSDOF 6
ENDMDL
MODEL 19
REMARK VINA RESULT:    -7.939      2.952      6.013
REMARK INTER + INTRA:         -11.420
REMARK INTER:                 -10.902
REMARK INTRA:                  -0.518
REMARK UNBOUND:                -0.696
REMARK SMILES CCCCNc1nc(Nc2ccc(F)cc2F)c2cnn(C)c2n1
REMARK SMILES IDX 5 1 4 3 3 4 2 5 1 6 6 7 7 8 24 9 8 10 23 11 18 12 21 13
REMARK SMILES IDX 19 14 20 15 22 16 9 17 10 19 11 20 16 21 12 22 15 23 13 24
REMARK SMILES IDX 17 25 14 26
REMARK H PARENT 5 2 9 18
ROOT
ATOM      1  N   UNL     1       4.574  46.176  55.225  1.00  0.00    -0.354 N 
ATOM      2  H   UNL     1       5.094  45.585  55.865  1.00  0.00     0.163 HD
ENDROOT
BRANCH   1   3
ATOM      3  C   UNL     1       5.374  47.141  54.488  1.00  0.00     0.116 C 
BRANCH   3   4
ATOM      4  C   UNL     1       6.849  46.730  54.490  1.00  0.00     0.021 C 
BRANCH   4   5
ATOM      5  C   UNL     1       7.603  47.183  53.238  1.00  0.00    -0.002 C 
ATOM      6  C   UNL     1       9.115  47.163  53.398  1.00  0.00     0.004 C 
ENDBRANCH   4   5
ENDBRANCH   3   4
ENDBRANCH   1   3
BRANCH   1   7
ATOM      7  C   UNL     1       3.796  45.314  54.462  1.00  0.00     0.226 A 
ATOM      8  N   UNL     1       4.364  44.597  53.474  1.00  0.00    -0.195 NA
ATOM      9  N   UNL     1       2.503  45.279  54.804  1.00  0.00    -0.193 NA
ATOM     10  C   UNL     1       3.611  43.781  52.695  1.00  0.00     0.147 A 
ATOM     11  C   UNL     1       1.787  44.428  54.054  1.00  0.00     0.165 A 
ATOM     12  C   UNL     1       2.257  43.655  53.011  1.00  0.00     0.082 A 
ATOM     13  N   UNL     1       0.453  44.142  54.165  1.00  0.00    -0.250 N 
ATOM     14  C   UNL     1       1.135  42.906  52.600  1.00  0.00     0.149 A 
ATOM     15  N   UNL     1       0.025  43.208  53.284  1.00  0.00    -0.179 NA
ATOM     16  C   UNL     1      -0.480  44.710  55.105  1.00  0.00     0.176 C 
BRANCH  10  17
ATOM     17  N   UNL     1       4.285  43.075  51.693  1.00  0.00    -0.337 N 
ATOM     18  H   UNL     1       4.226  42.079  51.893  1.00  0.00     0.168 HD
BRANCH  17  19
ATOM     19  C   UNL     1       5.450  43.391  50.965  1.00  0.00     0.076 A 
ATOM     20  C   UNL     1       6.023  44.668  50.929  1.00  0.00     0.032 A 
ATOM     21  C   UNL     1       6.052  42.382  50.188  1.00  0.00     0.149 A 
ATOM     22  C   UNL     1       7.155  44.920  50.146  1.00  0.00     0.041 A 
ATOM     23  C   UNL     1       7.177  42.620  49.406  1.00  0.00     0.080 A 
ATOM     24  C   UNL     1       7.718  43.895  49.392  1.00  0.00     0.126 A 
ATOM     25  F   UNL     1       5.533  41.144  50.202  1.00  0.00    -0.205 F 
ATOM     26  F   UNL     1       8.802  44.145  48.647  1.00  0.00    -0.207 F 
ENDBRANCH  17  19
ENDBRANCH  10  17
ENDBRANCH   1   7
TORSDOF 6
ENDMDL
