MODEL 1
REMARK VINA RESULT:    -7.883      0.000      0.000
REMARK INTER + INTRA:         -11.322
REMARK INTER:                 -10.648
REMARK INTRA:                  -0.674
REMARK UNBOUND:                -0.674
REMARK SMILES COC(CNc1nc(-c2ccccc2)nc2c1CCC2)OC
REMARK SMILES IDX 4 1 3 2 2 3 1 4 21 5 22 6 5 7 6 9 7 10 17 11 8 12 16 13
REMARK SMILES IDX 18 14 15 15 20 16 19 17 9 18 10 19 14 20 11 21 13 22 12 23
REMARK H PARENT 5 8
ROOT
ATOM      1  C   UNL     1       1.912  44.017  52.748  1.00  0.00     0.176 C 
ENDROOT
BRANCH   1   2
ATOM      2  C   UNL     1       1.921  45.366  53.507  1.00  0.00     0.268 C 
BRANCH   2   3
ATOM      3  O   UNL     1       1.691  46.409  52.553  1.00  0.00    -0.354 OA
ATOM      4  C   UNL     1       2.853  47.181  52.302  1.00  0.00     0.198 C 
ENDBRANCH   2   3
BRANCH   2   5
ATOM      5  O   UNL     1       0.877  45.341  54.492  1.00  0.00    -0.354 OA
ATOM      6  C   UNL     1       1.372  45.059  55.793  1.00  0.00     0.198 C 
ENDBRANCH   2   5
ENDBRANCH   1   2
BRANCH   1   7
ATOM      7  N   UNL     1       3.111  43.225  53.077  1.00  0.00    -0.365 N 
ATOM      8  H   UNL     1       2.904  42.236  52.951  1.00  0.00     0.162 HD
BRANCH   7   9
ATOM      9  C   UNL     1       4.244  43.552  52.315  1.00  0.00     0.133 A 
ATOM     10  N   UNL     1       5.089  44.517  52.718  1.00  0.00    -0.211 NA
ATOM     11  C   UNL     1       4.519  42.836  51.179  1.00  0.00     0.016 A 
ATOM     12  C   UNL     1       6.182  44.784  51.959  1.00  0.00     0.161 A 
ATOM     13  C   UNL     1       5.649  43.178  50.468  1.00  0.00     0.050 A 
ATOM     14  C   UNL     1       3.773  41.731  50.516  1.00  0.00     0.042 C 
ATOM     15  N   UNL     1       6.499  44.145  50.814  1.00  0.00    -0.233 NA
ATOM     16  C   UNL     1       5.778  42.342  49.227  1.00  0.00     0.057 C 
ATOM     17  C   UNL     1       4.848  41.172  49.571  1.00  0.00     0.011 C 
BRANCH  12  18
ATOM     18  C   UNL     1       7.085  45.860  52.419  1.00  0.00     0.019 A 
ATOM     19  C   UNL     1       7.208  46.186  53.785  1.00  0.00     0.012 A 
ATOM     20  C   UNL     1       7.863  46.608  51.513  1.00  0.00     0.012 A 
ATOM     21  C   UNL     1       8.062  47.204  54.222  1.00  0.00     0.001 A 
ATOM     22  C   UNL     1       8.719  47.627  51.946  1.00  0.00     0.001 A 
ATOM     23  C   UNL     1       8.817  47.924  53.301  1.00  0.00     0.000 A 
ENDBRANCH  12  18
ENDBRANCH   7   9
ENDBRANCH   1   7
TORSDOF 6
ENDMDL
MODEL 2
REMARK VINA RESULT:    -7.866      0.075      1.028
REMARK INTER + INTRA:         -11.299
REMARK INTER:                 -10.610
REMARK INTRA:                  -0.689
REMARK UNBOUND:                -0.674
REMARK SMILES COC(CNc1nc(-c2ccccc2)nc2c1CCC2)OC
REMARK SMILES IDX 4 1 3 2 2 3 1 4 21 5 22 6 5 7 6 9 7 10 17 11 8 12 16 13
REMARK SMILES IDX 18 14 15 15 20 16 19 17 9 18 10 19 14 20 11 21 13 22 12 23
REMARK H PARENT 5 8
ROOT
ATOM      1  C   UNL     1       1.929  44.022  52.682  1.00  0.00     0.176 C 
ENDROOT
BRANCH   1   2
ATOM      2  C   UNL     1       1.877  45.341  53.491  1.00  0.00     0.268 C 
BRANCH   2   3
ATOM      3  O   UNL     1       1.683  46.416  52.565  1.00  0.00    -0.354 OA
ATOM      4  C   UNL     1       2.867  47.167  52.349  1.00  0.00     0.198 C 
ENDBRANCH   2   3
BRANCH   2   5
ATOM      5  O   UNL     1       0.782  45.265  54.415  1.00  0.00    -0.354 OA
ATOM      6  C   UNL     1       1.221  45.218  55.766  1.00  0.00     0.198 C 
ENDBRANCH   2   5
ENDBRANCH   1   2
BRANCH   1   7
ATOM      7  N   UNL     1       3.131  43.243  53.032  1.00  0.00    -0.365 N 
ATOM      8  H   UNL     1       2.931  42.251  52.921  1.00  0.00     0.162 HD
BRANCH   7   9
ATOM      9  C   UNL     1       4.267  43.564  52.273  1.00  0.00     0.133 A 
ATOM     10  N   UNL     1       5.116  44.524  52.679  1.00  0.00    -0.211 NA
ATOM     11  C   UNL     1       4.540  42.848  51.137  1.00  0.00     0.016 A 
ATOM     12  C   UNL     1       6.212  44.786  51.921  1.00  0.00     0.161 A 
ATOM     13  C   UNL     1       5.673  43.184  50.428  1.00  0.00     0.050 A 
ATOM     14  C   UNL     1       3.789  41.748  50.471  1.00  0.00     0.042 C 
ATOM     15  N   UNL     1       6.528  44.146  50.777  1.00  0.00    -0.233 NA
ATOM     16  C   UNL     1       5.800  42.349  49.186  1.00  0.00     0.057 C 
ATOM     17  C   UNL     1       4.862  41.183  49.527  1.00  0.00     0.011 C 
BRANCH  12  18
ATOM     18  C   UNL     1       7.121  45.857  52.385  1.00  0.00     0.019 A 
ATOM     19  C   UNL     1       7.880  46.623  51.477  1.00  0.00     0.012 A 
ATOM     20  C   UNL     1       7.268  46.158  53.753  1.00  0.00     0.012 A 
ATOM     21  C   UNL     1       8.739  47.637  51.913  1.00  0.00     0.001 A 
ATOM     22  C   UNL     1       8.127  47.171  54.194  1.00  0.00     0.001 A 
ATOM     23  C   UNL     1       8.862  47.910  53.273  1.00  0.00     0.000 A 
ENDBRANCH  12  18
ENDBRANCH   7   9
ENDBRANCH   1   7
TORSDOF 6
ENDMDL
MODEL 3
REMARK VINA RESULT:    -7.803      1.627      5.150
REMARK INTER + INTRA:         -11.214
REMARK INTER:                 -10.379
REMARK INTRA:                  -0.835
REMARK UNBOUND:                -0.674
REMARK SMILES COC(CNc1nc(-c2ccccc2)nc2c1CCC2)OC
REMARK SMILES IDX 4 1 3 2 2 3 1 4 21 5 22 6 5 7 6 9 7 10 17 11 8 12 16 13
REMARK SMILES IDX 18 14 15 15 20 16 19 17 9 18 10 19 14 20 11 21 13 22 12 23
REMARK H PARENT 5 8
ROOT
ATOM      1  C   UNL     1       4.700  47.135  54.546  1.00  0.00     0.176 C 
ENDROOT
BRANCH   1   2
ATOM      2  C   UNL     1       3.630  46.135  55.051  1.00  0.00     0.268 C 
BRANCH   2   3
ATOM      3  O   UNL     1       2.563  46.115  54.097  1.00  0.00    -0.354 OA
ATOM      4  C   UNL     1       2.055  44.810  53.876  1.00  0.00     0.198 C 
ENDBRANCH   2   3
BRANCH   2   5
ATOM      5  O   UNL     1       4.235  44.839  55.161  1.00  0.00    -0.354 OA
ATOM      6  C   UNL     1       5.597  44.913  55.559  1.00  0.00     0.198 C 
ENDBRANCH   2   5
ENDBRANCH   1   2
BRANCH   1   7
ATOM      7  N   UNL     1       4.613  47.296  53.084  1.00  0.00    -0.365 N 
ATOM      8  H   UNL     1       4.780  48.272  52.844  1.00  0.00     0.162 HD
BRANCH   7   9
ATOM      9  C   UNL     1       5.510  46.493  52.361  1.00  0.00     0.133 A 
ATOM     10  N   UNL     1       5.105  45.336  51.810  1.00  0.00    -0.211 NA
ATOM     11  C   UNL     1       6.795  46.928  52.168  1.00  0.00     0.016 A 
ATOM     12  C   UNL     1       6.003  44.603  51.103  1.00  0.00     0.161 A 
ATOM     13  C   UNL     1       7.639  46.118  51.439  1.00  0.00     0.050 A 
ATOM     14  C   UNL     1       7.497  48.149  52.650  1.00  0.00     0.042 C 
ATOM     15  N   UNL     1       7.290  44.950  50.900  1.00  0.00    -0.233 NA
ATOM     16  C   UNL     1       9.020  46.704  51.366  1.00  0.00     0.057 C 
ATOM     17  C   UNL     1       8.730  48.166  51.734  1.00  0.00     0.011 C 
BRANCH  12  18
ATOM     18  C   UNL     1       5.534  43.327  50.521  1.00  0.00     0.019 A 
ATOM     19  C   UNL     1       6.208  42.715  49.445  1.00  0.00     0.012 A 
ATOM     20  C   UNL     1       4.392  42.666  51.016  1.00  0.00     0.012 A 
ATOM     21  C   UNL     1       5.766  41.508  48.893  1.00  0.00     0.001 A 
ATOM     22  C   UNL     1       3.946  41.459  50.467  1.00  0.00     0.001 A 
ATOM     23  C   UNL     1       4.634  40.881  49.405  1.00  0.00     0.000 A 
ENDBRANCH  12  18
ENDBRANCH   7   9
ENDBRANCH   1   7
TORSDOF 6
ENDMDL
MODEL 4
REMARK VINA RESULT:    -7.797      0.828      1.499
REMARK INTER + INTRA:         -11.206
REMARK INTER:                 -10.506
REMARK INTRA:                  -0.699
REMARK UNBOUND:                -0.674
REMARK SMILES COC(CNc1nc(-c2ccccc2)nc2c1CCC2)OC
REMARK SMILES IDX 4 1 3 2 2 3 1 4 21 5 22 6 5 7 6 9 7 10 17 11 8 12 16 13
REMARK SMILES IDX 18 14 15 15 20 16 19 17 9 18 10 19 14 20 11 21 13 22 12 23
REMARK H PARENT 5 8
ROOT
ATOM      1  C   UNL     1       2.248  44.369  53.395  1.00  0.00     0.176 C 
ENDROOT
BRANCH   1   2
ATOM      2  C   UNL     1       1.788  45.114  52.117  1.00  0.00     0.268 C 
BRANCH   2   3
ATOM      3  O   UNL     1       0.526  44.567  51.720  1.00  0.00    -0.354 OA
ATOM      4  C   UNL     1      -0.538  44.996  52.554  1.00  0.00     0.198 C 
ENDBRANCH   2   3
BRANCH   2   5
ATOM      5  O   UNL     1       1.662  46.509  52.424  1.00  0.00    -0.354 OA
ATOM      6  C   UNL     1       2.907  47.190  52.354  1.00  0.00     0.198 C 
ENDBRANCH   2   5
ENDBRANCH   1   2
BRANCH   1   7
ATOM      7  N   UNL     1       3.105  43.221  53.049  1.00  0.00    -0.365 N 
ATOM      8  H   UNL     1       2.555  42.536  52.535  1.00  0.00     0.162 HD
BRANCH   7   9
ATOM      9  C   UNL     1       4.238  43.556  52.291  1.00  0.00     0.133 A 
ATOM     10  N   UNL     1       5.075  44.525  52.697  1.00  0.00    -0.211 NA
ATOM     11  C   UNL     1       4.520  42.842  51.155  1.00  0.00     0.016 A 
ATOM     12  C   UNL     1       6.169  44.800  51.940  1.00  0.00     0.161 A 
ATOM     13  C   UNL     1       5.650  43.191  50.447  1.00  0.00     0.050 A 
ATOM     14  C   UNL     1       3.783  41.733  50.489  1.00  0.00     0.042 C 
ATOM     15  N   UNL     1       6.493  44.163  50.796  1.00  0.00    -0.233 NA
ATOM     16  C   UNL     1       5.788  42.357  49.206  1.00  0.00     0.057 C 
ATOM     17  C   UNL     1       4.864  41.180  49.547  1.00  0.00     0.011 C 
BRANCH  12  18
ATOM     18  C   UNL     1       7.064  45.882  52.403  1.00  0.00     0.019 A 
ATOM     19  C   UNL     1       7.181  46.208  53.769  1.00  0.00     0.012 A 
ATOM     20  C   UNL     1       7.840  46.634  51.499  1.00  0.00     0.012 A 
ATOM     21  C   UNL     1       8.027  47.231  54.209  1.00  0.00     0.001 A 
ATOM     22  C   UNL     1       8.688  47.659  51.935  1.00  0.00     0.001 A 
ATOM     23  C   UNL     1       8.781  47.956  53.290  1.00  0.00     0.000 A 
ENDBRANCH  12  18
ENDBRANCH   7   9
ENDBRANCH   1   7
TORSDOF 6
ENDMDL
MODEL 5
REMARK VINA RESULT:    -7.785      0.469      1.867
REMARK INTER + INTRA:         -11.189
REMARK INTER:                 -10.428
REMARK INTRA:                  -0.761
REMARK UNBOUND:                -0.674
REMARK SMILES COC(CNc1nc(-c2ccccc2)nc2c1CCC2)OC
REMARK SMILES IDX 4 1 3 2 2 3 1 4 21 5 22 6 5 7 6 9 7 10 17 11 8 12 16 13
REMARK SMILES IDX 18 14 15 15 20 16 19 17 9 18 10 19 14 20 11 21 13 22 12 23
REMARK H PARENT 5 8
ROOT
ATOM      1  C   UNL     1       1.914  44.202  52.727  1.00  0.00     0.176 C 
ENDROOT
BRANCH   1   2
ATOM      2  C   UNL     1       1.595  45.196  53.871  1.00  0.00     0.268 C 
BRANCH   2   3
ATOM      3  O   UNL     1       1.939  44.565  55.109  1.00  0.00    -0.354 OA
ATOM      4  C   UNL     1       1.101  44.972  56.178  1.00  0.00     0.198 C 
ENDBRANCH   2   3
BRANCH   2   5
ATOM      5  O   UNL     1       2.376  46.383  53.672  1.00  0.00    -0.354 OA
ATOM      6  C   UNL     1       2.390  46.797  52.313  1.00  0.00     0.198 C 
ENDBRANCH   2   5
ENDBRANCH   1   2
BRANCH   1   7
ATOM      7  N   UNL     1       3.079  43.367  53.071  1.00  0.00    -0.365 N 
ATOM      8  H   UNL     1       2.839  42.386  52.941  1.00  0.00     0.162 HD
BRANCH   7   9
ATOM      9  C   UNL     1       4.234  43.653  52.324  1.00  0.00     0.133 A 
ATOM     10  N   UNL     1       5.088  44.611  52.721  1.00  0.00    -0.211 NA
ATOM     11  C   UNL     1       4.517  42.904  51.213  1.00  0.00     0.016 A 
ATOM     12  C   UNL     1       6.202  44.839  51.978  1.00  0.00     0.161 A 
ATOM     13  C   UNL     1       5.668  43.206  50.517  1.00  0.00     0.050 A 
ATOM     14  C   UNL     1       3.763  41.797  50.561  1.00  0.00     0.042 C 
ATOM     15  N   UNL     1       6.529  44.166  50.856  1.00  0.00    -0.233 NA
ATOM     16  C   UNL     1       5.806  42.338  49.300  1.00  0.00     0.057 C 
ATOM     17  C   UNL     1       4.846  41.194  49.653  1.00  0.00     0.011 C 
BRANCH  12  18
ATOM     18  C   UNL     1       7.116  45.909  52.430  1.00  0.00     0.019 A 
ATOM     19  C   UNL     1       7.866  46.674  51.513  1.00  0.00     0.012 A 
ATOM     20  C   UNL     1       7.279  46.212  53.796  1.00  0.00     0.012 A 
ATOM     21  C   UNL     1       8.732  47.687  51.939  1.00  0.00     0.001 A 
ATOM     22  C   UNL     1       8.144  47.225  54.226  1.00  0.00     0.001 A 
ATOM     23  C   UNL     1       8.870  47.961  53.296  1.00  0.00     0.000 A 
ENDBRANCH  12  18
ENDBRANCH   7   9
ENDBRANCH   1   7
TORSDOF 6
ENDMDL
MODEL 6
REMARK VINA RESULT:    -7.777      3.042      6.473
REMARK INTER + INTRA:         -11.178
REMARK INTER:                 -10.637
REMARK INTRA:                  -0.541
REMARK UNBOUND:                -0.674
REMARK SMILES COC(CNc1nc(-c2ccccc2)nc2c1CCC2)OC
REMARK SMILES IDX 4 1 3 2 2 3 1 4 21 5 22 6 5 7 6 9 7 10 17 11 8 12 16 13
REMARK SMILES IDX 18 14 15 15 20 16 19 17 9 18 10 19 14 20 11 21 13 22 12 23
REMARK H PARENT 5 8
ROOT
ATOM      1  C   UNL     1       7.963  46.708  54.064  1.00  0.00     0.176 C 
ENDROOT
BRANCH   1   2
ATOM      2  C   UNL     1       9.106  47.751  54.008  1.00  0.00     0.268 C 
BRANCH   2   3
ATOM      3  O   UNL     1       9.427  48.125  55.352  1.00  0.00    -0.354 OA
ATOM      4  C   UNL     1      10.639  47.544  55.803  1.00  0.00     0.198 C 
ENDBRANCH   2   3
BRANCH   2   5
ATOM      5  O   UNL     1      10.240  47.150  53.366  1.00  0.00    -0.354 OA
ATOM      6  C   UNL     1       9.883  46.473  52.168  1.00  0.00     0.198 C 
ENDBRANCH   2   5
ENDBRANCH   1   2
BRANCH   1   7
ATOM      7  N   UNL     1       6.809  47.156  53.264  1.00  0.00    -0.365 N 
ATOM      8  H   UNL     1       7.141  47.522  52.374  1.00  0.00     0.162 HD
BRANCH   7   9
ATOM      9  C   UNL     1       5.857  46.154  53.015  1.00  0.00     0.133 A 
ATOM     10  N   UNL     1       6.054  45.244  52.046  1.00  0.00    -0.211 NA
ATOM     11  C   UNL     1       4.745  46.073  53.812  1.00  0.00     0.016 A 
ATOM     12  C   UNL     1       5.115  44.283  51.855  1.00  0.00     0.161 A 
ATOM     13  C   UNL     1       3.842  45.066  53.544  1.00  0.00     0.050 A 
ATOM     14  C   UNL     1       4.285  46.929  54.940  1.00  0.00     0.042 C 
ATOM     15  N   UNL     1       3.981  44.160  52.576  1.00  0.00    -0.233 NA
ATOM     16  C   UNL     1       2.657  45.147  54.463  1.00  0.00     0.057 C 
ATOM     17  C   UNL     1       3.224  46.025  55.586  1.00  0.00     0.011 C 
BRANCH  12  18
ATOM     18  C   UNL     1       5.350  43.304  50.772  1.00  0.00     0.019 A 
ATOM     19  C   UNL     1       6.329  43.523  49.781  1.00  0.00     0.012 A 
ATOM     20  C   UNL     1       4.608  42.110  50.683  1.00  0.00     0.012 A 
ATOM     21  C   UNL     1       6.553  42.598  48.756  1.00  0.00     0.001 A 
ATOM     22  C   UNL     1       4.830  41.182  49.659  1.00  0.00     0.001 A 
ATOM     23  C   UNL     1       5.803  41.428  48.696  1.00  0.00     0.000 A 
ENDBRANCH  12  18
ENDBRANCH   7   9
ENDBRANCH   1   7
TORSDOF 6
ENDMDL
MODEL 7
REMARK VINA RESULT:    -7.752      2.395      4.710
REMARK INTER + INTRA:         -11.145
REMARK INTER:                 -10.485
REMARK INTRA:                  -0.659
REMARK UNBOUND:                -0.674
REMARK SMILES COC(CNc1nc(-c2ccccc2)nc2c1CCC2)OC
REMARK SMILES IDX 4 1 3 2 2 3 1 4 21 5 22 6 5 7 6 9 7 10 17 11 8 12 16 13
REMARK SMILES IDX 18 14 15 15 20 16 19 17 9 18 10 19 14 20 11 21 13 22 12 23
REMARK H PARENT 5 8
ROOT
ATOM      1  C   UNL     1       3.916  41.966  51.527  1.00  0.00     0.176 C 
ENDROOT
BRANCH   1   2
ATOM      2  C   UNL     1       4.359  41.173  50.272  1.00  0.00     0.268 C 
BRANCH   2   3
ATOM      3  O   UNL     1       3.208  40.982  49.443  1.00  0.00    -0.354 OA
ATOM      4  C   UNL     1       3.523  40.351  48.213  1.00  0.00     0.198 C 
ENDBRANCH   2   3
BRANCH   2   5
ATOM      5  O   UNL     1       5.360  41.936  49.583  1.00  0.00    -0.354 OA
ATOM      6  C   UNL     1       6.678  41.544  49.942  1.00  0.00     0.198 C 
ENDBRANCH   2   5
ENDBRANCH   1   2
BRANCH   1   7
ATOM      7  N   UNL     1       3.795  43.402  51.219  1.00  0.00    -0.365 N 
ATOM      8  H   UNL     1       2.819  43.624  51.033  1.00  0.00     0.162 HD
BRANCH   7   9
ATOM      9  C   UNL     1       4.266  44.250  52.234  1.00  0.00     0.133 A 
ATOM     10  N   UNL     1       5.503  44.773  52.174  1.00  0.00    -0.211 NA
ATOM     11  C   UNL     1       3.430  44.593  53.265  1.00  0.00     0.016 A 
ATOM     12  C   UNL     1       5.907  45.604  53.169  1.00  0.00     0.161 A 
ATOM     13  C   UNL     1       3.925  45.440  54.233  1.00  0.00     0.050 A 
ATOM     14  C   UNL     1       2.035  44.174  53.572  1.00  0.00     0.042 C 
ATOM     15  N   UNL     1       5.153  45.958  54.230  1.00  0.00    -0.233 NA
ATOM     16  C   UNL     1       2.912  45.672  55.316  1.00  0.00     0.057 C 
ATOM     17  C   UNL     1       1.625  45.237  54.604  1.00  0.00     0.011 C 
BRANCH  12  18
ATOM     18  C   UNL     1       7.278  46.152  53.085  1.00  0.00     0.019 A 
ATOM     19  C   UNL     1       8.019  46.103  51.886  1.00  0.00     0.012 A 
ATOM     20  C   UNL     1       7.904  46.747  54.197  1.00  0.00     0.012 A 
ATOM     21  C   UNL     1       9.316  46.621  51.804  1.00  0.00     0.001 A 
ATOM     22  C   UNL     1       9.201  47.266  54.120  1.00  0.00     0.001 A 
ATOM     23  C   UNL     1       9.906  47.203  52.923  1.00  0.00     0.000 A 
ENDBRANCH  12  18
ENDBRANCH   7   9
ENDBRANCH   1   7
TORSDOF 6
ENDMDL
MODEL 8
REMARK VINA RESULT:    -7.724      2.346      5.884
REMARK INTER + INTRA:         -11.106
REMARK INTER:                 -10.410
REMARK INTRA:                  -0.696
REMARK UNBOUND:                -0.674
REMARK SMILES COC(CNc1nc(-c2ccccc2)nc2c1CCC2)OC
REMARK SMILES IDX 4 1 3 2 2 3 1 4 21 5 22 6 5 7 6 9 7 10 17 11 8 12 16 13
REMARK SMILES IDX 18 14 15 15 20 16 19 17 9 18 10 19 14 20 11 21 13 22 12 23
REMARK H PARENT 5 8
ROOT
ATOM      1  C   UNL     1       6.728  46.281  54.740  1.00  0.00     0.176 C 
ENDROOT
BRANCH   1   2
ATOM      2  C   UNL     1       7.848  47.052  54.000  1.00  0.00     0.268 C 
BRANCH   2   3
ATOM      3  O   UNL     1       7.228  47.916  53.041  1.00  0.00    -0.354 OA
ATOM      4  C   UNL     1       8.084  48.224  51.953  1.00  0.00     0.198 C 
ENDBRANCH   2   3
BRANCH   2   5
ATOM      5  O   UNL     1       8.589  47.815  54.963  1.00  0.00    -0.354 OA
ATOM      6  C   UNL     1       9.958  47.438  55.010  1.00  0.00     0.198 C 
ENDBRANCH   2   5
ENDBRANCH   1   2
BRANCH   1   7
ATOM      7  N   UNL     1       5.400  46.688  54.245  1.00  0.00    -0.365 N 
ATOM      8  H   UNL     1       5.514  47.408  53.534  1.00  0.00     0.162 HD
BRANCH   7   9
ATOM      9  C   UNL     1       4.638  45.638  53.708  1.00  0.00     0.133 A 
ATOM     10  N   UNL     1       5.101  44.910  52.678  1.00  0.00    -0.211 NA
ATOM     11  C   UNL     1       3.437  45.318  54.284  1.00  0.00     0.016 A 
ATOM     12  C   UNL     1       4.337  43.892  52.205  1.00  0.00     0.161 A 
ATOM     13  C   UNL     1       2.726  44.271  53.738  1.00  0.00     0.050 A 
ATOM     14  C   UNL     1       2.700  45.941  55.418  1.00  0.00     0.042 C 
ATOM     15  N   UNL     1       3.132  43.541  52.699  1.00  0.00    -0.233 NA
ATOM     16  C   UNL     1       1.413  44.084  54.442  1.00  0.00     0.057 C 
ATOM     17  C   UNL     1       1.679  44.841  55.750  1.00  0.00     0.011 C 
BRANCH  12  18
ATOM     18  C   UNL     1       4.865  43.118  51.061  1.00  0.00     0.019 A 
ATOM     19  C   UNL     1       5.972  43.568  50.314  1.00  0.00     0.012 A 
ATOM     20  C   UNL     1       4.284  41.896  50.667  1.00  0.00     0.012 A 
ATOM     21  C   UNL     1       6.472  42.837  49.232  1.00  0.00     0.001 A 
ATOM     22  C   UNL     1       4.782  41.161  49.585  1.00  0.00     0.001 A 
ATOM     23  C   UNL     1       5.876  41.633  48.868  1.00  0.00     0.000 A 
ENDBRANCH  12  18
ENDBRANCH   7   9
ENDBRANCH   1   7
TORSDOF 6
ENDMDL
MODEL 9
REMARK VINA RESULT:    -7.703      2.463      4.743
REMARK INTER + INTRA:         -11.078
REMARK INTER:                 -10.393
REMARK INTRA:                  -0.686
REMARK UNBOUND:                -0.674
REMARK SMILES COC(CNc1nc(-c2ccccc2)nc2c1CCC2)OC
REMARK SMILES IDX 4 1 3 2 2 3 1 4 21 5 22 6 5 7 6 9 7 10 17 11 8 12 16 13
REMARK SMILES IDX 18 14 15 15 20 16 19 17 9 18 10 19 14 20 11 21 13 22 12 23
REMARK H PARENT 5 8
ROOT
ATOM      1  C   UNL     1       3.924  42.162  51.470  1.00  0.00     0.176 C 
ENDROOT
BRANCH   1   2
ATOM      2  C   UNL     1       4.410  41.592  50.115  1.00  0.00     0.268 C 
BRANCH   2   3
ATOM      3  O   UNL     1       5.801  41.279  50.244  1.00  0.00    -0.354 OA
ATOM      4  C   UNL     1       6.638  42.317  49.761  1.00  0.00     0.198 C 
ENDBRANCH   2   3
BRANCH   2   5
ATOM      5  O   UNL     1       3.650  40.411  49.820  1.00  0.00    -0.354 OA
ATOM      6  C   UNL     1       3.629  40.119  48.430  1.00  0.00     0.198 C 
ENDBRANCH   2   5
ENDBRANCH   1   2
BRANCH   1   7
ATOM      7  N   UNL     1       3.593  43.593  51.345  1.00  0.00    -0.365 N 
ATOM      8  H   UNL     1       2.582  43.701  51.300  1.00  0.00     0.162 HD
BRANCH   7   9
ATOM      9  C   UNL     1       4.088  44.393  52.389  1.00  0.00     0.133 A 
ATOM     10  N   UNL     1       5.324  44.916  52.326  1.00  0.00    -0.211 NA
ATOM     11  C   UNL     1       3.275  44.687  53.452  1.00  0.00     0.016 A 
ATOM     12  C   UNL     1       5.752  45.699  53.350  1.00  0.00     0.161 A 
ATOM     13  C   UNL     1       3.793  45.488  54.447  1.00  0.00     0.050 A 
ATOM     14  C   UNL     1       1.886  44.256  53.769  1.00  0.00     0.042 C 
ATOM     15  N   UNL     1       5.022  46.004  54.442  1.00  0.00    -0.233 NA
ATOM     16  C   UNL     1       2.804  45.670  55.562  1.00  0.00     0.057 C 
ATOM     17  C   UNL     1       1.501  45.271  54.857  1.00  0.00     0.011 C 
BRANCH  12  18
ATOM     18  C   UNL     1       7.122  46.248  53.262  1.00  0.00     0.019 A 
ATOM     19  C   UNL     1       7.880  46.153  52.077  1.00  0.00     0.012 A 
ATOM     20  C   UNL     1       7.731  46.891  54.358  1.00  0.00     0.012 A 
ATOM     21  C   UNL     1       9.175  46.673  51.991  1.00  0.00     0.001 A 
ATOM     22  C   UNL     1       9.027  47.412  54.276  1.00  0.00     0.001 A 
ATOM     23  C   UNL     1       9.748  47.302  53.092  1.00  0.00     0.000 A 
ENDBRANCH  12  18
ENDBRANCH   7   9
ENDBRANCH   1   7
TORSDOF 6
ENDMDL
MODEL 10
REMARK VINA RESULT:    -7.693      2.092      5.360
REMARK INTER + INTRA:         -11.065
REMARK INTER:                 -10.283
REMARK INTRA:                  -0.782
REMARK UNBOUND:                -0.674
REMARK SMILES COC(CNc1nc(-c2ccccc2)nc2c1CCC2)OC
REMARK SMILES IDX 4 1 3 2 2 3 1 4 21 5 22 6 5 7 6 9 7 10 17 11 8 12 16 13
REMARK SMILES IDX 18 14 15 15 20 16 19 17 9 18 10 19 14 20 11 21 13 22 12 23
REMARK H PARENT 5 8
ROOT
ATOM      1  C   UNL     1       7.522  46.090  52.164  1.00  0.00     0.176 C 
ENDROOT
BRANCH   1   2
ATOM      2  C   UNL     1       7.287  47.574  52.538  1.00  0.00     0.268 C 
BRANCH   2   3
ATOM      3  O   UNL     1       6.189  47.627  53.455  1.00  0.00    -0.354 OA
ATOM      4  C   UNL     1       6.383  46.793  54.585  1.00  0.00     0.198 C 
ENDBRANCH   2   3
BRANCH   2   5
ATOM      5  O   UNL     1       8.481  48.084  53.148  1.00  0.00    -0.354 OA
ATOM      6  C   UNL     1       9.595  47.225  52.951  1.00  0.00     0.198 C 
ENDBRANCH   2   5
ENDBRANCH   1   2
BRANCH   1   7
ATOM      7  N   UNL     1       6.714  45.714  50.990  1.00  0.00    -0.365 N 
ATOM      8  H   UNL     1       7.333  45.408  50.241  1.00  0.00     0.162 HD
BRANCH   7   9
ATOM      9  C   UNL     1       5.770  44.705  51.239  1.00  0.00     0.133 A 
ATOM     10  N   UNL     1       4.773  44.899  52.118  1.00  0.00    -0.211 NA
ATOM     11  C   UNL     1       5.838  43.533  50.531  1.00  0.00     0.016 A 
ATOM     12  C   UNL     1       3.873  43.901  52.311  1.00  0.00     0.161 A 
ATOM     13  C   UNL     1       4.884  42.574  50.794  1.00  0.00     0.050 A 
ATOM     14  C   UNL     1       6.814  43.063  49.510  1.00  0.00     0.042 C 
ATOM     15  N   UNL     1       3.894  42.711  51.677  1.00  0.00    -0.233 NA
ATOM     16  C   UNL     1       5.127  41.335  49.981  1.00  0.00     0.057 C 
ATOM     17  C   UNL     1       6.048  41.886  48.885  1.00  0.00     0.011 C 
BRANCH  12  18
ATOM     18  C   UNL     1       2.795  44.136  53.296  1.00  0.00     0.019 A 
ATOM     19  C   UNL     1       1.548  43.488  53.193  1.00  0.00     0.012 A 
ATOM     20  C   UNL     1       2.967  45.019  54.380  1.00  0.00     0.012 A 
ATOM     21  C   UNL     1       0.527  43.709  54.124  1.00  0.00     0.001 A 
ATOM     22  C   UNL     1       1.948  45.243  55.314  1.00  0.00     0.001 A 
ATOM     23  C   UNL     1       0.729  44.588  55.184  1.00  0.00     0.000 A 
ENDBRANCH  12  18
ENDBRANCH   7   9
ENDBRANCH   1   7
TORSDOF 6
ENDMDL
MODEL 11
REMARK VINA RESULT:    -7.682      1.230      5.042
REMARK INTER + INTRA:         -11.050
REMARK INTER:                 -10.500
REMARK INTRA:                  -0.550
REMARK UNBOUND:                -0.674
REMARK SMILES COC(CNc1nc(-c2ccccc2)nc2c1CCC2)OC
REMARK SMILES IDX 4 1 3 2 2 3 1 4 21 5 22 6 5 7 6 9 7 10 17 11 8 12 16 13
REMARK SMILES IDX 18 14 15 15 20 16 19 17 9 18 10 19 14 20 11 21 13 22 12 23
REMARK H PARENT 5 8
ROOT
ATOM      1  C   UNL     1       4.383  46.525  54.914  1.00  0.00     0.176 C 
ENDROOT
BRANCH   1   2
ATOM      2  C   UNL     1       3.263  46.066  53.948  1.00  0.00     0.268 C 
BRANCH   2   3
ATOM      3  O   UNL     1       2.129  45.690  54.737  1.00  0.00    -0.354 OA
ATOM      4  C   UNL     1       1.608  44.423  54.372  1.00  0.00     0.198 C 
ENDBRANCH   2   3
BRANCH   2   5
ATOM      5  O   UNL     1       2.936  47.160  53.079  1.00  0.00    -0.354 OA
ATOM      6  C   UNL     1       3.124  46.833  51.709  1.00  0.00     0.198 C 
ENDBRANCH   2   5
ENDBRANCH   1   2
BRANCH   1   7
ATOM      7  N   UNL     1       5.555  45.637  54.812  1.00  0.00    -0.365 N 
ATOM      8  H   UNL     1       5.326  44.732  55.218  1.00  0.00     0.162 HD
BRANCH   7   9
ATOM      9  C   UNL     1       6.018  45.442  53.501  1.00  0.00     0.133 A 
ATOM     10  N   UNL     1       5.557  44.426  52.753  1.00  0.00    -0.211 NA
ATOM     11  C   UNL     1       6.906  46.337  52.963  1.00  0.00     0.016 A 
ATOM     12  C   UNL     1       6.020  44.289  51.484  1.00  0.00     0.161 A 
ATOM     13  C   UNL     1       7.325  46.119  51.668  1.00  0.00     0.050 A 
ATOM     14  C   UNL     1       7.565  47.535  53.552  1.00  0.00     0.042 C 
ATOM     15  N   UNL     1       6.917  45.109  50.899  1.00  0.00    -0.233 NA
ATOM     16  C   UNL     1       8.333  47.148  51.247  1.00  0.00     0.057 C 
ATOM     17  C   UNL     1       8.077  48.245  52.289  1.00  0.00     0.011 C 
BRANCH  12  18
ATOM     18  C   UNL     1       5.506  43.152  50.690  1.00  0.00     0.019 A 
ATOM     19  C   UNL     1       4.305  42.498  51.030  1.00  0.00     0.012 A 
ATOM     20  C   UNL     1       6.194  42.673  49.558  1.00  0.00     0.012 A 
ATOM     21  C   UNL     1       3.817  41.423  50.280  1.00  0.00     0.001 A 
ATOM     22  C   UNL     1       5.710  41.598  48.804  1.00  0.00     0.001 A 
ATOM     23  C   UNL     1       4.522  40.973  49.167  1.00  0.00     0.000 A 
ENDBRANCH  12  18
ENDBRANCH   7   9
ENDBRANCH   1   7
TORSDOF 6
ENDMDL
MODEL 12
REMARK VINA RESULT:    -7.618      2.861      5.990
REMARK INTER + INTRA:         -10.963
REMARK INTER:                 -10.344
REMARK INTRA:                  -0.619
REMARK UNBOUND:                -0.674
REMARK SMILES COC(CNc1nc(-c2ccccc2)nc2c1CCC2)OC
REMARK SMILES IDX 4 1 3 2 2 3 1 4 21 5 22 6 5 7 6 9 7 10 17 11 8 12 16 13
REMARK SMILES IDX 18 14 15 15 20 16 19 17 9 18 10 19 14 20 11 21 13 22 12 23
REMARK H PARENT 5 8
ROOT
ATOM      1  C   UNL     1       7.209  47.069  52.997  1.00  0.00     0.176 C 
ENDROOT
BRANCH   1   2
ATOM      2  C   UNL     1       8.716  47.426  52.992  1.00  0.00     0.268 C 
BRANCH   2   3
ATOM      3  O   UNL     1       8.990  48.191  54.170  1.00  0.00    -0.354 OA
ATOM      4  C   UNL     1       9.909  47.545  55.036  1.00  0.00     0.198 C 
ENDBRANCH   2   3
BRANCH   2   5
ATOM      5  O   UNL     1       9.472  46.206  52.992  1.00  0.00    -0.354 OA
ATOM      6  C   UNL     1      10.300  46.087  51.843  1.00  0.00     0.198 C 
ENDBRANCH   2   5
ENDBRANCH   1   2
BRANCH   1   7
ATOM      7  N   UNL     1       6.740  46.766  51.633  1.00  0.00    -0.365 N 
ATOM      8  H   UNL     1       7.539  46.744  51.001  1.00  0.00     0.162 HD
BRANCH   7   9
ATOM      9  C   UNL     1       6.039  45.555  51.519  1.00  0.00     0.133 A 
ATOM     10  N   UNL     1       4.885  45.365  52.181  1.00  0.00    -0.211 NA
ATOM     11  C   UNL     1       6.511  44.582  50.677  1.00  0.00     0.016 A 
ATOM     12  C   UNL     1       4.232  44.184  52.025  1.00  0.00     0.161 A 
ATOM     13  C   UNL     1       5.786  43.414  50.583  1.00  0.00     0.050 A 
ATOM     14  C   UNL     1       7.737  44.530  49.834  1.00  0.00     0.042 C 
ATOM     15  N   UNL     1       4.652  43.170  51.241  1.00  0.00    -0.233 NA
ATOM     16  C   UNL     1       6.461  42.433  49.669  1.00  0.00     0.057 C 
ATOM     17  C   UNL     1       7.401  43.363  48.892  1.00  0.00     0.011 C 
BRANCH  12  18
ATOM     18  C   UNL     1       2.972  43.997  52.776  1.00  0.00     0.019 A 
ATOM     19  C   UNL     1       2.171  42.851  52.598  1.00  0.00     0.012 A 
ATOM     20  C   UNL     1       2.518  44.955  53.703  1.00  0.00     0.012 A 
ATOM     21  C   UNL     1       0.979  42.673  53.308  1.00  0.00     0.001 A 
ATOM     22  C   UNL     1       1.326  44.780  54.416  1.00  0.00     0.001 A 
ATOM     23  C   UNL     1       0.557  43.639  54.217  1.00  0.00     0.000 A 
ENDBRANCH  12  18
ENDBRANCH   7   9
ENDBRANCH   1   7
TORSDOF 6
ENDMDL
MODEL 13
REMARK VINA RESULT:    -7.602      2.910      5.883
REMARK INTER + INTRA:         -10.942
REMARK INTER:                 -10.292
REMARK INTRA:                  -0.650
REMARK UNBOUND:                -0.674
REMARK SMILES COC(CNc1nc(-c2ccccc2)nc2c1CCC2)OC
REMARK SMILES IDX 4 1 3 2 2 3 1 4 21 5 22 6 5 7 6 9 7 10 17 11 8 12 16 13
REMARK SMILES IDX 18 14 15 15 20 16 19 17 9 18 10 19 14 20 11 21 13 22 12 23
REMARK H PARENT 5 8
ROOT
ATOM      1  C   UNL     1       7.218  47.099  53.208  1.00  0.00     0.176 C 
ENDROOT
BRANCH   1   2
ATOM      2  C   UNL     1       8.741  47.007  53.474  1.00  0.00     0.268 C 
BRANCH   2   3
ATOM      3  O   UNL     1       9.419  47.240  52.235  1.00  0.00    -0.354 OA
ATOM      4  C   UNL     1      10.369  46.230  51.937  1.00  0.00     0.198 C 
ENDBRANCH   2   3
BRANCH   2   5
ATOM      5  O   UNL     1       9.095  48.008  54.440  1.00  0.00    -0.354 OA
ATOM      6  C   UNL     1      10.155  47.586  55.287  1.00  0.00     0.198 C 
ENDBRANCH   2   5
ENDBRANCH   1   2
BRANCH   1   7
ATOM      7  N   UNL     1       6.914  46.768  51.804  1.00  0.00    -0.365 N 
ATOM      8  H   UNL     1       7.784  46.705  51.279  1.00  0.00     0.162 HD
BRANCH   7   9
ATOM      9  C   UNL     1       6.195  45.574  51.636  1.00  0.00     0.133 A 
ATOM     10  N   UNL     1       5.056  45.357  52.315  1.00  0.00    -0.211 NA
ATOM     11  C   UNL     1       6.633  44.649  50.725  1.00  0.00     0.016 A 
ATOM     12  C   UNL     1       4.384  44.195  52.105  1.00  0.00     0.161 A 
ATOM     13  C   UNL     1       5.891  43.497  50.579  1.00  0.00     0.050 A 
ATOM     14  C   UNL     1       7.837  44.634  49.848  1.00  0.00     0.042 C 
ATOM     15  N   UNL     1       4.772  43.226  51.250  1.00  0.00    -0.233 NA
ATOM     16  C   UNL     1       6.530  42.565  49.590  1.00  0.00     0.057 C 
ATOM     17  C   UNL     1       7.462  43.531  48.846  1.00  0.00     0.011 C 
BRANCH  12  18
ATOM     18  C   UNL     1       3.142  43.976  52.876  1.00  0.00     0.019 A 
ATOM     19  C   UNL     1       2.757  44.847  53.916  1.00  0.00     0.012 A 
ATOM     20  C   UNL     1       2.288  42.889  52.606  1.00  0.00     0.012 A 
ATOM     21  C   UNL     1       1.582  44.642  54.646  1.00  0.00     0.001 A 
ATOM     22  C   UNL     1       1.112  42.680  53.335  1.00  0.00     0.001 A 
ATOM     23  C   UNL     1       0.760  43.557  54.355  1.00  0.00     0.000 A 
ENDBRANCH  12  18
ENDBRANCH   7   9
ENDBRANCH   1   7
TORSDOF 6
ENDMDL
MODEL 14
REMARK VINA RESULT:    -7.570      2.010      4.082
REMARK INTER + INTRA:         -10.899
REMARK INTER:                 -10.565
REMARK INTRA:                  -0.334
REMARK UNBOUND:                -0.674
REMARK SMILES COC(CNc1nc(-c2ccccc2)nc2c1CCC2)OC
REMARK SMILES IDX 4 1 3 2 2 3 1 4 21 5 22 6 5 7 6 9 7 10 17 11 8 12 16 13
REMARK SMILES IDX 18 14 15 15 20 16 19 17 9 18 10 19 14 20 11 21 13 22 12 23
REMARK H PARENT 5 8
ROOT
ATOM      1  C   UNL     1       3.884  46.342  55.287  1.00  0.00     0.176 C 
ENDROOT
BRANCH   1   2
ATOM      2  C   UNL     1       4.608  47.003  54.089  1.00  0.00     0.268 C 
BRANCH   2   3
ATOM      3  O   UNL     1       3.717  47.962  53.511  1.00  0.00    -0.354 OA
ATOM      4  C   UNL     1       3.081  47.478  52.340  1.00  0.00     0.198 C 
ENDBRANCH   2   3
BRANCH   2   5
ATOM      5  O   UNL     1       5.797  47.643  54.573  1.00  0.00    -0.354 OA
ATOM      6  C   UNL     1       6.919  46.771  54.567  1.00  0.00     0.198 C 
ENDBRANCH   2   5
ENDBRANCH   1   2
BRANCH   1   7
ATOM      7  N   UNL     1       3.910  44.873  55.167  1.00  0.00    -0.365 N 
ATOM      8  H   UNL     1       3.169  44.477  55.741  1.00  0.00     0.162 HD
BRANCH   7   9
ATOM      9  C   UNL     1       3.769  44.400  53.852  1.00  0.00     0.133 A 
ATOM     10  N   UNL     1       4.821  44.366  53.017  1.00  0.00    -0.211 NA
ATOM     11  C   UNL     1       2.555  43.913  53.442  1.00  0.00     0.016 A 
ATOM     12  C   UNL     1       4.640  43.881  51.762  1.00  0.00     0.161 A 
ATOM     13  C   UNL     1       2.461  43.443  52.149  1.00  0.00     0.050 A 
ATOM     14  C   UNL     1       1.247  43.826  54.147  1.00  0.00     0.042 C 
ATOM     15  N   UNL     1       3.469  43.417  51.277  1.00  0.00    -0.233 NA
ATOM     16  C   UNL     1       1.061  43.000  51.837  1.00  0.00     0.057 C 
ATOM     17  C   UNL     1       0.491  42.833  53.252  1.00  0.00     0.011 C 
BRANCH  12  18
ATOM     18  C   UNL     1       5.811  43.869  50.860  1.00  0.00     0.019 A 
ATOM     19  C   UNL     1       6.121  42.745  50.068  1.00  0.00     0.012 A 
ATOM     20  C   UNL     1       6.669  44.982  50.751  1.00  0.00     0.012 A 
ATOM     21  C   UNL     1       7.229  42.732  49.215  1.00  0.00     0.001 A 
ATOM     22  C   UNL     1       7.778  44.973  49.898  1.00  0.00     0.001 A 
ATOM     23  C   UNL     1       8.057  43.847  49.130  1.00  0.00     0.000 A 
ENDBRANCH  12  18
ENDBRANCH   7   9
ENDBRANCH   1   7
TORSDOF 6
ENDMDL
MODEL 15
REMARK VINA RESULT:    -7.503      2.413      5.380
REMARK INTER + INTRA:         -10.808
REMARK INTER:                 -10.095
REMARK INTRA:                  -0.713
REMARK UNBOUND:                -0.674
REMARK SMILES COC(CNc1nc(-c2ccccc2)nc2c1CCC2)OC
REMARK SMILES IDX 4 1 3 2 2 3 1 4 21 5 22 6 5 7 6 9 7 10 17 11 8 12 16 13
REMARK SMILES IDX 18 14 15 15 20 16 19 17 9 18 10 19 14 20 11 21 13 22 12 23
REMARK H PARENT 5 8
ROOT
ATOM      1  C   UNL     1       6.565  47.229  52.689  1.00  0.00     0.176 C 
ENDROOT
BRANCH   1   2
ATOM      2  C   UNL     1       7.607  46.814  53.757  1.00  0.00     0.268 C 
BRANCH   2   3
ATOM      3  O   UNL     1       8.463  47.937  53.996  1.00  0.00    -0.354 OA
ATOM      4  C   UNL     1       9.697  47.563  54.585  1.00  0.00     0.198 C 
ENDBRANCH   2   3
BRANCH   2   5
ATOM      5  O   UNL     1       6.908  46.446  54.955  1.00  0.00    -0.354 OA
ATOM      6  C   UNL     1       5.537  46.818  54.913  1.00  0.00     0.198 C 
ENDBRANCH   2   5
ENDBRANCH   1   2
BRANCH   1   7
ATOM      7  N   UNL     1       6.758  46.460  51.447  1.00  0.00    -0.365 N 
ATOM      8  H   UNL     1       7.743  46.221  51.350  1.00  0.00     0.162 HD
BRANCH   7   9
ATOM      9  C   UNL     1       5.996  45.282  51.373  1.00  0.00     0.133 A 
ATOM     10  N   UNL     1       4.847  45.164  52.059  1.00  0.00    -0.211 NA
ATOM     11  C   UNL     1       6.405  44.269  50.546  1.00  0.00     0.016 A 
ATOM     12  C   UNL     1       4.134  44.014  51.941  1.00  0.00     0.161 A 
ATOM     13  C   UNL     1       5.622  43.136  50.491  1.00  0.00     0.050 A 
ATOM     14  C   UNL     1       7.612  44.137  49.683  1.00  0.00     0.042 C 
ATOM     15  N   UNL     1       4.490  42.963  51.174  1.00  0.00    -0.233 NA
ATOM     16  C   UNL     1       6.231  42.103  49.588  1.00  0.00     0.057 C 
ATOM     17  C   UNL     1       7.202  42.968  48.774  1.00  0.00     0.011 C 
BRANCH  12  18
ATOM     18  C   UNL     1       2.881  43.906  52.718  1.00  0.00     0.019 A 
ATOM     19  C   UNL     1       2.087  42.742  52.680  1.00  0.00     0.012 A 
ATOM     20  C   UNL     1       2.424  44.962  53.531  1.00  0.00     0.012 A 
ATOM     21  C   UNL     1       0.902  42.638  53.414  1.00  0.00     0.001 A 
ATOM     22  C   UNL     1       1.238  44.862  54.268  1.00  0.00     0.001 A 
ATOM     23  C   UNL     1       0.478  43.699  54.208  1.00  0.00     0.000 A 
ENDBRANCH  12  18
ENDBRANCH   7   9
ENDBRANCH   1   7
TORSDOF 6
ENDMDL
MODEL 16
REMARK VINA RESULT:    -7.416      1.482      2.070
REMARK INTER + INTRA:         -10.691
REMARK INTER:                 -10.050
REMARK INTRA:                  -0.641
REMARK UNBOUND:                -0.674
REMARK SMILES COC(CNc1nc(-c2ccccc2)nc2c1CCC2)OC
REMARK SMILES IDX 4 1 3 2 2 3 1 4 21 5 22 6 5 7 6 9 7 10 17 11 8 12 16 13
REMARK SMILES IDX 18 14 15 15 20 16 19 17 9 18 10 19 14 20 11 21 13 22 12 23
REMARK H PARENT 5 8
ROOT
ATOM      1  C   UNL     1       2.282  45.689  54.651  1.00  0.00     0.176 C 
ENDROOT
BRANCH   1   2
ATOM      2  C   UNL     1       0.836  45.270  55.012  1.00  0.00     0.268 C 
BRANCH   2   3
ATOM      3  O   UNL     1       0.506  44.116  54.232  1.00  0.00    -0.354 OA
ATOM      4  C   UNL     1      -0.822  43.671  54.455  1.00  0.00     0.198 C 
ENDBRANCH   2   3
BRANCH   2   5
ATOM      5  O   UNL     1       0.787  44.965  56.414  1.00  0.00    -0.354 OA
ATOM      6  C   UNL     1       0.118  45.972  57.160  1.00  0.00     0.198 C 
ENDBRANCH   2   5
ENDBRANCH   1   2
BRANCH   1   7
ATOM      7  N   UNL     1       3.188  44.528  54.695  1.00  0.00    -0.365 N 
ATOM      8  H   UNL     1       2.644  43.674  54.587  1.00  0.00     0.162 HD
BRANCH   7   9
ATOM      9  C   UNL     1       4.199  44.548  53.721  1.00  0.00     0.133 A 
ATOM     10  N   UNL     1       5.323  45.258  53.911  1.00  0.00    -0.211 NA
ATOM     11  C   UNL     1       4.057  43.784  52.591  1.00  0.00     0.016 A 
ATOM     12  C   UNL     1       6.281  45.231  52.949  1.00  0.00     0.161 A 
ATOM     13  C   UNL     1       5.078  43.820  51.666  1.00  0.00     0.050 A 
ATOM     14  C   UNL     1       2.939  42.913  52.134  1.00  0.00     0.042 C 
ATOM     15  N   UNL     1       6.197  44.532  51.798  1.00  0.00    -0.233 NA
ATOM     16  C   UNL     1       4.747  42.979  50.466  1.00  0.00     0.057 C 
ATOM     17  C   UNL     1       3.632  42.092  51.035  1.00  0.00     0.011 C 
BRANCH  12  18
ATOM     18  C   UNL     1       7.501  46.035  53.178  1.00  0.00     0.019 A 
ATOM     19  C   UNL     1       7.661  46.817  54.340  1.00  0.00     0.012 A 
ATOM     20  C   UNL     1       8.557  46.054  52.246  1.00  0.00     0.012 A 
ATOM     21  C   UNL     1       8.814  47.578  54.558  1.00  0.00     0.001 A 
ATOM     22  C   UNL     1       9.713  46.814  52.461  1.00  0.00     0.001 A 
ATOM     23  C   UNL     1       9.840  47.575  53.618  1.00  0.00     0.000 A 
ENDBRANCH  12  18
ENDBRANCH   7   9
ENDBRANCH   1   7
TORSDOF 6
ENDMDL
MODEL 17
REMARK VINA RESULT:    -7.325      2.652      6.218
REMARK INTER + INTRA:         -10.568
REMARK INTER:                  -9.911
REMARK INTRA:                  -0.656
REMARK UNBOUND:                -0.674
REMARK SMILES COC(CNc1nc(-c2ccccc2)nc2c1CCC2)OC
REMARK SMILES IDX 4 1 3 2 2 3 1 4 21 5 22 6 5 7 6 9 7 10 17 11 8 12 16 13
REMARK SMILES IDX 18 14 15 15 20 16 19 17 9 18 10 19 14 20 11 21 13 22 12 23
REMARK H PARENT 5 8
ROOT
ATOM      1  C   UNL     1       6.700  46.817  54.531  1.00  0.00     0.176 C 
ENDROOT
BRANCH   1   2
ATOM      2  C   UNL     1       8.095  47.224  53.996  1.00  0.00     0.268 C 
BRANCH   2   3
ATOM      3  O   UNL     1       7.900  48.116  52.893  1.00  0.00    -0.354 OA
ATOM      4  C   UNL     1       8.647  47.736  51.749  1.00  0.00     0.198 C 
ENDBRANCH   2   3
BRANCH   2   5
ATOM      5  O   UNL     1       8.815  47.875  55.053  1.00  0.00    -0.354 OA
ATOM      6  C   UNL     1      10.163  47.435  55.135  1.00  0.00     0.198 C 
ENDBRANCH   2   5
ENDBRANCH   1   2
BRANCH   1   7
ATOM      7  N   UNL     1       5.658  47.080  53.522  1.00  0.00    -0.365 N 
ATOM      8  H   UNL     1       6.101  47.304  52.633  1.00  0.00     0.162 HD
BRANCH   7   9
ATOM      9  C   UNL     1       4.762  46.017  53.328  1.00  0.00     0.133 A 
ATOM     10  N   UNL     1       3.623  45.939  54.037  1.00  0.00    -0.211 NA
ATOM     11  C   UNL     1       5.029  45.083  52.361  1.00  0.00     0.016 A 
ATOM     12  C   UNL     1       2.779  44.902  53.800  1.00  0.00     0.161 A 
ATOM     13  C   UNL     1       4.117  44.063  52.190  1.00  0.00     0.050 A 
ATOM     14  C   UNL     1       6.190  44.932  51.441  1.00  0.00     0.042 C 
ATOM     15  N   UNL     1       2.990  43.930  52.890  1.00  0.00    -0.233 NA
ATOM     16  C   UNL     1       4.579  43.097  51.138  1.00  0.00     0.057 C 
ATOM     17  C   UNL     1       5.623  43.949  50.405  1.00  0.00     0.011 C 
BRANCH  12  18
ATOM     18  C   UNL     1       1.541  44.834  54.606  1.00  0.00     0.019 A 
ATOM     19  C   UNL     1       1.518  45.233  55.958  1.00  0.00     0.012 A 
ATOM     20  C   UNL     1       0.329  44.366  54.059  1.00  0.00     0.012 A 
ATOM     21  C   UNL     1       0.348  45.169  56.721  1.00  0.00     0.001 A 
ATOM     22  C   UNL     1      -0.843  44.300  54.820  1.00  0.00     0.001 A 
ATOM     23  C   UNL     1      -0.833  44.702  56.151  1.00  0.00     0.000 A 
ENDBRANCH  12  18
ENDBRANCH   7   9
ENDBRANCH   1   7
TORSDOF 6
ENDMDL
MODEL 18
REMARK VINA RESULT:    -7.292      2.833      4.852
REMARK INTER + INTRA:         -10.523
REMARK INTER:                  -9.905
REMARK INTRA:                  -0.618
REMARK UNBOUND:                -0.674
REMARK SMILES COC(CNc1nc(-c2ccccc2)nc2c1CCC2)OC
REMARK SMILES IDX 4 1 3 2 2 3 1 4 21 5 22 6 5 7 6 9 7 10 17 11 8 12 16 13
REMARK SMILES IDX 18 14 15 15 20 16 19 17 9 18 10 19 14 20 11 21 13 22 12 23
REMARK H PARENT 5 8
ROOT
ATOM      1  C   UNL     1       5.386  42.429  50.391  1.00  0.00     0.176 C 
ENDROOT
BRANCH   1   2
ATOM      2  C   UNL     1       5.728  41.547  49.165  1.00  0.00     0.268 C 
BRANCH   2   3
ATOM      3  O   UNL     1       4.552  40.812  48.811  1.00  0.00    -0.354 OA
ATOM      4  C   UNL     1       3.562  40.848  49.826  1.00  0.00     0.198 C 
ENDBRANCH   2   3
BRANCH   2   5
ATOM      5  O   UNL     1       6.135  42.403  48.088  1.00  0.00    -0.354 OA
ATOM      6  C   UNL     1       5.689  41.927  46.825  1.00  0.00     0.198 C 
ENDBRANCH   2   5
ENDBRANCH   1   2
BRANCH   1   7
ATOM      7  N   UNL     1       5.291  43.848  50.002  1.00  0.00    -0.365 N 
ATOM      8  H   UNL     1       4.430  43.994  49.478  1.00  0.00     0.162 HD
BRANCH   7   9
ATOM      9  C   UNL     1       5.324  44.745  51.081  1.00  0.00     0.133 A 
ATOM     10  N   UNL     1       6.494  45.182  51.576  1.00  0.00    -0.211 NA
ATOM     11  C   UNL     1       4.146  45.223  51.592  1.00  0.00     0.016 A 
ATOM     12  C   UNL     1       6.476  46.065  52.607  1.00  0.00     0.161 A 
ATOM     13  C   UNL     1       4.221  46.114  52.641  1.00  0.00     0.050 A 
ATOM     14  C   UNL     1       2.731  44.920  51.238  1.00  0.00     0.042 C 
ATOM     15  N   UNL     1       5.358  46.553  53.183  1.00  0.00    -0.233 NA
ATOM     16  C   UNL     1       2.852  46.498  53.122  1.00  0.00     0.057 C 
ATOM     17  C   UNL     1       1.998  46.088  51.915  1.00  0.00     0.011 C 
BRANCH  12  18
ATOM     18  C   UNL     1       7.778  46.517  53.142  1.00  0.00     0.019 A 
ATOM     19  C   UNL     1       7.878  47.171  54.386  1.00  0.00     0.012 A 
ATOM     20  C   UNL     1       8.977  46.313  52.431  1.00  0.00     0.012 A 
ATOM     21  C   UNL     1       9.109  47.599  54.893  1.00  0.00     0.001 A 
ATOM     22  C   UNL     1      10.212  46.740  52.934  1.00  0.00     0.001 A 
ATOM     23  C   UNL     1      10.276  47.383  54.166  1.00  0.00     0.000 A 
ENDBRANCH  12  18
ENDBRANCH   7   9
ENDBRANCH   1   7
TORSDOF 6
ENDMDL
MODEL 19
REMARK VINA RESULT:    -7.226      2.627      6.091
REMARK INTER + INTRA:         -10.435
REMARK INTER:                  -9.788
REMARK INTRA:                  -0.647
REMARK UNBOUND:                -0.674
REMARK SMILES COC(CNc1nc(-c2ccccc2)nc2c1CCC2)OC
REMARK SMILES IDX 4 1 3 2 2 3 1 4 21 5 22 6 5 7 6 9 7 10 17 11 8 12 16 13
REMARK SMILES IDX 18 14 15 15 20 16 19 17 9 18 10 19 14 20 11 21 13 22 12 23
REMARK H PARENT 5 8
ROOT
ATOM      1  C   UNL     1       7.626  44.027  49.936  1.00  0.00     0.176 C 
ENDROOT
BRANCH   1   2
ATOM      2  C   UNL     1       6.432  43.209  49.384  1.00  0.00     0.268 C 
BRANCH   2   3
ATOM      3  O   UNL     1       6.820  42.666  48.118  1.00  0.00    -0.354 OA
ATOM      4  C   UNL     1       5.762  41.972  47.477  1.00  0.00     0.198 C 
ENDBRANCH   2   3
BRANCH   2   5
ATOM      5  O   UNL     1       6.131  42.160  50.316  1.00  0.00    -0.354 OA
ATOM      6  C   UNL     1       4.789  42.219  50.777  1.00  0.00     0.198 C 
ENDBRANCH   2   5
ENDBRANCH   1   2
BRANCH   1   7
ATOM      7  N   UNL     1       7.246  45.439  50.126  1.00  0.00    -0.365 N 
ATOM      8  H   UNL     1       6.433  45.648  49.550  1.00  0.00     0.162 HD
BRANCH   7   9
ATOM      9  C   UNL     1       6.960  45.785  51.457  1.00  0.00     0.133 A 
ATOM     10  N   UNL     1       5.776  45.471  52.009  1.00  0.00    -0.211 NA
ATOM     11  C   UNL     1       7.926  46.396  52.214  1.00  0.00     0.016 A 
ATOM     12  C   UNL     1       5.553  45.808  53.305  1.00  0.00     0.161 A 
ATOM     13  C   UNL     1       7.611  46.705  53.519  1.00  0.00     0.050 A 
ATOM     14  C   UNL     1       9.302  46.846  51.866  1.00  0.00     0.042 C 
ATOM     15  N   UNL     1       6.441  46.439  54.100  1.00  0.00    -0.233 NA
ATOM     16  C   UNL     1       8.747  47.418  54.194  1.00  0.00     0.057 C 
ATOM     17  C   UNL     1       9.910  47.051  53.262  1.00  0.00     0.011 C 
BRANCH  12  18
ATOM     18  C   UNL     1       4.236  45.464  53.882  1.00  0.00     0.019 A 
ATOM     19  C   UNL     1       3.836  45.944  55.146  1.00  0.00     0.012 A 
ATOM     20  C   UNL     1       3.322  44.640  53.195  1.00  0.00     0.012 A 
ATOM     21  C   UNL     1       2.590  45.619  55.693  1.00  0.00     0.001 A 
ATOM     22  C   UNL     1       2.075  44.313  53.739  1.00  0.00     0.001 A 
ATOM     23  C   UNL     1       1.710  44.803  54.988  1.00  0.00     0.000 A 
ENDBRANCH  12  18
ENDBRANCH   7   9
ENDBRANCH   1   7
TORSDOF 6
ENDMDL
