MODEL 1
REMARK VINA RESULT:    -8.384      0.000      0.000
REMARK INTER + INTRA:         -13.450
REMARK INTER:                 -12.305
REMARK INTRA:                  -1.145
REMARK UNBOUND:                -1.145
REMARK SMILES CCOCCCNc1nc(Nc2ccc(F)cc2Cl)c2cnn(C)c2n1
REMARK SMILES IDX 6 1 5 2 4 3 3 4 2 5 1 6 7 7 8 9 9 10 26 11 10 12 25 13 20 14
REMARK SMILES IDX 23 15 21 16 22 17 24 18 11 19 12 21 13 22 18 23 14 24 17 25
REMARK SMILES IDX 15 26 19 27 16 28
REMARK H PARENT 7 8 11 20
ROOT
ATOM      1  C   UNL     1       4.165  45.617  55.359  1.00  0.00     0.118 C 
ENDROOT
BRANCH   1   2
ATOM      2  C   UNL     1       2.647  45.724  55.497  1.00  0.00     0.050 C 
BRANCH   2   3
ATOM      3  C   UNL     1       1.932  45.739  54.148  1.00  0.00     0.162 C 
BRANCH   3   4
ATOM      4  O   UNL     1       2.468  46.771  53.317  1.00  0.00    -0.382 OA
BRANCH   4   5
ATOM      5  C   UNL     1       2.397  46.493  51.921  1.00  0.00     0.156 C 
ATOM      6  C   UNL     1       1.616  45.216  51.668  1.00  0.00     0.035 C 
ENDBRANCH   4   5
ENDBRANCH   3   4
ENDBRANCH   2   3
ENDBRANCH   1   2
BRANCH   1   7
ATOM      7  N   UNL     1       4.781  46.873  54.968  1.00  0.00    -0.354 N 
ATOM      8  H   UNL     1       4.187  47.491  54.424  1.00  0.00     0.163 HD
BRANCH   7   9
ATOM      9  C   UNL     1       5.961  46.776  54.237  1.00  0.00     0.226 A 
ATOM     10  N   UNL     1       5.797  46.336  52.977  1.00  0.00    -0.195 NA
ATOM     11  N   UNL     1       7.127  47.106  54.800  1.00  0.00    -0.193 NA
ATOM     12  C   UNL     1       6.866  46.207  52.148  1.00  0.00     0.147 A 
ATOM     13  C   UNL     1       8.167  46.976  53.965  1.00  0.00     0.165 A 
ATOM     14  C   UNL     1       8.125  46.541  52.654  1.00  0.00     0.082 A 
ATOM     15  N   UNL     1       9.479  47.252  54.235  1.00  0.00    -0.250 N 
ATOM     16  C   UNL     1       9.471  46.583  52.237  1.00  0.00     0.149 A 
ATOM     17  N   UNL     1      10.306  47.007  53.193  1.00  0.00    -0.179 NA
ATOM     18  C   UNL     1      10.023  47.754  55.471  1.00  0.00     0.176 C 
BRANCH  12  19
ATOM     19  N   UNL     1       6.573  45.742  50.845  1.00  0.00    -0.338 N 
ATOM     20  H   UNL     1       7.434  45.951  50.335  1.00  0.00     0.168 HD
BRANCH  19  21
ATOM     21  C   UNL     1       6.121  44.437  50.540  1.00  0.00     0.059 A 
ATOM     22  C   UNL     1       4.926  43.987  51.121  1.00  0.00     0.031 A 
ATOM     23  C   UNL     1       6.851  43.556  49.717  1.00  0.00     0.067 A 
ATOM     24  C   UNL     1       4.466  42.691  50.880  1.00  0.00     0.041 A 
ATOM     25  C   UNL     1       6.391  42.261  49.477  1.00  0.00     0.062 A 
ATOM     26  C   UNL     1       5.203  41.843  50.061  1.00  0.00     0.124 A 
ATOM     27  Cl  UNL     1       8.323  44.055  48.964  1.00  0.00    -0.082 Cl
ATOM     28  F   UNL     1       4.758  40.601  49.832  1.00  0.00    -0.207 F 
ENDBRANCH  19  21
ENDBRANCH  12  19
ENDBRANCH   7   9
ENDBRANCH   1   7
TORSDOF 8
ENDMDL
MODEL 2
REMARK VINA RESULT:    -8.305      2.833      5.379
REMARK INTER + INTRA:         -13.335
REMARK INTER:                 -11.625
REMARK INTRA:                  -1.710
REMARK UNBOUND:                -1.145
REMARK SMILES CCOCCCNc1nc(Nc2ccc(F)cc2Cl)c2cnn(C)c2n1
REMARK SMILES IDX 6 1 5 2 4 3 3 4 2 5 1 6 7 7 8 9 9 10 26 11 10 12 25 13 20 14
REMARK SMILES IDX 23 15 21 16 22 17 24 18 11 19 12 21 13 22 18 23 14 24 17 25
REMARK SMILES IDX 15 26 19 27 16 28
REMARK H PARENT 7 8 11 20
ROOT
ATOM      1  C   UNL     1       1.643  45.379  52.623  1.00  0.00     0.118 C 
ENDROOT
BRANCH   1   2
ATOM      2  C   UNL     1       1.602  45.663  54.124  1.00  0.00     0.050 C 
BRANCH   2   3
ATOM      3  C   UNL     1       2.896  45.274  54.834  1.00  0.00     0.162 C 
BRANCH   3   4
ATOM      4  O   UNL     1       3.843  46.343  54.753  1.00  0.00    -0.382 OA
BRANCH   4   5
ATOM      5  C   UNL     1       5.173  45.974  55.110  1.00  0.00     0.156 C 
ATOM      6  C   UNL     1       5.528  44.619  54.525  1.00  0.00     0.035 C 
ENDBRANCH   4   5
ENDBRANCH   3   4
ENDBRANCH   2   3
ENDBRANCH   1   2
BRANCH   1   7
ATOM      7  N   UNL     1       2.683  46.128  51.940  1.00  0.00    -0.354 N 
ATOM      8  H   UNL     1       2.364  46.691  51.158  1.00  0.00     0.163 HD
BRANCH   7   9
ATOM      9  C   UNL     1       3.745  45.384  51.435  1.00  0.00     0.226 A 
ATOM     10  N   UNL     1       4.881  46.083  51.270  1.00  0.00    -0.195 NA
ATOM     11  N   UNL     1       3.582  44.088  51.155  1.00  0.00    -0.193 NA
ATOM     12  C   UNL     1       6.002  45.477  50.798  1.00  0.00     0.147 A 
ATOM     13  C   UNL     1       4.698  43.507  50.694  1.00  0.00     0.165 A 
ATOM     14  C   UNL     1       5.922  44.116  50.488  1.00  0.00     0.082 A 
ATOM     15  N   UNL     1       4.859  42.196  50.339  1.00  0.00    -0.250 N 
ATOM     16  C   UNL     1       6.741  43.079  49.996  1.00  0.00     0.149 A 
ATOM     17  N   UNL     1       6.102  41.907  49.895  1.00  0.00    -0.179 NA
ATOM     18  C   UNL     1       3.865  41.154  50.398  1.00  0.00     0.176 C 
BRANCH  12  19
ATOM     19  N   UNL     1       7.138  46.308  50.673  1.00  0.00    -0.338 N 
ATOM     20  H   UNL     1       6.737  47.184  50.330  1.00  0.00     0.168 HD
BRANCH  19  21
ATOM     21  C   UNL     1       8.067  46.561  51.708  1.00  0.00     0.059 A 
ATOM     22  C   UNL     1       7.698  47.430  52.746  1.00  0.00     0.031 A 
ATOM     23  C   UNL     1       9.365  46.013  51.711  1.00  0.00     0.067 A 
ATOM     24  C   UNL     1       8.599  47.739  53.766  1.00  0.00     0.041 A 
ATOM     25  C   UNL     1      10.267  46.323  52.730  1.00  0.00     0.062 A 
ATOM     26  C   UNL     1       9.873  47.183  53.746  1.00  0.00     0.124 A 
ATOM     27  Cl  UNL     1       9.877  44.928  50.468  1.00  0.00    -0.082 Cl
ATOM     28  F   UNL     1      10.735  47.482  54.726  1.00  0.00    -0.207 F 
ENDBRANCH  19  21
ENDBRANCH  12  19
ENDBRANCH   7   9
ENDBRANCH   1   7
TORSDOF 8
ENDMDL
MODEL 3
REMARK VINA RESULT:    -8.077      1.257      1.885
REMARK INTER + INTRA:         -13.000
REMARK INTER:                 -12.223
REMARK INTRA:                  -0.777
REMARK UNBOUND:                -1.145
REMARK SMILES CCOCCCNc1nc(Nc2ccc(F)cc2Cl)c2cnn(C)c2n1
REMARK SMILES IDX 6 1 5 2 4 3 3 4 2 5 1 6 7 7 8 9 9 10 26 11 10 12 25 13 20 14
REMARK SMILES IDX 23 15 21 16 22 17 24 18 11 19 12 21 13 22 18 23 14 24 17 25
REMARK SMILES IDX 15 26 19 27 16 28
REMARK H PARENT 7 8 11 20
ROOT
ATOM      1  C   UNL     1       3.658  46.622  54.552  1.00  0.00     0.118 C 
ENDROOT
BRANCH   1   2
ATOM      2  C   UNL     1       3.328  45.345  55.322  1.00  0.00     0.050 C 
BRANCH   2   3
ATOM      3  C   UNL     1       1.920  44.829  55.036  1.00  0.00     0.162 C 
BRANCH   3   4
ATOM      4  O   UNL     1       1.193  44.674  56.258  1.00  0.00    -0.382 OA
BRANCH   4   5
ATOM      5  C   UNL     1       0.410  45.808  56.620  1.00  0.00     0.156 C 
ATOM      6  C   UNL     1       0.886  46.389  57.940  1.00  0.00     0.035 C 
ENDBRANCH   4   5
ENDBRANCH   3   4
ENDBRANCH   2   3
ENDBRANCH   1   2
BRANCH   1   7
ATOM      7  N   UNL     1       4.919  47.214  54.964  1.00  0.00    -0.354 N 
ATOM      8  H   UNL     1       4.909  48.225  55.056  1.00  0.00     0.163 HD
BRANCH   7   9
ATOM      9  C   UNL     1       6.018  46.939  54.157  1.00  0.00     0.226 A 
ATOM     10  N   UNL     1       5.706  46.430  52.952  1.00  0.00    -0.195 NA
ATOM     11  N   UNL     1       7.254  47.181  54.602  1.00  0.00    -0.193 NA
ATOM     12  C   UNL     1       6.683  46.129  52.057  1.00  0.00     0.147 A 
ATOM     13  C   UNL     1       8.203  46.881  53.705  1.00  0.00     0.165 A 
ATOM     14  C   UNL     1       8.008  46.361  52.439  1.00  0.00     0.082 A 
ATOM     15  N   UNL     1       9.554  47.032  53.852  1.00  0.00    -0.250 N 
ATOM     16  C   UNL     1       9.312  46.227  51.920  1.00  0.00     0.149 A 
ATOM     17  N   UNL     1      10.262  46.627  52.774  1.00  0.00    -0.179 NA
ATOM     18  C   UNL     1      10.247  47.560  55.000  1.00  0.00     0.176 C 
BRANCH  12  19
ATOM     19  N   UNL     1       6.238  45.607  50.822  1.00  0.00    -0.338 N 
ATOM     20  H   UNL     1       7.060  45.716  50.223  1.00  0.00     0.168 HD
BRANCH  19  21
ATOM     21  C   UNL     1       5.667  44.324  50.650  1.00  0.00     0.059 A 
ATOM     22  C   UNL     1       4.401  44.073  51.200  1.00  0.00     0.031 A 
ATOM     23  C   UNL     1       6.342  43.277  49.992  1.00  0.00     0.067 A 
ATOM     24  C   UNL     1       3.820  42.809  51.090  1.00  0.00     0.041 A 
ATOM     25  C   UNL     1       5.762  42.013  49.883  1.00  0.00     0.062 A 
ATOM     26  C   UNL     1       4.506  41.793  50.433  1.00  0.00     0.124 A 
ATOM     27  Cl  UNL     1       7.898  43.527  49.284  1.00  0.00    -0.082 Cl
ATOM     28  F   UNL     1       3.945  40.582  50.329  1.00  0.00    -0.207 F 
ENDBRANCH  19  21
ENDBRANCH  12  19
ENDBRANCH   7   9
ENDBRANCH   1   7
TORSDOF 8
ENDMDL
MODEL 4
REMARK VINA RESULT:    -8.026      2.869      6.064
REMARK INTER + INTRA:         -12.926
REMARK INTER:                 -12.053
REMARK INTRA:                  -0.873
REMARK UNBOUND:                -1.145
REMARK SMILES CCOCCCNc1nc(Nc2ccc(F)cc2Cl)c2cnn(C)c2n1
REMARK SMILES IDX 6 1 5 2 4 3 3 4 2 5 1 6 7 7 8 9 9 10 26 11 10 12 25 13 20 14
REMARK SMILES IDX 23 15 21 16 22 17 24 18 11 19 12 21 13 22 18 23 14 24 17 25
REMARK SMILES IDX 15 26 19 27 16 28
REMARK H PARENT 7 8 11 20
ROOT
ATOM      1  C   UNL     1       5.532  45.324  54.960  1.00  0.00     0.118 C 
ENDROOT
BRANCH   1   2
ATOM      2  C   UNL     1       6.076  46.702  54.588  1.00  0.00     0.050 C 
BRANCH   2   3
ATOM      3  C   UNL     1       7.517  46.651  54.083  1.00  0.00     0.162 C 
BRANCH   3   4
ATOM      4  O   UNL     1       8.350  47.496  54.882  1.00  0.00    -0.382 OA
BRANCH   4   5
ATOM      5  C   UNL     1       9.704  47.565  54.444  1.00  0.00     0.156 C 
ATOM      6  C   UNL     1       9.868  46.874  53.102  1.00  0.00     0.035 C 
ENDBRANCH   4   5
ENDBRANCH   3   4
ENDBRANCH   2   3
ENDBRANCH   1   2
BRANCH   1   7
ATOM      7  N   UNL     1       4.311  45.398  55.744  1.00  0.00    -0.354 N 
ATOM      8  H   UNL     1       4.289  44.798  56.562  1.00  0.00     0.163 HD
BRANCH   7   9
ATOM      9  C   UNL     1       3.129  45.121  55.065  1.00  0.00     0.226 A 
ATOM     10  N   UNL     1       3.290  44.857  53.757  1.00  0.00    -0.195 NA
ATOM     11  N   UNL     1       1.962  45.134  55.717  1.00  0.00    -0.193 NA
ATOM     12  C   UNL     1       2.219  44.556  52.977  1.00  0.00     0.147 A 
ATOM     13  C   UNL     1       0.920  44.831  54.932  1.00  0.00     0.165 A 
ATOM     14  C   UNL     1       0.959  44.537  53.582  1.00  0.00     0.082 A 
ATOM     15  N   UNL     1      -0.394  44.743  55.304  1.00  0.00    -0.250 N 
ATOM     16  C   UNL     1      -0.389  44.302  53.244  1.00  0.00     0.149 A 
ATOM     17  N   UNL     1      -1.223  44.431  54.283  1.00  0.00    -0.179 NA
ATOM     18  C   UNL     1      -0.936  44.944  56.624  1.00  0.00     0.176 C 
BRANCH  12  19
ATOM     19  N   UNL     1       2.510  44.290  51.619  1.00  0.00    -0.338 N 
ATOM     20  H   UNL     1       2.517  45.225  51.205  1.00  0.00     0.168 HD
BRANCH  19  21
ATOM     21  C   UNL     1       3.620  43.540  51.167  1.00  0.00     0.059 A 
ATOM     22  C   UNL     1       3.510  42.143  51.111  1.00  0.00     0.031 A 
ATOM     23  C   UNL     1       4.848  44.139  50.819  1.00  0.00     0.067 A 
ATOM     24  C   UNL     1       4.595  41.362  50.710  1.00  0.00     0.041 A 
ATOM     25  C   UNL     1       5.933  43.358  50.419  1.00  0.00     0.062 A 
ATOM     26  C   UNL     1       5.794  41.977  50.369  1.00  0.00     0.124 A 
ATOM     27  Cl  UNL     1       5.043  45.855  50.855  1.00  0.00    -0.082 Cl
ATOM     28  F   UNL     1       6.832  41.225  49.985  1.00  0.00    -0.207 F 
ENDBRANCH  19  21
ENDBRANCH  12  19
ENDBRANCH   7   9
ENDBRANCH   1   7
TORSDOF 8
ENDMDL
MODEL 5
REMARK VINA RESULT:    -8.020      3.148      5.543
REMARK INTER + INTRA:         -12.916
REMARK INTER:                 -11.705
REMARK INTRA:                  -1.212
REMARK UNBOUND:                -1.145
REMARK SMILES CCOCCCNc1nc(Nc2ccc(F)cc2Cl)c2cnn(C)c2n1
REMARK SMILES IDX 6 1 5 2 4 3 3 4 2 5 1 6 7 7 8 9 9 10 26 11 10 12 25 13 20 14
REMARK SMILES IDX 23 15 21 16 22 17 24 18 11 19 12 21 13 22 18 23 14 24 17 25
REMARK SMILES IDX 15 26 19 27 16 28
REMARK H PARENT 7 8 11 20
ROOT
ATOM      1  C   UNL     1       2.788  44.952  53.748  1.00  0.00     0.118 C 
ENDROOT
BRANCH   1   2
ATOM      2  C   UNL     1       1.839  45.881  52.991  1.00  0.00     0.050 C 
BRANCH   2   3
ATOM      3  C   UNL     1       0.582  45.167  52.501  1.00  0.00     0.162 C 
BRANCH   3   4
ATOM      4  O   UNL     1       0.830  44.540  51.239  1.00  0.00    -0.382 OA
BRANCH   4   5
ATOM      5  C   UNL     1       0.100  43.334  51.031  1.00  0.00     0.156 C 
ATOM      6  C   UNL     1      -0.190  42.649  52.355  1.00  0.00     0.035 C 
ENDBRANCH   4   5
ENDBRANCH   3   4
ENDBRANCH   2   3
ENDBRANCH   1   2
BRANCH   1   7
ATOM      7  N   UNL     1       3.170  43.787  52.969  1.00  0.00    -0.354 N 
ATOM      8  H   UNL     1       3.402  42.963  53.515  1.00  0.00     0.163 HD
BRANCH   7   9
ATOM      9  C   UNL     1       4.243  43.955  52.101  1.00  0.00     0.226 A 
ATOM     10  N   UNL     1       4.887  45.127  52.236  1.00  0.00    -0.195 NA
ATOM     11  N   UNL     1       4.554  42.994  51.226  1.00  0.00    -0.193 NA
ATOM     12  C   UNL     1       5.964  45.416  51.460  1.00  0.00     0.147 A 
ATOM     13  C   UNL     1       5.621  43.296  50.473  1.00  0.00     0.165 A 
ATOM     14  C   UNL     1       6.365  44.460  50.523  1.00  0.00     0.082 A 
ATOM     15  N   UNL     1       6.195  42.516  49.507  1.00  0.00    -0.250 N 
ATOM     16  C   UNL     1       7.354  44.276  49.535  1.00  0.00     0.149 A 
ATOM     17  N   UNL     1       7.255  43.099  48.904  1.00  0.00    -0.179 NA
ATOM     18  C   UNL     1       5.784  41.196  49.101  1.00  0.00     0.176 C 
BRANCH  12  19
ATOM     19  N   UNL     1       6.565  46.674  51.696  1.00  0.00    -0.338 N 
ATOM     20  H   UNL     1       5.769  47.253  51.972  1.00  0.00     0.168 HD
BRANCH  19  21
ATOM     21  C   UNL     1       7.660  46.891  52.564  1.00  0.00     0.059 A 
ATOM     22  C   UNL     1       8.958  46.843  52.034  1.00  0.00     0.031 A 
ATOM     23  C   UNL     1       7.499  47.104  53.948  1.00  0.00     0.067 A 
ATOM     24  C   UNL     1      10.068  47.011  52.863  1.00  0.00     0.041 A 
ATOM     25  C   UNL     1       8.609  47.270  54.777  1.00  0.00     0.062 A 
ATOM     26  C   UNL     1       9.882  47.222  54.224  1.00  0.00     0.124 A 
ATOM     27  Cl  UNL     1       5.927  47.185  54.659  1.00  0.00    -0.082 Cl
ATOM     28  F   UNL     1      10.950  47.383  55.016  1.00  0.00    -0.207 F 
ENDBRANCH  19  21
ENDBRANCH  12  19
ENDBRANCH   7   9
ENDBRANCH   1   7
TORSDOF 8
ENDMDL
MODEL 6
REMARK VINA RESULT:    -8.020      3.228      5.678
REMARK INTER + INTRA:         -12.915
REMARK INTER:                 -11.581
REMARK INTRA:                  -1.335
REMARK UNBOUND:                -1.145
REMARK SMILES CCOCCCNc1nc(Nc2ccc(F)cc2Cl)c2cnn(C)c2n1
REMARK SMILES IDX 6 1 5 2 4 3 3 4 2 5 1 6 7 7 8 9 9 10 26 11 10 12 25 13 20 14
REMARK SMILES IDX 23 15 21 16 22 17 24 18 11 19 12 21 13 22 18 23 14 24 17 25
REMARK SMILES IDX 15 26 19 27 16 28
REMARK H PARENT 7 8 11 20
ROOT
ATOM      1  C   UNL     1       1.470  43.004  52.444  1.00  0.00     0.118 C 
ENDROOT
BRANCH   1   2
ATOM      2  C   UNL     1       0.422  42.466  53.417  1.00  0.00     0.050 C 
BRANCH   2   3
ATOM      3  C   UNL     1      -0.269  43.571  54.211  1.00  0.00     0.162 C 
BRANCH   3   4
ATOM      4  O   UNL     1       0.560  44.737  54.258  1.00  0.00    -0.382 OA
BRANCH   4   5
ATOM      5  C   UNL     1       0.862  45.187  55.576  1.00  0.00     0.156 C 
ATOM      6  C   UNL     1       2.306  45.645  55.668  1.00  0.00     0.035 C 
ENDBRANCH   4   5
ENDBRANCH   3   4
ENDBRANCH   2   3
ENDBRANCH   1   2
BRANCH   1   7
ATOM      7  N   UNL     1       2.760  43.222  53.075  1.00  0.00    -0.354 N 
ATOM      8  H   UNL     1       2.774  43.947  53.785  1.00  0.00     0.163 HD
BRANCH   7   9
ATOM      9  C   UNL     1       3.815  43.535  52.224  1.00  0.00     0.226 A 
ATOM     10  N   UNL     1       4.328  44.764  52.407  1.00  0.00    -0.195 NA
ATOM     11  N   UNL     1       4.234  42.645  51.320  1.00  0.00    -0.193 NA
ATOM     12  C   UNL     1       5.372  45.195  51.652  1.00  0.00     0.147 A 
ATOM     13  C   UNL     1       5.266  43.087  50.589  1.00  0.00     0.165 A 
ATOM     14  C   UNL     1       5.880  44.321  50.687  1.00  0.00     0.082 A 
ATOM     15  N   UNL     1       5.927  42.408  49.602  1.00  0.00    -0.250 N 
ATOM     16  C   UNL     1       6.889  44.280  49.703  1.00  0.00     0.149 A 
ATOM     17  N   UNL     1       6.923  43.123  49.031  1.00  0.00    -0.179 NA
ATOM     18  C   UNL     1       5.664  41.067  49.146  1.00  0.00     0.176 C 
BRANCH  12  19
ATOM     19  N   UNL     1       5.832  46.501  51.938  1.00  0.00    -0.338 N 
ATOM     20  H   UNL     1       5.039  46.914  52.433  1.00  0.00     0.168 HD
BRANCH  19  21
ATOM     21  C   UNL     1       7.042  46.799  52.606  1.00  0.00     0.059 A 
ATOM     22  C   UNL     1       8.213  46.940  51.847  1.00  0.00     0.031 A 
ATOM     23  C   UNL     1       7.125  46.908  54.009  1.00  0.00     0.067 A 
ATOM     24  C   UNL     1       9.436  47.193  52.471  1.00  0.00     0.041 A 
ATOM     25  C   UNL     1       8.348  47.159  54.633  1.00  0.00     0.062 A 
ATOM     26  C   UNL     1       9.490  47.299  53.856  1.00  0.00     0.124 A 
ATOM     27  Cl  UNL     1       5.718  46.755  54.999  1.00  0.00    -0.082 Cl
ATOM     28  F   UNL     1      10.665  47.542  54.450  1.00  0.00    -0.207 F 
ENDBRANCH  19  21
ENDBRANCH  12  19
ENDBRANCH   7   9
ENDBRANCH   1   7
TORSDOF 8
ENDMDL
MODEL 7
REMARK VINA RESULT:    -7.997      2.894      5.320
REMARK INTER + INTRA:         -12.883
REMARK INTER:                 -11.605
REMARK INTRA:                  -1.277
REMARK UNBOUND:                -1.145
REMARK SMILES CCOCCCNc1nc(Nc2ccc(F)cc2Cl)c2cnn(C)c2n1
REMARK SMILES IDX 6 1 5 2 4 3 3 4 2 5 1 6 7 7 8 9 9 10 26 11 10 12 25 13 20 14
REMARK SMILES IDX 23 15 21 16 22 17 24 18 11 19 12 21 13 22 18 23 14 24 17 25
REMARK SMILES IDX 15 26 19 27 16 28
REMARK H PARENT 7 8 11 20
ROOT
ATOM      1  C   UNL     1       3.228  46.309  53.722  1.00  0.00     0.118 C 
ENDROOT
BRANCH   1   2
ATOM      2  C   UNL     1       3.382  45.300  54.859  1.00  0.00     0.050 C 
BRANCH   2   3
ATOM      3  C   UNL     1       2.047  44.915  55.490  1.00  0.00     0.162 C 
BRANCH   3   4
ATOM      4  O   UNL     1       0.965  45.345  54.659  1.00  0.00    -0.382 OA
BRANCH   4   5
ATOM      5  C   UNL     1      -0.089  44.394  54.533  1.00  0.00     0.156 C 
ATOM      6  C   UNL     1       0.369  43.189  53.730  1.00  0.00     0.035 C 
ENDBRANCH   4   5
ENDBRANCH   3   4
ENDBRANCH   2   3
ENDBRANCH   1   2
BRANCH   1   7
ATOM      7  N   UNL     1       2.828  45.686  52.471  1.00  0.00    -0.354 N 
ATOM      8  H   UNL     1       2.082  45.003  52.551  1.00  0.00     0.163 HD
BRANCH   7   9
ATOM      9  C   UNL     1       3.833  45.037  51.761  1.00  0.00     0.226 A 
ATOM     10  N   UNL     1       4.929  45.784  51.544  1.00  0.00    -0.195 NA
ATOM     11  N   UNL     1       3.659  43.776  51.354  1.00  0.00    -0.193 NA
ATOM     12  C   UNL     1       5.993  45.269  50.875  1.00  0.00     0.147 A 
ATOM     13  C   UNL     1       4.720  43.285  50.699  1.00  0.00     0.165 A 
ATOM     14  C   UNL     1       5.900  43.950  50.421  1.00  0.00     0.082 A 
ATOM     15  N   UNL     1       4.858  42.028  50.179  1.00  0.00    -0.250 N 
ATOM     16  C   UNL     1       6.669  43.001  49.718  1.00  0.00     0.149 A 
ATOM     17  N   UNL     1       6.043  41.829  49.558  1.00  0.00    -0.179 NA
ATOM     18  C   UNL     1       3.896  40.957  50.234  1.00  0.00     0.176 C 
BRANCH  12  19
ATOM     19  N   UNL     1       7.092  46.144  50.712  1.00  0.00    -0.338 N 
ATOM     20  H   UNL     1       6.648  46.998  50.367  1.00  0.00     0.168 HD
BRANCH  19  21
ATOM     21  C   UNL     1       8.033  46.448  51.723  1.00  0.00     0.059 A 
ATOM     22  C   UNL     1       7.649  47.307  52.763  1.00  0.00     0.031 A 
ATOM     23  C   UNL     1       9.356  45.963  51.697  1.00  0.00     0.067 A 
ATOM     24  C   UNL     1       8.559  47.666  53.758  1.00  0.00     0.041 A 
ATOM     25  C   UNL     1      10.267  46.323  52.690  1.00  0.00     0.062 A 
ATOM     26  C   UNL     1       9.857  47.171  53.711  1.00  0.00     0.124 A 
ATOM     27  Cl  UNL     1       9.887  44.893  50.448  1.00  0.00    -0.082 Cl
ATOM     28  F   UNL     1      10.728  47.518  54.667  1.00  0.00    -0.207 F 
ENDBRANCH  19  21
ENDBRANCH  12  19
ENDBRANCH   7   9
ENDBRANCH   1   7
TORSDOF 8
ENDMDL
MODEL 8
REMARK VINA RESULT:    -7.985      3.163      6.243
REMARK INTER + INTRA:         -12.864
REMARK INTER:                 -12.376
REMARK INTRA:                  -0.489
REMARK UNBOUND:                -1.145
REMARK SMILES CCOCCCNc1nc(Nc2ccc(F)cc2Cl)c2cnn(C)c2n1
REMARK SMILES IDX 6 1 5 2 4 3 3 4 2 5 1 6 7 7 8 9 9 10 26 11 10 12 25 13 20 14
REMARK SMILES IDX 23 15 21 16 22 17 24 18 11 19 12 21 13 22 18 23 14 24 17 25
REMARK SMILES IDX 15 26 19 27 16 28
REMARK H PARENT 7 8 11 20
ROOT
ATOM      1  C   UNL     1       4.855  46.699  54.793  1.00  0.00     0.118 C 
ENDROOT
BRANCH   1   2
ATOM      2  C   UNL     1       6.241  46.063  54.866  1.00  0.00     0.050 C 
BRANCH   2   3
ATOM      3  C   UNL     1       7.277  46.806  54.026  1.00  0.00     0.162 C 
BRANCH   3   4
ATOM      4  O   UNL     1       8.111  47.608  54.867  1.00  0.00    -0.382 OA
BRANCH   4   5
ATOM      5  C   UNL     1       9.498  47.544  54.547  1.00  0.00     0.156 C 
ATOM      6  C   UNL     1       9.703  46.932  53.173  1.00  0.00     0.035 C 
ENDBRANCH   4   5
ENDBRANCH   3   4
ENDBRANCH   2   3
ENDBRANCH   1   2
BRANCH   1   7
ATOM      7  N   UNL     1       3.894  46.051  55.669  1.00  0.00    -0.354 N 
ATOM      8  H   UNL     1       4.294  45.404  56.341  1.00  0.00     0.163 HD
BRANCH   7   9
ATOM      9  C   UNL     1       2.879  45.335  55.044  1.00  0.00     0.226 A 
ATOM     10  N   UNL     1       3.215  44.831  53.844  1.00  0.00    -0.195 NA
ATOM     11  N   UNL     1       1.690  45.199  55.638  1.00  0.00    -0.193 NA
ATOM     12  C   UNL     1       2.322  44.097  53.129  1.00  0.00     0.147 A 
ATOM     13  C   UNL     1       0.825  44.470  54.920  1.00  0.00     0.165 A 
ATOM     14  C   UNL     1       1.054  43.897  53.683  1.00  0.00     0.082 A 
ATOM     15  N   UNL     1      -0.457  44.137  55.264  1.00  0.00    -0.250 N 
ATOM     16  C   UNL     1      -0.162  43.255  53.373  1.00  0.00     0.149 A 
ATOM     17  N   UNL     1      -1.092  43.401  54.325  1.00  0.00    -0.179 NA
ATOM     18  C   UNL     1      -1.148  44.489  56.478  1.00  0.00     0.176 C 
BRANCH  12  19
ATOM     19  N   UNL     1       2.788  43.613  51.886  1.00  0.00    -0.338 N 
ATOM     20  H   UNL     1       2.058  43.919  51.239  1.00  0.00     0.168 HD
BRANCH  19  21
ATOM     21  C   UNL     1       4.069  43.879  51.349  1.00  0.00     0.059 A 
ATOM     22  C   UNL     1       4.511  45.208  51.291  1.00  0.00     0.031 A 
ATOM     23  C   UNL     1       4.896  42.865  50.826  1.00  0.00     0.067 A 
ATOM     24  C   UNL     1       5.751  45.519  50.730  1.00  0.00     0.041 A 
ATOM     25  C   UNL     1       6.136  43.175  50.265  1.00  0.00     0.062 A 
ATOM     26  C   UNL     1       6.549  44.500  50.224  1.00  0.00     0.124 A 
ATOM     27  Cl  UNL     1       4.415  41.206  50.879  1.00  0.00    -0.082 Cl
ATOM     28  F   UNL     1       7.738  44.802  49.688  1.00  0.00    -0.207 F 
ENDBRANCH  19  21
ENDBRANCH  12  19
ENDBRANCH   7   9
ENDBRANCH   1   7
TORSDOF 8
ENDMDL
MODEL 9
REMARK VINA RESULT:    -7.923      2.825      5.109
REMARK INTER + INTRA:         -12.774
REMARK INTER:                 -11.167
REMARK INTRA:                  -1.607
REMARK UNBOUND:                -1.145
REMARK SMILES CCOCCCNc1nc(Nc2ccc(F)cc2Cl)c2cnn(C)c2n1
REMARK SMILES IDX 6 1 5 2 4 3 3 4 2 5 1 6 7 7 8 9 9 10 26 11 10 12 25 13 20 14
REMARK SMILES IDX 23 15 21 16 22 17 24 18 11 19 12 21 13 22 18 23 14 24 17 25
REMARK SMILES IDX 15 26 19 27 16 28
REMARK H PARENT 7 8 11 20
ROOT
ATOM      1  C   UNL     1       7.089  43.001  49.337  1.00  0.00     0.118 C 
ENDROOT
BRANCH   1   2
ATOM      2  C   UNL     1       6.753  41.577  49.780  1.00  0.00     0.050 C 
BRANCH   2   3
ATOM      3  C   UNL     1       5.274  41.239  49.609  1.00  0.00     0.162 C 
BRANCH   3   4
ATOM      4  O   UNL     1       4.622  41.224  50.882  1.00  0.00    -0.382 OA
BRANCH   4   5
ATOM      5  C   UNL     1       3.368  41.901  50.904  1.00  0.00     0.156 C 
ATOM      6  C   UNL     1       3.261  42.790  52.130  1.00  0.00     0.035 C 
ENDBRANCH   4   5
ENDBRANCH   3   4
ENDBRANCH   2   3
ENDBRANCH   1   2
BRANCH   1   7
ATOM      7  N   UNL     1       6.081  43.965  49.742  1.00  0.00    -0.354 N 
ATOM      8  H   UNL     1       5.640  44.471  48.981  1.00  0.00     0.163 HD
BRANCH   7   9
ATOM      9  C   UNL     1       6.497  44.949  50.633  1.00  0.00     0.226 A 
ATOM     10  N   UNL     1       5.494  45.577  51.272  1.00  0.00    -0.195 NA
ATOM     11  N   UNL     1       7.799  45.202  50.793  1.00  0.00    -0.193 NA
ATOM     12  C   UNL     1       5.758  46.551  52.181  1.00  0.00     0.147 A 
ATOM     13  C   UNL     1       8.039  46.163  51.696  1.00  0.00     0.165 A 
ATOM     14  C   UNL     1       7.098  46.873  52.418  1.00  0.00     0.082 A 
ATOM     15  N   UNL     1       9.260  46.632  52.094  1.00  0.00    -0.250 N 
ATOM     16  C   UNL     1       7.866  47.752  53.209  1.00  0.00     0.149 A 
ATOM     17  N   UNL     1       9.183  47.619  53.015  1.00  0.00    -0.179 NA
ATOM     18  C   UNL     1      10.552  46.186  51.638  1.00  0.00     0.176 C 
BRANCH  12  19
ATOM     19  N   UNL     1       4.626  47.136  52.794  1.00  0.00    -0.338 N 
ATOM     20  H   UNL     1       4.296  47.786  52.078  1.00  0.00     0.168 HD
BRANCH  19  21
ATOM     21  C   UNL     1       3.543  46.409  53.341  1.00  0.00     0.059 A 
ATOM     22  C   UNL     1       2.308  46.443  52.678  1.00  0.00     0.031 A 
ATOM     23  C   UNL     1       3.645  45.694  54.551  1.00  0.00     0.067 A 
ATOM     24  C   UNL     1       1.202  45.774  53.206  1.00  0.00     0.041 A 
ATOM     25  C   UNL     1       2.540  45.027  55.079  1.00  0.00     0.062 A 
ATOM     26  C   UNL     1       1.330  45.074  54.400  1.00  0.00     0.124 A 
ATOM     27  Cl  UNL     1       5.142  45.604  55.409  1.00  0.00    -0.082 Cl
ATOM     28  F   UNL     1       0.267  44.433  54.902  1.00  0.00    -0.207 F 
ENDBRANCH  19  21
ENDBRANCH  12  19
ENDBRANCH   7   9
ENDBRANCH   1   7
TORSDOF 8
ENDMDL
MODEL 10
REMARK VINA RESULT:    -7.919      3.537      6.588
REMARK INTER + INTRA:         -12.768
REMARK INTER:                 -11.782
REMARK INTRA:                  -0.987
REMARK UNBOUND:                -1.145
REMARK SMILES CCOCCCNc1nc(Nc2ccc(F)cc2Cl)c2cnn(C)c2n1
REMARK SMILES IDX 6 1 5 2 4 3 3 4 2 5 1 6 7 7 8 9 9 10 26 11 10 12 25 13 20 14
REMARK SMILES IDX 23 15 21 16 22 17 24 18 11 19 12 21 13 22 18 23 14 24 17 25
REMARK SMILES IDX 15 26 19 27 16 28
REMARK H PARENT 7 8 11 20
ROOT
ATOM      1  C   UNL     1       5.580  41.515  49.921  1.00  0.00     0.118 C 
ENDROOT
BRANCH   1   2
ATOM      2  C   UNL     1       5.086  41.193  48.512  1.00  0.00     0.050 C 
BRANCH   2   3
ATOM      3  C   UNL     1       3.798  40.372  48.511  1.00  0.00     0.162 C 
BRANCH   3   4
ATOM      4  O   UNL     1       3.066  40.603  47.305  1.00  0.00    -0.382 OA
BRANCH   4   5
ATOM      5  C   UNL     1       3.072  39.504  46.398  1.00  0.00     0.156 C 
ATOM      6  C   UNL     1       2.672  38.223  47.107  1.00  0.00     0.035 C 
ENDBRANCH   4   5
ENDBRANCH   3   4
ENDBRANCH   2   3
ENDBRANCH   1   2
BRANCH   1   7
ATOM      7  N   UNL     1       4.511  41.509  50.904  1.00  0.00    -0.354 N 
ATOM      8  H   UNL     1       3.634  41.114  50.582  1.00  0.00     0.163 HD
BRANCH   7   9
ATOM      9  C   UNL     1       4.169  42.743  51.447  1.00  0.00     0.226 A 
ATOM     10  N   UNL     1       4.968  43.756  51.064  1.00  0.00    -0.195 NA
ATOM     11  N   UNL     1       3.125  42.847  52.274  1.00  0.00    -0.193 NA
ATOM     12  C   UNL     1       4.739  45.020  51.508  1.00  0.00     0.147 A 
ATOM     13  C   UNL     1       2.914  44.100  52.698  1.00  0.00     0.165 A 
ATOM     14  C   UNL     1       3.658  45.219  52.372  1.00  0.00     0.082 A 
ATOM     15  N   UNL     1       1.920  44.532  53.531  1.00  0.00    -0.250 N 
ATOM     16  C   UNL     1       3.028  46.265  53.077  1.00  0.00     0.149 A 
ATOM     17  N   UNL     1       1.972  45.858  53.791  1.00  0.00    -0.179 NA
ATOM     18  C   UNL     1       0.877  43.733  54.123  1.00  0.00     0.176 C 
BRANCH  12  19
ATOM     19  N   UNL     1       5.637  46.003  51.035  1.00  0.00    -0.338 N 
ATOM     20  H   UNL     1       5.053  46.841  51.000  1.00  0.00     0.168 HD
BRANCH  19  21
ATOM     21  C   UNL     1       6.889  46.297  51.623  1.00  0.00     0.059 A 
ATOM     22  C   UNL     1       6.929  47.167  52.722  1.00  0.00     0.031 A 
ATOM     23  C   UNL     1       8.102  45.789  51.115  1.00  0.00     0.067 A 
ATOM     24  C   UNL     1       8.147  47.517  53.306  1.00  0.00     0.041 A 
ATOM     25  C   UNL     1       9.320  46.139  51.698  1.00  0.00     0.062 A 
ATOM     26  C   UNL     1       9.329  46.999  52.788  1.00  0.00     0.124 A 
ATOM     27  Cl  UNL     1       8.120  44.704  49.771  1.00  0.00    -0.082 Cl
ATOM     28  F   UNL     1      10.496  47.336  53.351  1.00  0.00    -0.207 F 
ENDBRANCH  19  21
ENDBRANCH  12  19
ENDBRANCH   7   9
ENDBRANCH   1   7
TORSDOF 8
ENDMDL
MODEL 11
REMARK VINA RESULT:    -7.910      3.767      6.993
REMARK INTER + INTRA:         -12.755
REMARK INTER:                 -11.818
REMARK INTRA:                  -0.938
REMARK UNBOUND:                -1.145
REMARK SMILES CCOCCCNc1nc(Nc2ccc(F)cc2Cl)c2cnn(C)c2n1
REMARK SMILES IDX 6 1 5 2 4 3 3 4 2 5 1 6 7 7 8 9 9 10 26 11 10 12 25 13 20 14
REMARK SMILES IDX 23 15 21 16 22 17 24 18 11 19 12 21 13 22 18 23 14 24 17 25
REMARK SMILES IDX 15 26 19 27 16 28
REMARK H PARENT 7 8 11 20
ROOT
ATOM      1  C   UNL     1       5.372  41.167  48.103  1.00  0.00     0.118 C 
ENDROOT
BRANCH   1   2
ATOM      2  C   UNL     1       5.646  41.808  46.744  1.00  0.00     0.050 C 
BRANCH   2   3
ATOM      3  C   UNL     1       4.648  41.372  45.674  1.00  0.00     0.162 C 
BRANCH   3   4
ATOM      4  O   UNL     1       3.546  40.687  46.277  1.00  0.00    -0.382 OA
BRANCH   4   5
ATOM      5  C   UNL     1       3.263  39.415  45.701  1.00  0.00     0.156 C 
ATOM      6  C   UNL     1       2.868  38.417  46.775  1.00  0.00     0.035 C 
ENDBRANCH   4   5
ENDBRANCH   3   4
ENDBRANCH   2   3
ENDBRANCH   1   2
BRANCH   1   7
ATOM      7  N   UNL     1       6.296  41.615  49.130  1.00  0.00    -0.354 N 
ATOM      8  H   UNL     1       6.636  40.887  49.750  1.00  0.00     0.163 HD
BRANCH   7   9
ATOM      9  C   UNL     1       5.835  42.619  49.976  1.00  0.00     0.226 A 
ATOM     10  N   UNL     1       6.587  43.734  49.973  1.00  0.00    -0.195 NA
ATOM     11  N   UNL     1       4.732  42.427  50.705  1.00  0.00    -0.193 NA
ATOM     12  C   UNL     1       6.242  44.799  50.743  1.00  0.00     0.147 A 
ATOM     13  C   UNL     1       4.408  43.489  51.454  1.00  0.00     0.165 A 
ATOM     14  C   UNL     1       5.094  44.687  51.532  1.00  0.00     0.082 A 
ATOM     15  N   UNL     1       3.331  43.611  52.289  1.00  0.00    -0.250 N 
ATOM     16  C   UNL     1       4.347  45.450  52.453  1.00  0.00     0.149 A 
ATOM     17  N   UNL     1       3.275  44.802  52.926  1.00  0.00    -0.179 NA
ATOM     18  C   UNL     1       2.306  42.627  52.532  1.00  0.00     0.176 C 
BRANCH  12  19
ATOM     19  N   UNL     1       7.102  45.918  50.654  1.00  0.00    -0.338 N 
ATOM     20  H   UNL     1       6.453  46.683  50.459  1.00  0.00     0.168 HD
BRANCH  19  21
ATOM     21  C   UNL     1       8.032  46.298  51.649  1.00  0.00     0.059 A 
ATOM     22  C   UNL     1       7.607  47.158  52.673  1.00  0.00     0.031 A 
ATOM     23  C   UNL     1       9.379  45.887  51.624  1.00  0.00     0.067 A 
ATOM     24  C   UNL     1       8.503  47.591  53.652  1.00  0.00     0.041 A 
ATOM     25  C   UNL     1      10.275  46.320  52.601  1.00  0.00     0.062 A 
ATOM     26  C   UNL     1       9.826  47.168  53.605  1.00  0.00     0.124 A 
ATOM     27  Cl  UNL     1       9.961  44.819  50.396  1.00  0.00    -0.082 Cl
ATOM     28  F   UNL     1      10.683  47.585  54.546  1.00  0.00    -0.207 F 
ENDBRANCH  19  21
ENDBRANCH  12  19
ENDBRANCH   7   9
ENDBRANCH   1   7
TORSDOF 8
ENDMDL
MODEL 12
REMARK VINA RESULT:    -7.900      3.489      6.759
REMARK INTER + INTRA:         -12.740
REMARK INTER:                 -11.259
REMARK INTRA:                  -1.481
REMARK UNBOUND:                -1.145
REMARK SMILES CCOCCCNc1nc(Nc2ccc(F)cc2Cl)c2cnn(C)c2n1
REMARK SMILES IDX 6 1 5 2 4 3 3 4 2 5 1 6 7 7 8 9 9 10 26 11 10 12 25 13 20 14
REMARK SMILES IDX 23 15 21 16 22 17 24 18 11 19 12 21 13 22 18 23 14 24 17 25
REMARK SMILES IDX 15 26 19 27 16 28
REMARK H PARENT 7 8 11 20
ROOT
ATOM      1  C   UNL     1       3.799  41.161  50.084  1.00  0.00     0.118 C 
ENDROOT
BRANCH   1   2
ATOM      2  C   UNL     1       4.600  41.043  48.788  1.00  0.00     0.050 C 
BRANCH   2   3
ATOM      3  C   UNL     1       6.093  41.288  48.994  1.00  0.00     0.162 C 
BRANCH   3   4
ATOM      4  O   UNL     1       6.390  42.679  48.847  1.00  0.00    -0.382 OA
BRANCH   4   5
ATOM      5  C   UNL     1       7.572  43.099  49.523  1.00  0.00     0.156 C 
ATOM      6  C   UNL     1       8.342  44.104  48.684  1.00  0.00     0.035 C 
ENDBRANCH   4   5
ENDBRANCH   3   4
ENDBRANCH   2   3
ENDBRANCH   1   2
BRANCH   1   7
ATOM      7  N   UNL     1       4.552  41.794  51.152  1.00  0.00    -0.354 N 
ATOM      8  H   UNL     1       4.793  41.185  51.928  1.00  0.00     0.163 HD
BRANCH   7   9
ATOM      9  C   UNL     1       3.962  42.907  51.742  1.00  0.00     0.226 A 
ATOM     10  N   UNL     1       4.651  44.050  51.580  1.00  0.00    -0.195 NA
ATOM     11  N   UNL     1       2.808  42.784  52.404  1.00  0.00    -0.193 NA
ATOM     12  C   UNL     1       4.182  45.218  52.093  1.00  0.00     0.147 A 
ATOM     13  C   UNL     1       2.360  43.945  52.899  1.00  0.00     0.165 A 
ATOM     14  C   UNL     1       2.973  45.180  52.793  1.00  0.00     0.082 A 
ATOM     15  N   UNL     1       1.205  44.151  53.603  1.00  0.00    -0.250 N 
ATOM     16  C   UNL     1       2.105  46.052  53.481  1.00  0.00     0.149 A 
ATOM     17  N   UNL     1       1.029  45.435  53.985  1.00  0.00    -0.179 NA
ATOM     18  C   UNL     1       0.216  43.163  53.952  1.00  0.00     0.176 C 
BRANCH  12  19
ATOM     19  N   UNL     1       4.987  46.355  51.854  1.00  0.00    -0.338 N 
ATOM     20  H   UNL     1       4.388  47.122  52.169  1.00  0.00     0.168 HD
BRANCH  19  21
ATOM     21  C   UNL     1       6.304  46.524  52.340  1.00  0.00     0.059 A 
ATOM     22  C   UNL     1       7.377  46.321  51.460  1.00  0.00     0.031 A 
ATOM     23  C   UNL     1       6.580  46.838  53.686  1.00  0.00     0.067 A 
ATOM     24  C   UNL     1       8.693  46.436  51.908  1.00  0.00     0.041 A 
ATOM     25  C   UNL     1       7.896  46.953  54.135  1.00  0.00     0.062 A 
ATOM     26  C   UNL     1       8.939  46.751  53.240  1.00  0.00     0.124 A 
ATOM     27  Cl  UNL     1       5.303  47.112  54.817  1.00  0.00    -0.082 Cl
ATOM     28  F   UNL     1      10.203  46.861  53.667  1.00  0.00    -0.207 F 
ENDBRANCH  19  21
ENDBRANCH  12  19
ENDBRANCH   7   9
ENDBRANCH   1   7
TORSDOF 8
ENDMDL
MODEL 13
REMARK VINA RESULT:    -7.720      3.196      6.099
REMARK INTER + INTRA:         -12.476
REMARK INTER:                 -11.720
REMARK INTRA:                  -0.757
REMARK UNBOUND:                -1.145
REMARK SMILES CCOCCCNc1nc(Nc2ccc(F)cc2Cl)c2cnn(C)c2n1
REMARK SMILES IDX 6 1 5 2 4 3 3 4 2 5 1 6 7 7 8 9 9 10 26 11 10 12 25 13 20 14
REMARK SMILES IDX 23 15 21 16 22 17 24 18 11 19 12 21 13 22 18 23 14 24 17 25
REMARK SMILES IDX 15 26 19 27 16 28
REMARK H PARENT 7 8 11 20
ROOT
ATOM      1  C   UNL     1       8.121  46.504  51.312  1.00  0.00     0.118 C 
ENDROOT
BRANCH   1   2
ATOM      2  C   UNL     1       9.588  46.329  51.699  1.00  0.00     0.050 C 
BRANCH   2   3
ATOM      3  C   UNL     1       9.788  46.188  53.206  1.00  0.00     0.162 C 
BRANCH   3   4
ATOM      4  O   UNL     1       8.741  46.863  53.908  1.00  0.00    -0.382 OA
BRANCH   4   5
ATOM      5  C   UNL     1       9.193  47.895  54.781  1.00  0.00     0.156 C 
ATOM      6  C   UNL     1      10.492  47.494  55.457  1.00  0.00     0.035 C 
ENDBRANCH   4   5
ENDBRANCH   3   4
ENDBRANCH   2   3
ENDBRANCH   1   2
BRANCH   1   7
ATOM      7  N   UNL     1       7.725  45.639  50.215  1.00  0.00    -0.354 N 
ATOM      8  H   UNL     1       7.405  46.121  49.381  1.00  0.00     0.163 HD
BRANCH   7   9
ATOM      9  C   UNL     1       6.728  44.710  50.495  1.00  0.00     0.226 A 
ATOM     10  N   UNL     1       6.774  43.602  49.734  1.00  0.00    -0.195 NA
ATOM     11  N   UNL     1       5.829  44.958  51.452  1.00  0.00    -0.193 NA
ATOM     12  C   UNL     1       5.867  42.606  49.911  1.00  0.00     0.147 A 
ATOM     13  C   UNL     1       4.947  43.963  51.614  1.00  0.00     0.165 A 
ATOM     14  C   UNL     1       4.895  42.780  50.900  1.00  0.00     0.082 A 
ATOM     15  N   UNL     1       3.923  43.908  52.519  1.00  0.00    -0.250 N 
ATOM     16  C   UNL     1       3.793  42.096  51.453  1.00  0.00     0.149 A 
ATOM     17  N   UNL     1       3.189  42.776  52.435  1.00  0.00    -0.179 NA
ATOM     18  C   UNL     1       3.582  44.905  53.503  1.00  0.00     0.176 C 
BRANCH  12  19
ATOM     19  N   UNL     1       6.017  41.488  49.059  1.00  0.00    -0.338 N 
ATOM     20  H   UNL     1       5.874  40.701  49.696  1.00  0.00     0.168 HD
BRANCH  19  21
ATOM     21  C   UNL     1       5.296  41.290  47.859  1.00  0.00     0.059 A 
ATOM     22  C   UNL     1       5.794  41.853  46.674  1.00  0.00     0.031 A 
ATOM     23  C   UNL     1       4.071  40.594  47.816  1.00  0.00     0.067 A 
ATOM     24  C   UNL     1       5.093  41.718  45.475  1.00  0.00     0.041 A 
ATOM     25  C   UNL     1       3.369  40.459  46.618  1.00  0.00     0.062 A 
ATOM     26  C   UNL     1       3.889  41.023  45.460  1.00  0.00     0.124 A 
ATOM     27  Cl  UNL     1       3.411  39.868  49.238  1.00  0.00    -0.082 Cl
ATOM     28  F   UNL     1       3.218  40.895  44.308  1.00  0.00    -0.207 F 
ENDBRANCH  19  21
ENDBRANCH  12  19
ENDBRANCH   7   9
ENDBRANCH   1   7
TORSDOF 8
ENDMDL
MODEL 14
REMARK VINA RESULT:    -7.714      3.238      6.690
REMARK INTER + INTRA:         -12.467
REMARK INTER:                 -11.557
REMARK INTRA:                  -0.910
REMARK UNBOUND:                -1.145
REMARK SMILES CCOCCCNc1nc(Nc2ccc(F)cc2Cl)c2cnn(C)c2n1
REMARK SMILES IDX 6 1 5 2 4 3 3 4 2 5 1 6 7 7 8 9 9 10 26 11 10 12 25 13 20 14
REMARK SMILES IDX 23 15 21 16 22 17 24 18 11 19 12 21 13 22 18 23 14 24 17 25
REMARK SMILES IDX 15 26 19 27 16 28
REMARK H PARENT 7 8 11 20
ROOT
ATOM      1  C   UNL     1       8.864  46.070  51.512  1.00  0.00     0.118 C 
ENDROOT
BRANCH   1   2
ATOM      2  C   UNL     1       9.629  46.702  52.675  1.00  0.00     0.050 C 
BRANCH   2   3
ATOM      3  C   UNL     1       8.831  47.795  53.381  1.00  0.00     0.162 C 
BRANCH   3   4
ATOM      4  O   UNL     1       9.156  47.821  54.774  1.00  0.00    -0.382 OA
BRANCH   4   5
ATOM      5  C   UNL     1      10.345  47.111  55.110  1.00  0.00     0.156 C 
ATOM      6  C   UNL     1      10.993  47.706  56.348  1.00  0.00     0.035 C 
ENDBRANCH   4   5
ENDBRANCH   3   4
ENDBRANCH   2   3
ENDBRANCH   1   2
BRANCH   1   7
ATOM      7  N   UNL     1       7.561  46.678  51.304  1.00  0.00    -0.354 N 
ATOM      8  H   UNL     1       7.326  47.423  51.952  1.00  0.00     0.163 HD
BRANCH   7   9
ATOM      9  C   UNL     1       6.470  45.816  51.338  1.00  0.00     0.226 A 
ATOM     10  N   UNL     1       5.350  46.361  51.844  1.00  0.00    -0.195 NA
ATOM     11  N   UNL     1       6.591  44.562  50.892  1.00  0.00    -0.193 NA
ATOM     12  C   UNL     1       4.204  45.635  51.923  1.00  0.00     0.147 A 
ATOM     13  C   UNL     1       5.451  43.864  50.975  1.00  0.00     0.165 A 
ATOM     14  C   UNL     1       4.240  44.313  51.468  1.00  0.00     0.082 A 
ATOM     15  N   UNL     1       5.247  42.569  50.584  1.00  0.00    -0.250 N 
ATOM     16  C   UNL     1       3.384  43.201  51.338  1.00  0.00     0.149 A 
ATOM     17  N   UNL     1       3.988  42.131  50.807  1.00  0.00    -0.179 NA
ATOM     18  C   UNL     1       6.213  41.681  49.987  1.00  0.00     0.176 C 
BRANCH  12  19
ATOM     19  N   UNL     1       3.089  46.313  52.466  1.00  0.00    -0.338 N 
ATOM     20  H   UNL     1       2.587  46.621  51.630  1.00  0.00     0.168 HD
BRANCH  19  21
ATOM     21  C   UNL     1       2.191  45.758  53.407  1.00  0.00     0.059 A 
ATOM     22  C   UNL     1       0.909  45.389  52.975  1.00  0.00     0.031 A 
ATOM     23  C   UNL     1       2.518  45.610  54.769  1.00  0.00     0.067 A 
ATOM     24  C   UNL     1      -0.023  44.876  53.879  1.00  0.00     0.041 A 
ATOM     25  C   UNL     1       1.586  45.099  55.674  1.00  0.00     0.062 A 
ATOM     26  C   UNL     1       0.325  44.737  55.218  1.00  0.00     0.124 A 
ATOM     27  Cl  UNL     1       4.084  46.036  55.361  1.00  0.00    -0.082 Cl
ATOM     28  F   UNL     1      -0.571  44.245  56.082  1.00  0.00    -0.207 F 
ENDBRANCH  19  21
ENDBRANCH  12  19
ENDBRANCH   7   9
ENDBRANCH   1   7
TORSDOF 8
ENDMDL
MODEL 15
REMARK VINA RESULT:    -7.519      3.803      6.904
REMARK INTER + INTRA:         -12.181
REMARK INTER:                 -11.334
REMARK INTRA:                  -0.847
REMARK UNBOUND:                -1.145
REMARK SMILES CCOCCCNc1nc(Nc2ccc(F)cc2Cl)c2cnn(C)c2n1
REMARK SMILES IDX 6 1 5 2 4 3 3 4 2 5 1 6 7 7 8 9 9 10 26 11 10 12 25 13 20 14
REMARK SMILES IDX 23 15 21 16 22 17 24 18 11 19 12 21 13 22 18 23 14 24 17 25
REMARK SMILES IDX 15 26 19 27 16 28
REMARK H PARENT 7 8 11 20
ROOT
ATOM      1  C   UNL     1       6.622  42.248  49.811  1.00  0.00     0.118 C 
ENDROOT
BRANCH   1   2
ATOM      2  C   UNL     1       6.480  42.447  48.303  1.00  0.00     0.050 C 
BRANCH   2   3
ATOM      3  C   UNL     1       5.423  41.535  47.685  1.00  0.00     0.162 C 
BRANCH   3   4
ATOM      4  O   UNL     1       5.400  41.698  46.264  1.00  0.00    -0.382 OA
BRANCH   4   5
ATOM      5  C   UNL     1       4.296  41.067  45.621  1.00  0.00     0.156 C 
ATOM      6  C   UNL     1       3.463  40.291  46.626  1.00  0.00     0.035 C 
ENDBRANCH   4   5
ENDBRANCH   3   4
ENDBRANCH   2   3
ENDBRANCH   1   2
BRANCH   1   7
ATOM      7  N   UNL     1       5.372  41.870  50.446  1.00  0.00    -0.354 N 
ATOM      8  H   UNL     1       4.662  41.508  49.817  1.00  0.00     0.163 HD
BRANCH   7   9
ATOM      9  C   UNL     1       4.728  42.864  51.176  1.00  0.00     0.226 A 
ATOM     10  N   UNL     1       5.336  44.063  51.133  1.00  0.00    -0.195 NA
ATOM     11  N   UNL     1       3.605  42.587  51.843  1.00  0.00    -0.193 NA
ATOM     12  C   UNL     1       4.807  45.128  51.790  1.00  0.00     0.147 A 
ATOM     13  C   UNL     1       3.097  43.650  52.481  1.00  0.00     0.165 A 
ATOM     14  C   UNL     1       3.624  44.928  52.507  1.00  0.00     0.082 A 
ATOM     15  N   UNL     1       1.953  43.694  53.229  1.00  0.00    -0.250 N 
ATOM     16  C   UNL     1       2.722  45.654  53.311  1.00  0.00     0.149 A 
ATOM     17  N   UNL     1       1.704  44.911  53.762  1.00  0.00    -0.179 NA
ATOM     18  C   UNL     1       1.040  42.608  53.482  1.00  0.00     0.176 C 
BRANCH  12  19
ATOM     19  N   UNL     1       5.529  46.338  51.668  1.00  0.00    -0.338 N 
ATOM     20  H   UNL     1       4.851  47.035  51.985  1.00  0.00     0.168 HD
BRANCH  19  21
ATOM     21  C   UNL     1       6.796  46.580  52.248  1.00  0.00     0.059 A 
ATOM     22  C   UNL     1       7.938  46.458  51.444  1.00  0.00     0.031 A 
ATOM     23  C   UNL     1       6.957  46.889  53.614  1.00  0.00     0.067 A 
ATOM     24  C   UNL     1       9.210  46.648  51.986  1.00  0.00     0.041 A 
ATOM     25  C   UNL     1       8.228  47.077  54.156  1.00  0.00     0.062 A 
ATOM     26  C   UNL     1       9.341  46.955  53.335  1.00  0.00     0.124 A 
ATOM     27  Cl  UNL     1       5.589  47.064  54.655  1.00  0.00    -0.082 Cl
ATOM     28  F   UNL     1      10.563  47.136  53.852  1.00  0.00    -0.207 F 
ENDBRANCH  19  21
ENDBRANCH  12  19
ENDBRANCH   7   9
ENDBRANCH   1   7
TORSDOF 8
ENDMDL
MODEL 16
REMARK VINA RESULT:    -7.457      1.736      2.067
REMARK INTER + INTRA:         -12.090
REMARK INTER:                 -11.028
REMARK INTRA:                  -1.062
REMARK UNBOUND:                -1.145
REMARK SMILES CCOCCCNc1nc(Nc2ccc(F)cc2Cl)c2cnn(C)c2n1
REMARK SMILES IDX 6 1 5 2 4 3 3 4 2 5 1 6 7 7 8 9 9 10 26 11 10 12 25 13 20 14
REMARK SMILES IDX 23 15 21 16 22 17 24 18 11 19 12 21 13 22 18 23 14 24 17 25
REMARK SMILES IDX 15 26 19 27 16 28
REMARK H PARENT 7 8 11 20
ROOT
ATOM      1  C   UNL     1       3.571  46.821  54.551  1.00  0.00     0.118 C 
ENDROOT
BRANCH   1   2
ATOM      2  C   UNL     1       3.004  45.666  55.374  1.00  0.00     0.050 C 
BRANCH   2   3
ATOM      3  C   UNL     1       2.238  44.655  54.524  1.00  0.00     0.162 C 
BRANCH   3   4
ATOM      4  O   UNL     1       0.832  44.788  54.747  1.00  0.00    -0.382 OA
BRANCH   4   5
ATOM      5  C   UNL     1       0.033  43.865  54.011  1.00  0.00     0.156 C 
ATOM      6  C   UNL     1       0.853  42.654  53.604  1.00  0.00     0.035 C 
ENDBRANCH   4   5
ENDBRANCH   3   4
ENDBRANCH   2   3
ENDBRANCH   1   2
BRANCH   1   7
ATOM      7  N   UNL     1       4.902  47.213  54.979  1.00  0.00    -0.354 N 
ATOM      8  H   UNL     1       5.021  48.205  55.159  1.00  0.00     0.163 HD
BRANCH   7   9
ATOM      9  C   UNL     1       5.946  46.878  54.122  1.00  0.00     0.226 A 
ATOM     10  N   UNL     1       5.552  46.343  52.953  1.00  0.00    -0.195 NA
ATOM     11  N   UNL     1       7.212  47.092  54.491  1.00  0.00    -0.193 NA
ATOM     12  C   UNL     1       6.468  45.983  52.016  1.00  0.00     0.147 A 
ATOM     13  C   UNL     1       8.100  46.734  53.554  1.00  0.00     0.165 A 
ATOM     14  C   UNL     1       7.819  46.183  52.317  1.00  0.00     0.082 A 
ATOM     15  N   UNL     1       9.461  46.846  53.622  1.00  0.00    -0.250 N 
ATOM     16  C   UNL     1       9.087  45.991  51.733  1.00  0.00     0.149 A 
ATOM     17  N   UNL     1      10.095  46.385  52.520  1.00  0.00    -0.179 NA
ATOM     18  C   UNL     1      10.233  47.385  54.712  1.00  0.00     0.176 C 
BRANCH  12  19
ATOM     19  N   UNL     1       5.939  45.438  50.824  1.00  0.00    -0.338 N 
ATOM     20  H   UNL     1       6.728  45.507  50.178  1.00  0.00     0.168 HD
BRANCH  19  21
ATOM     21  C   UNL     1       5.325  44.168  50.724  1.00  0.00     0.059 A 
ATOM     22  C   UNL     1       6.121  43.061  50.394  1.00  0.00     0.031 A 
ATOM     23  C   UNL     1       3.939  43.981  50.894  1.00  0.00     0.067 A 
ATOM     24  C   UNL     1       5.549  41.797  50.244  1.00  0.00     0.041 A 
ATOM     25  C   UNL     1       3.366  42.718  50.744  1.00  0.00     0.062 A 
ATOM     26  C   UNL     1       4.179  41.639  50.420  1.00  0.00     0.124 A 
ATOM     27  Cl  UNL     1       2.907  45.302  51.313  1.00  0.00    -0.082 Cl
ATOM     28  F   UNL     1       3.634  40.424  50.276  1.00  0.00    -0.207 F 
ENDBRANCH  19  21
ENDBRANCH  12  19
ENDBRANCH   7   9
ENDBRANCH   1   7
TORSDOF 8
ENDMDL
MODEL 17
REMARK VINA RESULT:    -7.424      3.134      5.551
REMARK INTER + INTRA:         -12.041
REMARK INTER:                 -11.070
REMARK INTRA:                  -0.971
REMARK UNBOUND:                -1.145
REMARK SMILES CCOCCCNc1nc(Nc2ccc(F)cc2Cl)c2cnn(C)c2n1
REMARK SMILES IDX 6 1 5 2 4 3 3 4 2 5 1 6 7 7 8 9 9 10 26 11 10 12 25 13 20 14
REMARK SMILES IDX 23 15 21 16 22 17 24 18 11 19 12 21 13 22 18 23 14 24 17 25
REMARK SMILES IDX 15 26 19 27 16 28
REMARK H PARENT 7 8 11 20
ROOT
ATOM      1  C   UNL     1       6.425  42.012  49.872  1.00  0.00     0.118 C 
ENDROOT
BRANCH   1   2
ATOM      2  C   UNL     1       5.420  41.213  49.045  1.00  0.00     0.050 C 
BRANCH   2   3
ATOM      3  C   UNL     1       4.085  41.023  49.761  1.00  0.00     0.162 C 
BRANCH   3   4
ATOM      4  O   UNL     1       3.192  40.260  48.945  1.00  0.00    -0.382 OA
BRANCH   4   5
ATOM      5  C   UNL     1       3.565  40.196  47.571  1.00  0.00     0.156 C 
ATOM      6  C   UNL     1       3.091  38.896  46.946  1.00  0.00     0.035 C 
ENDBRANCH   4   5
ENDBRANCH   3   4
ENDBRANCH   2   3
ENDBRANCH   1   2
BRANCH   1   7
ATOM      7  N   UNL     1       6.761  43.288  49.265  1.00  0.00    -0.354 N 
ATOM      8  H   UNL     1       7.641  43.305  48.760  1.00  0.00     0.163 HD
BRANCH   7   9
ATOM      9  C   UNL     1       6.822  44.380  50.126  1.00  0.00     0.226 A 
ATOM     10  N   UNL     1       5.622  44.855  50.502  1.00  0.00    -0.195 NA
ATOM     11  N   UNL     1       8.006  44.869  50.506  1.00  0.00    -0.193 NA
ATOM     12  C   UNL     1       5.534  45.911  51.353  1.00  0.00     0.147 A 
ATOM     13  C   UNL     1       7.898  45.907  51.347  1.00  0.00     0.165 A 
ATOM     14  C   UNL     1       6.728  46.479  51.809  1.00  0.00     0.082 A 
ATOM     15  N   UNL     1       8.920  46.608  51.925  1.00  0.00    -0.250 N 
ATOM     16  C   UNL     1       7.166  47.524  52.648  1.00  0.00     0.149 A 
ATOM     17  N   UNL     1       8.499  47.616  52.721  1.00  0.00    -0.179 NA
ATOM     18  C   UNL     1      10.333  46.373  51.765  1.00  0.00     0.176 C 
BRANCH  12  19
ATOM     19  N   UNL     1       4.222  46.319  51.684  1.00  0.00    -0.338 N 
ATOM     20  H   UNL     1       3.702  46.117  50.827  1.00  0.00     0.168 HD
BRANCH  19  21
ATOM     21  C   UNL     1       3.503  45.872  52.817  1.00  0.00     0.059 A 
ATOM     22  C   UNL     1       3.914  46.302  54.087  1.00  0.00     0.031 A 
ATOM     23  C   UNL     1       2.422  44.973  52.721  1.00  0.00     0.067 A 
ATOM     24  C   UNL     1       3.258  45.852  55.234  1.00  0.00     0.041 A 
ATOM     25  C   UNL     1       1.768  44.521  53.867  1.00  0.00     0.062 A 
ATOM     26  C   UNL     1       2.193  44.967  55.112  1.00  0.00     0.124 A 
ATOM     27  Cl  UNL     1       1.861  44.415  51.185  1.00  0.00    -0.082 Cl
ATOM     28  F   UNL     1       1.566  44.538  56.214  1.00  0.00    -0.207 F 
ENDBRANCH  19  21
ENDBRANCH  12  19
ENDBRANCH   7   9
ENDBRANCH   1   7
TORSDOF 8
ENDMDL
MODEL 18
REMARK VINA RESULT:    -7.417      3.274      6.306
REMARK INTER + INTRA:         -12.031
REMARK INTER:                 -10.572
REMARK INTRA:                  -1.459
REMARK UNBOUND:                -1.145
REMARK SMILES CCOCCCNc1nc(Nc2ccc(F)cc2Cl)c2cnn(C)c2n1
REMARK SMILES IDX 6 1 5 2 4 3 3 4 2 5 1 6 7 7 8 9 9 10 26 11 10 12 25 13 20 14
REMARK SMILES IDX 23 15 21 16 22 17 24 18 11 19 12 21 13 22 18 23 14 24 17 25
REMARK SMILES IDX 15 26 19 27 16 28
REMARK H PARENT 7 8 11 20
ROOT
ATOM      1  C   UNL     1       8.576  46.248  51.639  1.00  0.00     0.118 C 
ENDROOT
BRANCH   1   2
ATOM      2  C   UNL     1       8.797  47.351  52.673  1.00  0.00     0.050 C 
BRANCH   2   3
ATOM      3  C   UNL     1       8.663  46.849  54.109  1.00  0.00     0.162 C 
BRANCH   3   4
ATOM      4  O   UNL     1       7.589  47.525  54.770  1.00  0.00    -0.382 OA
BRANCH   4   5
ATOM      5  C   UNL     1       6.334  46.857  54.677  1.00  0.00     0.156 C 
ATOM      6  C   UNL     1       6.528  45.351  54.664  1.00  0.00     0.035 C 
ENDBRANCH   4   5
ENDBRANCH   3   4
ENDBRANCH   2   3
ENDBRANCH   1   2
BRANCH   1   7
ATOM      7  N   UNL     1       7.419  46.494  50.797  1.00  0.00    -0.354 N 
ATOM      8  H   UNL     1       6.992  47.409  50.909  1.00  0.00     0.163 HD
BRANCH   7   9
ATOM      9  C   UNL     1       6.367  45.592  50.920  1.00  0.00     0.226 A 
ATOM     10  N   UNL     1       5.226  46.132  51.385  1.00  0.00    -0.195 NA
ATOM     11  N   UNL     1       6.542  44.309  50.590  1.00  0.00    -0.193 NA
ATOM     12  C   UNL     1       4.115  45.366  51.540  1.00  0.00     0.147 A 
ATOM     13  C   UNL     1       5.434  43.572  50.747  1.00  0.00     0.165 A 
ATOM     14  C   UNL     1       4.207  44.011  51.208  1.00  0.00     0.082 A 
ATOM     15  N   UNL     1       5.286  42.239  50.479  1.00  0.00    -0.250 N 
ATOM     16  C   UNL     1       3.400  42.855  51.188  1.00  0.00     0.149 A 
ATOM     17  N   UNL     1       4.049  41.768  50.752  1.00  0.00    -0.179 NA
ATOM     18  C   UNL     1       6.287  41.344  49.956  1.00  0.00     0.176 C 
BRANCH  12  19
ATOM     19  N   UNL     1       2.974  46.042  52.029  1.00  0.00    -0.338 N 
ATOM     20  H   UNL     1       2.332  46.000  51.234  1.00  0.00     0.168 HD
BRANCH  19  21
ATOM     21  C   UNL     1       2.299  45.716  53.228  1.00  0.00     0.059 A 
ATOM     22  C   UNL     1       2.958  45.924  54.449  1.00  0.00     0.031 A 
ATOM     23  C   UNL     1       1.011  45.144  53.241  1.00  0.00     0.067 A 
ATOM     24  C   UNL     1       2.344  45.577  55.654  1.00  0.00     0.041 A 
ATOM     25  C   UNL     1       0.397  44.796  54.445  1.00  0.00     0.062 A 
ATOM     26  C   UNL     1       1.072  45.017  55.639  1.00  0.00     0.124 A 
ATOM     27  Cl  UNL     1       0.142  44.874  51.772  1.00  0.00    -0.082 Cl
ATOM     28  F   UNL     1       0.486  44.686  56.796  1.00  0.00    -0.207 F 
ENDBRANCH  19  21
ENDBRANCH  12  19
ENDBRANCH   7   9
ENDBRANCH   1   7
TORSDOF 8
ENDMDL
MODEL 19
REMARK VINA RESULT:    -7.297      3.954      7.474
REMARK INTER + INTRA:         -11.855
REMARK INTER:                 -10.455
REMARK INTRA:                  -1.400
REMARK UNBOUND:                -1.145
REMARK SMILES CCOCCCNc1nc(Nc2ccc(F)cc2Cl)c2cnn(C)c2n1
REMARK SMILES IDX 6 1 5 2 4 3 3 4 2 5 1 6 7 7 8 9 9 10 26 11 10 12 25 13 20 14
REMARK SMILES IDX 23 15 21 16 22 17 24 18 11 19 12 21 13 22 18 23 14 24 17 25
REMARK SMILES IDX 15 26 19 27 16 28
REMARK H PARENT 7 8 11 20
ROOT
ATOM      1  C   UNL     1       4.556  41.636  51.166  1.00  0.00     0.118 C 
ENDROOT
BRANCH   1   2
ATOM      2  C   UNL     1       5.692  41.524  50.151  1.00  0.00     0.050 C 
BRANCH   2   3
ATOM      3  C   UNL     1       6.191  42.885  49.671  1.00  0.00     0.162 C 
BRANCH   3   4
ATOM      4  O   UNL     1       5.518  43.933  50.374  1.00  0.00    -0.382 OA
BRANCH   4   5
ATOM      5  C   UNL     1       6.377  44.970  50.839  1.00  0.00     0.156 C 
ATOM      6  C   UNL     1       7.688  44.963  50.074  1.00  0.00     0.035 C 
ENDBRANCH   4   5
ENDBRANCH   3   4
ENDBRANCH   2   3
ENDBRANCH   1   2
BRANCH   1   7
ATOM      7  N   UNL     1       3.255  41.785  50.536  1.00  0.00    -0.354 N 
ATOM      8  H   UNL     1       3.277  42.133  49.583  1.00  0.00     0.163 HD
BRANCH   7   9
ATOM      9  C   UNL     1       2.345  42.604  51.196  1.00  0.00     0.226 A 
ATOM     10  N   UNL     1       2.831  43.195  52.302  1.00  0.00    -0.195 NA
ATOM     11  N   UNL     1       1.104  42.747  50.721  1.00  0.00    -0.193 NA
ATOM     12  C   UNL     1       2.053  44.033  53.035  1.00  0.00     0.147 A 
ATOM     13  C   UNL     1       0.354  43.580  51.455  1.00  0.00     0.165 A 
ATOM     14  C   UNL     1       0.742  44.248  52.602  1.00  0.00     0.082 A 
ATOM     15  N   UNL     1      -0.943  43.945  51.220  1.00  0.00    -0.250 N 
ATOM     16  C   UNL     1      -0.406  44.975  52.978  1.00  0.00     0.149 A 
ATOM     17  N   UNL     1      -1.440  44.794  52.147  1.00  0.00    -0.179 NA
ATOM     18  C   UNL     1      -1.777  43.523  50.123  1.00  0.00     0.176 C 
BRANCH  12  19
ATOM     19  N   UNL     1       2.673  44.602  54.171  1.00  0.00    -0.338 N 
ATOM     20  H   UNL     1       2.712  43.814  54.822  1.00  0.00     0.168 HD
BRANCH  19  21
ATOM     21  C   UNL     1       3.908  45.290  54.153  1.00  0.00     0.059 A 
ATOM     22  C   UNL     1       4.985  44.758  54.877  1.00  0.00     0.031 A 
ATOM     23  C   UNL     1       4.083  46.514  53.477  1.00  0.00     0.067 A 
ATOM     24  C   UNL     1       6.209  45.427  54.920  1.00  0.00     0.041 A 
ATOM     25  C   UNL     1       5.306  47.183  53.521  1.00  0.00     0.062 A 
ATOM     26  C   UNL     1       6.357  46.631  54.242  1.00  0.00     0.124 A 
ATOM     27  Cl  UNL     1       2.799  47.215  52.558  1.00  0.00    -0.082 Cl
ATOM     28  F   UNL     1       7.533  47.270  54.286  1.00  0.00    -0.207 F 
ENDBRANCH  19  21
ENDBRANCH  12  19
ENDBRANCH   7   9
ENDBRANCH   1   7
TORSDOF 8
ENDMDL
