MODEL 1
REMARK VINA RESULT:    -8.797      0.000      0.000
REMARK INTER + INTRA:         -13.903
REMARK INTER:                 -12.911
REMARK INTRA:                  -0.992
REMARK UNBOUND:                -0.992
REMARK SMILES Cc1c(Cl)cccc1Nc1nc(NCCCOC(C)C)nc2c1cnn2C
REMARK SMILES IDX 14 1 13 2 12 4 10 5 11 6 23 7 22 8 24 9 21 10 26 11 25 12
REMARK SMILES IDX 27 13 9 14 8 16 2 17 3 18 5 19 7 20 6 21 1 22 4 23 15 24
REMARK SMILES IDX 16 25 17 26 18 27 19 28 20 29
REMARK H PARENT 13 3 9 15
ROOT
ATOM      1  C   UNL     1       5.202  45.438  55.478  1.00  0.00     0.118 C 
ENDROOT
BRANCH   1   2
ATOM      2  N   UNL     1       3.847  45.652  55.967  1.00  0.00    -0.354 N 
ATOM      3  H   UNL     1       3.657  45.240  56.877  1.00  0.00     0.163 HD
BRANCH   2   4
ATOM      4  C   UNL     1       2.833  45.160  55.152  1.00  0.00     0.226 A 
ATOM      5  C   UNL     1       2.340  44.374  52.991  1.00  0.00     0.147 A 
ATOM      6  N   UNL     1       3.223  44.870  53.899  1.00  0.00    -0.195 NA
ATOM      7  C   UNL     1       1.023  44.188  53.421  1.00  0.00     0.082 A 
ATOM      8  C   UNL     1       0.736  44.523  54.728  1.00  0.00     0.165 A 
ATOM      9  C   UNL     1      -0.207  43.740  52.896  1.00  0.00     0.149 A 
ATOM     10  N   UNL     1       1.594  45.010  55.634  1.00  0.00    -0.193 NA
ATOM     11  N   UNL     1      -0.594  44.259  54.904  1.00  0.00    -0.250 N 
ATOM     12  N   UNL     1      -1.199  43.771  53.794  1.00  0.00    -0.179 NA
ATOM     13  C   UNL     1      -1.364  44.451  56.107  1.00  0.00     0.176 C 
BRANCH   5  14
ATOM     14  N   UNL     1       2.747  44.054  51.679  1.00  0.00    -0.339 N 
ATOM     15  H   UNL     1       2.168  43.321  51.288  1.00  0.00     0.168 HD
BRANCH  14  16
ATOM     16  C   UNL     1       4.084  44.006  51.221  1.00  0.00     0.044 A 
ATOM     17  C   UNL     1       4.734  42.798  50.879  1.00  0.00    -0.009 A 
ATOM     18  C   UNL     1       6.026  42.862  50.319  1.00  0.00     0.046 A 
ATOM     19  C   UNL     1       6.674  44.086  50.134  1.00  0.00     0.021 A 
ATOM     20  C   UNL     1       4.754  45.229  51.025  1.00  0.00     0.026 A 
ATOM     21  C   UNL     1       6.041  45.270  50.493  1.00  0.00     0.004 A 
ATOM     22  C   UNL     1       4.075  41.461  51.105  1.00  0.00     0.048 C 
ATOM     23  Cl  UNL     1       6.879  41.439  49.825  1.00  0.00    -0.084 Cl
ENDBRANCH  14  16
ENDBRANCH   5  14
ENDBRANCH   2   4
ENDBRANCH   1   2
BRANCH   1  24
ATOM     24  C   UNL     1       5.792  46.736  54.925  1.00  0.00     0.050 C 
BRANCH  24  25
ATOM     25  C   UNL     1       7.116  46.494  54.209  1.00  0.00     0.162 C 
BRANCH  25  26
ATOM     26  O   UNL     1       8.043  47.514  54.573  1.00  0.00    -0.379 OA
BRANCH  26  27
ATOM     27  C   UNL     1       8.943  47.874  53.522  1.00  0.00     0.112 C 
ATOM     28  C   UNL     1       8.093  48.150  52.285  1.00  0.00     0.038 C 
ATOM     29  C   UNL     1       9.929  46.744  53.243  1.00  0.00     0.038 C 
ENDBRANCH  26  27
ENDBRANCH  25  26
ENDBRANCH  24  25
ENDBRANCH   1  24
TORSDOF 8
ENDMDL
MODEL 2
REMARK VINA RESULT:    -8.693      0.909      1.609
REMARK INTER + INTRA:         -13.750
REMARK INTER:                 -12.628
REMARK INTRA:                  -1.122
REMARK UNBOUND:                -0.992
REMARK SMILES Cc1c(Cl)cccc1Nc1nc(NCCCOC(C)C)nc2c1cnn2C
REMARK SMILES IDX 14 1 13 2 12 4 10 5 11 6 23 7 22 8 24 9 21 10 26 11 25 12
REMARK SMILES IDX 27 13 9 14 8 16 2 17 3 18 5 19 7 20 6 21 1 22 4 23 15 24
REMARK SMILES IDX 16 25 17 26 18 27 19 28 20 29
REMARK H PARENT 13 3 9 15
ROOT
ATOM      1  C   UNL     1       4.765  46.662  54.924  1.00  0.00     0.118 C 
ENDROOT
BRANCH   1   2
ATOM      2  N   UNL     1       3.784  46.021  55.790  1.00  0.00    -0.354 N 
ATOM      3  H   UNL     1       4.163  45.293  56.389  1.00  0.00     0.163 HD
BRANCH   2   4
ATOM      4  C   UNL     1       2.722  45.406  55.134  1.00  0.00     0.226 A 
ATOM      5  C   UNL     1       2.021  44.496  53.083  1.00  0.00     0.147 A 
ATOM      6  N   UNL     1       2.966  45.106  53.847  1.00  0.00    -0.195 NA
ATOM      7  C   UNL     1       0.798  44.206  53.694  1.00  0.00     0.082 A 
ATOM      8  C   UNL     1       0.659  44.563  55.020  1.00  0.00     0.165 A 
ATOM      9  C   UNL     1      -0.442  43.627  53.356  1.00  0.00     0.149 A 
ATOM     10  N   UNL     1       1.580  45.161  55.786  1.00  0.00    -0.193 NA
ATOM     11  N   UNL     1      -0.604  44.184  55.383  1.00  0.00    -0.250 N 
ATOM     12  N   UNL     1      -1.302  43.600  54.380  1.00  0.00    -0.179 NA
ATOM     13  C   UNL     1      -1.219  44.350  56.676  1.00  0.00     0.176 C 
BRANCH   5  14
ATOM     14  N   UNL     1       2.276  44.165  51.735  1.00  0.00    -0.339 N 
ATOM     15  H   UNL     1       1.444  43.803  51.286  1.00  0.00     0.168 HD
BRANCH  14  16
ATOM     16  C   UNL     1       3.468  43.584  51.243  1.00  0.00     0.044 A 
ATOM     17  C   UNL     1       4.596  44.348  50.869  1.00  0.00    -0.009 A 
ATOM     18  C   UNL     1       5.778  43.672  50.504  1.00  0.00     0.046 A 
ATOM     19  C   UNL     1       5.833  42.276  50.475  1.00  0.00     0.021 A 
ATOM     20  C   UNL     1       3.545  42.178  51.209  1.00  0.00     0.026 A 
ATOM     21  C   UNL     1       4.714  41.528  50.821  1.00  0.00     0.004 A 
ATOM     22  C   UNL     1       4.553  45.855  50.852  1.00  0.00     0.048 C 
ATOM     23  Cl  UNL     1       7.224  44.524  50.078  1.00  0.00    -0.084 Cl
ENDBRANCH  14  16
ENDBRANCH   5  14
ENDBRANCH   2   4
ENDBRANCH   1   2
BRANCH   1  24
ATOM     24  C   UNL     1       6.070  45.864  54.897  1.00  0.00     0.050 C 
BRANCH  24  25
ATOM     25  C   UNL     1       6.996  46.334  53.781  1.00  0.00     0.162 C 
BRANCH  25  26
ATOM     26  O   UNL     1       7.593  47.573  54.154  1.00  0.00    -0.379 OA
BRANCH  26  27
ATOM     27  C   UNL     1       8.743  47.914  53.375  1.00  0.00     0.112 C 
ATOM     28  C   UNL     1       8.301  47.932  51.916  1.00  0.00     0.038 C 
ATOM     29  C   UNL     1       9.856  46.889  53.576  1.00  0.00     0.038 C 
ENDBRANCH  26  27
ENDBRANCH  25  26
ENDBRANCH  24  25
ENDBRANCH   1  24
TORSDOF 8
ENDMDL
MODEL 3
REMARK VINA RESULT:    -8.647      2.968      6.467
REMARK INTER + INTRA:         -13.683
REMARK INTER:                 -12.359
REMARK INTRA:                  -1.324
REMARK UNBOUND:                -0.992
REMARK SMILES Cc1c(Cl)cccc1Nc1nc(NCCCOC(C)C)nc2c1cnn2C
REMARK SMILES IDX 14 1 13 2 12 4 10 5 11 6 23 7 22 8 24 9 21 10 26 11 25 12
REMARK SMILES IDX 27 13 9 14 8 16 2 17 3 18 5 19 7 20 6 21 1 22 4 23 15 24
REMARK SMILES IDX 16 25 17 26 18 27 19 28 20 29
REMARK H PARENT 13 3 9 15
ROOT
ATOM      1  C   UNL     1       3.652  46.683  54.550  1.00  0.00     0.118 C 
ENDROOT
BRANCH   1   2
ATOM      2  N   UNL     1       4.922  47.196  55.048  1.00  0.00    -0.354 N 
ATOM      3  H   UNL     1       4.939  48.200  55.201  1.00  0.00     0.163 HD
BRANCH   2   4
ATOM      4  C   UNL     1       6.023  46.955  54.233  1.00  0.00     0.226 A 
ATOM      5  C   UNL     1       6.691  46.201  52.109  1.00  0.00     0.147 A 
ATOM      6  N   UNL     1       5.716  46.477  53.015  1.00  0.00    -0.195 NA
ATOM      7  C   UNL     1       8.012  46.432  52.504  1.00  0.00     0.082 A 
ATOM      8  C   UNL     1       8.208  46.921  53.780  1.00  0.00     0.165 A 
ATOM      9  C   UNL     1       9.312  46.303  51.975  1.00  0.00     0.149 A 
ATOM     10  N   UNL     1       7.259  47.200  54.683  1.00  0.00    -0.193 NA
ATOM     11  N   UNL     1       9.560  47.058  53.929  1.00  0.00    -0.250 N 
ATOM     12  N   UNL     1      10.265  46.690  52.831  1.00  0.00    -0.179 NA
ATOM     13  C   UNL     1      10.260  47.533  55.096  1.00  0.00     0.176 C 
BRANCH   5  14
ATOM     14  N   UNL     1       6.374  45.712  50.824  1.00  0.00    -0.339 N 
ATOM     15  H   UNL     1       5.657  46.279  50.387  1.00  0.00     0.168 HD
BRANCH  14  16
ATOM     16  C   UNL     1       6.299  44.348  50.459  1.00  0.00     0.044 A 
ATOM     17  C   UNL     1       5.173  43.540  50.740  1.00  0.00    -0.009 A 
ATOM     18  C   UNL     1       5.141  42.226  50.231  1.00  0.00     0.046 A 
ATOM     19  C   UNL     1       6.210  41.711  49.492  1.00  0.00     0.021 A 
ATOM     20  C   UNL     1       7.363  43.810  49.711  1.00  0.00     0.026 A 
ATOM     21  C   UNL     1       7.325  42.500  49.237  1.00  0.00     0.004 A 
ATOM     22  C   UNL     1       4.024  44.056  51.569  1.00  0.00     0.048 C 
ATOM     23  Cl  UNL     1       3.785  41.181  50.483  1.00  0.00    -0.084 Cl
ENDBRANCH  14  16
ENDBRANCH   5  14
ENDBRANCH   2   4
ENDBRANCH   1   2
BRANCH   1  24
ATOM     24  C   UNL     1       3.161  45.517  55.410  1.00  0.00     0.050 C 
BRANCH  24  25
ATOM     25  C   UNL     1       1.705  45.175  55.119  1.00  0.00     0.162 C 
BRANCH  25  26
ATOM     26  O   UNL     1       1.650  44.036  54.263  1.00  0.00    -0.379 OA
BRANCH  26  27
ATOM     27  C   UNL     1       0.546  44.053  53.354  1.00  0.00     0.112 C 
ATOM     28  C   UNL     1       0.625  42.769  52.535  1.00  0.00     0.038 C 
ATOM     29  C   UNL     1       0.619  45.270  52.437  1.00  0.00     0.038 C 
ENDBRANCH  26  27
ENDBRANCH  25  26
ENDBRANCH  24  25
ENDBRANCH   1  24
TORSDOF 8
ENDMDL
MODEL 4
REMARK VINA RESULT:    -8.467      2.871      6.461
REMARK INTER + INTRA:         -13.419
REMARK INTER:                 -11.968
REMARK INTRA:                  -1.451
REMARK UNBOUND:                -0.992
REMARK SMILES Cc1c(Cl)cccc1Nc1nc(NCCCOC(C)C)nc2c1cnn2C
REMARK SMILES IDX 14 1 13 2 12 4 10 5 11 6 23 7 22 8 24 9 21 10 26 11 25 12
REMARK SMILES IDX 27 13 9 14 8 16 2 17 3 18 5 19 7 20 6 21 1 22 4 23 15 24
REMARK SMILES IDX 16 25 17 26 18 27 19 28 20 29
REMARK H PARENT 13 3 9 15
ROOT
ATOM      1  C   UNL     1       2.199  45.538  54.511  1.00  0.00     0.118 C 
ENDROOT
BRANCH   1   2
ATOM      2  N   UNL     1       2.915  44.284  54.318  1.00  0.00    -0.354 N 
ATOM      3  H   UNL     1       3.481  43.996  55.111  1.00  0.00     0.163 HD
BRANCH   2   4
ATOM      4  C   UNL     1       3.796  44.261  53.242  1.00  0.00     0.226 A 
ATOM      5  C   UNL     1       5.460  45.483  52.116  1.00  0.00     0.147 A 
ATOM      6  N   UNL     1       4.548  45.368  53.119  1.00  0.00    -0.195 NA
ATOM      7  C   UNL     1       5.569  44.409  51.228  1.00  0.00     0.082 A 
ATOM      8  C   UNL     1       4.743  43.326  51.450  1.00  0.00     0.165 A 
ATOM      9  C   UNL     1       6.307  44.057  50.080  1.00  0.00     0.149 A 
ATOM     10  N   UNL     1       3.843  43.196  52.433  1.00  0.00    -0.193 NA
ATOM     11  N   UNL     1       5.030  42.422  50.464  1.00  0.00    -0.250 N 
ATOM     12  N   UNL     1       5.994  42.844  49.610  1.00  0.00    -0.179 NA
ATOM     13  C   UNL     1       4.422  41.130  50.269  1.00  0.00     0.176 C 
BRANCH   5  14
ATOM     14  N   UNL     1       6.262  46.636  51.990  1.00  0.00    -0.339 N 
ATOM     15  H   UNL     1       5.987  47.184  51.183  1.00  0.00     0.168 HD
BRANCH  14  16
ATOM     16  C   UNL     1       7.649  46.706  52.259  1.00  0.00     0.044 A 
ATOM     17  C   UNL     1       8.167  46.967  53.548  1.00  0.00    -0.009 A 
ATOM     18  C   UNL     1       9.562  46.897  53.740  1.00  0.00     0.046 A 
ATOM     19  C   UNL     1      10.425  46.613  52.679  1.00  0.00     0.021 A 
ATOM     20  C   UNL     1       8.536  46.420  51.204  1.00  0.00     0.026 A 
ATOM     21  C   UNL     1       9.913  46.381  51.408  1.00  0.00     0.004 A 
ATOM     22  C   UNL     1       7.263  47.315  54.702  1.00  0.00     0.048 C 
ATOM     23  Cl  UNL     1      10.284  47.153  55.293  1.00  0.00    -0.084 Cl
ENDBRANCH  14  16
ENDBRANCH   5  14
ENDBRANCH   2   4
ENDBRANCH   1   2
BRANCH   1  24
ATOM     24  C   UNL     1       0.884  45.304  55.258  1.00  0.00     0.050 C 
BRANCH  24  25
ATOM     25  C   UNL     1      -0.188  44.720  54.345  1.00  0.00     0.162 C 
BRANCH  25  26
ATOM     26  O   UNL     1       0.307  44.666  53.010  1.00  0.00    -0.379 OA
BRANCH  26  27
ATOM     27  C   UNL     1      -0.136  43.520  52.279  1.00  0.00     0.112 C 
ATOM     28  C   UNL     1       0.132  42.303  53.158  1.00  0.00     0.038 C 
ATOM     29  C   UNL     1       0.620  43.395  50.959  1.00  0.00     0.038 C 
ENDBRANCH  26  27
ENDBRANCH  25  26
ENDBRANCH  24  25
ENDBRANCH   1  24
TORSDOF 8
ENDMDL
MODEL 5
REMARK VINA RESULT:    -8.373      2.986      6.643
REMARK INTER + INTRA:         -13.282
REMARK INTER:                 -12.382
REMARK INTRA:                  -0.900
REMARK UNBOUND:                -0.992
REMARK SMILES Cc1c(Cl)cccc1Nc1nc(NCCCOC(C)C)nc2c1cnn2C
REMARK SMILES IDX 14 1 13 2 12 4 10 5 11 6 23 7 22 8 24 9 21 10 26 11 25 12
REMARK SMILES IDX 27 13 9 14 8 16 2 17 3 18 5 19 7 20 6 21 1 22 4 23 15 24
REMARK SMILES IDX 16 25 17 26 18 27 19 28 20 29
REMARK H PARENT 13 3 9 15
ROOT
ATOM      1  C   UNL     1       3.626  46.697  54.558  1.00  0.00     0.118 C 
ENDROOT
BRANCH   1   2
ATOM      2  N   UNL     1       4.838  47.403  54.950  1.00  0.00    -0.354 N 
ATOM      3  H   UNL     1       4.765  48.416  54.916  1.00  0.00     0.163 HD
BRANCH   2   4
ATOM      4  C   UNL     1       5.967  47.116  54.190  1.00  0.00     0.226 A 
ATOM      5  C   UNL     1       6.708  46.309  52.109  1.00  0.00     0.147 A 
ATOM      6  N   UNL     1       5.701  46.629  52.966  1.00  0.00    -0.195 NA
ATOM      7  C   UNL     1       8.016  46.505  52.562  1.00  0.00     0.082 A 
ATOM      8  C   UNL     1       8.169  47.006  53.838  1.00  0.00     0.165 A 
ATOM      9  C   UNL     1       9.334  46.328  52.095  1.00  0.00     0.149 A 
ATOM     10  N   UNL     1       7.189  47.328  54.693  1.00  0.00    -0.193 NA
ATOM     11  N   UNL     1       9.517  47.103  54.048  1.00  0.00    -0.250 N 
ATOM     12  N   UNL     1      10.258  46.697  52.989  1.00  0.00    -0.179 NA
ATOM     13  C   UNL     1      10.176  47.573  55.240  1.00  0.00     0.176 C 
BRANCH   5  14
ATOM     14  N   UNL     1       6.434  45.812  50.817  1.00  0.00    -0.339 N 
ATOM     15  H   UNL     1       5.700  46.349  50.370  1.00  0.00     0.168 HD
BRANCH  14  16
ATOM     16  C   UNL     1       6.426  44.448  50.446  1.00  0.00     0.044 A 
ATOM     17  C   UNL     1       5.348  43.581  50.737  1.00  0.00    -0.009 A 
ATOM     18  C   UNL     1       5.379  42.270  50.221  1.00  0.00     0.046 A 
ATOM     19  C   UNL     1       6.464  41.814  49.467  1.00  0.00     0.021 A 
ATOM     20  C   UNL     1       7.508  43.970  49.683  1.00  0.00     0.026 A 
ATOM     21  C   UNL     1       7.532  42.662  49.203  1.00  0.00     0.004 A 
ATOM     22  C   UNL     1       4.184  44.032  51.582  1.00  0.00     0.048 C 
ATOM     23  Cl  UNL     1       4.083  41.153  50.485  1.00  0.00    -0.084 Cl
ENDBRANCH  14  16
ENDBRANCH   5  14
ENDBRANCH   2   4
ENDBRANCH   1   2
BRANCH   1  24
ATOM     24  C   UNL     1       3.431  45.438  55.405  1.00  0.00     0.050 C 
BRANCH  24  25
ATOM     25  C   UNL     1       2.004  44.911  55.313  1.00  0.00     0.162 C 
BRANCH  25  26
ATOM     26  O   UNL     1       1.230  45.454  56.380  1.00  0.00    -0.379 OA
BRANCH  26  27
ATOM     27  C   UNL     1      -0.133  45.021  56.379  1.00  0.00     0.112 C 
ATOM     28  C   UNL     1      -0.491  44.684  54.935  1.00  0.00     0.038 C 
ATOM     29  C   UNL     1      -1.050  46.120  56.908  1.00  0.00     0.038 C 
ENDBRANCH  26  27
ENDBRANCH  25  26
ENDBRANCH  24  25
ENDBRANCH   1  24
TORSDOF 8
ENDMDL
MODEL 6
REMARK VINA RESULT:    -8.273      1.529      2.308
REMARK INTER + INTRA:         -13.134
REMARK INTER:                 -12.329
REMARK INTRA:                  -0.805
REMARK UNBOUND:                -0.992
REMARK SMILES Cc1c(Cl)cccc1Nc1nc(NCCCOC(C)C)nc2c1cnn2C
REMARK SMILES IDX 14 1 13 2 12 4 10 5 11 6 23 7 22 8 24 9 21 10 26 11 25 12
REMARK SMILES IDX 27 13 9 14 8 16 2 17 3 18 5 19 7 20 6 21 1 22 4 23 15 24
REMARK SMILES IDX 16 25 17 26 18 27 19 28 20 29
REMARK H PARENT 13 3 9 15
ROOT
ATOM      1  C   UNL     1       4.318  47.202  52.839  1.00  0.00     0.118 C 
ENDROOT
BRANCH   1   2
ATOM      2  N   UNL     1       2.864  47.125  52.793  1.00  0.00    -0.354 N 
ATOM      3  H   UNL     1       2.390  47.667  53.511  1.00  0.00     0.163 HD
BRANCH   2   4
ATOM      4  C   UNL     1       2.330  45.847  52.920  1.00  0.00     0.226 A 
ATOM      5  C   UNL     1       2.809  43.554  52.716  1.00  0.00     0.147 A 
ATOM      6  N   UNL     1       3.190  44.857  52.629  1.00  0.00    -0.195 NA
ATOM      7  C   UNL     1       1.492  43.302  53.112  1.00  0.00     0.082 A 
ATOM      8  C   UNL     1       0.697  44.397  53.382  1.00  0.00     0.165 A 
ATOM      9  C   UNL     1       0.648  42.194  53.331  1.00  0.00     0.149 A 
ATOM     10  N   UNL     1       1.059  45.684  53.304  1.00  0.00    -0.193 NA
ATOM     11  N   UNL     1      -0.525  43.899  53.740  1.00  0.00    -0.250 N 
ATOM     12  N   UNL     1      -0.582  42.545  53.723  1.00  0.00    -0.179 NA
ATOM     13  C   UNL     1      -1.694  44.656  54.110  1.00  0.00     0.176 C 
BRANCH   5  14
ATOM     14  N   UNL     1       3.712  42.510  52.426  1.00  0.00    -0.339 N 
ATOM     15  H   UNL     1       4.317  42.324  53.216  1.00  0.00     0.168 HD
BRANCH  14  16
ATOM     16  C   UNL     1       4.347  42.295  51.181  1.00  0.00     0.044 A 
ATOM     17  C   UNL     1       5.485  43.022  50.765  1.00  0.00    -0.009 A 
ATOM     18  C   UNL     1       6.119  42.652  49.561  1.00  0.00     0.046 A 
ATOM     19  C   UNL     1       5.620  41.614  48.770  1.00  0.00     0.021 A 
ATOM     20  C   UNL     1       3.862  41.251  50.370  1.00  0.00     0.026 A 
ATOM     21  C   UNL     1       4.487  40.917  49.171  1.00  0.00     0.004 A 
ATOM     22  C   UNL     1       6.022  44.172  51.578  1.00  0.00     0.048 C 
ATOM     23  Cl  UNL     1       7.546  43.453  48.997  1.00  0.00    -0.084 Cl
ENDBRANCH  14  16
ENDBRANCH   5  14
ENDBRANCH   2   4
ENDBRANCH   1   2
BRANCH   1  24
ATOM     24  C   UNL     1       4.806  47.427  54.271  1.00  0.00     0.050 C 
BRANCH  24  25
ATOM     25  C   UNL     1       6.083  46.647  54.562  1.00  0.00     0.162 C 
BRANCH  25  26
ATOM     26  O   UNL     1       7.201  47.529  54.493  1.00  0.00    -0.379 OA
BRANCH  26  27
ATOM     27  C   UNL     1       8.126  47.202  53.453  1.00  0.00     0.112 C 
ATOM     28  C   UNL     1       9.519  47.232  54.074  1.00  0.00     0.038 C 
ATOM     29  C   UNL     1       8.036  48.211  52.312  1.00  0.00     0.038 C 
ENDBRANCH  26  27
ENDBRANCH  25  26
ENDBRANCH  24  25
ENDBRANCH   1  24
TORSDOF 8
ENDMDL
MODEL 7
REMARK VINA RESULT:    -8.169      3.381      5.180
REMARK INTER + INTRA:         -12.981
REMARK INTER:                 -11.488
REMARK INTRA:                  -1.493
REMARK UNBOUND:                -0.992
REMARK SMILES Cc1c(Cl)cccc1Nc1nc(NCCCOC(C)C)nc2c1cnn2C
REMARK SMILES IDX 14 1 13 2 12 4 10 5 11 6 23 7 22 8 24 9 21 10 26 11 25 12
REMARK SMILES IDX 27 13 9 14 8 16 2 17 3 18 5 19 7 20 6 21 1 22 4 23 15 24
REMARK SMILES IDX 16 25 17 26 18 27 19 28 20 29
REMARK H PARENT 13 3 9 15
ROOT
ATOM      1  C   UNL     1       9.288  44.629  50.018  1.00  0.00     0.118 C 
ENDROOT
BRANCH   1   2
ATOM      2  N   UNL     1       7.987  45.268  50.167  1.00  0.00    -0.354 N 
ATOM      3  H   UNL     1       7.930  45.934  50.932  1.00  0.00     0.163 HD
BRANCH   2   4
ATOM      4  C   UNL     1       6.920  44.403  50.387  1.00  0.00     0.226 A 
ATOM      5  C   UNL     1       5.905  42.409  49.664  1.00  0.00     0.147 A 
ATOM      6  N   UNL     1       6.888  43.343  49.561  1.00  0.00    -0.195 NA
ATOM      7  C   UNL     1       4.939  42.608  50.655  1.00  0.00     0.082 A 
ATOM      8  C   UNL     1       5.071  43.734  51.442  1.00  0.00     0.165 A 
ATOM      9  C   UNL     1       3.774  41.978  51.137  1.00  0.00     0.149 A 
ATOM     10  N   UNL     1       6.034  44.660  51.355  1.00  0.00    -0.193 NA
ATOM     11  N   UNL     1       4.022  43.707  52.319  1.00  0.00    -0.250 N 
ATOM     12  N   UNL     1       3.210  42.634  52.158  1.00  0.00    -0.179 NA
ATOM     13  C   UNL     1       3.724  44.677  53.343  1.00  0.00     0.176 C 
BRANCH   5  14
ATOM     14  N   UNL     1       5.874  41.287  48.810  1.00  0.00    -0.339 N 
ATOM     15  H   UNL     1       6.756  40.788  48.834  1.00  0.00     0.168 HD
BRANCH  14  16
ATOM     16  C   UNL     1       5.243  41.233  47.546  1.00  0.00     0.044 A 
ATOM     17  C   UNL     1       4.049  40.512  47.316  1.00  0.00    -0.009 A 
ATOM     18  C   UNL     1       3.431  40.616  46.053  1.00  0.00     0.046 A 
ATOM     19  C   UNL     1       3.997  41.385  45.032  1.00  0.00     0.021 A 
ATOM     20  C   UNL     1       5.795  42.003  46.504  1.00  0.00     0.026 A 
ATOM     21  C   UNL     1       5.183  42.073  45.255  1.00  0.00     0.004 A 
ATOM     22  C   UNL     1       3.438  39.643  48.385  1.00  0.00     0.048 C 
ATOM     23  Cl  UNL     1       1.942  39.808  45.695  1.00  0.00    -0.084 Cl
ENDBRANCH  14  16
ENDBRANCH   5  14
ENDBRANCH   2   4
ENDBRANCH   1   2
BRANCH   1  24
ATOM     24  C   UNL     1      10.250  45.090  51.114  1.00  0.00     0.050 C 
BRANCH  24  25
ATOM     25  C   UNL     1       9.791  46.394  51.756  1.00  0.00     0.162 C 
BRANCH  25  26
ATOM     26  O   UNL     1       8.988  46.102  52.897  1.00  0.00    -0.379 OA
BRANCH  26  27
ATOM     27  C   UNL     1       8.322  47.245  53.439  1.00  0.00     0.112 C 
ATOM     28  C   UNL     1       8.099  48.217  52.285  1.00  0.00     0.038 C 
ATOM     29  C   UNL     1       9.170  47.901  54.525  1.00  0.00     0.038 C 
ENDBRANCH  26  27
ENDBRANCH  25  26
ENDBRANCH  24  25
ENDBRANCH   1  24
TORSDOF 8
ENDMDL
MODEL 8
REMARK VINA RESULT:    -8.162      3.488      6.428
REMARK INTER + INTRA:         -12.971
REMARK INTER:                 -11.897
REMARK INTRA:                  -1.074
REMARK UNBOUND:                -0.992
REMARK SMILES Cc1c(Cl)cccc1Nc1nc(NCCCOC(C)C)nc2c1cnn2C
REMARK SMILES IDX 14 1 13 2 12 4 10 5 11 6 23 7 22 8 24 9 21 10 26 11 25 12
REMARK SMILES IDX 27 13 9 14 8 16 2 17 3 18 5 19 7 20 6 21 1 22 4 23 15 24
REMARK SMILES IDX 16 25 17 26 18 27 19 28 20 29
REMARK H PARENT 13 3 9 15
ROOT
ATOM      1  C   UNL     1       5.489  41.573  50.121  1.00  0.00     0.118 C 
ENDROOT
BRANCH   1   2
ATOM      2  N   UNL     1       4.398  41.460  51.079  1.00  0.00    -0.354 N 
ATOM      3  H   UNL     1       3.547  41.050  50.703  1.00  0.00     0.163 HD
BRANCH   2   4
ATOM      4  C   UNL     1       3.978  42.658  51.648  1.00  0.00     0.226 A 
ATOM      5  C   UNL     1       4.519  44.931  51.917  1.00  0.00     0.147 A 
ATOM      6  N   UNL     1       4.804  43.695  51.427  1.00  0.00    -0.195 NA
ATOM      7  C   UNL     1       3.340  45.065  52.657  1.00  0.00     0.082 A 
ATOM      8  C   UNL     1       2.571  43.931  52.824  1.00  0.00     0.165 A 
ATOM      9  C   UNL     1       2.637  46.070  53.353  1.00  0.00     0.149 A 
ATOM     10  N   UNL     1       2.837  42.709  52.345  1.00  0.00    -0.193 NA
ATOM     11  N   UNL     1       1.492  44.312  53.572  1.00  0.00    -0.250 N 
ATOM     12  N   UNL     1       1.504  45.625  53.908  1.00  0.00    -0.179 NA
ATOM     13  C   UNL     1       0.405  43.475  54.013  1.00  0.00     0.176 C 
BRANCH   5  14
ATOM     14  N   UNL     1       5.375  46.025  51.676  1.00  0.00    -0.339 N 
ATOM     15  H   UNL     1       5.374  46.277  50.695  1.00  0.00     0.168 HD
BRANCH  14  16
ATOM     16  C   UNL     1       6.623  46.247  52.303  1.00  0.00     0.044 A 
ATOM     17  C   UNL     1       7.857  45.971  51.672  1.00  0.00    -0.009 A 
ATOM     18  C   UNL     1       9.048  46.338  52.331  1.00  0.00     0.046 A 
ATOM     19  C   UNL     1       9.022  46.930  53.596  1.00  0.00     0.021 A 
ATOM     20  C   UNL     1       6.619  46.846  53.577  1.00  0.00     0.026 A 
ATOM     21  C   UNL     1       7.807  47.178  54.223  1.00  0.00     0.004 A 
ATOM     22  C   UNL     1       7.916  45.297  50.325  1.00  0.00     0.048 C 
ATOM     23  Cl  UNL     1      10.604  46.083  51.615  1.00  0.00    -0.084 Cl
ENDBRANCH  14  16
ENDBRANCH   5  14
ENDBRANCH   2   4
ENDBRANCH   1   2
BRANCH   1  24
ATOM     24  C   UNL     1       5.023  41.183  48.717  1.00  0.00     0.050 C 
BRANCH  24  25
ATOM     25  C   UNL     1       3.738  40.363  48.756  1.00  0.00     0.162 C 
BRANCH  25  26
ATOM     26  O   UNL     1       2.998  40.589  47.559  1.00  0.00    -0.379 OA
BRANCH  26  27
ATOM     27  C   UNL     1       3.298  39.659  46.514  1.00  0.00     0.112 C 
ATOM     28  C   UNL     1       2.670  40.209  45.238  1.00  0.00     0.038 C 
ATOM     29  C   UNL     1       2.724  38.283  46.834  1.00  0.00     0.038 C 
ENDBRANCH  26  27
ENDBRANCH  25  26
ENDBRANCH  24  25
ENDBRANCH   1  24
TORSDOF 8
ENDMDL
MODEL 9
REMARK VINA RESULT:    -8.134      2.972      6.741
REMARK INTER + INTRA:         -12.930
REMARK INTER:                 -11.725
REMARK INTRA:                  -1.205
REMARK UNBOUND:                -0.992
REMARK SMILES Cc1c(Cl)cccc1Nc1nc(NCCCOC(C)C)nc2c1cnn2C
REMARK SMILES IDX 14 1 13 2 12 4 10 5 11 6 23 7 22 8 24 9 21 10 26 11 25 12
REMARK SMILES IDX 27 13 9 14 8 16 2 17 3 18 5 19 7 20 6 21 1 22 4 23 15 24
REMARK SMILES IDX 16 25 17 26 18 27 19 28 20 29
REMARK H PARENT 13 3 9 15
ROOT
ATOM      1  C   UNL     1       2.017  45.662  54.072  1.00  0.00     0.118 C 
ENDROOT
BRANCH   1   2
ATOM      2  N   UNL     1       2.959  44.556  54.176  1.00  0.00    -0.354 N 
ATOM      3  H   UNL     1       3.548  44.580  55.004  1.00  0.00     0.163 HD
BRANCH   2   4
ATOM      4  C   UNL     1       3.858  44.438  53.121  1.00  0.00     0.226 A 
ATOM      5  C   UNL     1       5.602  45.522  51.975  1.00  0.00     0.147 A 
ATOM      6  N   UNL     1       4.667  45.500  52.963  1.00  0.00    -0.195 NA
ATOM      7  C   UNL     1       5.674  44.403  51.141  1.00  0.00     0.082 A 
ATOM      8  C   UNL     1       4.790  43.374  51.395  1.00  0.00     0.165 A 
ATOM      9  C   UNL     1       6.415  43.961  50.026  1.00  0.00     0.149 A 
ATOM     10  N   UNL     1       3.867  43.335  52.364  1.00  0.00    -0.193 NA
ATOM     11  N   UNL     1       5.051  42.412  50.459  1.00  0.00    -0.250 N 
ATOM     12  N   UNL     1       6.050  42.744  49.606  1.00  0.00    -0.179 NA
ATOM     13  C   UNL     1       4.382  41.143  50.311  1.00  0.00     0.176 C 
BRANCH   5  14
ATOM     14  N   UNL     1       6.464  46.627  51.814  1.00  0.00    -0.339 N 
ATOM     15  H   UNL     1       6.252  47.131  50.960  1.00  0.00     0.168 HD
BRANCH  14  16
ATOM     16  C   UNL     1       7.838  46.653  52.144  1.00  0.00     0.044 A 
ATOM     17  C   UNL     1       8.310  47.003  53.430  1.00  0.00    -0.009 A 
ATOM     18  C   UNL     1       9.689  46.883  53.697  1.00  0.00     0.046 A 
ATOM     19  C   UNL     1      10.584  46.463  52.710  1.00  0.00     0.021 A 
ATOM     20  C   UNL     1       8.756  46.230  51.164  1.00  0.00     0.026 A 
ATOM     21  C   UNL     1      10.119  46.142  51.440  1.00  0.00     0.004 A 
ATOM     22  C   UNL     1       7.374  47.499  54.502  1.00  0.00     0.048 C 
ATOM     23  Cl  UNL     1      10.352  47.243  55.256  1.00  0.00    -0.084 Cl
ENDBRANCH  14  16
ENDBRANCH   5  14
ENDBRANCH   2   4
ENDBRANCH   1   2
BRANCH   1  24
ATOM     24  C   UNL     1       1.212  45.572  52.774  1.00  0.00     0.050 C 
BRANCH  24  25
ATOM     25  C   UNL     1      -0.141  44.905  52.993  1.00  0.00     0.162 C 
BRANCH  25  26
ATOM     26  O   UNL     1      -0.020  43.916  54.012  1.00  0.00    -0.379 OA
BRANCH  26  27
ATOM     27  C   UNL     1      -1.165  43.825  54.864  1.00  0.00     0.112 C 
ATOM     28  C   UNL     1      -2.346  44.387  54.080  1.00  0.00     0.038 C 
ATOM     29  C   UNL     1      -0.951  44.628  56.144  1.00  0.00     0.038 C 
ENDBRANCH  26  27
ENDBRANCH  25  26
ENDBRANCH  24  25
ENDBRANCH   1  24
TORSDOF 8
ENDMDL
MODEL 10
REMARK VINA RESULT:    -8.082      2.691      5.531
REMARK INTER + INTRA:         -12.853
REMARK INTER:                 -11.982
REMARK INTRA:                  -0.871
REMARK UNBOUND:                -0.992
REMARK SMILES Cc1c(Cl)cccc1Nc1nc(NCCCOC(C)C)nc2c1cnn2C
REMARK SMILES IDX 14 1 13 2 12 4 10 5 11 6 23 7 22 8 24 9 21 10 26 11 25 12
REMARK SMILES IDX 27 13 9 14 8 16 2 17 3 18 5 19 7 20 6 21 1 22 4 23 15 24
REMARK SMILES IDX 16 25 17 26 18 27 19 28 20 29
REMARK H PARENT 13 3 9 15
ROOT
ATOM      1  C   UNL     1       5.039  47.089  53.860  1.00  0.00     0.118 C 
ENDROOT
BRANCH   1   2
ATOM      2  N   UNL     1       4.920  46.800  52.437  1.00  0.00    -0.354 N 
ATOM      3  H   UNL     1       4.158  47.284  51.971  1.00  0.00     0.163 HD
BRANCH   2   4
ATOM      4  C   UNL     1       4.722  45.461  52.115  1.00  0.00     0.226 A 
ATOM      5  C   UNL     1       3.409  43.566  52.575  1.00  0.00     0.147 A 
ATOM      6  N   UNL     1       3.722  44.872  52.791  1.00  0.00    -0.195 NA
ATOM      7  C   UNL     1       4.174  42.876  51.630  1.00  0.00     0.082 A 
ATOM      8  C   UNL     1       5.178  43.583  50.999  1.00  0.00     0.165 A 
ATOM      9  C   UNL     1       4.260  41.581  51.080  1.00  0.00     0.149 A 
ATOM     10  N   UNL     1       5.497  44.868  51.199  1.00  0.00    -0.193 NA
ATOM     11  N   UNL     1       5.775  42.705  50.138  1.00  0.00    -0.250 N 
ATOM     12  N   UNL     1       5.227  41.466  50.162  1.00  0.00    -0.179 NA
ATOM     13  C   UNL     1       6.884  42.974  49.256  1.00  0.00     0.176 C 
BRANCH   5  14
ATOM     14  N   UNL     1       2.351  42.945  53.271  1.00  0.00    -0.339 N 
ATOM     15  H   UNL     1       2.050  42.102  52.797  1.00  0.00     0.168 HD
BRANCH  14  16
ATOM     16  C   UNL     1       1.295  43.617  53.930  1.00  0.00     0.044 A 
ATOM     17  C   UNL     1      -0.062  43.443  53.575  1.00  0.00    -0.009 A 
ATOM     18  C   UNL     1      -1.051  44.061  54.368  1.00  0.00     0.046 A 
ATOM     19  C   UNL     1      -0.706  44.860  55.461  1.00  0.00     0.021 A 
ATOM     20  C   UNL     1       1.620  44.423  55.037  1.00  0.00     0.026 A 
ATOM     21  C   UNL     1       0.630  45.047  55.793  1.00  0.00     0.004 A 
ATOM     22  C   UNL     1      -0.462  42.620  52.377  1.00  0.00     0.048 C 
ATOM     23  Cl  UNL     1      -2.739  43.866  54.039  1.00  0.00    -0.084 Cl
ENDBRANCH  14  16
ENDBRANCH   5  14
ENDBRANCH   2   4
ENDBRANCH   1   2
BRANCH   1  24
ATOM     24  C   UNL     1       6.118  46.216  54.504  1.00  0.00     0.050 C 
BRANCH  24  25
ATOM     25  C   UNL     1       7.467  46.924  54.545  1.00  0.00     0.162 C 
BRANCH  25  26
ATOM     26  O   UNL     1       7.805  47.372  53.235  1.00  0.00    -0.379 OA
BRANCH  26  27
ATOM     27  C   UNL     1       9.210  47.547  53.033  1.00  0.00     0.112 C 
ATOM     28  C   UNL     1       9.619  46.596  51.913  1.00  0.00     0.038 C 
ATOM     29  C   UNL     1       9.984  47.225  54.308  1.00  0.00     0.038 C 
ENDBRANCH  26  27
ENDBRANCH  25  26
ENDBRANCH  24  25
ENDBRANCH   1  24
TORSDOF 8
ENDMDL
MODEL 11
REMARK VINA RESULT:    -8.066      2.983      5.619
REMARK INTER + INTRA:         -12.830
REMARK INTER:                 -11.223
REMARK INTRA:                  -1.607
REMARK UNBOUND:                -0.992
REMARK SMILES Cc1c(Cl)cccc1Nc1nc(NCCCOC(C)C)nc2c1cnn2C
REMARK SMILES IDX 14 1 13 2 12 4 10 5 11 6 23 7 22 8 24 9 21 10 26 11 25 12
REMARK SMILES IDX 27 13 9 14 8 16 2 17 3 18 5 19 7 20 6 21 1 22 4 23 15 24
REMARK SMILES IDX 16 25 17 26 18 27 19 28 20 29
REMARK H PARENT 13 3 9 15
ROOT
ATOM      1  C   UNL     1       9.096  45.306  50.511  1.00  0.00     0.118 C 
ENDROOT
BRANCH   1   2
ATOM      2  N   UNL     1       7.922  46.117  50.807  1.00  0.00    -0.354 N 
ATOM      3  H   UNL     1       7.990  46.659  51.664  1.00  0.00     0.163 HD
BRANCH   2   4
ATOM      4  C   UNL     1       6.730  45.414  50.940  1.00  0.00     0.226 A 
ATOM      5  C   UNL     1       4.502  45.567  51.675  1.00  0.00     0.147 A 
ATOM      6  N   UNL     1       5.729  46.123  51.490  1.00  0.00    -0.195 NA
ATOM      7  C   UNL     1       4.338  44.237  51.276  1.00  0.00     0.082 A 
ATOM      8  C   UNL     1       5.437  43.607  50.728  1.00  0.00     0.165 A 
ATOM      9  C   UNL     1       3.329  43.253  51.266  1.00  0.00     0.149 A 
ATOM     10  N   UNL     1       6.650  44.141  50.536  1.00  0.00    -0.193 NA
ATOM     11  N   UNL     1       5.033  42.336  50.426  1.00  0.00    -0.250 N 
ATOM     12  N   UNL     1       3.738  42.092  50.741  1.00  0.00    -0.179 NA
ATOM     13  C   UNL     1       5.831  41.291  49.835  1.00  0.00     0.176 C 
BRANCH   5  14
ATOM     14  N   UNL     1       3.443  46.310  52.238  1.00  0.00    -0.339 N 
ATOM     15  H   UNL     1       3.570  47.303  52.077  1.00  0.00     0.168 HD
BRANCH  14  16
ATOM     16  C   UNL     1       2.802  46.027  53.466  1.00  0.00     0.044 A 
ATOM     17  C   UNL     1       1.465  45.573  53.546  1.00  0.00    -0.009 A 
ATOM     18  C   UNL     1       0.953  45.203  54.806  1.00  0.00     0.046 A 
ATOM     19  C   UNL     1       1.729  45.312  55.963  1.00  0.00     0.021 A 
ATOM     20  C   UNL     1       3.567  46.128  54.644  1.00  0.00     0.026 A 
ATOM     21  C   UNL     1       3.035  45.781  55.884  1.00  0.00     0.004 A 
ATOM     22  C   UNL     1       0.592  45.484  52.321  1.00  0.00     0.048 C 
ATOM     23  Cl  UNL     1      -0.655  44.591  54.995  1.00  0.00    -0.084 Cl
ENDBRANCH  14  16
ENDBRANCH   5  14
ENDBRANCH   2   4
ENDBRANCH   1   2
BRANCH   1  24
ATOM     24  C   UNL     1      10.302  45.776  51.327  1.00  0.00     0.050 C 
BRANCH  24  25
ATOM     25  C   UNL     1       9.921  46.086  52.770  1.00  0.00     0.162 C 
BRANCH  25  26
ATOM     26  O   UNL     1       9.613  47.472  52.890  1.00  0.00    -0.379 OA
BRANCH  26  27
ATOM     27  C   UNL     1       9.045  47.828  54.153  1.00  0.00     0.112 C 
ATOM     28  C   UNL     1      10.092  47.508  55.216  1.00  0.00     0.038 C 
ATOM     29  C   UNL     1       7.768  47.035  54.415  1.00  0.00     0.038 C 
ENDBRANCH  26  27
ENDBRANCH  25  26
ENDBRANCH  24  25
ENDBRANCH   1  24
TORSDOF 8
ENDMDL
MODEL 12
REMARK VINA RESULT:    -8.033      3.864      6.644
REMARK INTER + INTRA:         -12.782
REMARK INTER:                 -11.795
REMARK INTRA:                  -0.987
REMARK UNBOUND:                -0.992
REMARK SMILES Cc1c(Cl)cccc1Nc1nc(NCCCOC(C)C)nc2c1cnn2C
REMARK SMILES IDX 14 1 13 2 12 4 10 5 11 6 23 7 22 8 24 9 21 10 26 11 25 12
REMARK SMILES IDX 27 13 9 14 8 16 2 17 3 18 5 19 7 20 6 21 1 22 4 23 15 24
REMARK SMILES IDX 16 25 17 26 18 27 19 28 20 29
REMARK H PARENT 13 3 9 15
ROOT
ATOM      1  C   UNL     1       3.516  40.796  49.658  1.00  0.00     0.118 C 
ENDROOT
BRANCH   1   2
ATOM      2  N   UNL     1       4.395  41.170  50.758  1.00  0.00    -0.354 N 
ATOM      3  H   UNL     1       4.319  40.576  51.579  1.00  0.00     0.163 HD
BRANCH   2   4
ATOM      4  C   UNL     1       4.218  42.459  51.251  1.00  0.00     0.226 A 
ATOM      5  C   UNL     1       5.017  44.667  51.136  1.00  0.00     0.147 A 
ATOM      6  N   UNL     1       5.076  43.365  50.750  1.00  0.00    -0.195 NA
ATOM      7  C   UNL     1       4.037  45.011  52.071  1.00  0.00     0.082 A 
ATOM      8  C   UNL     1       3.214  43.998  52.518  1.00  0.00     0.165 A 
ATOM      9  C   UNL     1       3.592  46.155  52.766  1.00  0.00     0.149 A 
ATOM     10  N   UNL     1       3.257  42.711  52.146  1.00  0.00    -0.193 NA
ATOM     11  N   UNL     1       2.355  44.574  53.413  1.00  0.00    -0.250 N 
ATOM     12  N   UNL     1       2.562  45.902  53.581  1.00  0.00    -0.179 NA
ATOM     13  C   UNL     1       1.308  43.917  54.154  1.00  0.00     0.176 C 
BRANCH   5  14
ATOM     14  N   UNL     1       5.905  45.625  50.603  1.00  0.00    -0.339 N 
ATOM     15  H   UNL     1       5.661  45.854  49.646  1.00  0.00     0.168 HD
BRANCH  14  16
ATOM     16  C   UNL     1       7.297  45.681  50.846  1.00  0.00     0.044 A 
ATOM     17  C   UNL     1       7.863  46.458  51.882  1.00  0.00    -0.009 A 
ATOM     18  C   UNL     1       9.249  46.355  52.122  1.00  0.00     0.046 A 
ATOM     19  C   UNL     1      10.060  45.532  51.336  1.00  0.00     0.021 A 
ATOM     20  C   UNL     1       8.132  44.857  50.067  1.00  0.00     0.026 A 
ATOM     21  C   UNL     1       9.503  44.787  50.304  1.00  0.00     0.004 A 
ATOM     22  C   UNL     1       7.020  47.385  52.719  1.00  0.00     0.048 C 
ATOM     23  Cl  UNL     1      10.022  47.231  53.399  1.00  0.00    -0.084 Cl
ENDBRANCH  14  16
ENDBRANCH   5  14
ENDBRANCH   2   4
ENDBRANCH   1   2
BRANCH   1  24
ATOM     24  C   UNL     1       4.286  40.747  48.338  1.00  0.00     0.050 C 
BRANCH  24  25
ATOM     25  C   UNL     1       3.498  40.028  47.250  1.00  0.00     0.162 C 
BRANCH  25  26
ATOM     26  O   UNL     1       3.466  40.837  46.077  1.00  0.00    -0.379 OA
BRANCH  26  27
ATOM     27  C   UNL     1       4.698  40.843  45.350  1.00  0.00     0.112 C 
ATOM     28  C   UNL     1       4.994  42.296  44.992  1.00  0.00     0.038 C 
ATOM     29  C   UNL     1       4.584  40.000  44.084  1.00  0.00     0.038 C 
ENDBRANCH  26  27
ENDBRANCH  25  26
ENDBRANCH  24  25
ENDBRANCH   1  24
TORSDOF 8
ENDMDL
MODEL 13
REMARK VINA RESULT:    -8.015      3.544      7.362
REMARK INTER + INTRA:         -12.756
REMARK INTER:                 -10.869
REMARK INTRA:                  -1.887
REMARK UNBOUND:                -0.992
REMARK SMILES Cc1c(Cl)cccc1Nc1nc(NCCCOC(C)C)nc2c1cnn2C
REMARK SMILES IDX 14 1 13 2 12 4 10 5 11 6 23 7 22 8 24 9 21 10 26 11 25 12
REMARK SMILES IDX 27 13 9 14 8 16 2 17 3 18 5 19 7 20 6 21 1 22 4 23 15 24
REMARK SMILES IDX 16 25 17 26 18 27 19 28 20 29
REMARK H PARENT 13 3 9 15
ROOT
ATOM      1  C   UNL     1       7.071  42.577  49.602  1.00  0.00     0.118 C 
ENDROOT
BRANCH   1   2
ATOM      2  N   UNL     1       6.170  43.722  49.590  1.00  0.00    -0.354 N 
ATOM      3  H   UNL     1       6.087  44.184  48.689  1.00  0.00     0.163 HD
BRANCH   2   4
ATOM      4  C   UNL     1       6.497  44.747  50.472  1.00  0.00     0.226 A 
ATOM      5  C   UNL     1       5.603  46.369  51.921  1.00  0.00     0.147 A 
ATOM      6  N   UNL     1       5.436  45.352  51.033  1.00  0.00    -0.195 NA
ATOM      7  C   UNL     1       6.916  46.751  52.212  1.00  0.00     0.082 A 
ATOM      8  C   UNL     1       7.926  46.061  51.573  1.00  0.00     0.165 A 
ATOM      9  C   UNL     1       7.590  47.701  53.006  1.00  0.00     0.149 A 
ATOM     10  N   UNL     1       7.778  45.056  50.699  1.00  0.00    -0.193 NA
ATOM     11  N   UNL     1       9.098  46.612  52.012  1.00  0.00    -0.250 N 
ATOM     12  N   UNL     1       8.921  47.620  52.899  1.00  0.00    -0.179 NA
ATOM     13  C   UNL     1      10.433  46.231  51.625  1.00  0.00     0.176 C 
BRANCH   5  14
ATOM     14  N   UNL     1       4.495  46.998  52.525  1.00  0.00    -0.339 N 
ATOM     15  H   UNL     1       4.794  47.720  53.170  1.00  0.00     0.168 HD
BRANCH  14  16
ATOM     16  C   UNL     1       3.303  46.353  52.931  1.00  0.00     0.044 A 
ATOM     17  C   UNL     1       3.066  45.951  54.265  1.00  0.00    -0.009 A 
ATOM     18  C   UNL     1       1.801  45.425  54.595  1.00  0.00     0.046 A 
ATOM     19  C   UNL     1       0.807  45.267  53.626  1.00  0.00     0.021 A 
ATOM     20  C   UNL     1       2.287  46.188  51.970  1.00  0.00     0.026 A 
ATOM     21  C   UNL     1       1.052  45.643  52.311  1.00  0.00     0.004 A 
ATOM     22  C   UNL     1       4.134  46.071  55.322  1.00  0.00     0.048 C 
ATOM     23  Cl  UNL     1       1.403  44.950  56.212  1.00  0.00    -0.084 Cl
ENDBRANCH  14  16
ENDBRANCH   5  14
ENDBRANCH   2   4
ENDBRANCH   1   2
BRANCH   1  24
ATOM     24  C   UNL     1       6.288  41.269  49.724  1.00  0.00     0.050 C 
BRANCH  24  25
ATOM     25  C   UNL     1       4.783  41.508  49.709  1.00  0.00     0.162 C 
BRANCH  25  26
ATOM     26  O   UNL     1       4.286  41.474  51.045  1.00  0.00    -0.379 OA
BRANCH  26  27
ATOM     27  C   UNL     1       3.455  42.589  51.378  1.00  0.00     0.112 C 
ATOM     28  C   UNL     1       3.300  42.589  52.895  1.00  0.00     0.038 C 
ATOM     29  C   UNL     1       2.090  42.466  50.707  1.00  0.00     0.038 C 
ENDBRANCH  26  27
ENDBRANCH  25  26
ENDBRANCH  24  25
ENDBRANCH   1  24
TORSDOF 8
ENDMDL
MODEL 14
REMARK VINA RESULT:    -8.000      2.760      5.572
REMARK INTER + INTRA:         -12.734
REMARK INTER:                 -11.576
REMARK INTRA:                  -1.158
REMARK UNBOUND:                -0.992
REMARK SMILES Cc1c(Cl)cccc1Nc1nc(NCCCOC(C)C)nc2c1cnn2C
REMARK SMILES IDX 14 1 13 2 12 4 10 5 11 6 23 7 22 8 24 9 21 10 26 11 25 12
REMARK SMILES IDX 27 13 9 14 8 16 2 17 3 18 5 19 7 20 6 21 1 22 4 23 15 24
REMARK SMILES IDX 16 25 17 26 18 27 19 28 20 29
REMARK H PARENT 13 3 9 15
ROOT
ATOM      1  C   UNL     1       4.872  47.040  53.822  1.00  0.00     0.118 C 
ENDROOT
BRANCH   1   2
ATOM      2  N   UNL     1       4.887  46.768  52.391  1.00  0.00    -0.354 N 
ATOM      3  H   UNL     1       4.135  47.212  51.870  1.00  0.00     0.163 HD
BRANCH   2   4
ATOM      4  C   UNL     1       4.801  45.425  52.038  1.00  0.00     0.226 A 
ATOM      5  C   UNL     1       3.624  43.427  52.424  1.00  0.00     0.147 A 
ATOM      6  N   UNL     1       3.830  44.748  52.673  1.00  0.00    -0.195 NA
ATOM      7  C   UNL     1       4.466  42.817  51.489  1.00  0.00     0.082 A 
ATOM      8  C   UNL     1       5.430  43.610  50.902  1.00  0.00     0.165 A 
ATOM      9  C   UNL     1       4.665  41.543  50.918  1.00  0.00     0.149 A 
ATOM     10  N   UNL     1       5.644  44.912  51.135  1.00  0.00    -0.193 NA
ATOM     11  N   UNL     1       6.117  42.798  50.043  1.00  0.00    -0.250 N 
ATOM     12  N   UNL     1       5.664  41.521  50.028  1.00  0.00    -0.179 NA
ATOM     13  C   UNL     1       7.226  43.169  49.200  1.00  0.00     0.176 C 
BRANCH   5  14
ATOM     14  N   UNL     1       2.596  42.714  53.076  1.00  0.00    -0.339 N 
ATOM     15  H   UNL     1       2.771  41.716  53.046  1.00  0.00     0.168 HD
BRANCH  14  16
ATOM     16  C   UNL     1       1.220  43.035  53.038  1.00  0.00     0.044 A 
ATOM     17  C   UNL     1       0.595  43.845  54.014  1.00  0.00    -0.009 A 
ATOM     18  C   UNL     1      -0.754  44.209  53.825  1.00  0.00     0.046 A 
ATOM     19  C   UNL     1      -1.477  43.755  52.719  1.00  0.00     0.021 A 
ATOM     20  C   UNL     1       0.473  42.591  51.931  1.00  0.00     0.026 A 
ATOM     21  C   UNL     1      -0.866  42.940  51.774  1.00  0.00     0.004 A 
ATOM     22  C   UNL     1       1.339  44.316  55.237  1.00  0.00     0.048 C 
ATOM     23  Cl  UNL     1      -1.588  45.237  54.941  1.00  0.00    -0.084 Cl
ENDBRANCH  14  16
ENDBRANCH   5  14
ENDBRANCH   2   4
ENDBRANCH   1   2
BRANCH   1  24
ATOM     24  C   UNL     1       5.902  46.175  54.551  1.00  0.00     0.050 C 
BRANCH  24  25
ATOM     25  C   UNL     1       7.270  46.846  54.599  1.00  0.00     0.162 C 
BRANCH  25  26
ATOM     26  O   UNL     1       7.804  46.925  53.280  1.00  0.00    -0.379 OA
BRANCH  26  27
ATOM     27  C   UNL     1       9.119  47.486  53.225  1.00  0.00     0.112 C 
ATOM     28  C   UNL     1       9.953  46.574  52.331  1.00  0.00     0.038 C 
ATOM     29  C   UNL     1       9.733  47.562  54.620  1.00  0.00     0.038 C 
ENDBRANCH  26  27
ENDBRANCH  25  26
ENDBRANCH  24  25
ENDBRANCH   1  24
TORSDOF 8
ENDMDL
MODEL 15
REMARK VINA RESULT:    -7.957      3.010      6.778
REMARK INTER + INTRA:         -12.671
REMARK INTER:                 -11.784
REMARK INTRA:                  -0.887
REMARK UNBOUND:                -0.992
REMARK SMILES Cc1c(Cl)cccc1Nc1nc(NCCCOC(C)C)nc2c1cnn2C
REMARK SMILES IDX 14 1 13 2 12 4 10 5 11 6 23 7 22 8 24 9 21 10 26 11 25 12
REMARK SMILES IDX 27 13 9 14 8 16 2 17 3 18 5 19 7 20 6 21 1 22 4 23 15 24
REMARK SMILES IDX 16 25 17 26 18 27 19 28 20 29
REMARK H PARENT 13 3 9 15
ROOT
ATOM      1  C   UNL     1       1.651  43.073  53.089  1.00  0.00     0.118 C 
ENDROOT
BRANCH   1   2
ATOM      2  N   UNL     1       2.910  43.622  53.576  1.00  0.00    -0.354 N 
ATOM      3  H   UNL     1       2.830  44.536  54.012  1.00  0.00     0.163 HD
BRANCH   2   4
ATOM      4  C   UNL     1       3.901  43.786  52.614  1.00  0.00     0.226 A 
ATOM      5  C   UNL     1       5.553  45.256  51.815  1.00  0.00     0.147 A 
ATOM      6  N   UNL     1       4.553  44.959  52.688  1.00  0.00    -0.195 NA
ATOM      7  C   UNL     1       5.860  44.295  50.847  1.00  0.00     0.082 A 
ATOM      8  C   UNL     1       5.121  43.130  50.865  1.00  0.00     0.165 A 
ATOM      9  C   UNL     1       6.748  44.130  49.765  1.00  0.00     0.149 A 
ATOM     10  N   UNL     1       4.137  42.821  51.719  1.00  0.00    -0.193 NA
ATOM     11  N   UNL     1       5.599  42.363  49.838  1.00  0.00    -0.250 N 
ATOM     12  N   UNL     1       6.605  42.952  49.147  1.00  0.00    -0.179 NA
ATOM     13  C   UNL     1       5.141  41.053  49.450  1.00  0.00     0.176 C 
BRANCH   5  14
ATOM     14  N   UNL     1       6.251  46.479  51.896  1.00  0.00    -0.339 N 
ATOM     15  H   UNL     1       5.934  47.126  51.183  1.00  0.00     0.168 HD
BRANCH  14  16
ATOM     16  C   UNL     1       7.624  46.624  52.202  1.00  0.00     0.044 A 
ATOM     17  C   UNL     1       8.094  46.879  53.511  1.00  0.00    -0.009 A 
ATOM     18  C   UNL     1       9.485  46.887  53.737  1.00  0.00     0.046 A 
ATOM     19  C   UNL     1      10.390  46.684  52.691  1.00  0.00     0.021 A 
ATOM     20  C   UNL     1       8.552  46.419  51.163  1.00  0.00     0.026 A 
ATOM     21  C   UNL     1       9.924  46.456  51.402  1.00  0.00     0.004 A 
ATOM     22  C   UNL     1       7.142  47.143  54.650  1.00  0.00     0.048 C 
ATOM     23  Cl  UNL     1      10.153  47.144  55.314  1.00  0.00    -0.084 Cl
ENDBRANCH  14  16
ENDBRANCH   5  14
ENDBRANCH   2   4
ENDBRANCH   1   2
BRANCH   1  24
ATOM     24  C   UNL     1       0.817  44.154  52.399  1.00  0.00     0.050 C 
BRANCH  24  25
ATOM     25  C   UNL     1      -0.309  44.657  53.295  1.00  0.00     0.162 C 
BRANCH  25  26
ATOM     26  O   UNL     1      -0.137  44.132  54.609  1.00  0.00    -0.379 OA
BRANCH  26  27
ATOM     27  C   UNL     1      -0.215  45.123  55.638  1.00  0.00     0.112 C 
ATOM     28  C   UNL     1       1.210  45.379  56.116  1.00  0.00     0.038 C 
ATOM     29  C   UNL     1      -1.081  44.633  56.795  1.00  0.00     0.038 C 
ENDBRANCH  26  27
ENDBRANCH  25  26
ENDBRANCH  24  25
ENDBRANCH   1  24
TORSDOF 8
ENDMDL
MODEL 16
REMARK VINA RESULT:    -7.944      2.801      6.443
REMARK INTER + INTRA:         -12.652
REMARK INTER:                 -11.443
REMARK INTRA:                  -1.209
REMARK UNBOUND:                -0.992
REMARK SMILES Cc1c(Cl)cccc1Nc1nc(NCCCOC(C)C)nc2c1cnn2C
REMARK SMILES IDX 14 1 13 2 12 4 10 5 11 6 23 7 22 8 24 9 21 10 26 11 25 12
REMARK SMILES IDX 27 13 9 14 8 16 2 17 3 18 5 19 7 20 6 21 1 22 4 23 15 24
REMARK SMILES IDX 16 25 17 26 18 27 19 28 20 29
REMARK H PARENT 13 3 9 15
ROOT
ATOM      1  C   UNL     1       3.538  46.820  54.796  1.00  0.00     0.118 C 
ENDROOT
BRANCH   1   2
ATOM      2  N   UNL     1       4.825  47.390  55.170  1.00  0.00    -0.354 N 
ATOM      3  H   UNL     1       4.836  48.404  55.230  1.00  0.00     0.163 HD
BRANCH   2   4
ATOM      4  C   UNL     1       5.882  47.087  54.317  1.00  0.00     0.226 A 
ATOM      5  C   UNL     1       6.432  46.242  52.193  1.00  0.00     0.147 A 
ATOM      6  N   UNL     1       5.506  46.579  53.131  1.00  0.00    -0.195 NA
ATOM      7  C   UNL     1       7.775  46.442  52.524  1.00  0.00     0.082 A 
ATOM      8  C   UNL     1       8.042  46.966  53.772  1.00  0.00     0.165 A 
ATOM      9  C   UNL     1       9.046  46.254  51.944  1.00  0.00     0.149 A 
ATOM     10  N   UNL     1       7.143  47.305  54.705  1.00  0.00    -0.193 NA
ATOM     11  N   UNL     1       9.404  47.063  53.858  1.00  0.00    -0.250 N 
ATOM     12  N   UNL     1      10.047  46.637  52.745  1.00  0.00    -0.179 NA
ATOM     13  C   UNL     1      10.168  47.552  54.979  1.00  0.00     0.176 C 
BRANCH   5  14
ATOM     14  N   UNL     1       6.043  45.723  50.940  1.00  0.00    -0.339 N 
ATOM     15  H   UNL     1       5.615  46.440  50.367  1.00  0.00     0.168 HD
BRANCH  14  16
ATOM     16  C   UNL     1       5.498  44.437  50.716  1.00  0.00     0.044 A 
ATOM     17  C   UNL     1       6.203  43.413  50.044  1.00  0.00    -0.009 A 
ATOM     18  C   UNL     1       5.623  42.130  49.976  1.00  0.00     0.046 A 
ATOM     19  C   UNL     1       4.365  41.873  50.526  1.00  0.00     0.021 A 
ATOM     20  C   UNL     1       4.232  44.158  51.266  1.00  0.00     0.026 A 
ATOM     21  C   UNL     1       3.665  42.889  51.166  1.00  0.00     0.004 A 
ATOM     22  C   UNL     1       7.544  43.671  49.406  1.00  0.00     0.048 C 
ATOM     23  Cl  UNL     1       6.433  40.801  49.215  1.00  0.00    -0.084 Cl
ENDBRANCH  14  16
ENDBRANCH   5  14
ENDBRANCH   2   4
ENDBRANCH   1   2
BRANCH   1  24
ATOM     24  C   UNL     1       3.289  45.504  55.535  1.00  0.00     0.050 C 
BRANCH  24  25
ATOM     25  C   UNL     1       1.891  44.961  55.266  1.00  0.00     0.162 C 
BRANCH  25  26
ATOM     26  O   UNL     1       1.846  44.400  53.957  1.00  0.00    -0.379 OA
BRANCH  26  27
ATOM     27  C   UNL     1       0.577  43.834  53.617  1.00  0.00     0.112 C 
ATOM     28  C   UNL     1      -0.379  44.173  54.757  1.00  0.00     0.038 C 
ATOM     29  C   UNL     1       0.686  42.322  53.452  1.00  0.00     0.038 C 
ENDBRANCH  26  27
ENDBRANCH  25  26
ENDBRANCH  24  25
ENDBRANCH   1  24
TORSDOF 8
ENDMDL
MODEL 17
REMARK VINA RESULT:    -7.920      3.528      6.124
REMARK INTER + INTRA:         -12.616
REMARK INTER:                 -11.192
REMARK INTRA:                  -1.424
REMARK UNBOUND:                -0.992
REMARK SMILES Cc1c(Cl)cccc1Nc1nc(NCCCOC(C)C)nc2c1cnn2C
REMARK SMILES IDX 14 1 13 2 12 4 10 5 11 6 23 7 22 8 24 9 21 10 26 11 25 12
REMARK SMILES IDX 27 13 9 14 8 16 2 17 3 18 5 19 7 20 6 21 1 22 4 23 15 24
REMARK SMILES IDX 16 25 17 26 18 27 19 28 20 29
REMARK H PARENT 13 3 9 15
ROOT
ATOM      1  C   UNL     1       1.955  43.104  52.343  1.00  0.00     0.118 C 
ENDROOT
BRANCH   1   2
ATOM      2  N   UNL     1       3.171  42.319  52.506  1.00  0.00    -0.354 N 
ATOM      3  H   UNL     1       3.562  42.337  53.445  1.00  0.00     0.163 HD
BRANCH   2   4
ATOM      4  C   UNL     1       4.233  42.687  51.687  1.00  0.00     0.226 A 
ATOM      5  C   UNL     1       5.513  42.041  49.823  1.00  0.00     0.147 A 
ATOM      6  N   UNL     1       4.504  41.809  50.706  1.00  0.00    -0.195 NA
ATOM      7  C   UNL     1       6.246  43.219  49.989  1.00  0.00     0.082 A 
ATOM      8  C   UNL     1       5.881  44.043  51.034  1.00  0.00     0.165 A 
ATOM      9  C   UNL     1       7.336  43.880  49.386  1.00  0.00     0.149 A 
ATOM     10  N   UNL     1       4.890  43.832  51.909  1.00  0.00    -0.193 NA
ATOM     11  N   UNL     1       6.735  45.111  50.990  1.00  0.00    -0.250 N 
ATOM     12  N   UNL     1       7.638  45.039  49.982  1.00  0.00    -0.179 NA
ATOM     13  C   UNL     1       6.753  46.242  51.883  1.00  0.00     0.176 C 
BRANCH   5  14
ATOM     14  N   UNL     1       5.793  41.130  48.783  1.00  0.00    -0.339 N 
ATOM     15  H   UNL     1       6.777  40.892  48.764  1.00  0.00     0.168 HD
BRANCH  14  16
ATOM     16  C   UNL     1       5.202  41.144  47.497  1.00  0.00     0.044 A 
ATOM     17  C   UNL     1       4.000  40.463  47.200  1.00  0.00    -0.009 A 
ATOM     18  C   UNL     1       3.427  40.634  45.923  1.00  0.00     0.046 A 
ATOM     19  C   UNL     1       4.044  41.429  44.954  1.00  0.00     0.021 A 
ATOM     20  C   UNL     1       5.807  41.942  46.507  1.00  0.00     0.026 A 
ATOM     21  C   UNL     1       5.238  42.078  45.243  1.00  0.00     0.004 A 
ATOM     22  C   UNL     1       3.334  39.566  48.212  1.00  0.00     0.048 C 
ATOM     23  Cl  UNL     1       1.932  39.879  45.484  1.00  0.00    -0.084 Cl
ENDBRANCH  14  16
ENDBRANCH   5  14
ENDBRANCH   2   4
ENDBRANCH   1   2
BRANCH   1  24
ATOM     24  C   UNL     1       1.178  43.184  53.658  1.00  0.00     0.050 C 
BRANCH  24  25
ATOM     25  C   UNL     1       1.519  44.446  54.440  1.00  0.00     0.162 C 
BRANCH  25  26
ATOM     26  O   UNL     1       2.554  45.156  53.764  1.00  0.00    -0.379 OA
BRANCH  26  27
ATOM     27  C   UNL     1       3.363  45.956  54.630  1.00  0.00     0.112 C 
ATOM     28  C   UNL     1       3.829  47.159  53.816  1.00  0.00     0.038 C 
ATOM     29  C   UNL     1       4.564  45.163  55.136  1.00  0.00     0.038 C 
ENDBRANCH  26  27
ENDBRANCH  25  26
ENDBRANCH  24  25
ENDBRANCH   1  24
TORSDOF 8
ENDMDL
MODEL 18
REMARK VINA RESULT:    -7.698      2.457      4.629
REMARK INTER + INTRA:         -12.290
REMARK INTER:                 -10.624
REMARK INTRA:                  -1.666
REMARK UNBOUND:                -0.992
REMARK SMILES Cc1c(Cl)cccc1Nc1nc(NCCCOC(C)C)nc2c1cnn2C
REMARK SMILES IDX 14 1 13 2 12 4 10 5 11 6 23 7 22 8 24 9 21 10 26 11 25 12
REMARK SMILES IDX 27 13 9 14 8 16 2 17 3 18 5 19 7 20 6 21 1 22 4 23 15 24
REMARK SMILES IDX 16 25 17 26 18 27 19 28 20 29
REMARK H PARENT 13 3 9 15
ROOT
ATOM      1  C   UNL     1       4.072  41.577  51.019  1.00  0.00     0.118 C 
ENDROOT
BRANCH   1   2
ATOM      2  N   UNL     1       2.716  41.939  50.629  1.00  0.00    -0.354 N 
ATOM      3  H   UNL     1       2.659  42.544  49.814  1.00  0.00     0.163 HD
BRANCH   2   4
ATOM      4  C   UNL     1       1.973  42.602  51.600  1.00  0.00     0.226 A 
ATOM      5  C   UNL     1       2.122  43.941  53.527  1.00  0.00     0.147 A 
ATOM      6  N   UNL     1       2.713  43.243  52.520  1.00  0.00    -0.195 NA
ATOM      7  C   UNL     1       0.724  43.952  53.558  1.00  0.00     0.082 A 
ATOM      8  C   UNL     1       0.069  43.256  52.564  1.00  0.00     0.165 A 
ATOM      9  C   UNL     1      -0.311  44.484  54.354  1.00  0.00     0.149 A 
ATOM     10  N   UNL     1       0.636  42.567  51.564  1.00  0.00    -0.193 NA
ATOM     11  N   UNL     1      -1.267  43.413  52.809  1.00  0.00    -0.250 N 
ATOM     12  N   UNL     1      -1.531  44.169  53.902  1.00  0.00    -0.179 NA
ATOM     13  C   UNL     1      -2.359  42.866  52.043  1.00  0.00     0.176 C 
BRANCH   5  14
ATOM     14  N   UNL     1       2.893  44.627  54.488  1.00  0.00    -0.339 N 
ATOM     15  H   UNL     1       2.381  44.735  55.356  1.00  0.00     0.168 HD
BRANCH  14  16
ATOM     16  C   UNL     1       3.764  45.709  54.223  1.00  0.00     0.044 A 
ATOM     17  C   UNL     1       5.139  45.684  54.549  1.00  0.00    -0.009 A 
ATOM     18  C   UNL     1       5.950  46.761  54.136  1.00  0.00     0.046 A 
ATOM     19  C   UNL     1       5.409  47.852  53.450  1.00  0.00     0.021 A 
ATOM     20  C   UNL     1       3.240  46.817  53.530  1.00  0.00     0.026 A 
ATOM     21  C   UNL     1       4.053  47.884  53.153  1.00  0.00     0.004 A 
ATOM     22  C   UNL     1       5.742  44.539  55.323  1.00  0.00     0.048 C 
ATOM     23  Cl  UNL     1       7.653  46.794  54.448  1.00  0.00    -0.084 Cl
ENDBRANCH  14  16
ENDBRANCH   5  14
ENDBRANCH   2   4
ENDBRANCH   1   2
BRANCH   1  24
ATOM     24  C   UNL     1       4.940  41.310  49.789  1.00  0.00     0.050 C 
BRANCH  24  25
ATOM     25  C   UNL     1       6.271  42.049  49.866  1.00  0.00     0.162 C 
BRANCH  25  26
ATOM     26  O   UNL     1       6.075  43.414  49.507  1.00  0.00    -0.379 OA
BRANCH  26  27
ATOM     27  C   UNL     1       6.406  44.336  50.549  1.00  0.00     0.112 C 
ATOM     28  C   UNL     1       5.202  45.254  50.729  1.00  0.00     0.038 C 
ATOM     29  C   UNL     1       7.641  45.152  50.177  1.00  0.00     0.038 C 
ENDBRANCH  26  27
ENDBRANCH  25  26
ENDBRANCH  24  25
ENDBRANCH   1  24
TORSDOF 8
ENDMDL
MODEL 19
REMARK VINA RESULT:    -7.628      2.741      6.424
REMARK INTER + INTRA:         -12.188
REMARK INTER:                 -11.263
REMARK INTRA:                  -0.925
REMARK UNBOUND:                -0.992
REMARK SMILES Cc1c(Cl)cccc1Nc1nc(NCCCOC(C)C)nc2c1cnn2C
REMARK SMILES IDX 14 1 13 2 12 4 10 5 11 6 23 7 22 8 24 9 21 10 26 11 25 12
REMARK SMILES IDX 27 13 9 14 8 16 2 17 3 18 5 19 7 20 6 21 1 22 4 23 15 24
REMARK SMILES IDX 16 25 17 26 18 27 19 28 20 29
REMARK H PARENT 13 3 9 15
ROOT
ATOM      1  C   UNL     1       1.305  45.342  54.336  1.00  0.00     0.118 C 
ENDROOT
BRANCH   1   2
ATOM      2  N   UNL     1       2.392  44.388  54.509  1.00  0.00    -0.354 N 
ATOM      3  H   UNL     1       2.982  44.563  55.319  1.00  0.00     0.163 HD
BRANCH   2   4
ATOM      4  C   UNL     1       3.287  44.303  53.447  1.00  0.00     0.226 A 
ATOM      5  C   UNL     1       5.027  45.421  52.330  1.00  0.00     0.147 A 
ATOM      6  N   UNL     1       4.097  45.367  53.320  1.00  0.00    -0.195 NA
ATOM      7  C   UNL     1       5.094  44.328  51.460  1.00  0.00     0.082 A 
ATOM      8  C   UNL     1       4.210  43.293  51.684  1.00  0.00     0.165 A 
ATOM      9  C   UNL     1       5.829  43.922  50.328  1.00  0.00     0.149 A 
ATOM     10  N   UNL     1       3.290  43.224  52.656  1.00  0.00    -0.193 NA
ATOM     11  N   UNL     1       4.465  42.361  50.716  1.00  0.00    -0.250 N 
ATOM     12  N   UNL     1       5.461  42.720  49.870  1.00  0.00    -0.179 NA
ATOM     13  C   UNL     1       3.793  41.099  50.530  1.00  0.00     0.176 C 
BRANCH   5  14
ATOM     14  N   UNL     1       5.890  46.529  52.200  1.00  0.00    -0.339 N 
ATOM     15  H   UNL     1       5.777  46.973  51.296  1.00  0.00     0.168 HD
BRANCH  14  16
ATOM     16  C   UNL     1       7.215  46.602  52.690  1.00  0.00     0.044 A 
ATOM     17  C   UNL     1       8.342  46.281  51.900  1.00  0.00    -0.009 A 
ATOM     18  C   UNL     1       9.627  46.500  52.438  1.00  0.00     0.046 A 
ATOM     19  C   UNL     1       9.793  46.989  53.737  1.00  0.00     0.021 A 
ATOM     20  C   UNL     1       7.405  47.095  53.995  1.00  0.00     0.026 A 
ATOM     21  C   UNL     1       8.682  47.281  54.518  1.00  0.00     0.004 A 
ATOM     22  C   UNL     1       8.193  45.714  50.512  1.00  0.00     0.048 C 
ATOM     23  Cl  UNL     1      11.065  46.183  51.528  1.00  0.00    -0.084 Cl
ENDBRANCH  14  16
ENDBRANCH   5  14
ENDBRANCH   2   4
ENDBRANCH   1   2
BRANCH   1  24
ATOM     24  C   UNL     1       0.013  44.814  54.961  1.00  0.00     0.050 C 
BRANCH  24  25
ATOM     25  C   UNL     1      -0.836  44.056  53.948  1.00  0.00     0.162 C 
BRANCH  25  26
ATOM     26  O   UNL     1      -0.085  42.962  53.426  1.00  0.00    -0.379 OA
BRANCH  26  27
ATOM     27  C   UNL     1      -0.332  42.705  52.041  1.00  0.00     0.112 C 
ATOM     28  C   UNL     1      -0.016  43.992  51.287  1.00  0.00     0.038 C 
ATOM     29  C   UNL     1      -1.787  42.305  51.817  1.00  0.00     0.038 C 
ENDBRANCH  26  27
ENDBRANCH  25  26
ENDBRANCH  24  25
ENDBRANCH   1  24
TORSDOF 8
ENDMDL
MODEL 20
REMARK VINA RESULT:    -7.622      2.934      6.443
REMARK INTER + INTRA:         -12.178
REMARK INTER:                 -11.322
REMARK INTRA:                  -0.856
REMARK UNBOUND:                -0.992
REMARK SMILES Cc1c(Cl)cccc1Nc1nc(NCCCOC(C)C)nc2c1cnn2C
REMARK SMILES IDX 14 1 13 2 12 4 10 5 11 6 23 7 22 8 24 9 21 10 26 11 25 12
REMARK SMILES IDX 27 13 9 14 8 16 2 17 3 18 5 19 7 20 6 21 1 22 4 23 15 24
REMARK SMILES IDX 16 25 17 26 18 27 19 28 20 29
REMARK H PARENT 13 3 9 15
ROOT
ATOM      1  C   UNL     1       1.473  45.616  56.653  1.00  0.00     0.118 C 
ENDROOT
BRANCH   1   2
ATOM      2  N   UNL     1       2.795  46.114  56.300  1.00  0.00    -0.354 N 
ATOM      3  H   UNL     1       2.886  47.126  56.330  1.00  0.00     0.163 HD
BRANCH   2   4
ATOM      4  C   UNL     1       3.243  45.769  55.029  1.00  0.00     0.226 A 
ATOM      5  C   UNL     1       4.770  46.330  53.331  1.00  0.00     0.147 A 
ATOM      6  N   UNL     1       4.228  46.553  54.558  1.00  0.00    -0.195 NA
ATOM      7  C   UNL     1       4.254  45.262  52.592  1.00  0.00     0.082 A 
ATOM      8  C   UNL     1       3.241  44.528  53.174  1.00  0.00     0.165 A 
ATOM      9  C   UNL     1       4.448  44.655  51.334  1.00  0.00     0.149 A 
ATOM     10  N   UNL     1       2.699  44.732  54.382  1.00  0.00    -0.193 NA
ATOM     11  N   UNL     1       2.908  43.558  52.269  1.00  0.00    -0.250 N 
ATOM     12  N   UNL     1       3.639  43.609  51.130  1.00  0.00    -0.179 NA
ATOM     13  C   UNL     1       1.895  42.543  52.420  1.00  0.00     0.176 C 
BRANCH   5  14
ATOM     14  N   UNL     1       5.814  47.141  52.838  1.00  0.00    -0.339 N 
ATOM     15  H   UNL     1       5.638  47.415  51.878  1.00  0.00     0.168 HD
BRANCH  14  16
ATOM     16  C   UNL     1       7.189  46.974  53.121  1.00  0.00     0.044 A 
ATOM     17  C   UNL     1       8.100  46.417  52.195  1.00  0.00    -0.009 A 
ATOM     18  C   UNL     1       9.471  46.402  52.523  1.00  0.00     0.046 A 
ATOM     19  C   UNL     1       9.926  46.893  53.750  1.00  0.00     0.021 A 
ATOM     20  C   UNL     1       7.669  47.464  54.351  1.00  0.00     0.026 A 
ATOM     21  C   UNL     1       9.025  47.418  54.667  1.00  0.00     0.004 A 
ATOM     22  C   UNL     1       7.633  45.844  50.882  1.00  0.00     0.048 C 
ATOM     23  Cl  UNL     1      10.665  45.785  51.432  1.00  0.00    -0.084 Cl
ENDBRANCH  14  16
ENDBRANCH   5  14
ENDBRANCH   2   4
ENDBRANCH   1   2
BRANCH   1  24
ATOM     24  C   UNL     1       0.885  46.410  57.820  1.00  0.00     0.050 C 
BRANCH  24  25
ATOM     25  C   UNL     1      -0.595  46.708  57.613  1.00  0.00     0.162 C 
BRANCH  25  26
ATOM     26  O   UNL     1      -1.328  45.485  57.618  1.00  0.00    -0.379 OA
BRANCH  26  27
ATOM     27  C   UNL     1      -2.662  45.613  57.119  1.00  0.00     0.112 C 
ATOM     28  C   UNL     1      -2.847  47.072  56.716  1.00  0.00     0.038 C 
ATOM     29  C   UNL     1      -3.679  45.229  58.190  1.00  0.00     0.038 C 
ENDBRANCH  26  27
ENDBRANCH  25  26
ENDBRANCH  24  25
ENDBRANCH   1  24
TORSDOF 8
ENDMDL
