MODEL 1
REMARK VINA RESULT:    -8.675      0.000      0.000
REMARK INTER + INTRA:         -13.405
REMARK INTER:                 -12.225
REMARK INTRA:                  -1.180
REMARK UNBOUND:                -1.180
REMARK SMILES Cc1cc(Cl)ccc1Nc1nc(NCCC[NH+](C)C)nc2c1cnn2C
REMARK SMILES IDX 14 1 15 2 16 3 17 4 18 5 19 6 13 8 12 10 11 11 20 12 10 13
REMARK SMILES IDX 21 14 22 15 25 16 23 17 24 18 26 19 9 20 8 22 7 23 2 24 6 25
REMARK SMILES IDX 3 26 4 27 1 28 5 29
REMARK H PARENT 17 7 13 9 9 21
ROOT
ATOM      1  C   UNL     1       2.415  44.534  52.829  1.00  0.00     0.122 C 
ENDROOT
BRANCH   1   2
ATOM      2  C   UNL     1       2.154  45.552  53.945  1.00  0.00     0.083 C 
BRANCH   2   3
ATOM      3  C   UNL     1       2.786  45.115  55.264  1.00  0.00     0.263 C 
BRANCH   3   4
ATOM      4  N   UNL     1       3.975  45.996  55.616  1.00  0.00    -0.340 N 
ATOM      5  C   UNL     1       4.108  47.136  54.640  1.00  0.00     0.332 C 
ATOM      6  C   UNL     1       5.270  45.245  55.749  1.00  0.00     0.332 C 
ATOM      7  H   UNL     1       3.768  46.425  56.528  1.00  0.00     0.347 HD
ENDBRANCH   3   4
ENDBRANCH   2   3
ENDBRANCH   1   2
BRANCH   1   8
ATOM      8  N   UNL     1       3.614  43.757  53.092  1.00  0.00    -0.354 N 
ATOM      9  H   UNL     1       3.457  42.748  53.138  1.00  0.00     0.163 HD
BRANCH   8  10
ATOM     10  C   UNL     1       4.616  43.855  52.125  1.00  0.00     0.226 A 
ATOM     11  N   UNL     1       5.397  44.936  52.263  1.00  0.00    -0.195 NA
ATOM     12  N   UNL     1       4.719  42.924  51.168  1.00  0.00    -0.193 NA
ATOM     13  C   UNL     1       6.420  45.177  51.399  1.00  0.00     0.147 A 
ATOM     14  C   UNL     1       5.742  43.164  50.331  1.00  0.00     0.165 A 
ATOM     15  C   UNL     1       6.613  44.238  50.379  1.00  0.00     0.082 A 
ATOM     16  N   UNL     1       6.146  42.403  49.267  1.00  0.00    -0.250 N 
ATOM     17  C   UNL     1       7.487  44.030  49.292  1.00  0.00     0.149 A 
ATOM     18  N   UNL     1       7.207  42.917  48.608  1.00  0.00    -0.179 NA
ATOM     19  C   UNL     1       5.574  41.160  48.815  1.00  0.00     0.176 C 
BRANCH  13  20
ATOM     20  N   UNL     1       7.266  46.285  51.548  1.00  0.00    -0.339 N 
ATOM     21  H   UNL     1       7.215  46.942  50.783  1.00  0.00     0.168 HD
BRANCH  20  22
ATOM     22  C   UNL     1       8.113  46.692  52.598  1.00  0.00     0.043 A 
ATOM     23  C   UNL     1       7.624  47.339  53.744  1.00  0.00     0.028 A 
ATOM     24  C   UNL     1       9.497  46.392  52.545  1.00  0.00    -0.026 A 
ATOM     25  C   UNL     1       8.468  47.709  54.796  1.00  0.00     0.022 A 
ATOM     26  C   UNL     1      10.341  46.770  53.607  1.00  0.00     0.026 A 
ATOM     27  C   UNL     1       9.824  47.424  54.721  1.00  0.00     0.041 A 
ATOM     28  C   UNL     1      10.110  45.670  51.373  1.00  0.00     0.046 C 
ATOM     29  Cl  UNL     1      10.866  47.878  56.012  1.00  0.00    -0.084 Cl
ENDBRANCH  20  22
ENDBRANCH  13  20
ENDBRANCH   8  10
ENDBRANCH   1   8
TORSDOF 7
ENDMDL
MODEL 2
REMARK VINA RESULT:    -8.501      1.287      1.748
REMARK INTER + INTRA:         -13.160
REMARK INTER:                 -12.206
REMARK INTRA:                  -0.954
REMARK UNBOUND:                -1.180
REMARK SMILES Cc1cc(Cl)ccc1Nc1nc(NCCC[NH+](C)C)nc2c1cnn2C
REMARK SMILES IDX 14 1 15 2 16 3 17 4 18 5 19 6 13 8 12 10 11 11 20 12 10 13
REMARK SMILES IDX 21 14 22 15 25 16 23 17 24 18 26 19 9 20 8 22 7 23 2 24 6 25
REMARK SMILES IDX 3 26 4 27 1 28 5 29
REMARK H PARENT 17 7 13 9 9 21
ROOT
ATOM      1  C   UNL     1       2.441  42.785  52.631  1.00  0.00     0.122 C 
ENDROOT
BRANCH   1   2
ATOM      2  C   UNL     1       1.189  43.206  53.409  1.00  0.00     0.083 C 
BRANCH   2   3
ATOM      3  C   UNL     1       1.387  44.549  54.108  1.00  0.00     0.263 C 
BRANCH   3   4
ATOM      4  N   UNL     1       0.874  45.692  53.246  1.00  0.00    -0.340 N 
ATOM      5  C   UNL     1      -0.157  45.203  52.262  1.00  0.00     0.332 C 
ATOM      6  C   UNL     1       1.960  46.464  52.551  1.00  0.00     0.332 C 
ATOM      7  H   UNL     1       0.382  46.342  53.874  1.00  0.00     0.347 HD
ENDBRANCH   3   4
ENDBRANCH   2   3
ENDBRANCH   1   2
BRANCH   1   8
ATOM      8  N   UNL     1       3.613  43.516  53.078  1.00  0.00    -0.354 N 
ATOM      9  H   UNL     1       4.130  43.057  53.832  1.00  0.00     0.163 HD
BRANCH   8  10
ATOM     10  C   UNL     1       4.605  43.707  52.116  1.00  0.00     0.226 A 
ATOM     11  N   UNL     1       5.329  44.821  52.298  1.00  0.00    -0.195 NA
ATOM     12  N   UNL     1       4.754  42.824  51.119  1.00  0.00    -0.193 NA
ATOM     13  C   UNL     1       6.334  45.152  51.444  1.00  0.00     0.147 A 
ATOM     14  C   UNL     1       5.760  43.153  50.292  1.00  0.00     0.165 A 
ATOM     15  C   UNL     1       6.573  44.268  50.384  1.00  0.00     0.082 A 
ATOM     16  N   UNL     1       6.200  42.459  49.197  1.00  0.00    -0.250 N 
ATOM     17  C   UNL     1       7.453  44.152  49.289  1.00  0.00     0.149 A 
ATOM     18  N   UNL     1       7.229  43.056  48.559  1.00  0.00    -0.179 NA
ATOM     19  C   UNL     1       5.692  41.208  48.693  1.00  0.00     0.176 C 
BRANCH  13  20
ATOM     20  N   UNL     1       7.121  46.296  51.638  1.00  0.00    -0.339 N 
ATOM     21  H   UNL     1       6.988  47.007  50.933  1.00  0.00     0.168 HD
BRANCH  20  22
ATOM     22  C   UNL     1       8.003  46.671  52.672  1.00  0.00     0.043 A 
ATOM     23  C   UNL     1       7.545  47.214  53.882  1.00  0.00     0.028 A 
ATOM     24  C   UNL     1       9.395  46.443  52.529  1.00  0.00    -0.026 A 
ATOM     25  C   UNL     1       8.426  47.551  54.915  1.00  0.00     0.022 A 
ATOM     26  C   UNL     1      10.274  46.789  53.573  1.00  0.00     0.026 A 
ATOM     27  C   UNL     1       9.788  47.339  54.754  1.00  0.00     0.041 A 
ATOM     28  C   UNL     1       9.977  45.834  51.281  1.00  0.00     0.046 C 
ATOM     29  Cl  UNL     1      10.874  47.754  56.021  1.00  0.00    -0.084 Cl
ENDBRANCH  20  22
ENDBRANCH  13  20
ENDBRANCH   8  10
ENDBRANCH   1   8
TORSDOF 7
ENDMDL
MODEL 3
REMARK VINA RESULT:    -8.471      1.243      1.688
REMARK INTER + INTRA:         -13.117
REMARK INTER:                 -12.108
REMARK INTRA:                  -1.009
REMARK UNBOUND:                -1.180
REMARK SMILES Cc1cc(Cl)ccc1Nc1nc(NCCC[NH+](C)C)nc2c1cnn2C
REMARK SMILES IDX 14 1 15 2 16 3 17 4 18 5 19 6 13 8 12 10 11 11 20 12 10 13
REMARK SMILES IDX 21 14 22 15 25 16 23 17 24 18 26 19 9 20 8 22 7 23 2 24 6 25
REMARK SMILES IDX 3 26 4 27 1 28 5 29
REMARK H PARENT 17 7 13 9 9 21
ROOT
ATOM      1  C   UNL     1       2.232  43.286  52.722  1.00  0.00     0.122 C 
ENDROOT
BRANCH   1   2
ATOM      2  C   UNL     1       1.136  44.355  52.665  1.00  0.00     0.083 C 
BRANCH   2   3
ATOM      3  C   UNL     1       1.445  45.528  53.593  1.00  0.00     0.263 C 
BRANCH   3   4
ATOM      4  N   UNL     1       0.532  45.516  54.809  1.00  0.00    -0.340 N 
ATOM      5  C   UNL     1       1.303  45.180  56.058  1.00  0.00     0.332 C 
ATOM      6  C   UNL     1      -0.668  44.625  54.659  1.00  0.00     0.332 C 
ATOM      7  H   UNL     1       0.192  46.480  54.935  1.00  0.00     0.347 HD
ENDBRANCH   3   4
ENDBRANCH   2   3
ENDBRANCH   1   2
BRANCH   1   8
ATOM      8  N   UNL     1       3.492  43.844  53.179  1.00  0.00    -0.354 N 
ATOM      9  H   UNL     1       3.940  43.308  53.927  1.00  0.00     0.163 HD
BRANCH   8  10
ATOM     10  C   UNL     1       4.504  43.909  52.219  1.00  0.00     0.226 A 
ATOM     11  N   UNL     1       5.298  44.982  52.343  1.00  0.00    -0.195 NA
ATOM     12  N   UNL     1       4.601  42.958  51.281  1.00  0.00    -0.193 NA
ATOM     13  C   UNL     1       6.331  45.192  51.483  1.00  0.00     0.147 A 
ATOM     14  C   UNL     1       5.634  43.168  50.448  1.00  0.00     0.165 A 
ATOM     15  C   UNL     1       6.519  44.231  50.482  1.00  0.00     0.082 A 
ATOM     16  N   UNL     1       6.036  42.381  49.402  1.00  0.00    -0.250 N 
ATOM     17  C   UNL     1       7.399  43.990  49.407  1.00  0.00     0.149 A 
ATOM     18  N   UNL     1       7.109  42.868  48.742  1.00  0.00    -0.179 NA
ATOM     19  C   UNL     1       5.451  41.138  48.969  1.00  0.00     0.176 C 
BRANCH  13  20
ATOM     20  N   UNL     1       7.191  46.291  51.618  1.00  0.00    -0.339 N 
ATOM     21  H   UNL     1       7.128  46.954  50.858  1.00  0.00     0.168 HD
BRANCH  20  22
ATOM     22  C   UNL     1       8.068  46.683  52.649  1.00  0.00     0.043 A 
ATOM     23  C   UNL     1       7.606  47.258  53.843  1.00  0.00     0.028 A 
ATOM     24  C   UNL     1       9.459  46.441  52.523  1.00  0.00    -0.026 A 
ATOM     25  C   UNL     1       8.482  47.612  54.875  1.00  0.00     0.022 A 
ATOM     26  C   UNL     1      10.334  46.804  53.565  1.00  0.00     0.026 A 
ATOM     27  C   UNL     1       9.843  47.386  54.729  1.00  0.00     0.041 A 
ATOM     28  C   UNL     1      10.046  45.798  51.293  1.00  0.00     0.046 C 
ATOM     29  Cl  UNL     1      10.923  47.821  55.995  1.00  0.00    -0.084 Cl
ENDBRANCH  20  22
ENDBRANCH  13  20
ENDBRANCH   8  10
ENDBRANCH   1   8
TORSDOF 7
ENDMDL
MODEL 4
REMARK VINA RESULT:    -8.382      2.966      5.760
REMARK INTER + INTRA:         -12.992
REMARK INTER:                 -12.118
REMARK INTRA:                  -0.874
REMARK UNBOUND:                -1.180
REMARK SMILES Cc1cc(Cl)ccc1Nc1nc(NCCC[NH+](C)C)nc2c1cnn2C
REMARK SMILES IDX 14 1 15 2 16 3 17 4 18 5 19 6 13 8 12 10 11 11 20 12 10 13
REMARK SMILES IDX 21 14 22 15 25 16 23 17 24 18 26 19 9 20 8 22 7 23 2 24 6 25
REMARK SMILES IDX 3 26 4 27 1 28 5 29
REMARK H PARENT 17 7 13 9 9 21
ROOT
ATOM      1  C   UNL     1       4.092  45.669  55.521  1.00  0.00     0.122 C 
ENDROOT
BRANCH   1   2
ATOM      2  C   UNL     1       2.565  45.680  55.390  1.00  0.00     0.083 C 
BRANCH   2   3
ATOM      3  C   UNL     1       2.104  44.978  54.115  1.00  0.00     0.263 C 
BRANCH   3   4
ATOM      4  N   UNL     1       1.425  45.956  53.169  1.00  0.00    -0.340 N 
ATOM      5  C   UNL     1       0.307  45.287  52.414  1.00  0.00     0.332 C 
ATOM      6  C   UNL     1       2.371  46.650  52.231  1.00  0.00     0.332 C 
ATOM      7  H   UNL     1       0.981  46.677  53.755  1.00  0.00     0.347 HD
ENDBRANCH   3   4
ENDBRANCH   2   3
ENDBRANCH   1   2
BRANCH   1   8
ATOM      8  N   UNL     1       4.674  46.905  55.027  1.00  0.00    -0.354 N 
ATOM      9  H   UNL     1       4.921  47.573  55.761  1.00  0.00     0.163 HD
BRANCH   8  10
ATOM     10  C   UNL     1       5.879  46.767  54.337  1.00  0.00     0.226 A 
ATOM     11  N   UNL     1       5.756  46.162  53.147  1.00  0.00    -0.195 NA
ATOM     12  N   UNL     1       7.020  47.207  54.883  1.00  0.00    -0.193 NA
ATOM     13  C   UNL     1       6.839  45.950  52.352  1.00  0.00     0.147 A 
ATOM     14  C   UNL     1       8.080  47.007  54.082  1.00  0.00     0.165 A 
ATOM     15  C   UNL     1       8.071  46.403  52.839  1.00  0.00     0.082 A 
ATOM     16  N   UNL     1       9.381  47.362  54.316  1.00  0.00    -0.250 N 
ATOM     17  C   UNL     1       9.419  46.433  52.424  1.00  0.00     0.149 A 
ATOM     18  N   UNL     1      10.223  47.012  53.320  1.00  0.00    -0.179 NA
ATOM     19  C   UNL     1       9.906  48.047  55.470  1.00  0.00     0.176 C 
BRANCH  13  20
ATOM     20  N   UNL     1       6.722  45.348  51.091  1.00  0.00    -0.339 N 
ATOM     21  H   UNL     1       7.231  45.828  50.362  1.00  0.00     0.168 HD
BRANCH  20  22
ATOM     22  C   UNL     1       6.094  44.160  50.666  1.00  0.00     0.043 A 
ATOM     23  C   UNL     1       4.856  43.745  51.181  1.00  0.00     0.028 A 
ATOM     24  C   UNL     1       6.683  43.378  49.642  1.00  0.00    -0.026 A 
ATOM     25  C   UNL     1       4.224  42.582  50.728  1.00  0.00     0.022 A 
ATOM     26  C   UNL     1       6.042  42.207  49.194  1.00  0.00     0.026 A 
ATOM     27  C   UNL     1       4.822  41.817  49.737  1.00  0.00     0.041 A 
ATOM     28  C   UNL     1       7.993  43.760  49.003  1.00  0.00     0.046 C 
ATOM     29  Cl  UNL     1       4.050  40.386  49.178  1.00  0.00    -0.084 Cl
ENDBRANCH  20  22
ENDBRANCH  13  20
ENDBRANCH   8  10
ENDBRANCH   1   8
TORSDOF 7
ENDMDL
MODEL 5
REMARK VINA RESULT:    -8.280      2.021      5.717
REMARK INTER + INTRA:         -12.848
REMARK INTER:                 -12.171
REMARK INTRA:                  -0.677
REMARK UNBOUND:                -1.180
REMARK SMILES Cc1cc(Cl)ccc1Nc1nc(NCCC[NH+](C)C)nc2c1cnn2C
REMARK SMILES IDX 14 1 15 2 16 3 17 4 18 5 19 6 13 8 12 10 11 11 20 12 10 13
REMARK SMILES IDX 21 14 22 15 25 16 23 17 24 18 26 19 9 20 8 22 7 23 2 24 6 25
REMARK SMILES IDX 3 26 4 27 1 28 5 29
REMARK H PARENT 17 7 13 9 9 21
ROOT
ATOM      1  C   UNL     1       5.590  41.588  48.025  1.00  0.00     0.122 C 
ENDROOT
BRANCH   1   2
ATOM      2  C   UNL     1       5.728  41.876  46.526  1.00  0.00     0.083 C 
BRANCH   2   3
ATOM      3  C   UNL     1       4.493  41.425  45.750  1.00  0.00     0.263 C 
BRANCH   3   4
ATOM      4  N   UNL     1       4.701  40.043  45.149  1.00  0.00    -0.340 N 
ATOM      5  C   UNL     1       5.404  40.135  43.820  1.00  0.00     0.332 C 
ATOM      6  C   UNL     1       3.441  39.232  45.039  1.00  0.00     0.332 C 
ATOM      7  H   UNL     1       5.343  39.540  45.776  1.00  0.00     0.347 HD
ENDBRANCH   3   4
ENDBRANCH   2   3
ENDBRANCH   1   2
BRANCH   1   8
ATOM      8  N   UNL     1       6.612  42.278  48.792  1.00  0.00    -0.354 N 
ATOM      9  H   UNL     1       7.170  42.939  48.246  1.00  0.00     0.163 HD
BRANCH   8  10
ATOM     10  C   UNL     1       6.142  43.082  49.832  1.00  0.00     0.226 A 
ATOM     11  N   UNL     1       6.897  44.166  50.062  1.00  0.00    -0.195 NA
ATOM     12  N   UNL     1       5.039  42.732  50.506  1.00  0.00    -0.193 NA
ATOM     13  C   UNL     1       6.574  45.050  51.044  1.00  0.00     0.147 A 
ATOM     14  C   UNL     1       4.721  43.620  51.462  1.00  0.00     0.165 A 
ATOM     15  C   UNL     1       5.418  44.770  51.784  1.00  0.00     0.082 A 
ATOM     16  N   UNL     1       3.647  43.585  52.310  1.00  0.00    -0.250 N 
ATOM     17  C   UNL     1       4.685  45.341  52.845  1.00  0.00     0.149 A 
ATOM     18  N   UNL     1       3.607  44.623  53.174  1.00  0.00    -0.179 NA
ATOM     19  C   UNL     1       2.602  42.594  52.356  1.00  0.00     0.176 C 
BRANCH  13  20
ATOM     20  N   UNL     1       7.334  46.205  51.276  1.00  0.00    -0.339 N 
ATOM     21  H   UNL     1       7.267  46.892  50.539  1.00  0.00     0.168 HD
BRANCH  20  22
ATOM     22  C   UNL     1       8.111  46.619  52.377  1.00  0.00     0.043 A 
ATOM     23  C   UNL     1       7.539  47.218  53.510  1.00  0.00     0.028 A 
ATOM     24  C   UNL     1       9.507  46.375  52.388  1.00  0.00    -0.026 A 
ATOM     25  C   UNL     1       8.314  47.595  54.612  1.00  0.00     0.022 A 
ATOM     26  C   UNL     1      10.280  46.761  53.500  1.00  0.00     0.026 A 
ATOM     27  C   UNL     1       9.682  47.366  54.600  1.00  0.00     0.041 A 
ATOM     28  C   UNL     1      10.206  45.707  51.232  1.00  0.00     0.046 C 
ATOM     29  Cl  UNL     1      10.639  47.828  55.953  1.00  0.00    -0.084 Cl
ENDBRANCH  20  22
ENDBRANCH  13  20
ENDBRANCH   8  10
ENDBRANCH   1   8
TORSDOF 7
ENDMDL
MODEL 6
REMARK VINA RESULT:    -8.195      1.856      5.235
REMARK INTER + INTRA:         -12.728
REMARK INTER:                 -11.889
REMARK INTRA:                  -0.840
REMARK UNBOUND:                -1.180
REMARK SMILES Cc1cc(Cl)ccc1Nc1nc(NCCC[NH+](C)C)nc2c1cnn2C
REMARK SMILES IDX 14 1 15 2 16 3 17 4 18 5 19 6 13 8 12 10 11 11 20 12 10 13
REMARK SMILES IDX 21 14 22 15 25 16 23 17 24 18 26 19 9 20 8 22 7 23 2 24 6 25
REMARK SMILES IDX 3 26 4 27 1 28 5 29
REMARK H PARENT 17 7 13 9 9 21
ROOT
ATOM      1  C   UNL     1       5.870  41.665  50.095  1.00  0.00     0.122 C 
ENDROOT
BRANCH   1   2
ATOM      2  C   UNL     1       5.749  41.518  48.575  1.00  0.00     0.083 C 
BRANCH   2   3
ATOM      3  C   UNL     1       4.483  40.761  48.181  1.00  0.00     0.263 C 
BRANCH   3   4
ATOM      4  N   UNL     1       4.396  40.594  46.672  1.00  0.00    -0.340 N 
ATOM      5  C   UNL     1       5.291  41.581  45.968  1.00  0.00     0.332 C 
ATOM      6  C   UNL     1       2.995  40.656  46.133  1.00  0.00     0.332 C 
ATOM      7  H   UNL     1       4.774  39.661  46.453  1.00  0.00     0.347 HD
ENDBRANCH   3   4
ENDBRANCH   2   3
ENDBRANCH   1   2
BRANCH   1   8
ATOM      8  N   UNL     1       4.586  41.971  50.701  1.00  0.00    -0.354 N 
ATOM      9  H   UNL     1       4.397  41.455  51.563  1.00  0.00     0.163 HD
BRANCH   8  10
ATOM     10  C   UNL     1       4.414  43.295  51.107  1.00  0.00     0.226 A 
ATOM     11  N   UNL     1       5.541  44.021  51.078  1.00  0.00    -0.195 NA
ATOM     12  N   UNL     1       3.206  43.729  51.492  1.00  0.00    -0.193 NA
ATOM     13  C   UNL     1       5.542  45.330  51.446  1.00  0.00     0.147 A 
ATOM     14  C   UNL     1       3.217  45.027  51.838  1.00  0.00     0.165 A 
ATOM     15  C   UNL     1       4.312  45.871  51.842  1.00  0.00     0.082 A 
ATOM     16  N   UNL     1       2.156  45.790  52.248  1.00  0.00    -0.250 N 
ATOM     17  C   UNL     1       3.801  47.109  52.284  1.00  0.00     0.149 A 
ATOM     18  N   UNL     1       2.490  47.066  52.537  1.00  0.00    -0.179 NA
ATOM     19  C   UNL     1       0.783  45.375  52.385  1.00  0.00     0.176 C 
BRANCH  13  20
ATOM     20  N   UNL     1       6.705  46.111  51.390  1.00  0.00    -0.339 N 
ATOM     21  H   UNL     1       6.869  46.535  50.488  1.00  0.00     0.168 HD
BRANCH  20  22
ATOM     22  C   UNL     1       7.644  46.478  52.375  1.00  0.00     0.043 A 
ATOM     23  C   UNL     1       7.257  47.042  53.601  1.00  0.00     0.028 A 
ATOM     24  C   UNL     1       9.022  46.220  52.168  1.00  0.00    -0.026 A 
ATOM     25  C   UNL     1       8.195  47.372  54.586  1.00  0.00     0.022 A 
ATOM     26  C   UNL     1       9.959  46.558  53.163  1.00  0.00     0.026 A 
ATOM     27  C   UNL     1       9.542  47.129  54.361  1.00  0.00     0.041 A 
ATOM     28  C   UNL     1       9.529  45.586  50.899  1.00  0.00     0.046 C 
ATOM     29  Cl  UNL     1      10.698  47.534  55.569  1.00  0.00    -0.084 Cl
ENDBRANCH  20  22
ENDBRANCH  13  20
ENDBRANCH   8  10
ENDBRANCH   1   8
TORSDOF 7
ENDMDL
MODEL 7
REMARK VINA RESULT:    -8.122      1.145      2.081
REMARK INTER + INTRA:         -12.625
REMARK INTER:                 -11.632
REMARK INTRA:                  -0.993
REMARK UNBOUND:                -1.180
REMARK SMILES Cc1cc(Cl)ccc1Nc1nc(NCCC[NH+](C)C)nc2c1cnn2C
REMARK SMILES IDX 14 1 15 2 16 3 17 4 18 5 19 6 13 8 12 10 11 11 20 12 10 13
REMARK SMILES IDX 21 14 22 15 25 16 23 17 24 18 26 19 9 20 8 22 7 23 2 24 6 25
REMARK SMILES IDX 3 26 4 27 1 28 5 29
REMARK H PARENT 17 7 13 9 9 21
ROOT
ATOM      1  C   UNL     1       2.089  42.778  52.356  1.00  0.00     0.122 C 
ENDROOT
BRANCH   1   2
ATOM      2  C   UNL     1       0.942  43.578  52.983  1.00  0.00     0.083 C 
BRANCH   2   3
ATOM      3  C   UNL     1       0.771  44.938  52.311  1.00  0.00     0.263 C 
BRANCH   3   4
ATOM      4  N   UNL     1       1.250  46.059  53.221  1.00  0.00    -0.340 N 
ATOM      5  C   UNL     1       2.421  46.785  52.611  1.00  0.00     0.332 C 
ATOM      6  C   UNL     1       1.561  45.614  54.622  1.00  0.00     0.332 C 
ATOM      7  H   UNL     1       0.486  46.746  53.274  1.00  0.00     0.347 HD
ENDBRANCH   3   4
ENDBRANCH   2   3
ENDBRANCH   1   2
BRANCH   1   8
ATOM      8  N   UNL     1       3.366  43.130  52.952  1.00  0.00    -0.354 N 
ATOM      9  H   UNL     1       3.791  42.381  53.504  1.00  0.00     0.163 HD
BRANCH   8  10
ATOM     10  C   UNL     1       4.384  43.444  52.050  1.00  0.00     0.226 A 
ATOM     11  N   UNL     1       5.007  44.601  52.319  1.00  0.00    -0.195 NA
ATOM     12  N   UNL     1       4.647  42.626  51.023  1.00  0.00    -0.193 NA
ATOM     13  C   UNL     1       6.022  45.050  51.532  1.00  0.00     0.147 A 
ATOM     14  C   UNL     1       5.662  43.071  50.263  1.00  0.00     0.165 A 
ATOM     15  C   UNL     1       6.378  44.240  50.447  1.00  0.00     0.082 A 
ATOM     16  N   UNL     1       6.205  42.469  49.161  1.00  0.00    -0.250 N 
ATOM     17  C   UNL     1       7.315  44.247  49.392  1.00  0.00     0.149 A 
ATOM     18  N   UNL     1       7.213  43.174  48.603  1.00  0.00    -0.179 NA
ATOM     19  C   UNL     1       5.822  41.209  48.576  1.00  0.00     0.176 C 
BRANCH  13  20
ATOM     20  N   UNL     1       6.705  46.240  51.818  1.00  0.00    -0.339 N 
ATOM     21  H   UNL     1       6.364  47.040  51.304  1.00  0.00     0.168 HD
BRANCH  20  22
ATOM     22  C   UNL     1       7.725  46.544  52.741  1.00  0.00     0.043 A 
ATOM     23  C   UNL     1       9.084  46.515  52.389  1.00  0.00     0.028 A 
ATOM     24  C   UNL     1       7.388  46.957  54.055  1.00  0.00    -0.026 A 
ATOM     25  C   UNL     1      10.087  46.852  53.304  1.00  0.00     0.022 A 
ATOM     26  C   UNL     1       8.404  47.291  54.970  1.00  0.00     0.026 A 
ATOM     27  C   UNL     1       9.742  47.237  54.592  1.00  0.00     0.041 A 
ATOM     28  C   UNL     1       5.957  47.052  54.515  1.00  0.00     0.046 C 
ATOM     29  Cl  UNL     1      10.972  47.651  55.720  1.00  0.00    -0.084 Cl
ENDBRANCH  20  22
ENDBRANCH  13  20
ENDBRANCH   8  10
ENDBRANCH   1   8
TORSDOF 7
ENDMDL
MODEL 8
REMARK VINA RESULT:    -8.081      2.021      5.654
REMARK INTER + INTRA:         -12.568
REMARK INTER:                 -11.662
REMARK INTRA:                  -0.906
REMARK UNBOUND:                -1.180
REMARK SMILES Cc1cc(Cl)ccc1Nc1nc(NCCC[NH+](C)C)nc2c1cnn2C
REMARK SMILES IDX 14 1 15 2 16 3 17 4 18 5 19 6 13 8 12 10 11 11 20 12 10 13
REMARK SMILES IDX 21 14 22 15 25 16 23 17 24 18 26 19 9 20 8 22 7 23 2 24 6 25
REMARK SMILES IDX 3 26 4 27 1 28 5 29
REMARK H PARENT 17 7 13 9 9 21
ROOT
ATOM      1  C   UNL     1       5.209  41.506  50.225  1.00  0.00     0.122 C 
ENDROOT
BRANCH   1   2
ATOM      2  C   UNL     1       5.042  41.100  48.757  1.00  0.00     0.083 C 
BRANCH   2   3
ATOM      3  C   UNL     1       3.727  40.360  48.524  1.00  0.00     0.263 C 
BRANCH   3   4
ATOM      4  N   UNL     1       3.723  39.670  47.168  1.00  0.00    -0.340 N 
ATOM      5  C   UNL     1       3.390  40.646  46.069  1.00  0.00     0.332 C 
ATOM      6  C   UNL     1       2.833  38.461  47.103  1.00  0.00     0.332 C 
ATOM      7  H   UNL     1       4.687  39.359  46.990  1.00  0.00     0.347 HD
ENDBRANCH   3   4
ENDBRANCH   2   3
ENDBRANCH   1   2
BRANCH   1   8
ATOM      8  N   UNL     1       3.944  41.453  50.936  1.00  0.00    -0.354 N 
ATOM      9  H   UNL     1       3.919  40.766  51.694  1.00  0.00     0.163 HD
BRANCH   8  10
ATOM     10  C   UNL     1       3.573  42.628  51.592  1.00  0.00     0.226 A 
ATOM     11  N   UNL     1       4.439  43.638  51.422  1.00  0.00    -0.195 NA
ATOM     12  N   UNL     1       2.450  42.666  52.321  1.00  0.00    -0.193 NA
ATOM     13  C   UNL     1       4.223  44.851  51.999  1.00  0.00     0.147 A 
ATOM     14  C   UNL     1       2.239  43.873  52.871  1.00  0.00     0.165 A 
ATOM     15  C   UNL     1       3.056  44.984  52.760  1.00  0.00     0.082 A 
ATOM     16  N   UNL     1       1.180  44.264  53.645  1.00  0.00    -0.250 N 
ATOM     17  C   UNL     1       2.400  45.978  53.516  1.00  0.00     0.149 A 
ATOM     18  N   UNL     1       1.260  45.546  54.061  1.00  0.00    -0.179 NA
ATOM     19  C   UNL     1       0.039  43.471  54.030  1.00  0.00     0.176 C 
BRANCH  13  20
ATOM     20  N   UNL     1       5.101  45.927  51.804  1.00  0.00    -0.339 N 
ATOM     21  H   UNL     1       4.781  46.596  51.118  1.00  0.00     0.168 HD
BRANCH  20  22
ATOM     22  C   UNL     1       6.305  46.289  52.441  1.00  0.00     0.043 A 
ATOM     23  C   UNL     1       6.334  46.798  53.749  1.00  0.00     0.028 A 
ATOM     24  C   UNL     1       7.542  46.084  51.780  1.00  0.00    -0.026 A 
ATOM     25  C   UNL     1       7.537  47.123  54.384  1.00  0.00     0.022 A 
ATOM     26  C   UNL     1       8.748  46.418  52.426  1.00  0.00     0.026 A 
ATOM     27  C   UNL     1       8.739  46.933  53.718  1.00  0.00     0.041 A 
ATOM     28  C   UNL     1       7.615  45.512  50.388  1.00  0.00     0.046 C 
ATOM     29  Cl  UNL     1      10.221  47.333  54.494  1.00  0.00    -0.084 Cl
ENDBRANCH  20  22
ENDBRANCH  13  20
ENDBRANCH   8  10
ENDBRANCH   1   8
TORSDOF 7
ENDMDL
MODEL 9
REMARK VINA RESULT:    -7.870      2.529      6.198
REMARK INTER + INTRA:         -12.270
REMARK INTER:                 -11.613
REMARK INTRA:                  -0.657
REMARK UNBOUND:                -1.180
REMARK SMILES Cc1cc(Cl)ccc1Nc1nc(NCCC[NH+](C)C)nc2c1cnn2C
REMARK SMILES IDX 14 1 15 2 16 3 17 4 18 5 19 6 13 8 12 10 11 11 20 12 10 13
REMARK SMILES IDX 21 14 22 15 25 16 23 17 24 18 26 19 9 20 8 22 7 23 2 24 6 25
REMARK SMILES IDX 3 26 4 27 1 28 5 29
REMARK H PARENT 17 7 13 9 9 21
ROOT
ATOM      1  C   UNL     1       5.532  45.680  55.362  1.00  0.00     0.122 C 
ENDROOT
BRANCH   1   2
ATOM      2  C   UNL     1       6.190  46.824  54.584  1.00  0.00     0.083 C 
BRANCH   2   3
ATOM      3  C   UNL     1       7.381  46.335  53.763  1.00  0.00     0.263 C 
BRANCH   3   4
ATOM      4  N   UNL     1       8.339  47.477  53.460  1.00  0.00    -0.340 N 
ATOM      5  C   UNL     1       8.814  47.416  52.031  1.00  0.00     0.332 C 
ATOM      6  C   UNL     1       9.498  47.567  54.411  1.00  0.00     0.332 C 
ATOM      7  H   UNL     1       7.798  48.349  53.542  1.00  0.00     0.347 HD
ENDBRANCH   3   4
ENDBRANCH   2   3
ENDBRANCH   1   2
BRANCH   1   8
ATOM      8  N   UNL     1       4.160  45.999  55.714  1.00  0.00    -0.354 N 
ATOM      9  H   UNL     1       3.901  46.974  55.543  1.00  0.00     0.163 HD
BRANCH   8  10
ATOM     10  C   UNL     1       3.181  45.305  55.002  1.00  0.00     0.226 A 
ATOM     11  N   UNL     1       3.618  44.788  53.845  1.00  0.00    -0.195 NA
ATOM     12  N   UNL     1       1.934  45.218  55.484  1.00  0.00    -0.193 NA
ATOM     13  C   UNL     1       2.785  44.083  53.032  1.00  0.00     0.147 A 
ATOM     14  C   UNL     1       1.125  44.506  54.681  1.00  0.00     0.165 A 
ATOM     15  C   UNL     1       1.466  43.924  53.474  1.00  0.00     0.082 A 
ATOM     16  N   UNL     1      -0.193  44.200  54.885  1.00  0.00    -0.250 N 
ATOM     17  C   UNL     1       0.276  43.308  53.033  1.00  0.00     0.149 A 
ATOM     18  N   UNL     1      -0.739  43.475  53.885  1.00  0.00    -0.179 NA
ATOM     19  C   UNL     1      -1.008  44.557  56.019  1.00  0.00     0.176 C 
BRANCH  13  20
ATOM     20  N   UNL     1       3.234  43.508  51.835  1.00  0.00    -0.339 N 
ATOM     21  H   UNL     1       2.535  42.955  51.361  1.00  0.00     0.168 HD
BRANCH  20  22
ATOM     22  C   UNL     1       4.450  43.621  51.132  1.00  0.00     0.043 A 
ATOM     23  C   UNL     1       5.199  44.808  51.121  1.00  0.00     0.028 A 
ATOM     24  C   UNL     1       4.983  42.493  50.458  1.00  0.00    -0.026 A 
ATOM     25  C   UNL     1       6.422  44.899  50.448  1.00  0.00     0.022 A 
ATOM     26  C   UNL     1       6.213  42.594  49.780  1.00  0.00     0.026 A 
ATOM     27  C   UNL     1       6.922  43.791  49.778  1.00  0.00     0.041 A 
ATOM     28  C   UNL     1       4.269  41.167  50.441  1.00  0.00     0.046 C 
ATOM     29  Cl  UNL     1       8.425  43.899  48.948  1.00  0.00    -0.084 Cl
ENDBRANCH  20  22
ENDBRANCH  13  20
ENDBRANCH   8  10
ENDBRANCH   1   8
TORSDOF 7
ENDMDL
MODEL 10
REMARK VINA RESULT:    -7.737      2.182      5.838
REMARK INTER + INTRA:         -12.084
REMARK INTER:                 -11.241
REMARK INTRA:                  -0.842
REMARK UNBOUND:                -1.180
REMARK SMILES Cc1cc(Cl)ccc1Nc1nc(NCCC[NH+](C)C)nc2c1cnn2C
REMARK SMILES IDX 14 1 15 2 16 3 17 4 18 5 19 6 13 8 12 10 11 11 20 12 10 13
REMARK SMILES IDX 21 14 22 15 25 16 23 17 24 18 26 19 9 20 8 22 7 23 2 24 6 25
REMARK SMILES IDX 3 26 4 27 1 28 5 29
REMARK H PARENT 17 7 13 9 9 21
ROOT
ATOM      1  C   UNL     1       5.391  41.543  50.094  1.00  0.00     0.122 C 
ENDROOT
BRANCH   1   2
ATOM      2  C   UNL     1       5.205  41.165  48.620  1.00  0.00     0.083 C 
BRANCH   2   3
ATOM      3  C   UNL     1       3.881  40.442  48.387  1.00  0.00     0.263 C 
BRANCH   3   4
ATOM      4  N   UNL     1       3.875  39.736  47.040  1.00  0.00    -0.340 N 
ATOM      5  C   UNL     1       3.721  40.727  45.914  1.00  0.00     0.332 C 
ATOM      6  C   UNL     1       2.858  38.636  46.933  1.00  0.00     0.332 C 
ATOM      7  H   UNL     1       4.806  39.314  46.921  1.00  0.00     0.347 HD
ENDBRANCH   3   4
ENDBRANCH   2   3
ENDBRANCH   1   2
BRANCH   1   8
ATOM      8  N   UNL     1       4.146  41.420  50.832  1.00  0.00    -0.354 N 
ATOM      9  H   UNL     1       4.240  40.945  51.733  1.00  0.00     0.163 HD
BRANCH   8  10
ATOM     10  C   UNL     1       3.544  42.626  51.197  1.00  0.00     0.226 A 
ATOM     11  N   UNL     1       4.381  43.673  51.189  1.00  0.00    -0.195 NA
ATOM     12  N   UNL     1       2.246  42.655  51.526  1.00  0.00    -0.193 NA
ATOM     13  C   UNL     1       3.948  44.919  51.522  1.00  0.00     0.147 A 
ATOM     14  C   UNL     1       1.827  43.893  51.837  1.00  0.00     0.165 A 
ATOM     15  C   UNL     1       2.595  45.043  51.859  1.00  0.00     0.082 A 
ATOM     16  N   UNL     1       0.562  44.282  52.188  1.00  0.00    -0.250 N 
ATOM     17  C   UNL     1       1.697  46.058  52.249  1.00  0.00     0.149 A 
ATOM     18  N   UNL     1       0.458  45.602  52.455  1.00  0.00    -0.179 NA
ATOM     19  C   UNL     1      -0.612  43.452  52.286  1.00  0.00     0.176 C 
BRANCH  13  20
ATOM     20  N   UNL     1       4.802  46.030  51.489  1.00  0.00    -0.339 N 
ATOM     21  H   UNL     1       4.401  46.839  51.036  1.00  0.00     0.168 HD
BRANCH  20  22
ATOM     22  C   UNL     1       6.083  46.254  52.034  1.00  0.00     0.043 A 
ATOM     23  C   UNL     1       7.257  46.016  51.304  1.00  0.00     0.028 A 
ATOM     24  C   UNL     1       6.209  46.795  53.338  1.00  0.00    -0.026 A 
ATOM     25  C   UNL     1       8.522  46.273  51.842  1.00  0.00     0.022 A 
ATOM     26  C   UNL     1       7.487  47.048  53.874  1.00  0.00     0.026 A 
ATOM     27  C   UNL     1       8.631  46.787  53.127  1.00  0.00     0.041 A 
ATOM     28  C   UNL     1       5.006  47.116  54.186  1.00  0.00     0.046 C 
ATOM     29  Cl  UNL     1      10.184  47.104  53.793  1.00  0.00    -0.084 Cl
ENDBRANCH  20  22
ENDBRANCH  13  20
ENDBRANCH   8  10
ENDBRANCH   1   8
TORSDOF 7
ENDMDL
MODEL 11
REMARK VINA RESULT:    -7.699      2.768      5.974
REMARK INTER + INTRA:         -12.030
REMARK INTER:                 -10.543
REMARK INTRA:                  -1.487
REMARK UNBOUND:                -1.180
REMARK SMILES Cc1cc(Cl)ccc1Nc1nc(NCCC[NH+](C)C)nc2c1cnn2C
REMARK SMILES IDX 14 1 15 2 16 3 17 4 18 5 19 6 13 8 12 10 11 11 20 12 10 13
REMARK SMILES IDX 21 14 22 15 25 16 23 17 24 18 26 19 9 20 8 22 7 23 2 24 6 25
REMARK SMILES IDX 3 26 4 27 1 28 5 29
REMARK H PARENT 17 7 13 9 9 21
ROOT
ATOM      1  C   UNL     1       6.435  42.245  49.891  1.00  0.00     0.122 C 
ENDROOT
BRANCH   1   2
ATOM      2  C   UNL     1       5.194  41.450  49.471  1.00  0.00     0.083 C 
BRANCH   2   3
ATOM      3  C   UNL     1       4.259  41.201  50.653  1.00  0.00     0.263 C 
BRANCH   3   4
ATOM      4  N   UNL     1       3.589  42.491  51.099  1.00  0.00    -0.340 N 
ATOM      5  C   UNL     1       3.794  42.721  52.574  1.00  0.00     0.332 C 
ATOM      6  C   UNL     1       2.134  42.578  50.736  1.00  0.00     0.332 C 
ATOM      7  H   UNL     1       4.077  43.261  50.621  1.00  0.00     0.347 HD
ENDBRANCH   3   4
ENDBRANCH   2   3
ENDBRANCH   1   2
BRANCH   1   8
ATOM      8  N   UNL     1       6.426  43.581  49.321  1.00  0.00    -0.354 N 
ATOM      9  H   UNL     1       5.525  43.859  48.924  1.00  0.00     0.163 HD
BRANCH   8  10
ATOM     10  C   UNL     1       6.686  44.619  50.217  1.00  0.00     0.226 A 
ATOM     11  N   UNL     1       5.581  45.199  50.708  1.00  0.00    -0.195 NA
ATOM     12  N   UNL     1       7.949  44.960  50.502  1.00  0.00    -0.193 NA
ATOM     13  C   UNL     1       5.664  46.228  51.593  1.00  0.00     0.147 A 
ATOM     14  C   UNL     1       8.018  45.966  51.389  1.00  0.00     0.165 A 
ATOM     15  C   UNL     1       6.952  46.633  51.964  1.00  0.00     0.082 A 
ATOM     16  N   UNL     1       9.145  46.537  51.917  1.00  0.00    -0.250 N 
ATOM     17  C   UNL     1       7.551  47.592  52.807  1.00  0.00     0.149 A 
ATOM     18  N   UNL     1       8.885  47.542  52.781  1.00  0.00    -0.179 NA
ATOM     19  C   UNL     1      10.514  46.174  51.653  1.00  0.00     0.176 C 
BRANCH  13  20
ATOM     20  N   UNL     1       4.519  46.824  52.141  1.00  0.00    -0.339 N 
ATOM     21  H   UNL     1       4.448  47.815  51.958  1.00  0.00     0.168 HD
BRANCH  20  22
ATOM     22  C   UNL     1       3.412  46.287  52.829  1.00  0.00     0.043 A 
ATOM     23  C   UNL     1       2.189  46.031  52.190  1.00  0.00     0.028 A 
ATOM     24  C   UNL     1       3.537  45.930  54.195  1.00  0.00    -0.026 A 
ATOM     25  C   UNL     1       1.107  45.467  52.874  1.00  0.00     0.022 A 
ATOM     26  C   UNL     1       2.441  45.366  54.877  1.00  0.00     0.026 A 
ATOM     27  C   UNL     1       1.238  45.138  54.216  1.00  0.00     0.041 A 
ATOM     28  C   UNL     1       4.820  46.136  54.957  1.00  0.00     0.046 C 
ATOM     29  Cl  UNL     1      -0.089  44.445  55.061  1.00  0.00    -0.084 Cl
ENDBRANCH  20  22
ENDBRANCH  13  20
ENDBRANCH   8  10
ENDBRANCH   1   8
TORSDOF 7
ENDMDL
MODEL 12
REMARK VINA RESULT:    -7.670      3.050      6.867
REMARK INTER + INTRA:         -11.989
REMARK INTER:                 -10.745
REMARK INTRA:                  -1.244
REMARK UNBOUND:                -1.180
REMARK SMILES Cc1cc(Cl)ccc1Nc1nc(NCCC[NH+](C)C)nc2c1cnn2C
REMARK SMILES IDX 14 1 15 2 16 3 17 4 18 5 19 6 13 8 12 10 11 11 20 12 10 13
REMARK SMILES IDX 21 14 22 15 25 16 23 17 24 18 26 19 9 20 8 22 7 23 2 24 6 25
REMARK SMILES IDX 3 26 4 27 1 28 5 29
REMARK H PARENT 17 7 13 9 9 21
ROOT
ATOM      1  C   UNL     1       7.818  43.493  49.457  1.00  0.00     0.122 C 
ENDROOT
BRANCH   1   2
ATOM      2  C   UNL     1       6.652  42.680  48.884  1.00  0.00     0.083 C 
BRANCH   2   3
ATOM      3  C   UNL     1       6.127  41.660  49.892  1.00  0.00     0.263 C 
BRANCH   3   4
ATOM      4  N   UNL     1       4.627  41.813  50.089  1.00  0.00    -0.340 N 
ATOM      5  C   UNL     1       4.279  41.868  51.555  1.00  0.00     0.332 C 
ATOM      6  C   UNL     1       3.811  40.769  49.381  1.00  0.00     0.332 C 
ATOM      7  H   UNL     1       4.367  42.730  49.701  1.00  0.00     0.347 HD
ENDBRANCH   3   4
ENDBRANCH   2   3
ENDBRANCH   1   2
BRANCH   1   8
ATOM      8  N   UNL     1       7.532  44.916  49.435  1.00  0.00    -0.354 N 
ATOM      9  H   UNL     1       6.720  45.170  48.866  1.00  0.00     0.163 HD
BRANCH   8  10
ATOM     10  C   UNL     1       7.214  45.484  50.670  1.00  0.00     0.226 A 
ATOM     11  N   UNL     1       5.897  45.637  50.872  1.00  0.00    -0.195 NA
ATOM     12  N   UNL     1       8.188  45.835  51.519  1.00  0.00    -0.193 NA
ATOM     13  C   UNL     1       5.423  46.178  52.026  1.00  0.00     0.147 A 
ATOM     14  C   UNL     1       7.708  46.353  52.662  1.00  0.00     0.165 A 
ATOM     15  C   UNL     1       6.377  46.552  52.981  1.00  0.00     0.082 A 
ATOM     16  N   UNL     1       8.421  46.783  53.748  1.00  0.00    -0.250 N 
ATOM     17  C   UNL     1       6.407  47.118  54.273  1.00  0.00     0.149 A 
ATOM     18  N   UNL     1       7.648  47.266  54.744  1.00  0.00    -0.179 NA
ATOM     19  C   UNL     1       9.852  46.760  53.918  1.00  0.00     0.176 C 
BRANCH  13  20
ATOM     20  N   UNL     1       4.049  46.315  52.267  1.00  0.00    -0.339 N 
ATOM     21  H   UNL     1       3.746  47.274  52.366  1.00  0.00     0.168 HD
BRANCH  20  22
ATOM     22  C   UNL     1       3.001  45.374  52.320  1.00  0.00     0.043 A 
ATOM     23  C   UNL     1       2.320  44.951  51.168  1.00  0.00     0.028 A 
ATOM     24  C   UNL     1       2.651  44.777  53.557  1.00  0.00    -0.026 A 
ATOM     25  C   UNL     1       1.304  43.991  51.227  1.00  0.00     0.022 A 
ATOM     26  C   UNL     1       1.624  43.814  53.607  1.00  0.00     0.026 A 
ATOM     27  C   UNL     1       0.959  43.428  52.447  1.00  0.00     0.041 A 
ATOM     28  C   UNL     1       3.348  45.141  54.841  1.00  0.00     0.046 C 
ATOM     29  Cl  UNL     1      -0.290  42.249  52.524  1.00  0.00    -0.084 Cl
ENDBRANCH  20  22
ENDBRANCH  13  20
ENDBRANCH   8  10
ENDBRANCH   1   8
TORSDOF 7
ENDMDL
MODEL 13
REMARK VINA RESULT:    -7.502      2.336      5.783
REMARK INTER + INTRA:         -11.752
REMARK INTER:                 -10.784
REMARK INTRA:                  -0.968
REMARK UNBOUND:                -1.180
REMARK SMILES Cc1cc(Cl)ccc1Nc1nc(NCCC[NH+](C)C)nc2c1cnn2C
REMARK SMILES IDX 14 1 15 2 16 3 17 4 18 5 19 6 13 8 12 10 11 11 20 12 10 13
REMARK SMILES IDX 21 14 22 15 25 16 23 17 24 18 26 19 9 20 8 22 7 23 2 24 6 25
REMARK SMILES IDX 3 26 4 27 1 28 5 29
REMARK H PARENT 17 7 13 9 9 21
ROOT
ATOM      1  C   UNL     1       4.189  41.470  51.016  1.00  0.00     0.122 C 
ENDROOT
BRANCH   1   2
ATOM      2  C   UNL     1       4.995  41.496  49.713  1.00  0.00     0.083 C 
BRANCH   2   3
ATOM      3  C   UNL     1       6.433  41.951  49.949  1.00  0.00     0.263 C 
BRANCH   3   4
ATOM      4  N   UNL     1       6.623  43.398  49.520  1.00  0.00    -0.340 N 
ATOM      5  C   UNL     1       8.061  43.668  49.159  1.00  0.00     0.332 C 
ATOM      6  C   UNL     1       6.120  44.400  50.520  1.00  0.00     0.332 C 
ATOM      7  H   UNL     1       6.084  43.525  48.652  1.00  0.00     0.347 HD
ENDBRANCH   3   4
ENDBRANCH   2   3
ENDBRANCH   1   2
BRANCH   1   8
ATOM      8  N   UNL     1       2.814  41.881  50.795  1.00  0.00    -0.354 N 
ATOM      9  H   UNL     1       2.149  41.105  50.745  1.00  0.00     0.163 HD
BRANCH   8  10
ATOM     10  C   UNL     1       2.258  42.680  51.796  1.00  0.00     0.226 A 
ATOM     11  N   UNL     1       3.168  43.334  52.534  1.00  0.00    -0.195 NA
ATOM     12  N   UNL     1       0.930  42.728  51.957  1.00  0.00    -0.193 NA
ATOM     13  C   UNL     1       2.788  44.153  53.551  1.00  0.00     0.147 A 
ATOM     14  C   UNL     1       0.566  43.552  52.954  1.00  0.00     0.165 A 
ATOM     15  C   UNL     1       1.411  44.279  53.773  1.00  0.00     0.082 A 
ATOM     16  N   UNL     1      -0.704  43.855  53.365  1.00  0.00    -0.250 N 
ATOM     17  C   UNL     1       0.545  44.969  54.646  1.00  0.00     0.149 A 
ATOM     18  N   UNL     1      -0.744  44.714  54.407  1.00  0.00    -0.179 NA
ATOM     19  C   UNL     1      -1.942  43.371  52.807  1.00  0.00     0.176 C 
BRANCH  13  20
ATOM     20  N   UNL     1       3.724  44.868  54.310  1.00  0.00    -0.339 N 
ATOM     21  H   UNL     1       3.596  44.775  55.308  1.00  0.00     0.168 HD
BRANCH  20  22
ATOM     22  C   UNL     1       4.853  45.628  53.945  1.00  0.00     0.043 A 
ATOM     23  C   UNL     1       6.159  45.227  54.268  1.00  0.00     0.028 A 
ATOM     24  C   UNL     1       4.692  46.806  53.173  1.00  0.00    -0.026 A 
ATOM     25  C   UNL     1       7.275  45.971  53.872  1.00  0.00     0.022 A 
ATOM     26  C   UNL     1       5.821  47.550  52.781  1.00  0.00     0.026 A 
ATOM     27  C   UNL     1       7.100  47.131  53.131  1.00  0.00     0.041 A 
ATOM     28  C   UNL     1       3.333  47.298  52.749  1.00  0.00     0.046 C 
ATOM     29  Cl  UNL     1       8.470  48.049  52.643  1.00  0.00    -0.084 Cl
ENDBRANCH  20  22
ENDBRANCH  13  20
ENDBRANCH   8  10
ENDBRANCH   1   8
TORSDOF 7
ENDMDL
MODEL 14
REMARK VINA RESULT:    -7.491      3.527      6.925
REMARK INTER + INTRA:         -11.737
REMARK INTER:                 -10.850
REMARK INTRA:                  -0.887
REMARK UNBOUND:                -1.180
REMARK SMILES Cc1cc(Cl)ccc1Nc1nc(NCCC[NH+](C)C)nc2c1cnn2C
REMARK SMILES IDX 14 1 15 2 16 3 17 4 18 5 19 6 13 8 12 10 11 11 20 12 10 13
REMARK SMILES IDX 21 14 22 15 25 16 23 17 24 18 26 19 9 20 8 22 7 23 2 24 6 25
REMARK SMILES IDX 3 26 4 27 1 28 5 29
REMARK H PARENT 17 7 13 9 9 21
ROOT
ATOM      1  C   UNL     1       5.750  46.878  53.851  1.00  0.00     0.122 C 
ENDROOT
BRANCH   1   2
ATOM      2  C   UNL     1       7.267  46.658  53.892  1.00  0.00     0.083 C 
BRANCH   2   3
ATOM      3  C   UNL     1       7.983  47.474  52.818  1.00  0.00     0.263 C 
BRANCH   3   4
ATOM      4  N   UNL     1       9.489  47.442  53.025  1.00  0.00    -0.340 N 
ATOM      5  C   UNL     1      10.134  46.418  52.128  1.00  0.00     0.332 C 
ATOM      6  C   UNL     1       9.903  47.244  54.455  1.00  0.00     0.332 C 
ATOM      7  H   UNL     1       9.851  48.356  52.719  1.00  0.00     0.347 HD
ENDBRANCH   3   4
ENDBRANCH   2   3
ENDBRANCH   1   2
BRANCH   1   8
ATOM      8  N   UNL     1       5.226  46.699  52.509  1.00  0.00    -0.354 N 
ATOM      9  H   UNL     1       5.852  47.023  51.768  1.00  0.00     0.163 HD
BRANCH   8  10
ATOM     10  C   UNL     1       4.983  45.377  52.131  1.00  0.00     0.226 A 
ATOM     11  N   UNL     1       3.984  44.795  52.809  1.00  0.00    -0.195 NA
ATOM     12  N   UNL     1       5.731  44.802  51.180  1.00  0.00    -0.193 NA
ATOM     13  C   UNL     1       3.624  43.507  52.560  1.00  0.00     0.147 A 
ATOM     14  C   UNL     1       5.356  43.537  50.931  1.00  0.00     0.165 A 
ATOM     15  C   UNL     1       4.342  42.838  51.561  1.00  0.00     0.082 A 
ATOM     16  N   UNL     1       5.884  42.676  50.007  1.00  0.00    -0.250 N 
ATOM     17  C   UNL     1       4.358  41.568  50.949  1.00  0.00     0.149 A 
ATOM     18  N   UNL     1       5.296  41.460  50.004  1.00  0.00    -0.179 NA
ATOM     19  C   UNL     1       6.952  42.941  49.076  1.00  0.00     0.176 C 
BRANCH  13  20
ATOM     20  N   UNL     1       2.561  42.894  53.237  1.00  0.00    -0.339 N 
ATOM     21  H   UNL     1       2.851  42.178  53.888  1.00  0.00     0.168 HD
BRANCH  20  22
ATOM     22  C   UNL     1       1.173  43.142  53.238  1.00  0.00     0.043 A 
ATOM     23  C   UNL     1       0.310  42.554  52.300  1.00  0.00     0.028 A 
ATOM     24  C   UNL     1       0.603  43.958  54.247  1.00  0.00    -0.026 A 
ATOM     25  C   UNL     1      -1.070  42.779  52.331  1.00  0.00     0.022 A 
ATOM     26  C   UNL     1      -0.787  44.182  54.267  1.00  0.00     0.026 A 
ATOM     27  C   UNL     1      -1.612  43.595  53.313  1.00  0.00     0.041 A 
ATOM     28  C   UNL     1       1.444  44.605  55.316  1.00  0.00     0.046 C 
ATOM     29  Cl  UNL     1      -3.308  43.876  53.353  1.00  0.00    -0.084 Cl
ENDBRANCH  20  22
ENDBRANCH  13  20
ENDBRANCH   8  10
ENDBRANCH   1   8
TORSDOF 7
ENDMDL
MODEL 15
REMARK VINA RESULT:    -7.467      2.122      5.226
REMARK INTER + INTRA:         -11.702
REMARK INTER:                 -10.661
REMARK INTRA:                  -1.042
REMARK UNBOUND:                -1.180
REMARK SMILES Cc1cc(Cl)ccc1Nc1nc(NCCC[NH+](C)C)nc2c1cnn2C
REMARK SMILES IDX 14 1 15 2 16 3 17 4 18 5 19 6 13 8 12 10 11 11 20 12 10 13
REMARK SMILES IDX 21 14 22 15 25 16 23 17 24 18 26 19 9 20 8 22 7 23 2 24 6 25
REMARK SMILES IDX 3 26 4 27 1 28 5 29
REMARK H PARENT 17 7 13 9 9 21
ROOT
ATOM      1  C   UNL     1       4.390  41.520  49.894  1.00  0.00     0.122 C 
ENDROOT
BRANCH   1   2
ATOM      2  C   UNL     1       5.918  41.396  49.868  1.00  0.00     0.083 C 
BRANCH   2   3
ATOM      3  C   UNL     1       6.552  42.445  48.959  1.00  0.00     0.263 C 
BRANCH   3   4
ATOM      4  N   UNL     1       7.354  43.453  49.768  1.00  0.00    -0.340 N 
ATOM      5  C   UNL     1       6.458  44.524  50.335  1.00  0.00     0.332 C 
ATOM      6  C   UNL     1       8.507  44.056  49.018  1.00  0.00     0.332 C 
ATOM      7  H   UNL     1       7.739  42.947  50.578  1.00  0.00     0.347 HD
ENDBRANCH   3   4
ENDBRANCH   2   3
ENDBRANCH   1   2
BRANCH   1   8
ATOM      8  N   UNL     1       3.882  41.510  51.255  1.00  0.00    -0.354 N 
ATOM      9  H   UNL     1       4.610  41.522  51.973  1.00  0.00     0.163 HD
BRANCH   8  10
ATOM     10  C   UNL     1       3.100  42.610  51.611  1.00  0.00     0.226 A 
ATOM     11  N   UNL     1       3.758  43.531  52.331  1.00  0.00    -0.195 NA
ATOM     12  N   UNL     1       1.813  42.666  51.247  1.00  0.00    -0.193 NA
ATOM     13  C   UNL     1       3.136  44.662  52.758  1.00  0.00     0.147 A 
ATOM     14  C   UNL     1       1.213  43.795  51.660  1.00  0.00     0.165 A 
ATOM     15  C   UNL     1       1.791  44.812  52.399  1.00  0.00     0.082 A 
ATOM     16  N   UNL     1      -0.080  44.183  51.436  1.00  0.00    -0.250 N 
ATOM     17  C   UNL     1       0.753  45.751  52.574  1.00  0.00     0.149 A 
ATOM     18  N   UNL     1      -0.390  45.373  51.994  1.00  0.00    -0.179 NA
ATOM     19  C   UNL     1      -1.088  43.475  50.688  1.00  0.00     0.176 C 
BRANCH  13  20
ATOM     20  N   UNL     1       3.817  45.650  53.483  1.00  0.00    -0.339 N 
ATOM     21  H   UNL     1       3.262  46.079  54.210  1.00  0.00     0.168 HD
BRANCH  20  22
ATOM     22  C   UNL     1       5.152  46.102  53.440  1.00  0.00     0.043 A 
ATOM     23  C   UNL     1       5.581  47.075  52.524  1.00  0.00     0.028 A 
ATOM     24  C   UNL     1       6.092  45.617  54.383  1.00  0.00    -0.026 A 
ATOM     25  C   UNL     1       6.899  47.541  52.511  1.00  0.00     0.022 A 
ATOM     26  C   UNL     1       7.418  46.089  54.361  1.00  0.00     0.026 A 
ATOM     27  C   UNL     1       7.813  47.044  53.429  1.00  0.00     0.041 A 
ATOM     28  C   UNL     1       5.717  44.597  55.427  1.00  0.00     0.046 C 
ATOM     29  Cl  UNL     1       9.436  47.613  53.417  1.00  0.00    -0.084 Cl
ENDBRANCH  20  22
ENDBRANCH  13  20
ENDBRANCH   8  10
ENDBRANCH   1   8
TORSDOF 7
ENDMDL
MODEL 16
REMARK VINA RESULT:    -7.462      2.009      2.963
REMARK INTER + INTRA:         -11.696
REMARK INTER:                 -10.727
REMARK INTRA:                  -0.969
REMARK UNBOUND:                -1.180
REMARK SMILES Cc1cc(Cl)ccc1Nc1nc(NCCC[NH+](C)C)nc2c1cnn2C
REMARK SMILES IDX 14 1 15 2 16 3 17 4 18 5 19 6 13 8 12 10 11 11 20 12 10 13
REMARK SMILES IDX 21 14 22 15 25 16 23 17 24 18 26 19 9 20 8 22 7 23 2 24 6 25
REMARK SMILES IDX 3 26 4 27 1 28 5 29
REMARK H PARENT 17 7 13 9 9 21
ROOT
ATOM      1  C   UNL     1      -0.066  43.786  52.438  1.00  0.00     0.122 C 
ENDROOT
BRANCH   1   2
ATOM      2  C   UNL     1       0.220  43.583  53.930  1.00  0.00     0.083 C 
BRANCH   2   3
ATOM      3  C   UNL     1      -0.597  44.540  54.795  1.00  0.00     0.263 C 
BRANCH   3   4
ATOM      4  N   UNL     1       0.306  45.529  55.515  1.00  0.00    -0.340 N 
ATOM      5  C   UNL     1       1.755  45.145  55.363  1.00  0.00     0.332 C 
ATOM      6  C   UNL     1      -0.048  45.735  56.961  1.00  0.00     0.332 C 
ATOM      7  H   UNL     1       0.200  46.433  55.035  1.00  0.00     0.347 HD
ENDBRANCH   3   4
ENDBRANCH   2   3
ENDBRANCH   1   2
BRANCH   1   8
ATOM      8  N   UNL     1       0.685  44.908  51.904  1.00  0.00    -0.354 N 
ATOM      9  H   UNL     1       0.757  45.704  52.541  1.00  0.00     0.163 HD
BRANCH   8  10
ATOM     10  C   UNL     1       2.024  44.647  51.606  1.00  0.00     0.226 A 
ATOM     11  N   UNL     1       2.835  45.697  51.801  1.00  0.00    -0.195 NA
ATOM     12  N   UNL     1       2.389  43.440  51.156  1.00  0.00    -0.193 NA
ATOM     13  C   UNL     1       4.170  45.606  51.555  1.00  0.00     0.147 A 
ATOM     14  C   UNL     1       3.712  43.358  50.933  1.00  0.00     0.165 A 
ATOM     15  C   UNL     1       4.641  44.368  51.103  1.00  0.00     0.082 A 
ATOM     16  N   UNL     1       4.419  42.268  50.501  1.00  0.00    -0.250 N 
ATOM     17  C   UNL     1       5.869  43.781  50.732  1.00  0.00     0.149 A 
ATOM     18  N   UNL     1       5.741  42.504  50.361  1.00  0.00    -0.179 NA
ATOM     19  C   UNL     1       3.905  40.954  50.206  1.00  0.00     0.176 C 
BRANCH  13  20
ATOM     20  N   UNL     1       5.037  46.684  51.785  1.00  0.00    -0.339 N 
ATOM     21  H   UNL     1       4.676  47.573  51.467  1.00  0.00     0.168 HD
BRANCH  20  22
ATOM     22  C   UNL     1       6.279  46.772  52.444  1.00  0.00     0.043 A 
ATOM     23  C   UNL     1       7.492  46.853  51.742  1.00  0.00     0.028 A 
ATOM     24  C   UNL     1       6.324  46.847  53.858  1.00  0.00    -0.026 A 
ATOM     25  C   UNL     1       8.718  46.974  52.404  1.00  0.00     0.022 A 
ATOM     26  C   UNL     1       7.563  46.966  54.518  1.00  0.00     0.026 A 
ATOM     27  C   UNL     1       8.747  47.028  53.790  1.00  0.00     0.041 A 
ATOM     28  C   UNL     1       5.074  46.803  54.697  1.00  0.00     0.046 C 
ATOM     29  Cl  UNL     1      10.252  47.177  54.610  1.00  0.00    -0.084 Cl
ENDBRANCH  20  22
ENDBRANCH  13  20
ENDBRANCH   8  10
ENDBRANCH   1   8
TORSDOF 7
ENDMDL
MODEL 17
REMARK VINA RESULT:    -7.436      2.602      5.867
REMARK INTER + INTRA:         -11.660
REMARK INTER:                 -10.466
REMARK INTRA:                  -1.194
REMARK UNBOUND:                -1.180
REMARK SMILES Cc1cc(Cl)ccc1Nc1nc(NCCC[NH+](C)C)nc2c1cnn2C
REMARK SMILES IDX 14 1 15 2 16 3 17 4 18 5 19 6 13 8 12 10 11 11 20 12 10 13
REMARK SMILES IDX 21 14 22 15 25 16 23 17 24 18 26 19 9 20 8 22 7 23 2 24 6 25
REMARK SMILES IDX 3 26 4 27 1 28 5 29
REMARK H PARENT 17 7 13 9 9 21
ROOT
ATOM      1  C   UNL     1       9.138  45.667  50.922  1.00  0.00     0.122 C 
ENDROOT
BRANCH   1   2
ATOM      2  C   UNL     1       9.697  46.149  52.264  1.00  0.00     0.083 C 
BRANCH   2   3
ATOM      3  C   UNL     1       9.252  47.575  52.581  1.00  0.00     0.263 C 
BRANCH   3   4
ATOM      4  N   UNL     1       8.851  47.709  54.042  1.00  0.00    -0.340 N 
ATOM      5  C   UNL     1      10.009  47.382  54.950  1.00  0.00     0.332 C 
ATOM      6  C   UNL     1       7.633  46.913  54.413  1.00  0.00     0.332 C 
ATOM      7  H   UNL     1       8.636  48.703  54.201  1.00  0.00     0.347 HD
ENDBRANCH   3   4
ENDBRANCH   2   3
ENDBRANCH   1   2
BRANCH   1   8
ATOM      8  N   UNL     1       7.846  46.268  50.640  1.00  0.00    -0.354 N 
ATOM      9  H   UNL     1       7.730  46.575  49.672  1.00  0.00     0.163 HD
BRANCH   8  10
ATOM     10  C   UNL     1       6.743  45.432  50.818  1.00  0.00     0.226 A 
ATOM     11  N   UNL     1       5.699  46.031  51.409  1.00  0.00    -0.195 NA
ATOM     12  N   UNL     1       6.799  44.153  50.423  1.00  0.00    -0.193 NA
ATOM     13  C   UNL     1       4.547  45.351  51.655  1.00  0.00     0.147 A 
ATOM     14  C   UNL     1       5.650  43.497  50.656  1.00  0.00     0.165 A 
ATOM     15  C   UNL     1       4.513  44.011  51.251  1.00  0.00     0.082 A 
ATOM     16  N   UNL     1       5.357  42.194  50.352  1.00  0.00    -0.250 N 
ATOM     17  C   UNL     1       3.606  42.930  51.267  1.00  0.00     0.149 A 
ATOM     18  N   UNL     1       4.114  41.820  50.725  1.00  0.00    -0.179 NA
ATOM     19  C   UNL     1       6.211  41.237  49.695  1.00  0.00     0.176 C 
BRANCH  13  20
ATOM     20  N   UNL     1       3.436  45.971  52.242  1.00  0.00    -0.339 N 
ATOM     21  H   UNL     1       3.027  46.700  51.674  1.00  0.00     0.168 HD
BRANCH  20  22
ATOM     22  C   UNL     1       2.735  45.717  53.439  1.00  0.00     0.043 A 
ATOM     23  C   UNL     1       3.322  45.903  54.700  1.00  0.00     0.028 A 
ATOM     24  C   UNL     1       1.375  45.321  53.390  1.00  0.00    -0.026 A 
ATOM     25  C   UNL     1       2.608  45.680  55.882  1.00  0.00     0.022 A 
ATOM     26  C   UNL     1       0.665  45.096  54.585  1.00  0.00     0.026 A 
ATOM     27  C   UNL     1       1.282  45.276  55.818  1.00  0.00     0.041 A 
ATOM     28  C   UNL     1       0.650  45.129  52.084  1.00  0.00     0.046 C 
ATOM     29  Cl  UNL     1       0.400  45.000  57.269  1.00  0.00    -0.084 Cl
ENDBRANCH  20  22
ENDBRANCH  13  20
ENDBRANCH   8  10
ENDBRANCH   1   8
TORSDOF 7
ENDMDL
MODEL 18
REMARK VINA RESULT:    -7.357      3.308      7.674
REMARK INTER + INTRA:         -11.548
REMARK INTER:                 -10.662
REMARK INTRA:                  -0.886
REMARK UNBOUND:                -1.180
REMARK SMILES Cc1cc(Cl)ccc1Nc1nc(NCCC[NH+](C)C)nc2c1cnn2C
REMARK SMILES IDX 14 1 15 2 16 3 17 4 18 5 19 6 13 8 12 10 11 11 20 12 10 13
REMARK SMILES IDX 21 14 22 15 25 16 23 17 24 18 26 19 9 20 8 22 7 23 2 24 6 25
REMARK SMILES IDX 3 26 4 27 1 28 5 29
REMARK H PARENT 17 7 13 9 9 21
ROOT
ATOM      1  C   UNL     1       6.596  42.074  49.713  1.00  0.00     0.122 C 
ENDROOT
BRANCH   1   2
ATOM      2  C   UNL     1       5.595  41.328  48.824  1.00  0.00     0.083 C 
BRANCH   2   3
ATOM      3  C   UNL     1       5.681  41.788  47.370  1.00  0.00     0.263 C 
BRANCH   3   4
ATOM      4  N   UNL     1       4.870  40.877  46.462  1.00  0.00    -0.340 N 
ATOM      5  C   UNL     1       4.665  41.509  45.109  1.00  0.00     0.332 C 
ATOM      6  C   UNL     1       3.563  40.434  47.054  1.00  0.00     0.332 C 
ATOM      7  H   UNL     1       5.440  40.035  46.299  1.00  0.00     0.347 HD
ENDBRANCH   3   4
ENDBRANCH   2   3
ENDBRANCH   1   2
BRANCH   1   8
ATOM      8  N   UNL     1       6.522  43.509  49.503  1.00  0.00    -0.354 N 
ATOM      9  H   UNL     1       5.785  43.799  48.856  1.00  0.00     0.163 HD
BRANCH   8  10
ATOM     10  C   UNL     1       6.231  44.267  50.639  1.00  0.00     0.226 A 
ATOM     11  N   UNL     1       5.258  43.748  51.402  1.00  0.00    -0.195 NA
ATOM     12  N   UNL     1       6.894  45.407  50.873  1.00  0.00    -0.193 NA
ATOM     13  C   UNL     1       4.856  44.367  52.543  1.00  0.00     0.147 A 
ATOM     14  C   UNL     1       6.499  46.002  52.012  1.00  0.00     0.165 A 
ATOM     15  C   UNL     1       5.515  45.557  52.876  1.00  0.00     0.082 A 
ATOM     16  N   UNL     1       6.986  47.157  52.561  1.00  0.00    -0.250 N 
ATOM     17  C   UNL     1       5.484  46.527  53.900  1.00  0.00     0.149 A 
ATOM     18  N   UNL     1       6.373  47.506  53.713  1.00  0.00    -0.179 NA
ATOM     19  C   UNL     1       8.045  47.990  52.050  1.00  0.00     0.176 C 
BRANCH  13  20
ATOM     20  N   UNL     1       3.863  43.821  53.369  1.00  0.00    -0.339 N 
ATOM     21  H   UNL     1       4.214  43.463  54.246  1.00  0.00     0.168 HD
BRANCH  20  22
ATOM     22  C   UNL     1       2.462  43.750  53.239  1.00  0.00     0.043 A 
ATOM     23  C   UNL     1       1.844  42.995  52.230  1.00  0.00     0.028 A 
ATOM     24  C   UNL     1       1.631  44.401  54.185  1.00  0.00    -0.026 A 
ATOM     25  C   UNL     1       0.451  42.903  52.131  1.00  0.00     0.022 A 
ATOM     26  C   UNL     1       0.231  44.306  54.075  1.00  0.00     0.026 A 
ATOM     27  C   UNL     1      -0.349  43.561  53.053  1.00  0.00     0.041 A 
ATOM     28  C   UNL     1       2.203  45.207  55.323  1.00  0.00     0.046 C 
ATOM     29  Cl  UNL     1      -2.061  43.451  52.934  1.00  0.00    -0.084 Cl
ENDBRANCH  20  22
ENDBRANCH  13  20
ENDBRANCH   8  10
ENDBRANCH   1   8
TORSDOF 7
ENDMDL
MODEL 19
REMARK VINA RESULT:    -7.309      3.261      4.911
REMARK INTER + INTRA:         -11.480
REMARK INTER:                 -10.688
REMARK INTRA:                  -0.791
REMARK UNBOUND:                -1.180
REMARK SMILES Cc1cc(Cl)ccc1Nc1nc(NCCC[NH+](C)C)nc2c1cnn2C
REMARK SMILES IDX 14 1 15 2 16 3 17 4 18 5 19 6 13 8 12 10 11 11 20 12 10 13
REMARK SMILES IDX 21 14 22 15 25 16 23 17 24 18 26 19 9 20 8 22 7 23 2 24 6 25
REMARK SMILES IDX 3 26 4 27 1 28 5 29
REMARK H PARENT 17 7 13 9 9 21
ROOT
ATOM      1  C   UNL     1       0.354  45.463  57.090  1.00  0.00     0.122 C 
ENDROOT
BRANCH   1   2
ATOM      2  C   UNL     1       0.452  46.741  57.931  1.00  0.00     0.083 C 
BRANCH   2   3
ATOM      3  C   UNL     1      -0.896  47.449  58.037  1.00  0.00     0.263 C 
BRANCH   3   4
ATOM      4  N   UNL     1      -1.089  48.046  59.423  1.00  0.00    -0.340 N 
ATOM      5  C   UNL     1      -1.625  49.451  59.334  1.00  0.00     0.332 C 
ATOM      6  C   UNL     1       0.139  47.990  60.286  1.00  0.00     0.332 C 
ATOM      7  H   UNL     1      -1.822  47.491  59.886  1.00  0.00     0.347 HD
ENDBRANCH   3   4
ENDBRANCH   2   3
ENDBRANCH   1   2
BRANCH   1   8
ATOM      8  N   UNL     1       1.662  45.033  56.627  1.00  0.00    -0.354 N 
ATOM      9  H   UNL     1       1.941  44.108  56.961  1.00  0.00     0.163 HD
BRANCH   8  10
ATOM     10  C   UNL     1       1.794  44.897  55.243  1.00  0.00     0.226 A 
ATOM     11  N   UNL     1       2.710  45.715  54.705  1.00  0.00    -0.195 NA
ATOM     12  N   UNL     1       1.031  44.020  54.578  1.00  0.00    -0.193 NA
ATOM     13  C   UNL     1       2.958  45.707  53.367  1.00  0.00     0.147 A 
ATOM     14  C   UNL     1       1.296  44.009  53.261  1.00  0.00     0.165 A 
ATOM     15  C   UNL     1       2.218  44.800  52.599  1.00  0.00     0.082 A 
ATOM     16  N   UNL     1       0.725  43.217  52.302  1.00  0.00    -0.250 N 
ATOM     17  C   UNL     1       2.107  44.411  51.248  1.00  0.00     0.149 A 
ATOM     18  N   UNL     1       1.197  43.451  51.058  1.00  0.00    -0.179 NA
ATOM     19  C   UNL     1      -0.279  42.202  52.492  1.00  0.00     0.176 C 
BRANCH  13  20
ATOM     20  N   UNL     1       3.934  46.532  52.793  1.00  0.00    -0.339 N 
ATOM     21  H   UNL     1       3.555  47.295  52.249  1.00  0.00     0.168 HD
BRANCH  20  22
ATOM     22  C   UNL     1       5.340  46.544  52.894  1.00  0.00     0.043 A 
ATOM     23  C   UNL     1       6.001  46.990  54.049  1.00  0.00     0.028 A 
ATOM     24  C   UNL     1       6.128  46.034  51.832  1.00  0.00    -0.026 A 
ATOM     25  C   UNL     1       7.396  46.966  54.153  1.00  0.00     0.022 A 
ATOM     26  C   UNL     1       7.532  46.017  51.944  1.00  0.00     0.026 A 
ATOM     27  C   UNL     1       8.155  46.481  53.098  1.00  0.00     0.041 A 
ATOM     28  C   UNL     1       5.509  45.502  50.567  1.00  0.00     0.046 C 
ATOM     29  Cl  UNL     1       9.870  46.450  53.221  1.00  0.00    -0.084 Cl
ENDBRANCH  20  22
ENDBRANCH  13  20
ENDBRANCH   8  10
ENDBRANCH   1   8
TORSDOF 7
ENDMDL
MODEL 20
REMARK VINA RESULT:    -7.231      3.431      5.393
REMARK INTER + INTRA:         -11.370
REMARK INTER:                 -10.506
REMARK INTRA:                  -0.864
REMARK UNBOUND:                -1.180
REMARK SMILES Cc1cc(Cl)ccc1Nc1nc(NCCC[NH+](C)C)nc2c1cnn2C
REMARK SMILES IDX 14 1 15 2 16 3 17 4 18 5 19 6 13 8 12 10 11 11 20 12 10 13
REMARK SMILES IDX 21 14 22 15 25 16 23 17 24 18 26 19 9 20 8 22 7 23 2 24 6 25
REMARK SMILES IDX 3 26 4 27 1 28 5 29
REMARK H PARENT 17 7 13 9 9 21
ROOT
ATOM      1  C   UNL     1       0.946  45.343  56.810  1.00  0.00     0.122 C 
ENDROOT
BRANCH   1   2
ATOM      2  C   UNL     1       0.783  46.443  57.865  1.00  0.00     0.083 C 
BRANCH   2   3
ATOM      3  C   UNL     1      -0.630  47.023  57.859  1.00  0.00     0.263 C 
BRANCH   3   4
ATOM      4  N   UNL     1      -0.755  48.162  58.860  1.00  0.00    -0.340 N 
ATOM      5  C   UNL     1       0.159  47.946  60.038  1.00  0.00     0.332 C 
ATOM      6  C   UNL     1      -2.164  48.423  59.311  1.00  0.00     0.332 C 
ATOM      7  H   UNL     1      -0.415  49.011  58.388  1.00  0.00     0.347 HD
ENDBRANCH   3   4
ENDBRANCH   2   3
ENDBRANCH   1   2
BRANCH   1   8
ATOM      8  N   UNL     1       0.223  45.666  55.593  1.00  0.00    -0.354 N 
ATOM      9  H   UNL     1       0.271  46.652  55.327  1.00  0.00     0.163 HD
BRANCH   8  10
ATOM     10  C   UNL     1       0.677  45.027  54.438  1.00  0.00     0.226 A 
ATOM     11  N   UNL     1       1.995  44.780  54.439  1.00  0.00    -0.195 NA
ATOM     12  N   UNL     1      -0.180  44.734  53.451  1.00  0.00    -0.193 NA
ATOM     13  C   UNL     1       2.594  44.164  53.385  1.00  0.00     0.147 A 
ATOM     14  C   UNL     1       0.420  44.112  52.422  1.00  0.00     0.165 A 
ATOM     15  C   UNL     1       1.764  43.801  52.317  1.00  0.00     0.082 A 
ATOM     16  N   UNL     1      -0.161  43.649  51.273  1.00  0.00    -0.250 N 
ATOM     17  C   UNL     1       1.881  43.168  51.062  1.00  0.00     0.149 A 
ATOM     18  N   UNL     1       0.713  43.075  50.419  1.00  0.00    -0.179 NA
ATOM     19  C   UNL     1      -1.556  43.708  50.914  1.00  0.00     0.176 C 
BRANCH  13  20
ATOM     20  N   UNL     1       3.964  43.869  53.384  1.00  0.00    -0.339 N 
ATOM     21  H   UNL     1       4.180  42.935  53.703  1.00  0.00     0.168 HD
BRANCH  20  22
ATOM     22  C   UNL     1       5.088  44.600  52.950  1.00  0.00     0.043 A 
ATOM     23  C   UNL     1       5.389  44.767  51.590  1.00  0.00     0.028 A 
ATOM     24  C   UNL     1       5.917  45.249  53.899  1.00  0.00    -0.026 A 
ATOM     25  C   UNL     1       6.488  45.524  51.168  1.00  0.00     0.022 A 
ATOM     26  C   UNL     1       7.023  46.006  53.466  1.00  0.00     0.026 A 
ATOM     27  C   UNL     1       7.301  46.138  52.110  1.00  0.00     0.041 A 
ATOM     28  C   UNL     1       5.655  45.156  55.380  1.00  0.00     0.046 C 
ATOM     29  Cl  UNL     1       8.654  47.068  51.596  1.00  0.00    -0.084 Cl
ENDBRANCH  20  22
ENDBRANCH  13  20
ENDBRANCH   8  10
ENDBRANCH   1   8
TORSDOF 7
ENDMDL
