MODEL 1
REMARK VINA RESULT:    -8.078      0.000      0.000
REMARK INTER + INTRA:         -13.045
REMARK INTER:                 -11.856
REMARK INTRA:                  -1.189
REMARK UNBOUND:                -1.189
REMARK SMILES CCCCCCNc1nc(Nc2ccccc2)c2cnn(C)c2n1
REMARK SMILES IDX 5 1 4 2 3 3 2 4 1 5 6 6 7 7 8 9 9 10 24 11 10 12 23 13 18 14
REMARK SMILES IDX 21 15 19 16 20 17 22 18 11 19 12 21 13 22 17 23 14 24 16 25
REMARK SMILES IDX 15 26
REMARK H PARENT 7 8 11 20
ROOT
ATOM      1  C   UNL     1       2.764  45.632  54.945  1.00  0.00     0.021 C 
ENDROOT
BRANCH   1   2
ATOM      2  C   UNL     1       2.450  44.523  53.933  1.00  0.00     0.002 C 
BRANCH   2   3
ATOM      3  C   UNL     1       1.968  44.992  52.556  1.00  0.00    -0.000 C 
BRANCH   3   4
ATOM      4  C   UNL     1       2.325  46.447  52.251  1.00  0.00    -0.003 C 
ATOM      5  C   UNL     1       3.152  46.561  50.980  1.00  0.00     0.004 C 
ENDBRANCH   3   4
ENDBRANCH   2   3
ENDBRANCH   1   2
BRANCH   1   6
ATOM      6  C   UNL     1       4.222  45.697  55.407  1.00  0.00     0.116 C 
BRANCH   6   7
ATOM      7  N   UNL     1       4.872  46.926  54.984  1.00  0.00    -0.354 N 
ATOM      8  H   UNL     1       5.114  47.563  55.734  1.00  0.00     0.163 HD
BRANCH   7   9
ATOM      9  C   UNL     1       6.030  46.784  54.230  1.00  0.00     0.226 A 
ATOM     10  N   UNL     1       5.826  46.307  52.987  1.00  0.00    -0.195 NA
ATOM     11  N   UNL     1       7.217  47.114  54.754  1.00  0.00    -0.193 NA
ATOM     12  C   UNL     1       6.877  46.095  52.156  1.00  0.00     0.147 A 
ATOM     13  C   UNL     1       8.237  46.922  53.905  1.00  0.00     0.165 A 
ATOM     14  C   UNL     1       8.151  46.433  52.617  1.00  0.00     0.082 A 
ATOM     15  N   UNL     1       9.563  47.170  54.127  1.00  0.00    -0.250 N 
ATOM     16  C   UNL     1       9.480  46.451  52.146  1.00  0.00     0.149 A 
ATOM     17  N   UNL     1      10.351  46.894  53.061  1.00  0.00    -0.179 NA
ATOM     18  C   UNL     1      10.158  47.681  55.335  1.00  0.00     0.176 C 
BRANCH  12  19
ATOM     19  N   UNL     1       6.588  45.602  50.874  1.00  0.00    -0.339 N 
ATOM     20  H   UNL     1       5.935  46.259  50.450  1.00  0.00     0.168 HD
BRANCH  19  21
ATOM     21  C   UNL     1       6.259  44.278  50.512  1.00  0.00     0.040 A 
ATOM     22  C   UNL     1       5.180  43.660  51.157  1.00  0.00     0.026 A 
ATOM     23  C   UNL     1       7.013  43.524  49.604  1.00  0.00     0.026 A 
ATOM     24  C   UNL     1       4.831  42.339  50.869  1.00  0.00     0.002 A 
ATOM     25  C   UNL     1       6.667  42.202  49.314  1.00  0.00     0.002 A 
ATOM     26  C   UNL     1       5.573  41.612  49.943  1.00  0.00     0.000 A 
ENDBRANCH  19  21
ENDBRANCH  12  19
ENDBRANCH   7   9
ENDBRANCH   6   7
ENDBRANCH   1   6
TORSDOF 8
ENDMDL
MODEL 2
REMARK VINA RESULT:    -8.032      2.368      5.893
REMARK INTER + INTRA:         -12.977
REMARK INTER:                 -12.166
REMARK INTRA:                  -0.811
REMARK UNBOUND:                -1.189
REMARK SMILES CCCCCCNc1nc(Nc2ccccc2)c2cnn(C)c2n1
REMARK SMILES IDX 5 1 4 2 3 3 2 4 1 5 6 6 7 7 8 9 9 10 24 11 10 12 23 13 18 14
REMARK SMILES IDX 21 15 19 16 20 17 22 18 11 19 12 21 13 22 17 23 14 24 16 25
REMARK SMILES IDX 15 26
REMARK H PARENT 7 8 11 20
ROOT
ATOM      1  C   UNL     1       6.854  46.802  54.460  1.00  0.00     0.021 C 
ENDROOT
BRANCH   1   2
ATOM      2  C   UNL     1       7.384  47.217  53.081  1.00  0.00     0.002 C 
BRANCH   2   3
ATOM      3  C   UNL     1       8.779  47.849  53.065  1.00  0.00    -0.000 C 
BRANCH   3   4
ATOM      4  C   UNL     1       9.909  46.833  53.235  1.00  0.00    -0.003 C 
ATOM      5  C   UNL     1      10.254  46.162  51.915  1.00  0.00     0.004 C 
ENDBRANCH   3   4
ENDBRANCH   2   3
ENDBRANCH   1   2
BRANCH   1   6
ATOM      6  C   UNL     1       5.330  46.831  54.606  1.00  0.00     0.116 C 
BRANCH   6   7
ATOM      7  N   UNL     1       4.809  45.573  55.115  1.00  0.00    -0.354 N 
ATOM      8  H   UNL     1       4.345  45.634  56.014  1.00  0.00     0.163 HD
BRANCH   7   9
ATOM      9  C   UNL     1       3.929  44.889  54.287  1.00  0.00     0.226 A 
ATOM     10  N   UNL     1       4.510  44.306  53.221  1.00  0.00    -0.195 NA
ATOM     11  N   UNL     1       2.623  44.850  54.582  1.00  0.00    -0.193 NA
ATOM     12  C   UNL     1       3.758  43.630  52.317  1.00  0.00     0.147 A 
ATOM     13  C   UNL     1       1.905  44.152  53.689  1.00  0.00     0.165 A 
ATOM     14  C   UNL     1       2.388  43.522  52.560  1.00  0.00     0.082 A 
ATOM     15  N   UNL     1       0.559  43.915  53.708  1.00  0.00    -0.250 N 
ATOM     16  C   UNL     1       1.253  42.915  51.985  1.00  0.00     0.149 A 
ATOM     17  N   UNL     1       0.130  43.153  52.674  1.00  0.00    -0.179 NA
ATOM     18  C   UNL     1      -0.389  44.378  54.689  1.00  0.00     0.176 C 
BRANCH  12  19
ATOM     19  N   UNL     1       4.435  43.044  51.235  1.00  0.00    -0.339 N 
ATOM     20  H   UNL     1       4.503  42.048  51.440  1.00  0.00     0.168 HD
BRANCH  19  21
ATOM     21  C   UNL     1       5.612  43.499  50.604  1.00  0.00     0.040 A 
ATOM     22  C   UNL     1       6.404  42.568  49.920  1.00  0.00     0.026 A 
ATOM     23  C   UNL     1       6.070  44.819  50.703  1.00  0.00     0.026 A 
ATOM     24  C   UNL     1       7.599  42.952  49.309  1.00  0.00     0.002 A 
ATOM     25  C   UNL     1       7.266  45.206  50.093  1.00  0.00     0.002 A 
ATOM     26  C   UNL     1       8.028  44.274  49.393  1.00  0.00     0.000 A 
ENDBRANCH  19  21
ENDBRANCH  12  19
ENDBRANCH   7   9
ENDBRANCH   6   7
ENDBRANCH   1   6
TORSDOF 8
ENDMDL
MODEL 3
REMARK VINA RESULT:    -8.012      2.536      6.036
REMARK INTER + INTRA:         -12.948
REMARK INTER:                 -12.156
REMARK INTRA:                  -0.792
REMARK UNBOUND:                -1.189
REMARK SMILES CCCCCCNc1nc(Nc2ccccc2)c2cnn(C)c2n1
REMARK SMILES IDX 5 1 4 2 3 3 2 4 1 5 6 6 7 7 8 9 9 10 24 11 10 12 23 13 18 14
REMARK SMILES IDX 21 15 19 16 20 17 22 18 11 19 12 21 13 22 17 23 14 24 16 25
REMARK SMILES IDX 15 26
REMARK H PARENT 7 8 11 20
ROOT
ATOM      1  C   UNL     1       8.710  47.654  51.575  1.00  0.00     0.021 C 
ENDROOT
BRANCH   1   2
ATOM      2  C   UNL     1       9.874  46.796  52.084  1.00  0.00     0.002 C 
BRANCH   2   3
ATOM      3  C   UNL     1       9.724  46.239  53.503  1.00  0.00    -0.000 C 
BRANCH   3   4
ATOM      4  C   UNL     1      10.249  47.183  54.585  1.00  0.00    -0.003 C 
ATOM      5  C   UNL     1       9.183  48.176  55.021  1.00  0.00     0.004 C 
ENDBRANCH   3   4
ENDBRANCH   2   3
ENDBRANCH   1   2
BRANCH   1   6
ATOM      6  C   UNL     1       7.401  46.897  51.330  1.00  0.00     0.116 C 
BRANCH   6   7
ATOM      7  N   UNL     1       7.622  45.643  50.630  1.00  0.00    -0.354 N 
ATOM      8  H   UNL     1       8.492  45.174  50.855  1.00  0.00     0.163 HD
BRANCH   7   9
ATOM      9  C   UNL     1       6.633  44.678  50.765  1.00  0.00     0.226 A 
ATOM     10  N   UNL     1       6.752  43.641  49.914  1.00  0.00    -0.195 NA
ATOM     11  N   UNL     1       5.671  44.826  51.685  1.00  0.00    -0.193 NA
ATOM     12  C   UNL     1       5.835  42.641  49.922  1.00  0.00     0.147 A 
ATOM     13  C   UNL     1       4.793  43.812  51.691  1.00  0.00     0.165 A 
ATOM     14  C   UNL     1       4.808  42.706  50.866  1.00  0.00     0.082 A 
ATOM     15  N   UNL     1       3.709  43.656  52.511  1.00  0.00    -0.250 N 
ATOM     16  C   UNL     1       3.706  41.936  51.290  1.00  0.00     0.149 A 
ATOM     17  N   UNL     1       3.024  42.509  52.289  1.00  0.00    -0.179 NA
ATOM     18  C   UNL     1       3.265  44.559  53.541  1.00  0.00     0.176 C 
BRANCH  12  19
ATOM     19  N   UNL     1       6.028  41.590  49.011  1.00  0.00    -0.339 N 
ATOM     20  H   UNL     1       7.028  41.548  48.823  1.00  0.00     0.168 HD
BRANCH  19  21
ATOM     21  C   UNL     1       5.294  41.321  47.837  1.00  0.00     0.040 A 
ATOM     22  C   UNL     1       5.721  41.903  46.636  1.00  0.00     0.026 A 
ATOM     23  C   UNL     1       4.111  40.571  47.830  1.00  0.00     0.026 A 
ATOM     24  C   UNL     1       5.013  41.704  45.449  1.00  0.00     0.002 A 
ATOM     25  C   UNL     1       3.400  40.370  46.644  1.00  0.00     0.002 A 
ATOM     26  C   UNL     1       3.854  40.933  45.453  1.00  0.00     0.000 A 
ENDBRANCH  19  21
ENDBRANCH  12  19
ENDBRANCH   7   9
ENDBRANCH   6   7
ENDBRANCH   1   6
TORSDOF 8
ENDMDL
MODEL 4
REMARK VINA RESULT:    -7.994      1.883      5.820
REMARK INTER + INTRA:         -12.921
REMARK INTER:                 -11.734
REMARK INTRA:                  -1.187
REMARK UNBOUND:                -1.189
REMARK SMILES CCCCCCNc1nc(Nc2ccccc2)c2cnn(C)c2n1
REMARK SMILES IDX 5 1 4 2 3 3 2 4 1 5 6 6 7 7 8 9 9 10 24 11 10 12 23 13 18 14
REMARK SMILES IDX 21 15 19 16 20 17 22 18 11 19 12 21 13 22 17 23 14 24 16 25
REMARK SMILES IDX 15 26
REMARK H PARENT 7 8 11 20
ROOT
ATOM      1  C   UNL     1       5.611  41.403  50.475  1.00  0.00     0.021 C 
ENDROOT
BRANCH   1   2
ATOM      2  C   UNL     1       5.608  41.555  48.949  1.00  0.00     0.002 C 
BRANCH   2   3
ATOM      3  C   UNL     1       6.517  42.651  48.386  1.00  0.00    -0.000 C 
BRANCH   3   4
ATOM      4  C   UNL     1       7.269  43.431  49.465  1.00  0.00    -0.003 C 
ATOM      5  C   UNL     1       8.560  44.024  48.923  1.00  0.00     0.004 C 
ENDBRANCH   3   4
ENDBRANCH   2   3
ENDBRANCH   1   2
BRANCH   1   6
ATOM      6  C   UNL     1       4.267  41.671  51.159  1.00  0.00     0.116 C 
BRANCH   6   7
ATOM      7  N   UNL     1       3.748  42.990  50.837  1.00  0.00    -0.354 N 
ATOM      8  H   UNL     1       2.766  43.014  50.585  1.00  0.00     0.163 HD
BRANCH   7   9
ATOM      9  C   UNL     1       3.906  43.969  51.809  1.00  0.00     0.226 A 
ATOM     10  N   UNL     1       4.886  44.855  51.547  1.00  0.00    -0.195 NA
ATOM     11  N   UNL     1       3.116  43.977  52.890  1.00  0.00    -0.193 NA
ATOM     12  C   UNL     1       5.164  45.847  52.429  1.00  0.00     0.147 A 
ATOM     13  C   UNL     1       3.392  44.983  53.733  1.00  0.00     0.165 A 
ATOM     14  C   UNL     1       4.373  45.941  53.576  1.00  0.00     0.082 A 
ATOM     15  N   UNL     1       2.765  45.274  54.913  1.00  0.00    -0.250 N 
ATOM     16  C   UNL     1       4.233  46.775  54.704  1.00  0.00     0.149 A 
ATOM     17  N   UNL     1       3.259  46.374  55.530  1.00  0.00    -0.179 NA
ATOM     18  C   UNL     1       1.676  44.551  55.517  1.00  0.00     0.176 C 
BRANCH  12  19
ATOM     19  N   UNL     1       6.195  46.737  52.086  1.00  0.00    -0.339 N 
ATOM     20  H   UNL     1       6.164  46.841  51.073  1.00  0.00     0.168 HD
BRANCH  19  21
ATOM     21  C   UNL     1       7.531  46.725  52.539  1.00  0.00     0.040 A 
ATOM     22  C   UNL     1       7.796  47.165  53.842  1.00  0.00     0.026 A 
ATOM     23  C   UNL     1       8.613  46.377  51.720  1.00  0.00     0.026 A 
ATOM     24  C   UNL     1       9.103  47.212  54.333  1.00  0.00     0.002 A 
ATOM     25  C   UNL     1       9.922  46.423  52.209  1.00  0.00     0.002 A 
ATOM     26  C   UNL     1      10.165  46.837  53.516  1.00  0.00     0.000 A 
ENDBRANCH  19  21
ENDBRANCH  12  19
ENDBRANCH   7   9
ENDBRANCH   6   7
ENDBRANCH   1   6
TORSDOF 8
ENDMDL
MODEL 5
REMARK VINA RESULT:    -7.976      0.949      1.275
REMARK INTER + INTRA:         -12.894
REMARK INTER:                 -11.716
REMARK INTRA:                  -1.179
REMARK UNBOUND:                -1.189
REMARK SMILES CCCCCCNc1nc(Nc2ccccc2)c2cnn(C)c2n1
REMARK SMILES IDX 5 1 4 2 3 3 2 4 1 5 6 6 7 7 8 9 9 10 24 11 10 12 23 13 18 14
REMARK SMILES IDX 21 15 19 16 20 17 22 18 11 19 12 21 13 22 17 23 14 24 16 25
REMARK SMILES IDX 15 26
REMARK H PARENT 7 8 11 20
ROOT
ATOM      1  C   UNL     1       3.037  45.583  55.423  1.00  0.00     0.021 C 
ENDROOT
BRANCH   1   2
ATOM      2  C   UNL     1       1.893  44.747  54.838  1.00  0.00     0.002 C 
BRANCH   2   3
ATOM      3  C   UNL     1       2.035  44.360  53.362  1.00  0.00    -0.000 C 
BRANCH   3   4
ATOM      4  C   UNL     1       1.626  42.916  53.070  1.00  0.00    -0.003 C 
ATOM      5  C   UNL     1       0.929  42.799  51.724  1.00  0.00     0.004 C 
ENDBRANCH   3   4
ENDBRANCH   2   3
ENDBRANCH   1   2
BRANCH   1   6
ATOM      6  C   UNL     1       3.621  46.638  54.478  1.00  0.00     0.116 C 
BRANCH   6   7
ATOM      7  N   UNL     1       4.893  47.153  54.958  1.00  0.00    -0.354 N 
ATOM      8  H   UNL     1       5.154  46.849  55.890  1.00  0.00     0.163 HD
BRANCH   7   9
ATOM      9  C   UNL     1       6.002  46.900  54.161  1.00  0.00     0.226 A 
ATOM     10  N   UNL     1       5.707  46.403  52.945  1.00  0.00    -0.195 NA
ATOM     11  N   UNL     1       7.233  47.155  54.623  1.00  0.00    -0.193 NA
ATOM     12  C   UNL     1       6.701  46.086  52.077  1.00  0.00     0.147 A 
ATOM     13  C   UNL     1       8.195  46.860  53.737  1.00  0.00     0.165 A 
ATOM     14  C   UNL     1       8.016  46.340  52.472  1.00  0.00     0.082 A 
ATOM     15  N   UNL     1       9.545  47.013  53.895  1.00  0.00    -0.250 N 
ATOM     16  C   UNL     1       9.319  46.243  51.944  1.00  0.00     0.149 A 
ATOM     17  N   UNL     1      10.262  46.645  52.806  1.00  0.00    -0.179 NA
ATOM     18  C   UNL     1      10.231  47.514  55.058  1.00  0.00     0.176 C 
BRANCH  12  19
ATOM     19  N   UNL     1       6.318  45.577  50.826  1.00  0.00    -0.339 N 
ATOM     20  H   UNL     1       5.599  46.203  50.465  1.00  0.00     0.168 HD
BRANCH  19  21
ATOM     21  C   UNL     1       6.019  44.239  50.493  1.00  0.00     0.040 A 
ATOM     22  C   UNL     1       4.895  43.643  51.079  1.00  0.00     0.026 A 
ATOM     23  C   UNL     1       6.840  43.453  49.674  1.00  0.00     0.026 A 
ATOM     24  C   UNL     1       4.570  42.310  50.818  1.00  0.00     0.002 A 
ATOM     25  C   UNL     1       6.518  42.119  49.411  1.00  0.00     0.002 A 
ATOM     26  C   UNL     1       5.381  41.550  49.980  1.00  0.00     0.000 A 
ENDBRANCH  19  21
ENDBRANCH  12  19
ENDBRANCH   7   9
ENDBRANCH   6   7
ENDBRANCH   1   6
TORSDOF 8
ENDMDL
MODEL 6
REMARK VINA RESULT:    -7.970      2.215      5.879
REMARK INTER + INTRA:         -12.886
REMARK INTER:                 -12.315
REMARK INTRA:                  -0.572
REMARK UNBOUND:                -1.189
REMARK SMILES CCCCCCNc1nc(Nc2ccccc2)c2cnn(C)c2n1
REMARK SMILES IDX 5 1 4 2 3 3 2 4 1 5 6 6 7 7 8 9 9 10 24 11 10 12 23 13 18 14
REMARK SMILES IDX 21 15 19 16 20 17 22 18 11 19 12 21 13 22 17 23 14 24 16 25
REMARK SMILES IDX 15 26
REMARK H PARENT 7 8 11 20
ROOT
ATOM      1  C   UNL     1       6.458  47.011  53.035  1.00  0.00     0.021 C 
ENDROOT
BRANCH   1   2
ATOM      2  C   UNL     1       7.490  46.780  51.924  1.00  0.00     0.002 C 
BRANCH   2   3
ATOM      3  C   UNL     1       8.779  47.601  52.029  1.00  0.00    -0.000 C 
BRANCH   3   4
ATOM      4  C   UNL     1       9.908  46.868  52.755  1.00  0.00    -0.003 C 
ATOM      5  C   UNL     1       9.915  47.193  54.241  1.00  0.00     0.004 C 
ENDBRANCH   3   4
ENDBRANCH   2   3
ENDBRANCH   1   2
BRANCH   1   6
ATOM      6  C   UNL     1       6.303  45.855  54.028  1.00  0.00     0.116 C 
BRANCH   6   7
ATOM      7  N   UNL     1       5.169  46.050  54.915  1.00  0.00    -0.354 N 
ATOM      8  H   UNL     1       4.902  47.017  55.064  1.00  0.00     0.163 HD
BRANCH   7   9
ATOM      9  C   UNL     1       3.996  45.390  54.571  1.00  0.00     0.226 A 
ATOM     10  N   UNL     1       4.093  44.629  53.464  1.00  0.00    -0.195 NA
ATOM     11  N   UNL     1       2.896  45.540  55.321  1.00  0.00    -0.193 NA
ATOM     12  C   UNL     1       3.011  43.953  53.003  1.00  0.00     0.147 A 
ATOM     13  C   UNL     1       1.849  44.840  54.860  1.00  0.00     0.165 A 
ATOM     14  C   UNL     1       1.827  44.037  53.738  1.00  0.00     0.082 A 
ATOM     15  N   UNL     1       0.594  44.770  55.399  1.00  0.00    -0.250 N 
ATOM     16  C   UNL     1       0.520  43.511  53.708  1.00  0.00     0.149 A 
ATOM     17  N   UNL     1      -0.244  43.956  54.714  1.00  0.00    -0.179 NA
ATOM     18  C   UNL     1       0.118  45.447  56.578  1.00  0.00     0.176 C 
BRANCH  12  19
ATOM     19  N   UNL     1       3.190  43.175  51.847  1.00  0.00    -0.339 N 
ATOM     20  H   UNL     1       2.688  42.302  52.004  1.00  0.00     0.168 HD
BRANCH  19  21
ATOM     21  C   UNL     1       4.390  42.935  51.146  1.00  0.00     0.040 A 
ATOM     22  C   UNL     1       5.175  44.034  50.774  1.00  0.00     0.026 A 
ATOM     23  C   UNL     1       4.789  41.659  50.727  1.00  0.00     0.026 A 
ATOM     24  C   UNL     1       6.353  43.862  50.045  1.00  0.00     0.002 A 
ATOM     25  C   UNL     1       5.968  41.484  49.998  1.00  0.00     0.002 A 
ATOM     26  C   UNL     1       6.751  42.584  49.661  1.00  0.00     0.000 A 
ENDBRANCH  19  21
ENDBRANCH  12  19
ENDBRANCH   7   9
ENDBRANCH   6   7
ENDBRANCH   1   6
TORSDOF 8
ENDMDL
MODEL 7
REMARK VINA RESULT:    -7.959      2.019      5.172
REMARK INTER + INTRA:         -12.869
REMARK INTER:                 -11.333
REMARK INTRA:                  -1.536
REMARK UNBOUND:                -1.189
REMARK SMILES CCCCCCNc1nc(Nc2ccccc2)c2cnn(C)c2n1
REMARK SMILES IDX 5 1 4 2 3 3 2 4 1 5 6 6 7 7 8 9 9 10 24 11 10 12 23 13 18 14
REMARK SMILES IDX 21 15 19 16 20 17 22 18 11 19 12 21 13 22 17 23 14 24 16 25
REMARK SMILES IDX 15 26
REMARK H PARENT 7 8 11 20
ROOT
ATOM      1  C   UNL     1       1.808  45.661  54.421  1.00  0.00     0.021 C 
ENDROOT
BRANCH   1   2
ATOM      2  C   UNL     1       3.180  45.276  54.987  1.00  0.00     0.002 C 
BRANCH   2   3
ATOM      3  C   UNL     1       4.183  46.423  55.143  1.00  0.00    -0.000 C 
BRANCH   3   4
ATOM      4  C   UNL     1       5.634  45.997  54.919  1.00  0.00    -0.003 C 
ATOM      5  C   UNL     1       5.728  44.528  54.534  1.00  0.00     0.004 C 
ENDBRANCH   3   4
ENDBRANCH   2   3
ENDBRANCH   1   2
BRANCH   1   6
ATOM      6  C   UNL     1       1.587  45.303  52.948  1.00  0.00     0.116 C 
BRANCH   6   7
ATOM      7  N   UNL     1       2.483  46.037  52.071  1.00  0.00    -0.354 N 
ATOM      8  H   UNL     1       2.878  46.881  52.471  1.00  0.00     0.163 HD
BRANCH   7   9
ATOM      9  C   UNL     1       3.561  45.330  51.555  1.00  0.00     0.226 A 
ATOM     10  N   UNL     1       4.671  46.069  51.373  1.00  0.00    -0.195 NA
ATOM     11  N   UNL     1       3.440  44.023  51.286  1.00  0.00    -0.193 NA
ATOM     12  C   UNL     1       5.789  45.506  50.849  1.00  0.00     0.147 A 
ATOM     13  C   UNL     1       4.565  43.484  50.795  1.00  0.00     0.165 A 
ATOM     14  C   UNL     1       5.755  44.140  50.558  1.00  0.00     0.082 A 
ATOM     15  N   UNL     1       4.773  42.182  50.432  1.00  0.00    -0.250 N 
ATOM     16  C   UNL     1       6.620  43.136  50.078  1.00  0.00     0.149 A 
ATOM     17  N   UNL     1       6.030  41.938  49.991  1.00  0.00    -0.179 NA
ATOM     18  C   UNL     1       3.819  41.104  50.486  1.00  0.00     0.176 C 
BRANCH  12  19
ATOM     19  N   UNL     1       6.910  46.336  50.693  1.00  0.00    -0.339 N 
ATOM     20  H   UNL     1       7.292  46.139  49.769  1.00  0.00     0.168 HD
BRANCH  19  21
ATOM     21  C   UNL     1       7.950  46.564  51.619  1.00  0.00     0.040 A 
ATOM     22  C   UNL     1       7.752  47.523  52.620  1.00  0.00     0.026 A 
ATOM     23  C   UNL     1       9.201  45.940  51.531  1.00  0.00     0.026 A 
ATOM     24  C   UNL     1       8.759  47.819  53.541  1.00  0.00     0.002 A 
ATOM     25  C   UNL     1      10.211  46.235  52.452  1.00  0.00     0.002 A 
ATOM     26  C   UNL     1       9.988  47.170  53.459  1.00  0.00     0.000 A 
ENDBRANCH  19  21
ENDBRANCH  12  19
ENDBRANCH   7   9
ENDBRANCH   6   7
ENDBRANCH   1   6
TORSDOF 8
ENDMDL
MODEL 8
REMARK VINA RESULT:    -7.918      2.320      6.049
REMARK INTER + INTRA:         -12.810
REMARK INTER:                 -12.131
REMARK INTRA:                  -0.678
REMARK UNBOUND:                -1.189
REMARK SMILES CCCCCCNc1nc(Nc2ccccc2)c2cnn(C)c2n1
REMARK SMILES IDX 5 1 4 2 3 3 2 4 1 5 6 6 7 7 8 9 9 10 24 11 10 12 23 13 18 14
REMARK SMILES IDX 21 15 19 16 20 17 22 18 11 19 12 21 13 22 17 23 14 24 16 25
REMARK SMILES IDX 15 26
REMARK H PARENT 7 8 11 20
ROOT
ATOM      1  C   UNL     1       7.767  47.754  52.585  1.00  0.00     0.021 C 
ENDROOT
BRANCH   1   2
ATOM      2  C   UNL     1       9.061  46.972  52.326  1.00  0.00     0.002 C 
BRANCH   2   3
ATOM      3  C   UNL     1       9.962  46.751  53.545  1.00  0.00    -0.000 C 
BRANCH   3   4
ATOM      4  C   UNL     1       9.664  47.705  54.703  1.00  0.00    -0.003 C 
ATOM      5  C   UNL     1      10.673  47.544  55.828  1.00  0.00     0.004 C 
ENDBRANCH   3   4
ENDBRANCH   2   3
ENDBRANCH   1   2
BRANCH   1   6
ATOM      6  C   UNL     1       6.645  46.952  53.251  1.00  0.00     0.116 C 
BRANCH   6   7
ATOM      7  N   UNL     1       5.539  46.706  52.341  1.00  0.00    -0.354 N 
ATOM      8  H   UNL     1       5.514  47.307  51.525  1.00  0.00     0.163 HD
BRANCH   7   9
ATOM      9  C   UNL     1       5.418  45.411  51.853  1.00  0.00     0.226 A 
ATOM     10  N   UNL     1       4.424  44.699  52.418  1.00  0.00    -0.195 NA
ATOM     11  N   UNL     1       6.249  44.973  50.899  1.00  0.00    -0.193 NA
ATOM     12  C   UNL     1       4.215  43.409  52.051  1.00  0.00     0.147 A 
ATOM     13  C   UNL     1       6.004  43.706  50.535  1.00  0.00     0.165 A 
ATOM     14  C   UNL     1       5.026  42.878  51.046  1.00  0.00     0.082 A 
ATOM     15  N   UNL     1       6.662  42.972  49.586  1.00  0.00    -0.250 N 
ATOM     16  C   UNL     1       5.164  41.679  50.318  1.00  0.00     0.149 A 
ATOM     17  N   UNL     1       6.164  41.723  49.428  1.00  0.00    -0.179 NA
ATOM     18  C   UNL     1       7.775  43.399  48.778  1.00  0.00     0.176 C 
BRANCH  12  19
ATOM     19  N   UNL     1       3.158  42.730  52.678  1.00  0.00    -0.339 N 
ATOM     20  H   UNL     1       3.401  41.741  52.668  1.00  0.00     0.168 HD
BRANCH  19  21
ATOM     21  C   UNL     1       1.774  42.901  52.462  1.00  0.00     0.040 A 
ATOM     22  C   UNL     1       0.897  42.631  53.520  1.00  0.00     0.026 A 
ATOM     23  C   UNL     1       1.232  43.242  51.216  1.00  0.00     0.026 A 
ATOM     24  C   UNL     1      -0.485  42.745  53.354  1.00  0.00     0.002 A 
ATOM     25  C   UNL     1      -0.151  43.357  51.048  1.00  0.00     0.002 A 
ATOM     26  C   UNL     1      -1.008  43.112  52.118  1.00  0.00     0.000 A 
ENDBRANCH  19  21
ENDBRANCH  12  19
ENDBRANCH   7   9
ENDBRANCH   6   7
ENDBRANCH   1   6
TORSDOF 8
ENDMDL
MODEL 9
REMARK VINA RESULT:    -7.759      1.861      5.200
REMARK INTER + INTRA:         -12.577
REMARK INTER:                 -11.548
REMARK INTRA:                  -1.029
REMARK UNBOUND:                -1.189
REMARK SMILES CCCCCCNc1nc(Nc2ccccc2)c2cnn(C)c2n1
REMARK SMILES IDX 5 1 4 2 3 3 2 4 1 5 6 6 7 7 8 9 9 10 24 11 10 12 23 13 18 14
REMARK SMILES IDX 21 15 19 16 20 17 22 18 11 19 12 21 13 22 17 23 14 24 16 25
REMARK SMILES IDX 15 26
REMARK H PARENT 7 8 11 20
ROOT
ATOM      1  C   UNL     1       1.762  44.972  52.063  1.00  0.00     0.021 C 
ENDROOT
BRANCH   1   2
ATOM      2  C   UNL     1       2.002  46.168  52.992  1.00  0.00     0.002 C 
BRANCH   2   3
ATOM      3  C   UNL     1       2.911  47.270  52.439  1.00  0.00    -0.000 C 
BRANCH   3   4
ATOM      4  C   UNL     1       3.952  47.762  53.446  1.00  0.00    -0.003 C 
ATOM      5  C   UNL     1       3.993  46.873  54.680  1.00  0.00     0.004 C 
ENDBRANCH   3   4
ENDBRANCH   2   3
ENDBRANCH   1   2
BRANCH   1   6
ATOM      6  C   UNL     1       2.199  43.615  52.624  1.00  0.00     0.116 C 
BRANCH   6   7
ATOM      7  N   UNL     1       3.573  43.638  53.094  1.00  0.00    -0.354 N 
ATOM      8  H   UNL     1       3.857  42.826  53.630  1.00  0.00     0.163 HD
BRANCH   7   9
ATOM      9  C   UNL     1       4.555  43.805  52.125  1.00  0.00     0.226 A 
ATOM     10  N   UNL     1       5.243  44.958  52.228  1.00  0.00    -0.195 NA
ATOM     11  N   UNL     1       4.750  42.860  51.197  1.00  0.00    -0.193 NA
ATOM     12  C   UNL     1       6.211  45.259  51.327  1.00  0.00     0.147 A 
ATOM     13  C   UNL     1       5.730  43.167  50.335  1.00  0.00     0.165 A 
ATOM     14  C   UNL     1       6.494  44.316  50.336  1.00  0.00     0.082 A 
ATOM     15  N   UNL     1       6.181  42.415  49.286  1.00  0.00    -0.250 N 
ATOM     16  C   UNL     1       7.391  44.142  49.263  1.00  0.00     0.149 A 
ATOM     17  N   UNL     1       7.206  42.987  48.611  1.00  0.00    -0.179 NA
ATOM     18  C   UNL     1       5.688  41.127  48.868  1.00  0.00     0.176 C 
BRANCH  12  19
ATOM     19  N   UNL     1       6.890  46.475  51.501  1.00  0.00    -0.339 N 
ATOM     20  H   UNL     1       7.058  46.851  50.568  1.00  0.00     0.168 HD
BRANCH  19  21
ATOM     21  C   UNL     1       7.992  46.736  52.342  1.00  0.00     0.040 A 
ATOM     22  C   UNL     1       9.268  46.358  51.904  1.00  0.00     0.026 A 
ATOM     23  C   UNL     1       7.861  47.272  53.630  1.00  0.00     0.026 A 
ATOM     24  C   UNL     1      10.392  46.555  52.710  1.00  0.00     0.002 A 
ATOM     25  C   UNL     1       8.983  47.470  54.438  1.00  0.00     0.002 A 
ATOM     26  C   UNL     1      10.249  47.116  53.976  1.00  0.00     0.000 A 
ENDBRANCH  19  21
ENDBRANCH  12  19
ENDBRANCH   7   9
ENDBRANCH   6   7
ENDBRANCH   1   6
TORSDOF 8
ENDMDL
MODEL 10
REMARK VINA RESULT:    -7.757      2.031      5.223
REMARK INTER + INTRA:         -12.573
REMARK INTER:                 -11.527
REMARK INTRA:                  -1.046
REMARK UNBOUND:                -1.189
REMARK SMILES CCCCCCNc1nc(Nc2ccccc2)c2cnn(C)c2n1
REMARK SMILES IDX 5 1 4 2 3 3 2 4 1 5 6 6 7 7 8 9 9 10 24 11 10 12 23 13 18 14
REMARK SMILES IDX 21 15 19 16 20 17 22 18 11 19 12 21 13 22 17 23 14 24 16 25
REMARK SMILES IDX 15 26
REMARK H PARENT 7 8 11 20
ROOT
ATOM      1  C   UNL     1       1.269  45.803  52.568  1.00  0.00     0.021 C 
ENDROOT
BRANCH   1   2
ATOM      2  C   UNL     1       0.112  44.810  52.401  1.00  0.00     0.002 C 
BRANCH   2   3
ATOM      3  C   UNL     1      -0.830  44.674  53.601  1.00  0.00    -0.000 C 
BRANCH   3   4
ATOM      4  C   UNL     1      -0.829  43.275  54.219  1.00  0.00    -0.003 C 
ATOM      5  C   UNL     1       0.074  42.327  53.444  1.00  0.00     0.004 C 
ENDBRANCH   3   4
ENDBRANCH   2   3
ENDBRANCH   1   2
BRANCH   1   6
ATOM      6  C   UNL     1       2.028  45.700  53.894  1.00  0.00     0.116 C 
BRANCH   6   7
ATOM      7  N   UNL     1       2.893  44.533  53.936  1.00  0.00    -0.354 N 
ATOM      8  H   UNL     1       2.411  43.641  53.914  1.00  0.00     0.163 HD
BRANCH   7   9
ATOM      9  C   UNL     1       3.868  44.452  52.950  1.00  0.00     0.226 A 
ATOM     10  N   UNL     1       4.689  45.518  52.895  1.00  0.00    -0.195 NA
ATOM     11  N   UNL     1       3.933  43.375  52.157  1.00  0.00    -0.193 NA
ATOM     12  C   UNL     1       5.668  45.578  51.959  1.00  0.00     0.147 A 
ATOM     13  C   UNL     1       4.926  43.446  51.259  1.00  0.00     0.165 A 
ATOM     14  C   UNL     1       5.820  44.486  51.102  1.00  0.00     0.082 A 
ATOM     15  N   UNL     1       5.265  42.512  50.319  1.00  0.00    -0.250 N 
ATOM     16  C   UNL     1       6.669  44.065  50.059  1.00  0.00     0.149 A 
ATOM     17  N   UNL     1       6.336  42.864  49.569  1.00  0.00    -0.179 NA
ATOM     18  C   UNL     1       4.616  41.249  50.079  1.00  0.00     0.176 C 
BRANCH  12  19
ATOM     19  N   UNL     1       6.489  46.718  51.965  1.00  0.00    -0.339 N 
ATOM     20  H   UNL     1       6.547  47.040  51.000  1.00  0.00     0.168 HD
BRANCH  19  21
ATOM     21  C   UNL     1       7.729  46.884  52.617  1.00  0.00     0.040 A 
ATOM     22  C   UNL     1       8.896  46.521  51.930  1.00  0.00     0.026 A 
ATOM     23  C   UNL     1       7.844  47.310  53.946  1.00  0.00     0.026 A 
ATOM     24  C   UNL     1      10.149  46.627  52.536  1.00  0.00     0.002 A 
ATOM     25  C   UNL     1       9.097  47.417  54.555  1.00  0.00     0.002 A 
ATOM     26  C   UNL     1      10.249  47.079  53.849  1.00  0.00     0.000 A 
ENDBRANCH  19  21
ENDBRANCH  12  19
ENDBRANCH   7   9
ENDBRANCH   6   7
ENDBRANCH   1   6
TORSDOF 8
ENDMDL
MODEL 11
REMARK VINA RESULT:    -7.743      3.353      7.268
REMARK INTER + INTRA:         -12.553
REMARK INTER:                 -10.618
REMARK INTRA:                  -1.935
REMARK UNBOUND:                -1.189
REMARK SMILES CCCCCCNc1nc(Nc2ccccc2)c2cnn(C)c2n1
REMARK SMILES IDX 5 1 4 2 3 3 2 4 1 5 6 6 7 7 8 9 9 10 24 11 10 12 23 13 18 14
REMARK SMILES IDX 21 15 19 16 20 17 22 18 11 19 12 21 13 22 17 23 14 24 16 25
REMARK SMILES IDX 15 26
REMARK H PARENT 7 8 11 20
ROOT
ATOM      1  C   UNL     1       5.538  41.736  49.895  1.00  0.00     0.021 C 
ENDROOT
BRANCH   1   2
ATOM      2  C   UNL     1       6.099  43.161  49.823  1.00  0.00     0.002 C 
BRANCH   2   3
ATOM      3  C   UNL     1       5.891  44.024  51.072  1.00  0.00    -0.000 C 
BRANCH   3   4
ATOM      4  C   UNL     1       5.731  45.513  50.762  1.00  0.00    -0.003 C 
ATOM      5  C   UNL     1       4.267  45.926  50.767  1.00  0.00     0.004 C 
ENDBRANCH   3   4
ENDBRANCH   2   3
ENDBRANCH   1   2
BRANCH   1   6
ATOM      6  C   UNL     1       4.509  41.497  51.003  1.00  0.00     0.116 C 
BRANCH   6   7
ATOM      7  N   UNL     1       3.146  41.617  50.514  1.00  0.00    -0.354 N 
ATOM      8  H   UNL     1       2.633  40.744  50.454  1.00  0.00     0.163 HD
BRANCH   7   9
ATOM      9  C   UNL     1       2.315  42.488  51.207  1.00  0.00     0.226 A 
ATOM     10  N   UNL     1       2.847  42.971  52.347  1.00  0.00    -0.195 NA
ATOM     11  N   UNL     1       1.101  42.784  50.726  1.00  0.00    -0.193 NA
ATOM     12  C   UNL     1       2.129  43.810  53.134  1.00  0.00     0.147 A 
ATOM     13  C   UNL     1       0.422  43.637  51.507  1.00  0.00     0.165 A 
ATOM     14  C   UNL     1       0.858  44.187  52.696  1.00  0.00     0.082 A 
ATOM     15  N   UNL     1      -0.831  44.141  51.295  1.00  0.00    -0.250 N 
ATOM     16  C   UNL     1      -0.198  45.028  53.101  1.00  0.00     0.149 A 
ATOM     17  N   UNL     1      -1.237  45.004  52.257  1.00  0.00    -0.179 NA
ATOM     18  C   UNL     1      -1.705  43.854  50.186  1.00  0.00     0.176 C 
BRANCH  12  19
ATOM     19  N   UNL     1       2.751  44.278  54.303  1.00  0.00    -0.339 N 
ATOM     20  H   UNL     1       2.007  44.607  54.916  1.00  0.00     0.168 HD
BRANCH  19  21
ATOM     21  C   UNL     1       3.881  45.116  54.403  1.00  0.00     0.040 A 
ATOM     22  C   UNL     1       3.691  46.502  54.315  1.00  0.00     0.026 A 
ATOM     23  C   UNL     1       5.190  44.627  54.499  1.00  0.00     0.026 A 
ATOM     24  C   UNL     1       4.775  47.380  54.369  1.00  0.00     0.002 A 
ATOM     25  C   UNL     1       6.277  45.504  54.553  1.00  0.00     0.002 A 
ATOM     26  C   UNL     1       6.069  46.880  54.493  1.00  0.00     0.000 A 
ENDBRANCH  19  21
ENDBRANCH  12  19
ENDBRANCH   7   9
ENDBRANCH   6   7
ENDBRANCH   1   6
TORSDOF 8
ENDMDL
MODEL 12
REMARK VINA RESULT:    -7.703      2.140      6.668
REMARK INTER + INTRA:         -12.494
REMARK INTER:                 -11.746
REMARK INTRA:                  -0.748
REMARK UNBOUND:                -1.189
REMARK SMILES CCCCCCNc1nc(Nc2ccccc2)c2cnn(C)c2n1
REMARK SMILES IDX 5 1 4 2 3 3 2 4 1 5 6 6 7 7 8 9 9 10 24 11 10 12 23 13 18 14
REMARK SMILES IDX 21 15 19 16 20 17 22 18 11 19 12 21 13 22 17 23 14 24 16 25
REMARK SMILES IDX 15 26
REMARK H PARENT 7 8 11 20
ROOT
ATOM      1  C   UNL     1       9.100  47.137  51.524  1.00  0.00     0.021 C 
ENDROOT
BRANCH   1   2
ATOM      2  C   UNL     1       8.900  47.646  52.957  1.00  0.00     0.002 C 
BRANCH   2   3
ATOM      3  C   UNL     1       9.913  47.144  53.991  1.00  0.00    -0.000 C 
BRANCH   3   4
ATOM      4  C   UNL     1       9.830  47.879  55.330  1.00  0.00    -0.003 C 
ATOM      5  C   UNL     1      11.008  47.531  56.227  1.00  0.00     0.004 C 
ENDBRANCH   3   4
ENDBRANCH   2   3
ENDBRANCH   1   2
BRANCH   1   6
ATOM      6  C   UNL     1       8.087  46.085  51.061  1.00  0.00     0.116 C 
BRANCH   6   7
ATOM      7  N   UNL     1       6.808  46.229  51.734  1.00  0.00    -0.354 N 
ATOM      8  H   UNL     1       6.244  47.011  51.421  1.00  0.00     0.163 HD
BRANCH   7   9
ATOM      9  C   UNL     1       5.965  45.126  51.700  1.00  0.00     0.226 A 
ATOM     10  N   UNL     1       4.961  45.169  52.596  1.00  0.00    -0.195 NA
ATOM     11  N   UNL     1       6.187  44.138  50.824  1.00  0.00    -0.193 NA
ATOM     12  C   UNL     1       4.082  44.140  52.687  1.00  0.00     0.147 A 
ATOM     13  C   UNL     1       5.289  43.146  50.914  1.00  0.00     0.165 A 
ATOM     14  C   UNL     1       4.228  43.077  51.795  1.00  0.00     0.082 A 
ATOM     15  N   UNL     1       5.229  42.007  50.160  1.00  0.00    -0.250 N 
ATOM     16  C   UNL     1       3.580  41.868  51.468  1.00  0.00     0.149 A 
ATOM     17  N   UNL     1       4.185  41.204  50.476  1.00  0.00    -0.179 NA
ATOM     18  C   UNL     1       6.132  41.616  49.108  1.00  0.00     0.176 C 
BRANCH  12  19
ATOM     19  N   UNL     1       3.057  44.258  53.641  1.00  0.00    -0.339 N 
ATOM     20  H   UNL     1       3.283  43.607  54.392  1.00  0.00     0.168 HD
BRANCH  19  21
ATOM     21  C   UNL     1       1.665  44.284  53.413  1.00  0.00     0.040 A 
ATOM     22  C   UNL     1       0.866  43.333  54.061  1.00  0.00     0.026 A 
ATOM     23  C   UNL     1       1.056  45.158  52.503  1.00  0.00     0.026 A 
ATOM     24  C   UNL     1      -0.512  43.286  53.845  1.00  0.00     0.002 A 
ATOM     25  C   UNL     1      -0.323  45.113  52.284  1.00  0.00     0.002 A 
ATOM     26  C   UNL     1      -1.107  44.180  52.959  1.00  0.00     0.000 A 
ENDBRANCH  19  21
ENDBRANCH  12  19
ENDBRANCH   7   9
ENDBRANCH   6   7
ENDBRANCH   1   6
TORSDOF 8
ENDMDL
MODEL 13
REMARK VINA RESULT:    -7.687      1.945      5.003
REMARK INTER + INTRA:         -12.471
REMARK INTER:                 -11.390
REMARK INTRA:                  -1.080
REMARK UNBOUND:                -1.189
REMARK SMILES CCCCCCNc1nc(Nc2ccccc2)c2cnn(C)c2n1
REMARK SMILES IDX 5 1 4 2 3 3 2 4 1 5 6 6 7 7 8 9 9 10 24 11 10 12 23 13 18 14
REMARK SMILES IDX 21 15 19 16 20 17 22 18 11 19 12 21 13 22 17 23 14 24 16 25
REMARK SMILES IDX 15 26
REMARK H PARENT 7 8 11 20
ROOT
ATOM      1  C   UNL     1       0.729  45.073  54.847  1.00  0.00     0.021 C 
ENDROOT
BRANCH   1   2
ATOM      2  C   UNL     1      -0.015  44.489  53.640  1.00  0.00     0.002 C 
BRANCH   2   3
ATOM      3  C   UNL     1       0.114  45.277  52.332  1.00  0.00    -0.000 C 
BRANCH   3   4
ATOM      4  C   UNL     1       0.918  44.544  51.258  1.00  0.00    -0.003 C 
ATOM      5  C   UNL     1       0.543  43.072  51.191  1.00  0.00     0.004 C 
ENDBRANCH   3   4
ENDBRANCH   2   3
ENDBRANCH   1   2
BRANCH   1   6
ATOM      6  C   UNL     1       2.137  45.599  54.552  1.00  0.00     0.116 C 
BRANCH   6   7
ATOM      7  N   UNL     1       3.128  44.537  54.573  1.00  0.00    -0.354 N 
ATOM      8  H   UNL     1       2.759  43.609  54.752  1.00  0.00     0.163 HD
BRANCH   7   9
ATOM      9  C   UNL     1       3.921  44.409  53.440  1.00  0.00     0.226 A 
ATOM     10  N   UNL     1       4.782  45.427  53.250  1.00  0.00    -0.195 NA
ATOM     11  N   UNL     1       3.792  43.338  52.647  1.00  0.00    -0.193 NA
ATOM     12  C   UNL     1       5.596  45.440  52.165  1.00  0.00     0.147 A 
ATOM     13  C   UNL     1       4.625  43.361  51.597  1.00  0.00     0.165 A 
ATOM     14  C   UNL     1       5.540  44.349  51.295  1.00  0.00     0.082 A 
ATOM     15  N   UNL     1       4.750  42.419  50.614  1.00  0.00    -0.250 N 
ATOM     16  C   UNL     1       6.180  43.890  50.126  1.00  0.00     0.149 A 
ATOM     17  N   UNL     1       5.701  42.716  49.697  1.00  0.00    -0.179 NA
ATOM     18  C   UNL     1       3.998  41.197  50.484  1.00  0.00     0.176 C 
BRANCH  12  19
ATOM     19  N   UNL     1       6.471  46.531  52.036  1.00  0.00    -0.339 N 
ATOM     20  H   UNL     1       6.477  46.783  51.049  1.00  0.00     0.168 HD
BRANCH  19  21
ATOM     21  C   UNL     1       7.761  46.671  52.590  1.00  0.00     0.040 A 
ATOM     22  C   UNL     1       7.881  47.263  53.854  1.00  0.00     0.026 A 
ATOM     23  C   UNL     1       8.931  46.328  51.899  1.00  0.00     0.026 A 
ATOM     24  C   UNL     1       9.135  47.464  54.436  1.00  0.00     0.002 A 
ATOM     25  C   UNL     1      10.186  46.529  52.480  1.00  0.00     0.002 A 
ATOM     26  C   UNL     1      10.287  47.092  53.750  1.00  0.00     0.000 A 
ENDBRANCH  19  21
ENDBRANCH  12  19
ENDBRANCH   7   9
ENDBRANCH   6   7
ENDBRANCH   1   6
TORSDOF 8
ENDMDL
MODEL 14
REMARK VINA RESULT:    -7.642      2.568      6.607
REMARK INTER + INTRA:         -12.404
REMARK INTER:                 -11.580
REMARK INTRA:                  -0.825
REMARK UNBOUND:                -1.189
REMARK SMILES CCCCCCNc1nc(Nc2ccccc2)c2cnn(C)c2n1
REMARK SMILES IDX 5 1 4 2 3 3 2 4 1 5 6 6 7 7 8 9 9 10 24 11 10 12 23 13 18 14
REMARK SMILES IDX 21 15 19 16 20 17 22 18 11 19 12 21 13 22 17 23 14 24 16 25
REMARK SMILES IDX 15 26
REMARK H PARENT 7 8 11 20
ROOT
ATOM      1  C   UNL     1       5.200  41.289  48.023  1.00  0.00     0.021 C 
ENDROOT
BRANCH   1   2
ATOM      2  C   UNL     1       5.707  41.982  46.752  1.00  0.00     0.002 C 
BRANCH   2   3
ATOM      3  C   UNL     1       5.070  41.516  45.439  1.00  0.00    -0.000 C 
BRANCH   3   4
ATOM      4  C   UNL     1       3.861  40.603  45.640  1.00  0.00    -0.003 C 
ATOM      5  C   UNL     1       2.584  41.253  45.131  1.00  0.00     0.004 C 
ENDBRANCH   3   4
ENDBRANCH   2   3
ENDBRANCH   1   2
BRANCH   1   6
ATOM      6  C   UNL     1       6.068  41.497  49.268  1.00  0.00     0.116 C 
BRANCH   6   7
ATOM      7  N   UNL     1       5.266  41.688  50.464  1.00  0.00    -0.354 N 
ATOM      8  H   UNL     1       5.635  41.252  51.302  1.00  0.00     0.163 HD
BRANCH   7   9
ATOM      9  C   UNL     1       4.991  43.002  50.820  1.00  0.00     0.226 A 
ATOM     10  N   UNL     1       6.015  43.855  50.621  1.00  0.00    -0.195 NA
ATOM     11  N   UNL     1       3.788  43.327  51.311  1.00  0.00    -0.193 NA
ATOM     12  C   UNL     1       5.887  45.164  50.954  1.00  0.00     0.147 A 
ATOM     13  C   UNL     1       3.678  44.631  51.606  1.00  0.00     0.165 A 
ATOM     14  C   UNL     1       4.656  45.593  51.455  1.00  0.00     0.082 A 
ATOM     15  N   UNL     1       2.585  45.280  52.110  1.00  0.00    -0.250 N 
ATOM     16  C   UNL     1       4.039  46.789  51.872  1.00  0.00     0.149 A 
ATOM     17  N   UNL     1       2.777  46.610  52.280  1.00  0.00    -0.179 NA
ATOM     18  C   UNL     1       1.312  44.698  52.448  1.00  0.00     0.176 C 
BRANCH  12  19
ATOM     19  N   UNL     1       6.994  45.994  50.713  1.00  0.00    -0.339 N 
ATOM     20  H   UNL     1       7.451  45.634  49.877  1.00  0.00     0.168 HD
BRANCH  19  21
ATOM     21  C   UNL     1       7.953  46.445  51.645  1.00  0.00     0.040 A 
ATOM     22  C   UNL     1       9.288  46.059  51.465  1.00  0.00     0.026 A 
ATOM     23  C   UNL     1       7.621  47.186  52.786  1.00  0.00     0.026 A 
ATOM     24  C   UNL     1      10.275  46.443  52.375  1.00  0.00     0.002 A 
ATOM     25  C   UNL     1       8.607  47.571  53.698  1.00  0.00     0.002 A 
ATOM     26  C   UNL     1       9.934  47.203  53.490  1.00  0.00     0.000 A 
ENDBRANCH  19  21
ENDBRANCH  12  19
ENDBRANCH   7   9
ENDBRANCH   6   7
ENDBRANCH   1   6
TORSDOF 8
ENDMDL
MODEL 15
REMARK VINA RESULT:    -7.626      1.243      1.985
REMARK INTER + INTRA:         -12.381
REMARK INTER:                 -11.683
REMARK INTRA:                  -0.698
REMARK UNBOUND:                -1.189
REMARK SMILES CCCCCCNc1nc(Nc2ccccc2)c2cnn(C)c2n1
REMARK SMILES IDX 5 1 4 2 3 3 2 4 1 5 6 6 7 7 8 9 9 10 24 11 10 12 23 13 18 14
REMARK SMILES IDX 21 15 19 16 20 17 22 18 11 19 12 21 13 22 17 23 14 24 16 25
REMARK SMILES IDX 15 26
REMARK H PARENT 7 8 11 20
ROOT
ATOM      1  C   UNL     1       2.663  45.977  54.830  1.00  0.00     0.021 C 
ENDROOT
BRANCH   1   2
ATOM      2  C   UNL     1       1.795  44.761  55.176  1.00  0.00     0.002 C 
BRANCH   2   3
ATOM      3  C   UNL     1       0.297  45.036  55.343  1.00  0.00    -0.000 C 
BRANCH   3   4
ATOM      4  C   UNL     1      -0.163  45.031  56.801  1.00  0.00    -0.003 C 
ATOM      5  C   UNL     1      -0.232  46.441  57.366  1.00  0.00     0.004 C 
ENDBRANCH   3   4
ENDBRANCH   2   3
ENDBRANCH   1   2
BRANCH   1   6
ATOM      6  C   UNL     1       4.100  45.921  55.355  1.00  0.00     0.116 C 
BRANCH   6   7
ATOM      7  N   UNL     1       4.866  47.093  54.968  1.00  0.00    -0.354 N 
ATOM      8  H   UNL     1       5.186  47.670  55.738  1.00  0.00     0.163 HD
BRANCH   7   9
ATOM      9  C   UNL     1       5.990  46.865  54.183  1.00  0.00     0.226 A 
ATOM     10  N   UNL     1       5.719  46.378  52.957  1.00  0.00    -0.195 NA
ATOM     11  N   UNL     1       7.211  47.131  54.666  1.00  0.00    -0.193 NA
ATOM     12  C   UNL     1       6.729  46.085  52.100  1.00  0.00     0.147 A 
ATOM     13  C   UNL     1       8.190  46.859  53.791  1.00  0.00     0.165 A 
ATOM     14  C   UNL     1       8.035  46.352  52.516  1.00  0.00     0.082 A 
ATOM     15  N   UNL     1       9.535  47.028  53.969  1.00  0.00    -0.250 N 
ATOM     16  C   UNL     1       9.347  46.279  52.006  1.00  0.00     0.149 A 
ATOM     17  N   UNL     1      10.271  46.683  52.886  1.00  0.00    -0.179 NA
ATOM     18  C   UNL     1      10.197  47.524  55.148  1.00  0.00     0.176 C 
BRANCH  12  19
ATOM     19  N   UNL     1       6.370  45.587  50.837  1.00  0.00    -0.339 N 
ATOM     20  H   UNL     1       5.657  46.214  50.469  1.00  0.00     0.168 HD
BRANCH  19  21
ATOM     21  C   UNL     1       6.081  44.251  50.487  1.00  0.00     0.040 A 
ATOM     22  C   UNL     1       4.955  43.643  51.057  1.00  0.00     0.026 A 
ATOM     23  C   UNL     1       6.913  43.478  49.668  1.00  0.00     0.026 A 
ATOM     24  C   UNL     1       4.639  42.311  50.779  1.00  0.00     0.002 A 
ATOM     25  C   UNL     1       6.600  42.146  49.387  1.00  0.00     0.002 A 
ATOM     26  C   UNL     1       5.461  41.564  49.939  1.00  0.00     0.000 A 
ENDBRANCH  19  21
ENDBRANCH  12  19
ENDBRANCH   7   9
ENDBRANCH   6   7
ENDBRANCH   1   6
TORSDOF 8
ENDMDL
MODEL 16
REMARK VINA RESULT:    -7.570      2.268      5.331
REMARK INTER + INTRA:         -12.300
REMARK INTER:                 -11.395
REMARK INTRA:                  -0.905
REMARK UNBOUND:                -1.189
REMARK SMILES CCCCCCNc1nc(Nc2ccccc2)c2cnn(C)c2n1
REMARK SMILES IDX 5 1 4 2 3 3 2 4 1 5 6 6 7 7 8 9 9 10 24 11 10 12 23 13 18 14
REMARK SMILES IDX 21 15 19 16 20 17 22 18 11 19 12 21 13 22 17 23 14 24 16 25
REMARK SMILES IDX 15 26
REMARK H PARENT 7 8 11 20
ROOT
ATOM      1  C   UNL     1       0.416  44.372  52.820  1.00  0.00     0.021 C 
ENDROOT
BRANCH   1   2
ATOM      2  C   UNL     1      -0.934  44.459  53.543  1.00  0.00     0.002 C 
BRANCH   2   3
ATOM      3  C   UNL     1      -0.958  43.928  54.979  1.00  0.00    -0.000 C 
BRANCH   3   4
ATOM      4  C   UNL     1      -1.075  45.030  56.033  1.00  0.00    -0.003 C 
ATOM      5  C   UNL     1       0.253  45.269  56.735  1.00  0.00     0.004 C 
ENDBRANCH   3   4
ENDBRANCH   2   3
ENDBRANCH   1   2
BRANCH   1   6
ATOM      6  C   UNL     1       1.439  43.430  53.463  1.00  0.00     0.116 C 
BRANCH   6   7
ATOM      7  N   UNL     1       2.664  44.123  53.824  1.00  0.00    -0.354 N 
ATOM      8  H   UNL     1       3.105  43.797  54.677  1.00  0.00     0.163 HD
BRANCH   7   9
ATOM      9  C   UNL     1       3.671  44.136  52.867  1.00  0.00     0.226 A 
ATOM     10  N   UNL     1       4.437  45.243  52.885  1.00  0.00    -0.195 NA
ATOM     11  N   UNL     1       3.814  43.102  52.028  1.00  0.00    -0.193 NA
ATOM     12  C   UNL     1       5.439  45.396  51.984  1.00  0.00     0.147 A 
ATOM     13  C   UNL     1       4.828  43.264  51.166  1.00  0.00     0.165 A 
ATOM     14  C   UNL     1       5.671  44.353  51.085  1.00  0.00     0.082 A 
ATOM     15  N   UNL     1       5.242  42.393  50.196  1.00  0.00    -0.250 N 
ATOM     16  C   UNL     1       6.571  44.024  50.051  1.00  0.00     0.149 A 
ATOM     17  N   UNL     1       6.315  42.832  49.497  1.00  0.00    -0.179 NA
ATOM     18  C   UNL     1       4.666  41.111  49.879  1.00  0.00     0.176 C 
BRANCH  12  19
ATOM     19  N   UNL     1       6.199  46.573  52.067  1.00  0.00    -0.339 N 
ATOM     20  H   UNL     1       6.113  47.040  51.166  1.00  0.00     0.168 HD
BRANCH  19  21
ATOM     21  C   UNL     1       7.507  46.721  52.576  1.00  0.00     0.040 A 
ATOM     22  C   UNL     1       7.662  47.148  53.901  1.00  0.00     0.026 A 
ATOM     23  C   UNL     1       8.656  46.548  51.793  1.00  0.00     0.026 A 
ATOM     24  C   UNL     1       8.931  47.349  54.448  1.00  0.00     0.002 A 
ATOM     25  C   UNL     1       9.927  46.748  52.337  1.00  0.00     0.002 A 
ATOM     26  C   UNL     1      10.064  47.145  53.665  1.00  0.00     0.000 A 
ENDBRANCH  19  21
ENDBRANCH  12  19
ENDBRANCH   7   9
ENDBRANCH   6   7
ENDBRANCH   1   6
TORSDOF 8
ENDMDL
MODEL 17
REMARK VINA RESULT:    -7.567      2.696      6.814
REMARK INTER + INTRA:         -12.295
REMARK INTER:                 -11.061
REMARK INTRA:                  -1.234
REMARK UNBOUND:                -1.189
REMARK SMILES CCCCCCNc1nc(Nc2ccccc2)c2cnn(C)c2n1
REMARK SMILES IDX 5 1 4 2 3 3 2 4 1 5 6 6 7 7 8 9 9 10 24 11 10 12 23 13 18 14
REMARK SMILES IDX 21 15 19 16 20 17 22 18 11 19 12 21 13 22 17 23 14 24 16 25
REMARK SMILES IDX 15 26
REMARK H PARENT 7 8 11 20
ROOT
ATOM      1  C   UNL     1       5.171  41.122  49.025  1.00  0.00     0.021 C 
ENDROOT
BRANCH   1   2
ATOM      2  C   UNL     1       6.353  41.623  49.863  1.00  0.00     0.002 C 
BRANCH   2   3
ATOM      3  C   UNL     1       6.649  43.123  49.771  1.00  0.00    -0.000 C 
BRANCH   3   4
ATOM      4  C   UNL     1       7.778  43.462  48.796  1.00  0.00    -0.003 C 
ATOM      5  C   UNL     1       8.876  44.265  49.477  1.00  0.00     0.004 C 
ENDBRANCH   3   4
ENDBRANCH   2   3
ENDBRANCH   1   2
BRANCH   1   6
ATOM      6  C   UNL     1       3.847  40.988  49.782  1.00  0.00     0.116 C 
BRANCH   6   7
ATOM      7  N   UNL     1       3.990  41.316  51.190  1.00  0.00    -0.354 N 
ATOM      8  H   UNL     1       4.947  41.397  51.515  1.00  0.00     0.163 HD
BRANCH   7   9
ATOM      9  C   UNL     1       3.351  42.471  51.623  1.00  0.00     0.226 A 
ATOM     10  N   UNL     1       4.140  43.310  52.323  1.00  0.00    -0.195 NA
ATOM     11  N   UNL     1       2.059  42.672  51.334  1.00  0.00    -0.193 NA
ATOM     12  C   UNL     1       3.632  44.461  52.829  1.00  0.00     0.147 A 
ATOM     13  C   UNL     1       1.589  43.830  51.821  1.00  0.00     0.165 A 
ATOM     14  C   UNL     1       2.295  44.760  52.556  1.00  0.00     0.082 A 
ATOM     15  N   UNL     1       0.324  44.333  51.692  1.00  0.00    -0.250 N 
ATOM     16  C   UNL     1       1.369  45.795  52.795  1.00  0.00     0.149 A 
ATOM     17  N   UNL     1       0.160  45.543  52.278  1.00  0.00    -0.179 NA
ATOM     18  C   UNL     1      -0.788  43.718  51.013  1.00  0.00     0.176 C 
BRANCH  12  19
ATOM     19  N   UNL     1       4.514  45.289  53.542  1.00  0.00    -0.339 N 
ATOM     20  H   UNL     1       3.958  46.061  53.906  1.00  0.00     0.168 HD
BRANCH  19  21
ATOM     21  C   UNL     1       5.786  45.746  53.137  1.00  0.00     0.040 A 
ATOM     22  C   UNL     1       6.808  45.803  54.093  1.00  0.00     0.026 A 
ATOM     23  C   UNL     1       6.051  46.226  51.848  1.00  0.00     0.026 A 
ATOM     24  C   UNL     1       8.077  46.281  53.761  1.00  0.00     0.002 A 
ATOM     25  C   UNL     1       7.320  46.706  51.513  1.00  0.00     0.002 A 
ATOM     26  C   UNL     1       8.334  46.729  52.468  1.00  0.00     0.000 A 
ENDBRANCH  19  21
ENDBRANCH  12  19
ENDBRANCH   7   9
ENDBRANCH   6   7
ENDBRANCH   1   6
TORSDOF 8
ENDMDL
MODEL 18
REMARK VINA RESULT:    -7.559      2.301      5.491
REMARK INTER + INTRA:         -12.283
REMARK INTER:                 -11.624
REMARK INTRA:                  -0.659
REMARK UNBOUND:                -1.189
REMARK SMILES CCCCCCNc1nc(Nc2ccccc2)c2cnn(C)c2n1
REMARK SMILES IDX 5 1 4 2 3 3 2 4 1 5 6 6 7 7 8 9 9 10 24 11 10 12 23 13 18 14
REMARK SMILES IDX 21 15 19 16 20 17 22 18 11 19 12 21 13 22 17 23 14 24 16 25
REMARK SMILES IDX 15 26
REMARK H PARENT 7 8 11 20
ROOT
ATOM      1  C   UNL     1       0.777  44.990  54.647  1.00  0.00     0.021 C 
ENDROOT
BRANCH   1   2
ATOM      2  C   UNL     1       1.278  45.081  56.094  1.00  0.00     0.002 C 
BRANCH   2   3
ATOM      3  C   UNL     1       0.274  45.628  57.114  1.00  0.00    -0.000 C 
BRANCH   3   4
ATOM      4  C   UNL     1       0.901  46.582  58.132  1.00  0.00    -0.003 C 
ATOM      5  C   UNL     1      -0.133  47.537  58.708  1.00  0.00     0.004 C 
ENDBRANCH   3   4
ENDBRANCH   2   3
ENDBRANCH   1   2
BRANCH   1   6
ATOM      6  C   UNL     1       1.856  45.160  53.574  1.00  0.00     0.116 C 
BRANCH   6   7
ATOM      7  N   UNL     1       2.729  44.001  53.492  1.00  0.00    -0.354 N 
ATOM      8  H   UNL     1       2.262  43.127  53.276  1.00  0.00     0.163 HD
BRANCH   7   9
ATOM      9  C   UNL     1       3.788  44.086  52.598  1.00  0.00     0.226 A 
ATOM     10  N   UNL     1       4.500  45.226  52.692  1.00  0.00    -0.195 NA
ATOM     11  N   UNL     1       4.028  43.084  51.744  1.00  0.00    -0.193 NA
ATOM     12  C   UNL     1       5.545  45.449  51.857  1.00  0.00     0.147 A 
ATOM     13  C   UNL     1       5.083  43.316  50.948  1.00  0.00     0.165 A 
ATOM     14  C   UNL     1       5.878  44.444  50.946  1.00  0.00     0.082 A 
ATOM     15  N   UNL     1       5.593  42.493  49.983  1.00  0.00    -0.250 N 
ATOM     16  C   UNL     1       6.852  44.185  49.960  1.00  0.00     0.149 A 
ATOM     17  N   UNL     1       6.684  43.000  49.361  1.00  0.00    -0.179 NA
ATOM     18  C   UNL     1       5.097  41.196  49.598  1.00  0.00     0.176 C 
BRANCH  12  19
ATOM     19  N   UNL     1       6.244  46.656  52.017  1.00  0.00    -0.339 N 
ATOM     20  H   UNL     1       6.223  47.126  51.113  1.00  0.00     0.168 HD
BRANCH  19  21
ATOM     21  C   UNL     1       7.491  46.854  52.647  1.00  0.00     0.040 A 
ATOM     22  C   UNL     1       8.656  46.653  51.895  1.00  0.00     0.026 A 
ATOM     23  C   UNL     1       7.620  47.157  54.008  1.00  0.00     0.026 A 
ATOM     24  C   UNL     1       9.918  46.797  52.474  1.00  0.00     0.002 A 
ATOM     25  C   UNL     1       8.882  47.301  54.591  1.00  0.00     0.002 A 
ATOM     26  C   UNL     1      10.030  47.125  53.822  1.00  0.00     0.000 A 
ENDBRANCH  19  21
ENDBRANCH  12  19
ENDBRANCH   7   9
ENDBRANCH   6   7
ENDBRANCH   1   6
TORSDOF 8
ENDMDL
MODEL 19
REMARK VINA RESULT:    -7.535      2.832      6.884
REMARK INTER + INTRA:         -12.247
REMARK INTER:                 -11.436
REMARK INTRA:                  -0.811
REMARK UNBOUND:                -1.189
REMARK SMILES CCCCCCNc1nc(Nc2ccccc2)c2cnn(C)c2n1
REMARK SMILES IDX 5 1 4 2 3 3 2 4 1 5 6 6 7 7 8 9 9 10 24 11 10 12 23 13 18 14
REMARK SMILES IDX 21 15 19 16 20 17 22 18 11 19 12 21 13 22 17 23 14 24 16 25
REMARK SMILES IDX 15 26
REMARK H PARENT 7 8 11 20
ROOT
ATOM      1  C   UNL     1       5.747  41.862  46.849  1.00  0.00     0.021 C 
ENDROOT
BRANCH   1   2
ATOM      2  C   UNL     1       4.961  41.411  45.613  1.00  0.00     0.002 C 
BRANCH   2   3
ATOM      3  C   UNL     1       3.489  41.058  45.850  1.00  0.00    -0.000 C 
BRANCH   3   4
ATOM      4  C   UNL     1       3.045  39.786  45.127  1.00  0.00    -0.003 C 
ATOM      5  C   UNL     1       3.174  38.564  46.023  1.00  0.00     0.004 C 
ENDBRANCH   3   4
ENDBRANCH   2   3
ENDBRANCH   1   2
BRANCH   1   6
ATOM      6  C   UNL     1       5.327  41.200  48.165  1.00  0.00     0.116 C 
BRANCH   6   7
ATOM      7  N   UNL     1       6.190  41.587  49.268  1.00  0.00    -0.354 N 
ATOM      8  H   UNL     1       7.131  41.857  49.001  1.00  0.00     0.163 HD
BRANCH   7   9
ATOM      9  C   UNL     1       5.727  42.611  50.084  1.00  0.00     0.226 A 
ATOM     10  N   UNL     1       6.500  43.714  50.080  1.00  0.00    -0.195 NA
ATOM     11  N   UNL     1       4.600  42.450  50.789  1.00  0.00    -0.193 NA
ATOM     12  C   UNL     1       6.176  44.778  50.857  1.00  0.00     0.147 A 
ATOM     13  C   UNL     1       4.286  43.525  51.526  1.00  0.00     0.165 A 
ATOM     14  C   UNL     1       5.002  44.702  51.609  1.00  0.00     0.082 A 
ATOM     15  N   UNL     1       3.200  43.685  52.342  1.00  0.00    -0.250 N 
ATOM     16  C   UNL     1       4.245  45.512  52.480  1.00  0.00     0.149 A 
ATOM     17  N   UNL     1       3.147  44.899  52.939  1.00  0.00    -0.179 NA
ATOM     18  C   UNL     1       2.159  42.723  52.599  1.00  0.00     0.176 C 
BRANCH  12  19
ATOM     19  N   UNL     1       7.024  45.895  50.796  1.00  0.00    -0.339 N 
ATOM     20  H   UNL     1       7.400  45.923  49.850  1.00  0.00     0.168 HD
BRANCH  19  21
ATOM     21  C   UNL     1       8.008  46.282  51.730  1.00  0.00     0.040 A 
ATOM     22  C   UNL     1       7.613  47.046  52.836  1.00  0.00     0.026 A 
ATOM     23  C   UNL     1       9.373  46.015  51.558  1.00  0.00     0.026 A 
ATOM     24  C   UNL     1       8.547  47.491  53.773  1.00  0.00     0.002 A 
ATOM     25  C   UNL     1      10.310  46.460  52.494  1.00  0.00     0.002 A 
ATOM     26  C   UNL     1       9.896  47.193  53.603  1.00  0.00     0.000 A 
ENDBRANCH  19  21
ENDBRANCH  12  19
ENDBRANCH   7   9
ENDBRANCH   6   7
ENDBRANCH   1   6
TORSDOF 8
ENDMDL
MODEL 20
REMARK VINA RESULT:    -7.414      3.126      7.076
REMARK INTER + INTRA:         -12.070
REMARK INTER:                 -10.767
REMARK INTRA:                  -1.304
REMARK UNBOUND:                -1.189
REMARK SMILES CCCCCCNc1nc(Nc2ccccc2)c2cnn(C)c2n1
REMARK SMILES IDX 5 1 4 2 3 3 2 4 1 5 6 6 7 7 8 9 9 10 24 11 10 12 23 13 18 14
REMARK SMILES IDX 21 15 19 16 20 17 22 18 11 19 12 21 13 22 17 23 14 24 16 25
REMARK SMILES IDX 15 26
REMARK H PARENT 7 8 11 20
ROOT
ATOM      1  C   UNL     1       3.363  43.385  51.209  1.00  0.00     0.021 C 
ENDROOT
BRANCH   1   2
ATOM      2  C   UNL     1       4.796  43.856  51.486  1.00  0.00     0.002 C 
BRANCH   2   3
ATOM      3  C   UNL     1       5.849  43.428  50.458  1.00  0.00    -0.000 C 
BRANCH   3   4
ATOM      4  C   UNL     1       6.891  44.509  50.170  1.00  0.00    -0.003 C 
ATOM      5  C   UNL     1       8.037  43.965  49.331  1.00  0.00     0.004 C 
ENDBRANCH   3   4
ENDBRANCH   2   3
ENDBRANCH   1   2
BRANCH   1   6
ATOM      6  C   UNL     1       2.672  42.681  52.380  1.00  0.00     0.116 C 
BRANCH   6   7
ATOM      7  N   UNL     1       1.359  43.239  52.652  1.00  0.00    -0.354 N 
ATOM      8  H   UNL     1       0.596  42.571  52.634  1.00  0.00     0.163 HD
BRANCH   7   9
ATOM      9  C   UNL     1       1.217  43.932  53.848  1.00  0.00     0.226 A 
ATOM     10  N   UNL     1       2.321  44.600  54.234  1.00  0.00    -0.195 NA
ATOM     11  N   UNL     1       0.053  43.899  54.509  1.00  0.00    -0.193 NA
ATOM     12  C   UNL     1       2.326  45.294  55.399  1.00  0.00     0.147 A 
ATOM     13  C   UNL     1       0.075  44.615  55.643  1.00  0.00     0.165 A 
ATOM     14  C   UNL     1       1.145  45.330  56.142  1.00  0.00     0.082 A 
ATOM     15  N   UNL     1      -0.947  44.793  56.533  1.00  0.00    -0.250 N 
ATOM     16  C   UNL     1       0.651  45.920  57.323  1.00  0.00     0.149 A 
ATOM     17  N   UNL     1      -0.623  45.595  57.575  1.00  0.00    -0.179 NA
ATOM     18  C   UNL     1      -2.273  44.235  56.455  1.00  0.00     0.176 C 
BRANCH  12  19
ATOM     19  N   UNL     1       3.511  45.971  55.734  1.00  0.00    -0.339 N 
ATOM     20  H   UNL     1       3.231  46.830  56.205  1.00  0.00     0.168 HD
BRANCH  19  21
ATOM     21  C   UNL     1       4.634  46.201  54.913  1.00  0.00     0.040 A 
ATOM     22  C   UNL     1       4.569  47.236  53.970  1.00  0.00     0.026 A 
ATOM     23  C   UNL     1       5.776  45.390  54.934  1.00  0.00     0.026 A 
ATOM     24  C   UNL     1       5.634  47.487  53.104  1.00  0.00     0.002 A 
ATOM     25  C   UNL     1       6.844  45.639  54.068  1.00  0.00     0.002 A 
ATOM     26  C   UNL     1       6.774  46.690  53.156  1.00  0.00     0.000 A 
ENDBRANCH  19  21
ENDBRANCH  12  19
ENDBRANCH   7   9
ENDBRANCH   6   7
ENDBRANCH   1   6
TORSDOF 8
ENDMDL
