MODEL 1
REMARK VINA RESULT:    -8.427      0.000      0.000
REMARK INTER + INTRA:         -12.254
REMARK INTER:                 -11.383
REMARK INTRA:                  -0.871
REMARK UNBOUND:                -0.871
REMARK SMILES COCCNc1nc(Nc2ccc(Br)cc2C)c2cnn(C)c2n1
REMARK SMILES IDX 5 1 4 3 3 4 2 5 1 6 6 7 7 8 24 9 8 10 23 11 18 12 21 13
REMARK SMILES IDX 19 14 20 15 22 16 9 17 10 19 11 20 16 21 12 22 15 23 13 24
REMARK SMILES IDX 17 25 14 26
REMARK H PARENT 5 2 9 18
ROOT
ATOM      1  N   UNL     1       3.535  43.787  53.164  1.00  0.00    -0.352 N 
ATOM      2  H   UNL     1       2.792  43.267  52.704  1.00  0.00     0.163 HD
ENDROOT
BRANCH   1   3
ATOM      3  C   UNL     1       3.130  45.074  53.713  1.00  0.00     0.144 C 
BRANCH   3   4
ATOM      4  C   UNL     1       1.681  45.383  53.327  1.00  0.00     0.181 C 
BRANCH   4   5
ATOM      5  O   UNL     1       1.662  46.408  52.332  1.00  0.00    -0.383 OA
ATOM      6  C   UNL     1       2.830  47.217  52.393  1.00  0.00     0.194 C 
ENDBRANCH   4   5
ENDBRANCH   3   4
ENDBRANCH   1   3
BRANCH   1   7
ATOM      7  C   UNL     1       4.541  43.871  52.205  1.00  0.00     0.226 A 
ATOM      8  N   UNL     1       5.347  44.938  52.346  1.00  0.00    -0.195 NA
ATOM      9  N   UNL     1       4.642  42.935  51.254  1.00  0.00    -0.193 NA
ATOM     10  C   UNL     1       6.372  45.159  51.478  1.00  0.00     0.147 A 
ATOM     11  C   UNL     1       5.658  43.162  50.411  1.00  0.00     0.165 A 
ATOM     12  C   UNL     1       6.545  44.218  50.456  1.00  0.00     0.082 A 
ATOM     13  N   UNL     1       6.029  42.399  49.338  1.00  0.00    -0.250 N 
ATOM     14  C   UNL     1       7.411  43.992  49.365  1.00  0.00     0.149 A 
ATOM     15  N   UNL     1       7.109  42.885  48.679  1.00  0.00    -0.179 NA
ATOM     16  C   UNL     1       5.401  41.188  48.876  1.00  0.00     0.176 C 
BRANCH  10  17
ATOM     17  N   UNL     1       7.240  46.252  51.623  1.00  0.00    -0.339 N 
ATOM     18  H   UNL     1       7.171  46.924  50.873  1.00  0.00     0.168 HD
BRANCH  17  19
ATOM     19  C   UNL     1       8.097  46.646  52.671  1.00  0.00     0.043 A 
ATOM     20  C   UNL     1       7.610  47.196  53.867  1.00  0.00     0.027 A 
ATOM     21  C   UNL     1       9.492  46.427  52.561  1.00  0.00    -0.026 A 
ATOM     22  C   UNL     1       8.467  47.552  54.914  1.00  0.00     0.018 A 
ATOM     23  C   UNL     1      10.348  46.791  53.618  1.00  0.00     0.021 A 
ATOM     24  C   UNL     1       9.832  47.349  54.783  1.00  0.00     0.018 A 
ATOM     25  C   UNL     1      10.102  45.807  51.331  1.00  0.00     0.046 C 
ATOM     26  Br  UNL     1      10.995  47.828  56.194  1.00  0.00    -0.051 Br
ENDBRANCH  17  19
ENDBRANCH  10  17
ENDBRANCH   1   7
TORSDOF 6
ENDMDL
MODEL 2
REMARK VINA RESULT:    -8.409      1.170      1.431
REMARK INTER + INTRA:         -12.230
REMARK INTER:                 -11.240
REMARK INTRA:                  -0.990
REMARK UNBOUND:                -0.871
REMARK SMILES COCCNc1nc(Nc2ccc(Br)cc2C)c2cnn(C)c2n1
REMARK SMILES IDX 5 1 4 3 3 4 2 5 1 6 6 7 7 8 24 9 8 10 23 11 18 12 21 13
REMARK SMILES IDX 19 14 20 15 22 16 9 17 10 19 11 20 16 21 12 22 15 23 13 24
REMARK SMILES IDX 17 25 14 26
REMARK H PARENT 5 2 9 18
ROOT
ATOM      1  N   UNL     1       3.407  44.524  52.482  1.00  0.00    -0.352 N 
ATOM      2  H   UNL     1       2.649  44.411  51.814  1.00  0.00     0.163 HD
ENDROOT
BRANCH   1   3
ATOM      3  C   UNL     1       3.315  45.717  53.312  1.00  0.00     0.144 C 
BRANCH   3   4
ATOM      4  C   UNL     1       3.232  45.329  54.792  1.00  0.00     0.181 C 
BRANCH   4   5
ATOM      5  O   UNL     1       4.372  45.844  55.482  1.00  0.00    -0.383 OA
ATOM      6  C   UNL     1       5.462  44.930  55.446  1.00  0.00     0.194 C 
ENDBRANCH   4   5
ENDBRANCH   3   4
ENDBRANCH   1   3
BRANCH   1   7
ATOM      7  C   UNL     1       4.561  44.462  51.706  1.00  0.00     0.226 A 
ATOM      8  N   UNL     1       5.427  45.467  51.925  1.00  0.00    -0.195 NA
ATOM      9  N   UNL     1       4.733  43.459  50.837  1.00  0.00    -0.193 NA
ATOM     10  C   UNL     1       6.597  45.546  51.235  1.00  0.00     0.147 A 
ATOM     11  C   UNL     1       5.890  43.545  50.169  1.00  0.00     0.165 A 
ATOM     12  C   UNL     1       6.851  44.527  50.309  1.00  0.00     0.082 A 
ATOM     13  N   UNL     1       6.364  42.684  49.217  1.00  0.00    -0.250 N 
ATOM     14  C   UNL     1       7.861  44.158  49.396  1.00  0.00     0.149 A 
ATOM     15  N   UNL     1       7.577  43.035  48.728  1.00  0.00    -0.179 NA
ATOM     16  C   UNL     1       5.714  41.498  48.720  1.00  0.00     0.176 C 
BRANCH  10  17
ATOM     17  N   UNL     1       7.525  46.573  51.468  1.00  0.00    -0.339 N 
ATOM     18  H   UNL     1       7.550  47.267  50.736  1.00  0.00     0.168 HD
BRANCH  17  19
ATOM     19  C   UNL     1       8.336  46.879  52.580  1.00  0.00     0.043 A 
ATOM     20  C   UNL     1       7.825  47.507  53.726  1.00  0.00     0.027 A 
ATOM     21  C   UNL     1       9.697  46.489  52.588  1.00  0.00    -0.026 A 
ATOM     22  C   UNL     1       8.630  47.777  54.838  1.00  0.00     0.018 A 
ATOM     23  C   UNL     1      10.503  46.767  53.709  1.00  0.00     0.021 A 
ATOM     24  C   UNL     1       9.967  47.406  54.822  1.00  0.00     0.018 A 
ATOM     25  C   UNL     1      10.324  45.777  51.418  1.00  0.00     0.046 C 
ATOM     26  Br  UNL     1      11.062  47.767  56.320  1.00  0.00    -0.051 Br
ENDBRANCH  17  19
ENDBRANCH  10  17
ENDBRANCH   1   7
TORSDOF 6
ENDMDL
MODEL 3
REMARK VINA RESULT:    -8.114      2.236      4.344
REMARK INTER + INTRA:         -11.832
REMARK INTER:                 -11.184
REMARK INTRA:                  -0.648
REMARK UNBOUND:                -0.871
REMARK SMILES COCCNc1nc(Nc2ccc(Br)cc2C)c2cnn(C)c2n1
REMARK SMILES IDX 5 1 4 3 3 4 2 5 1 6 6 7 7 8 24 9 8 10 23 11 18 12 21 13
REMARK SMILES IDX 19 14 20 15 22 16 9 17 10 19 11 20 16 21 12 22 15 23 13 24
REMARK SMILES IDX 17 25 14 26
REMARK H PARENT 5 2 9 18
ROOT
ATOM      1  N   UNL     1       6.648  42.171  48.907  1.00  0.00    -0.352 N 
ATOM      2  H   UNL     1       7.303  42.740  48.378  1.00  0.00     0.163 HD
ENDROOT
BRANCH   1   3
ATOM      3  C   UNL     1       5.608  41.537  48.108  1.00  0.00     0.144 C 
BRANCH   3   4
ATOM      4  C   UNL     1       5.757  41.930  46.635  1.00  0.00     0.181 C 
BRANCH   4   5
ATOM      5  O   UNL     1       4.691  41.350  45.879  1.00  0.00    -0.383 OA
ATOM      6  C   UNL     1       5.060  41.159  44.519  1.00  0.00     0.194 C 
ENDBRANCH   4   5
ENDBRANCH   3   4
ENDBRANCH   1   3
BRANCH   1   7
ATOM      7  C   UNL     1       6.163  43.028  49.891  1.00  0.00     0.226 A 
ATOM      8  N   UNL     1       6.935  44.105  50.114  1.00  0.00    -0.195 NA
ATOM      9  N   UNL     1       5.016  42.744  50.521  1.00  0.00    -0.193 NA
ATOM     10  C   UNL     1       6.594  45.029  51.053  1.00  0.00     0.147 A 
ATOM     11  C   UNL     1       4.689  43.664  51.438  1.00  0.00     0.165 A 
ATOM     12  C   UNL     1       5.401  44.804  51.752  1.00  0.00     0.082 A 
ATOM     13  N   UNL     1       3.587  43.670  52.249  1.00  0.00    -0.250 N 
ATOM     14  C   UNL     1       4.637  45.425  52.763  1.00  0.00     0.149 A 
ATOM     15  N   UNL     1       3.528  44.745  53.070  1.00  0.00    -0.179 NA
ATOM     16  C   UNL     1       2.540  42.681  52.297  1.00  0.00     0.176 C 
BRANCH  10  17
ATOM     17  N   UNL     1       7.373  46.173  51.282  1.00  0.00    -0.339 N 
ATOM     18  H   UNL     1       7.286  46.871  50.558  1.00  0.00     0.168 HD
BRANCH  17  19
ATOM     19  C   UNL     1       8.154  46.580  52.383  1.00  0.00     0.043 A 
ATOM     20  C   UNL     1       7.586  47.159  53.528  1.00  0.00     0.027 A 
ATOM     21  C   UNL     1       9.551  46.343  52.381  1.00  0.00    -0.026 A 
ATOM     22  C   UNL     1       8.367  47.527  54.629  1.00  0.00     0.018 A 
ATOM     23  C   UNL     1      10.330  46.720  53.492  1.00  0.00     0.021 A 
ATOM     24  C   UNL     1       9.736  47.307  54.604  1.00  0.00     0.018 A 
ATOM     25  C   UNL     1      10.243  45.693  51.212  1.00  0.00     0.046 C 
ATOM     26  Br  UNL     1      10.797  47.803  56.088  1.00  0.00    -0.051 Br
ENDBRANCH  17  19
ENDBRANCH  10  17
ENDBRANCH   1   7
TORSDOF 6
ENDMDL
MODEL 4
REMARK VINA RESULT:    -7.953      3.136      5.819
REMARK INTER + INTRA:         -11.614
REMARK INTER:                 -10.934
REMARK INTRA:                  -0.680
REMARK UNBOUND:                -0.871
REMARK SMILES COCCNc1nc(Nc2ccc(Br)cc2C)c2cnn(C)c2n1
REMARK SMILES IDX 5 1 4 3 3 4 2 5 1 6 6 7 7 8 24 9 8 10 23 11 18 12 21 13
REMARK SMILES IDX 19 14 20 15 22 16 9 17 10 19 11 20 16 21 12 22 15 23 13 24
REMARK SMILES IDX 17 25 14 26
REMARK H PARENT 5 2 9 18
ROOT
ATOM      1  N   UNL     1       4.707  46.802  55.094  1.00  0.00    -0.352 N 
ATOM      2  H   UNL     1       4.962  47.236  55.978  1.00  0.00     0.163 HD
ENDROOT
BRANCH   1   3
ATOM      3  C   UNL     1       3.989  45.541  55.218  1.00  0.00     0.144 C 
BRANCH   3   4
ATOM      4  C   UNL     1       2.530  45.717  54.787  1.00  0.00     0.181 C 
BRANCH   4   5
ATOM      5  O   UNL     1       2.379  45.287  53.433  1.00  0.00    -0.383 OA
ATOM      6  C   UNL     1       2.215  46.389  52.549  1.00  0.00     0.194 C 
ENDBRANCH   4   5
ENDBRANCH   3   4
ENDBRANCH   1   3
BRANCH   1   7
ATOM      7  C   UNL     1       5.911  46.702  54.400  1.00  0.00     0.226 A 
ATOM      8  N   UNL     1       5.810  46.088  53.209  1.00  0.00    -0.195 NA
ATOM      9  N   UNL     1       7.034  47.199  54.931  1.00  0.00    -0.193 NA
ATOM     10  C   UNL     1       6.904  45.909  52.420  1.00  0.00     0.147 A 
ATOM     11  C   UNL     1       8.102  47.022  54.142  1.00  0.00     0.165 A 
ATOM     12  C   UNL     1       8.119  46.408  52.906  1.00  0.00     0.082 A 
ATOM     13  N   UNL     1       9.390  47.411  54.390  1.00  0.00    -0.250 N 
ATOM     14  C   UNL     1       9.467  46.484  52.498  1.00  0.00     0.149 A 
ATOM     15  N   UNL     1      10.250  47.096  53.393  1.00  0.00    -0.179 NA
ATOM     16  C   UNL     1       9.879  48.092  55.562  1.00  0.00     0.176 C 
BRANCH  10  17
ATOM     17  N   UNL     1       6.815  45.293  51.162  1.00  0.00    -0.339 N 
ATOM     18  H   UNL     1       7.435  45.693  50.473  1.00  0.00     0.168 HD
BRANCH  17  19
ATOM     19  C   UNL     1       6.117  44.152  50.715  1.00  0.00     0.043 A 
ATOM     20  C   UNL     1       4.852  43.808  51.216  1.00  0.00     0.027 A 
ATOM     21  C   UNL     1       6.663  43.352  49.682  1.00  0.00    -0.026 A 
ATOM     22  C   UNL     1       4.153  42.693  50.741  1.00  0.00     0.018 A 
ATOM     23  C   UNL     1       5.955  42.229  49.212  1.00  0.00     0.021 A 
ATOM     24  C   UNL     1       4.710  41.908  49.742  1.00  0.00     0.018 A 
ATOM     25  C   UNL     1       7.998  43.666  49.058  1.00  0.00     0.046 C 
ATOM     26  Br  UNL     1       3.772  40.399  49.097  1.00  0.00    -0.051 Br
ENDBRANCH  17  19
ENDBRANCH  10  17
ENDBRANCH   1   7
TORSDOF 6
ENDMDL
MODEL 5
REMARK VINA RESULT:    -7.882      2.783      5.086
REMARK INTER + INTRA:         -11.518
REMARK INTER:                 -10.630
REMARK INTRA:                  -0.888
REMARK UNBOUND:                -0.871
REMARK SMILES COCCNc1nc(Nc2ccc(Br)cc2C)c2cnn(C)c2n1
REMARK SMILES IDX 5 1 4 3 3 4 2 5 1 6 6 7 7 8 24 9 8 10 23 11 18 12 21 13
REMARK SMILES IDX 19 14 20 15 22 16 9 17 10 19 11 20 16 21 12 22 15 23 13 24
REMARK SMILES IDX 17 25 14 26
REMARK H PARENT 5 2 9 18
ROOT
ATOM      1  N   UNL     1       3.536  41.304  50.517  1.00  0.00    -0.352 N 
ATOM      2  H   UNL     1       3.254  40.550  51.138  1.00  0.00     0.163 HD
ENDROOT
BRANCH   1   3
ATOM      3  C   UNL     1       4.976  41.477  50.380  1.00  0.00     0.144 C 
BRANCH   3   4
ATOM      4  C   UNL     1       5.408  41.205  48.936  1.00  0.00     0.181 C 
BRANCH   4   5
ATOM      5  O   UNL     1       6.118  42.338  48.432  1.00  0.00    -0.383 OA
ATOM      6  C   UNL     1       6.731  43.079  49.479  1.00  0.00     0.194 C 
ENDBRANCH   4   5
ENDBRANCH   3   4
ENDBRANCH   1   3
BRANCH   1   7
ATOM      7  C   UNL     1       2.876  42.425  51.015  1.00  0.00     0.226 A 
ATOM      8  N   UNL     1       3.668  43.275  51.691  1.00  0.00    -0.195 NA
ATOM      9  N   UNL     1       1.564  42.582  50.800  1.00  0.00    -0.193 NA
ATOM     10  C   UNL     1       3.164  44.411  52.244  1.00  0.00     0.147 A 
ATOM     11  C   UNL     1       1.082  43.707  51.344  1.00  0.00     0.165 A 
ATOM     12  C   UNL     1       1.796  44.649  52.057  1.00  0.00     0.082 A 
ATOM     13  N   UNL     1      -0.209  44.158  51.306  1.00  0.00    -0.250 N 
ATOM     14  C   UNL     1       0.839  45.626  52.399  1.00  0.00     0.149 A 
ATOM     15  N   UNL     1      -0.386  45.340  51.943  1.00  0.00    -0.179 NA
ATOM     16  C   UNL     1      -1.334  43.515  50.677  1.00  0.00     0.176 C 
BRANCH  10  17
ATOM     17  N   UNL     1       3.979  45.324  52.931  1.00  0.00    -0.339 N 
ATOM     18  H   UNL     1       3.513  45.779  53.702  1.00  0.00     0.168 HD
BRANCH  17  19
ATOM     19  C   UNL     1       5.350  45.633  52.823  1.00  0.00     0.043 A 
ATOM     20  C   UNL     1       5.934  46.028  51.610  1.00  0.00     0.027 A 
ATOM     21  C   UNL     1       6.169  45.616  53.979  1.00  0.00    -0.026 A 
ATOM     22  C   UNL     1       7.288  46.365  51.521  1.00  0.00     0.018 A 
ATOM     23  C   UNL     1       7.533  45.953  53.881  1.00  0.00     0.021 A 
ATOM     24  C   UNL     1       8.082  46.325  52.658  1.00  0.00     0.018 A 
ATOM     25  C   UNL     1       5.622  45.242  55.331  1.00  0.00     0.046 C 
ATOM     26  Br  UNL     1       9.913  46.778  52.546  1.00  0.00    -0.051 Br
ENDBRANCH  17  19
ENDBRANCH  10  17
ENDBRANCH   1   7
TORSDOF 6
ENDMDL
MODEL 6
REMARK VINA RESULT:    -7.880      2.072      4.217
REMARK INTER + INTRA:         -11.516
REMARK INTER:                 -10.735
REMARK INTRA:                  -0.781
REMARK UNBOUND:                -0.871
REMARK SMILES COCCNc1nc(Nc2ccc(Br)cc2C)c2cnn(C)c2n1
REMARK SMILES IDX 5 1 4 3 3 4 2 5 1 6 6 7 7 8 24 9 8 10 23 11 18 12 21 13
REMARK SMILES IDX 19 14 20 15 22 16 9 17 10 19 11 20 16 21 12 22 15 23 13 24
REMARK SMILES IDX 17 25 14 26
REMARK H PARENT 5 2 9 18
ROOT
ATOM      1  N   UNL     1       4.447  41.858  50.845  1.00  0.00    -0.352 N 
ATOM      2  H   UNL     1       4.402  41.365  51.733  1.00  0.00     0.163 HD
ENDROOT
BRANCH   1   3
ATOM      3  C   UNL     1       5.638  41.583  50.054  1.00  0.00     0.144 C 
BRANCH   3   4
ATOM      4  C   UNL     1       5.250  41.222  48.617  1.00  0.00     0.181 C 
BRANCH   4   5
ATOM      5  O   UNL     1       3.946  40.639  48.610  1.00  0.00    -0.383 OA
ATOM      6  C   UNL     1       3.543  40.275  47.295  1.00  0.00     0.194 C 
ENDBRANCH   4   5
ENDBRANCH   3   4
ENDBRANCH   1   3
BRANCH   1   7
ATOM      7  C   UNL     1       4.292  43.199  51.187  1.00  0.00     0.226 A 
ATOM      8  N   UNL     1       5.429  43.913  51.144  1.00  0.00    -0.195 NA
ATOM      9  N   UNL     1       3.084  43.671  51.518  1.00  0.00    -0.193 NA
ATOM     10  C   UNL     1       5.437  45.236  51.461  1.00  0.00     0.147 A 
ATOM     11  C   UNL     1       3.104  44.976  51.821  1.00  0.00     0.165 A 
ATOM     12  C   UNL     1       4.207  45.806  51.813  1.00  0.00     0.082 A 
ATOM     13  N   UNL     1       2.044  45.756  52.196  1.00  0.00    -0.250 N 
ATOM     14  C   UNL     1       3.698  47.064  52.197  1.00  0.00     0.149 A 
ATOM     15  N   UNL     1       2.381  47.047  52.430  1.00  0.00    -0.179 NA
ATOM     16  C   UNL     1       0.674  45.339  52.355  1.00  0.00     0.176 C 
BRANCH  10  17
ATOM     17  N   UNL     1       6.609  46.005  51.397  1.00  0.00    -0.339 N 
ATOM     18  H   UNL     1       6.777  46.410  50.488  1.00  0.00     0.168 HD
BRANCH  17  19
ATOM     19  C   UNL     1       7.525  46.415  52.387  1.00  0.00     0.043 A 
ATOM     20  C   UNL     1       7.107  46.935  53.622  1.00  0.00     0.027 A 
ATOM     21  C   UNL     1       8.915  46.243  52.175  1.00  0.00    -0.026 A 
ATOM     22  C   UNL     1       8.024  47.307  54.611  1.00  0.00     0.018 A 
ATOM     23  C   UNL     1       9.832  46.623  53.174  1.00  0.00     0.021 A 
ATOM     24  C   UNL     1       9.383  47.150  54.381  1.00  0.00     0.018 A 
ATOM     25  C   UNL     1       9.455  45.659  50.897  1.00  0.00     0.046 C 
ATOM     26  Br  UNL     1      10.628  47.651  55.712  1.00  0.00    -0.051 Br
ENDBRANCH  17  19
ENDBRANCH  10  17
ENDBRANCH   1   7
TORSDOF 6
ENDMDL
MODEL 7
REMARK VINA RESULT:    -7.827      2.420      4.865
REMARK INTER + INTRA:         -11.443
REMARK INTER:                 -10.520
REMARK INTRA:                  -0.923
REMARK UNBOUND:                -0.871
REMARK SMILES COCCNc1nc(Nc2ccc(Br)cc2C)c2cnn(C)c2n1
REMARK SMILES IDX 5 1 4 3 3 4 2 5 1 6 6 7 7 8 24 9 8 10 23 11 18 12 21 13
REMARK SMILES IDX 19 14 20 15 22 16 9 17 10 19 11 20 16 21 12 22 15 23 13 24
REMARK SMILES IDX 17 25 14 26
REMARK H PARENT 5 2 9 18
ROOT
ATOM      1  N   UNL     1       2.889  41.576  50.784  1.00  0.00    -0.352 N 
ATOM      2  H   UNL     1       2.339  40.883  51.285  1.00  0.00     0.163 HD
ENDROOT
BRANCH   1   3
ATOM      3  C   UNL     1       4.276  41.199  50.547  1.00  0.00     0.144 C 
BRANCH   3   4
ATOM      4  C   UNL     1       4.506  40.934  49.056  1.00  0.00     0.181 C 
BRANCH   4   5
ATOM      5  O   UNL     1       5.851  41.277  48.715  1.00  0.00    -0.383 OA
ATOM      6  C   UNL     1       6.628  41.557  49.873  1.00  0.00     0.194 C 
ENDBRANCH   4   5
ENDBRANCH   3   4
ENDBRANCH   1   3
BRANCH   1   7
ATOM      7  C   UNL     1       2.739  42.741  51.532  1.00  0.00     0.226 A 
ATOM      8  N   UNL     1       3.679  43.673  51.294  1.00  0.00    -0.195 NA
ATOM      9  N   UNL     1       1.723  42.859  52.395  1.00  0.00    -0.193 NA
ATOM     10  C   UNL     1       3.669  44.861  51.955  1.00  0.00     0.147 A 
ATOM     11  C   UNL     1       1.721  44.035  53.035  1.00  0.00     0.165 A 
ATOM     12  C   UNL     1       2.630  45.062  52.874  1.00  0.00     0.082 A 
ATOM     13  N   UNL     1       0.825  44.467  53.974  1.00  0.00    -0.250 N 
ATOM     14  C   UNL     1       2.185  46.064  53.761  1.00  0.00     0.149 A 
ATOM     15  N   UNL     1       1.084  45.714  54.434  1.00  0.00    -0.179 NA
ATOM     16  C   UNL     1      -0.312  43.743  54.485  1.00  0.00     0.176 C 
BRANCH  10  17
ATOM     17  N   UNL     1       4.625  45.857  51.702  1.00  0.00    -0.339 N 
ATOM     18  H   UNL     1       4.349  46.507  50.981  1.00  0.00     0.168 HD
BRANCH  17  19
ATOM     19  C   UNL     1       5.836  46.189  52.343  1.00  0.00     0.043 A 
ATOM     20  C   UNL     1       5.872  46.710  53.646  1.00  0.00     0.027 A 
ATOM     21  C   UNL     1       7.069  45.935  51.695  1.00  0.00    -0.026 A 
ATOM     22  C   UNL     1       7.081  47.004  54.286  1.00  0.00     0.018 A 
ATOM     23  C   UNL     1       8.282  46.237  52.344  1.00  0.00     0.021 A 
ATOM     24  C   UNL     1       8.280  46.768  53.630  1.00  0.00     0.018 A 
ATOM     25  C   UNL     1       7.130  45.343  50.311  1.00  0.00     0.046 C 
ATOM     26  Br  UNL     1       9.917  47.163  54.488  1.00  0.00    -0.051 Br
ENDBRANCH  17  19
ENDBRANCH  10  17
ENDBRANCH   1   7
TORSDOF 6
ENDMDL
MODEL 8
REMARK VINA RESULT:    -7.800      2.293      4.833
REMARK INTER + INTRA:         -11.407
REMARK INTER:                 -10.551
REMARK INTRA:                  -0.857
REMARK UNBOUND:                -0.871
REMARK SMILES COCCNc1nc(Nc2ccc(Br)cc2C)c2cnn(C)c2n1
REMARK SMILES IDX 5 1 4 3 3 4 2 5 1 6 6 7 7 8 24 9 8 10 23 11 18 12 21 13
REMARK SMILES IDX 19 14 20 15 22 16 9 17 10 19 11 20 16 21 12 22 15 23 13 24
REMARK SMILES IDX 17 25 14 26
REMARK H PARENT 5 2 9 18
ROOT
ATOM      1  N   UNL     1       3.665  41.353  51.027  1.00  0.00    -0.352 N 
ATOM      2  H   UNL     1       3.616  40.640  51.748  1.00  0.00     0.163 HD
ENDROOT
BRANCH   1   3
ATOM      3  C   UNL     1       4.946  41.438  50.339  1.00  0.00     0.144 C 
BRANCH   3   4
ATOM      4  C   UNL     1       4.805  40.959  48.891  1.00  0.00     0.181 C 
BRANCH   4   5
ATOM      5  O   UNL     1       3.486  40.448  48.687  1.00  0.00    -0.383 OA
ATOM      6  C   UNL     1       3.371  39.786  47.434  1.00  0.00     0.194 C 
ENDBRANCH   4   5
ENDBRANCH   3   4
ENDBRANCH   1   3
BRANCH   1   7
ATOM      7  C   UNL     1       3.293  42.527  51.676  1.00  0.00     0.226 A 
ATOM      8  N   UNL     1       4.154  43.546  51.510  1.00  0.00    -0.195 NA
ATOM      9  N   UNL     1       2.160  42.570  52.388  1.00  0.00    -0.193 NA
ATOM     10  C   UNL     1       3.928  44.755  52.092  1.00  0.00     0.147 A 
ATOM     11  C   UNL     1       1.946  43.767  52.950  1.00  0.00     0.165 A 
ATOM     12  C   UNL     1       2.757  44.880  52.850  1.00  0.00     0.082 A 
ATOM     13  N   UNL     1       0.888  44.137  53.733  1.00  0.00    -0.250 N 
ATOM     14  C   UNL     1       2.091  45.865  53.609  1.00  0.00     0.149 A 
ATOM     15  N   UNL     1       0.949  45.425  54.149  1.00  0.00    -0.179 NA
ATOM     16  C   UNL     1      -0.227  43.315  54.131  1.00  0.00     0.176 C 
BRANCH  10  17
ATOM     17  N   UNL     1       4.801  45.838  51.909  1.00  0.00    -0.339 N 
ATOM     18  H   UNL     1       4.459  46.526  51.255  1.00  0.00     0.168 HD
BRANCH  17  19
ATOM     19  C   UNL     1       6.001  46.204  52.554  1.00  0.00     0.043 A 
ATOM     20  C   UNL     1       6.024  46.685  53.871  1.00  0.00     0.027 A 
ATOM     21  C   UNL     1       7.240  46.024  51.890  1.00  0.00    -0.026 A 
ATOM     22  C   UNL     1       7.223  47.013  54.513  1.00  0.00     0.018 A 
ATOM     23  C   UNL     1       8.443  46.359  52.541  1.00  0.00     0.021 A 
ATOM     24  C   UNL     1       8.427  46.850  53.843  1.00  0.00     0.018 A 
ATOM     25  C   UNL     1       7.316  45.477  50.489  1.00  0.00     0.046 C 
ATOM     26  Br  UNL     1      10.051  47.291  54.703  1.00  0.00    -0.051 Br
ENDBRANCH  17  19
ENDBRANCH  10  17
ENDBRANCH   1   7
TORSDOF 6
ENDMDL
MODEL 9
REMARK VINA RESULT:    -7.672      1.190      2.012
REMARK INTER + INTRA:         -11.235
REMARK INTER:                 -10.665
REMARK INTRA:                  -0.570
REMARK UNBOUND:                -0.871
REMARK SMILES COCCNc1nc(Nc2ccc(Br)cc2C)c2cnn(C)c2n1
REMARK SMILES IDX 5 1 4 3 3 4 2 5 1 6 6 7 7 8 24 9 8 10 23 11 18 12 21 13
REMARK SMILES IDX 19 14 20 15 22 16 9 17 10 19 11 20 16 21 12 22 15 23 13 24
REMARK SMILES IDX 17 25 14 26
REMARK H PARENT 5 2 9 18
ROOT
ATOM      1  N   UNL     1       3.184  43.376  53.073  1.00  0.00    -0.352 N 
ATOM      2  H   UNL     1       2.608  42.665  52.632  1.00  0.00     0.163 HD
ENDROOT
BRANCH   1   3
ATOM      3  C   UNL     1       2.471  44.585  53.460  1.00  0.00     0.144 C 
BRANCH   3   4
ATOM      4  C   UNL     1       1.293  44.238  54.374  1.00  0.00     0.181 C 
BRANCH   4   5
ATOM      5  O   UNL     1       1.598  44.631  55.713  1.00  0.00    -0.383 OA
ATOM      6  C   UNL     1       0.507  45.314  56.319  1.00  0.00     0.194 C 
ENDBRANCH   4   5
ENDBRANCH   3   4
ENDBRANCH   1   3
BRANCH   1   7
ATOM      7  C   UNL     1       4.218  43.594  52.166  1.00  0.00     0.226 A 
ATOM      8  N   UNL     1       4.914  44.723  52.385  1.00  0.00    -0.195 NA
ATOM      9  N   UNL     1       4.447  42.713  51.185  1.00  0.00    -0.193 NA
ATOM     10  C   UNL     1       5.949  45.075  51.575  1.00  0.00     0.147 A 
ATOM     11  C   UNL     1       5.472  43.068  50.399  1.00  0.00     0.165 A 
ATOM     12  C   UNL     1       6.254  44.199  50.526  1.00  0.00     0.082 A 
ATOM     13  N   UNL     1       5.959  42.389  49.316  1.00  0.00    -0.250 N 
ATOM     14  C   UNL     1       7.182  44.100  49.469  1.00  0.00     0.149 A 
ATOM     15  N   UNL     1       7.015  43.000  48.728  1.00  0.00    -0.179 NA
ATOM     16  C   UNL     1       5.468  41.145  48.779  1.00  0.00     0.176 C 
BRANCH  10  17
ATOM     17  N   UNL     1       6.703  46.236  51.802  1.00  0.00    -0.339 N 
ATOM     18  H   UNL     1       6.419  47.019  51.232  1.00  0.00     0.168 HD
BRANCH  17  19
ATOM     19  C   UNL     1       7.695  46.548  52.755  1.00  0.00     0.043 A 
ATOM     20  C   UNL     1       9.065  46.460  52.462  1.00  0.00     0.027 A 
ATOM     21  C   UNL     1       7.318  47.030  54.032  1.00  0.00    -0.026 A 
ATOM     22  C   UNL     1      10.041  46.804  53.403  1.00  0.00     0.018 A 
ATOM     23  C   UNL     1       8.307  47.371  54.976  1.00  0.00     0.021 A 
ATOM     24  C   UNL     1       9.656  47.256  54.657  1.00  0.00     0.018 A 
ATOM     25  C   UNL     1       5.873  47.193  54.423  1.00  0.00     0.046 C 
ATOM     26  Br  UNL     1      10.969  47.722  55.934  1.00  0.00    -0.051 Br
ENDBRANCH  17  19
ENDBRANCH  10  17
ENDBRANCH   1   7
TORSDOF 6
ENDMDL
MODEL 10
REMARK VINA RESULT:    -7.665      3.069      4.742
REMARK INTER + INTRA:         -11.225
REMARK INTER:                 -10.501
REMARK INTRA:                  -0.724
REMARK UNBOUND:                -0.871
REMARK SMILES COCCNc1nc(Nc2ccc(Br)cc2C)c2cnn(C)c2n1
REMARK SMILES IDX 5 1 4 3 3 4 2 5 1 6 6 7 7 8 24 9 8 10 23 11 18 12 21 13
REMARK SMILES IDX 19 14 20 15 22 16 9 17 10 19 11 20 16 21 12 22 15 23 13 24
REMARK SMILES IDX 17 25 14 26
REMARK H PARENT 5 2 9 18
ROOT
ATOM      1  N   UNL     1       2.209  45.740  56.545  1.00  0.00    -0.352 N 
ATOM      2  H   UNL     1       2.872  45.111  56.990  1.00  0.00     0.163 HD
ENDROOT
BRANCH   1   3
ATOM      3  C   UNL     1       0.891  45.775  57.165  1.00  0.00     0.144 C 
BRANCH   3   4
ATOM      4  C   UNL     1       0.866  46.801  58.301  1.00  0.00     0.181 C 
BRANCH   4   5
ATOM      5  O   UNL     1      -0.489  47.084  58.656  1.00  0.00    -0.383 OA
ATOM      6  C   UNL     1      -1.316  47.205  57.506  1.00  0.00     0.194 C 
ENDBRANCH   4   5
ENDBRANCH   3   4
ENDBRANCH   1   3
BRANCH   1   7
ATOM      7  C   UNL     1       2.197  45.339  55.212  1.00  0.00     0.226 A 
ATOM      8  N   UNL     1       3.033  46.033  54.420  1.00  0.00    -0.195 NA
ATOM      9  N   UNL     1       1.397  44.340  54.819  1.00  0.00    -0.193 NA
ATOM     10  C   UNL     1       3.125  45.760  53.090  1.00  0.00     0.147 A 
ATOM     11  C   UNL     1       1.501  44.079  53.509  1.00  0.00     0.165 A 
ATOM     12  C   UNL     1       2.321  44.722  52.603  1.00  0.00     0.082 A 
ATOM     13  N   UNL     1       0.826  43.125  52.798  1.00  0.00    -0.250 N 
ATOM     14  C   UNL     1       2.061  44.075  51.378  1.00  0.00     0.149 A 
ATOM     15  N   UNL     1       1.155  43.097  51.485  1.00  0.00    -0.179 NA
ATOM     16  C   UNL     1      -0.153  42.197  53.305  1.00  0.00     0.176 C 
BRANCH  10  17
ATOM     17  N   UNL     1       4.011  46.456  52.253  1.00  0.00    -0.339 N 
ATOM     18  H   UNL     1       3.551  47.092  51.619  1.00  0.00     0.168 HD
BRANCH  17  19
ATOM     19  C   UNL     1       5.419  46.521  52.213  1.00  0.00     0.043 A 
ATOM     20  C   UNL     1       6.152  47.357  53.069  1.00  0.00     0.027 A 
ATOM     21  C   UNL     1       6.139  45.675  51.334  1.00  0.00    -0.026 A 
ATOM     22  C   UNL     1       7.550  47.389  53.045  1.00  0.00     0.018 A 
ATOM     23  C   UNL     1       7.546  45.716  51.313  1.00  0.00     0.021 A 
ATOM     24  C   UNL     1       8.240  46.569  52.165  1.00  0.00     0.018 A 
ATOM     25  C   UNL     1       5.439  44.718  50.405  1.00  0.00     0.046 C 
ATOM     26  Br  UNL     1      10.129  46.608  52.126  1.00  0.00    -0.051 Br
ENDBRANCH  17  19
ENDBRANCH  10  17
ENDBRANCH   1   7
TORSDOF 6
ENDMDL
MODEL 11
REMARK VINA RESULT:    -7.664      3.210      6.205
REMARK INTER + INTRA:         -11.223
REMARK INTER:                 -10.706
REMARK INTRA:                  -0.517
REMARK UNBOUND:                -0.871
REMARK SMILES COCCNc1nc(Nc2ccc(Br)cc2C)c2cnn(C)c2n1
REMARK SMILES IDX 5 1 4 3 3 4 2 5 1 6 6 7 7 8 24 9 8 10 23 11 18 12 21 13
REMARK SMILES IDX 19 14 20 15 22 16 9 17 10 19 11 20 16 21 12 22 15 23 13 24
REMARK SMILES IDX 17 25 14 26
REMARK H PARENT 5 2 9 18
ROOT
ATOM      1  N   UNL     1       3.334  45.865  55.838  1.00  0.00    -0.352 N 
ATOM      2  H   UNL     1       2.804  46.706  56.046  1.00  0.00     0.163 HD
ENDROOT
BRANCH   1   3
ATOM      3  C   UNL     1       4.649  46.100  55.258  1.00  0.00     0.144 C 
BRANCH   3   4
ATOM      4  C   UNL     1       4.691  47.471  54.575  1.00  0.00     0.181 C 
BRANCH   4   5
ATOM      5  O   UNL     1       5.895  47.587  53.815  1.00  0.00    -0.383 OA
ATOM      6  C   UNL     1       6.845  46.596  54.187  1.00  0.00     0.194 C 
ENDBRANCH   4   5
ENDBRANCH   3   4
ENDBRANCH   1   3
BRANCH   1   7
ATOM      7  C   UNL     1       2.485  45.114  55.028  1.00  0.00     0.226 A 
ATOM      8  N   UNL     1       3.052  44.677  53.890  1.00  0.00    -0.195 NA
ATOM      9  N   UNL     1       1.224  44.883  55.412  1.00  0.00    -0.193 NA
ATOM     10  C   UNL     1       2.344  43.938  52.995  1.00  0.00     0.147 A 
ATOM     11  C   UNL     1       0.539  44.150  54.524  1.00  0.00     0.165 A 
ATOM     12  C   UNL     1       1.015  43.649  53.328  1.00  0.00     0.082 A 
ATOM     13  N   UNL     1      -0.763  43.741  54.615  1.00  0.00    -0.250 N 
ATOM     14  C   UNL     1      -0.084  42.954  52.781  1.00  0.00     0.149 A 
ATOM     15  N   UNL     1      -1.171  42.999  53.558  1.00  0.00    -0.179 NA
ATOM     16  C   UNL     1      -1.686  44.019  55.686  1.00  0.00     0.176 C 
BRANCH  10  17
ATOM     17  N   UNL     1       2.925  43.451  51.814  1.00  0.00    -0.339 N 
ATOM     18  H   UNL     1       2.286  42.922  51.238  1.00  0.00     0.168 HD
BRANCH  17  19
ATOM     19  C   UNL     1       4.190  43.661  51.227  1.00  0.00     0.043 A 
ATOM     20  C   UNL     1       4.830  44.909  51.260  1.00  0.00     0.027 A 
ATOM     21  C   UNL     1       4.883  42.574  50.639  1.00  0.00    -0.026 A 
ATOM     22  C   UNL     1       6.100  45.099  50.704  1.00  0.00     0.018 A 
ATOM     23  C   UNL     1       6.159  42.774  50.078  1.00  0.00     0.021 A 
ATOM     24  C   UNL     1       6.757  44.030  50.114  1.00  0.00     0.018 A 
ATOM     25  C   UNL     1       4.291  41.190  50.591  1.00  0.00     0.046 C 
ATOM     26  Br  UNL     1       8.472  44.278  49.361  1.00  0.00    -0.051 Br
ENDBRANCH  17  19
ENDBRANCH  10  17
ENDBRANCH   1   7
TORSDOF 6
ENDMDL
MODEL 12
REMARK VINA RESULT:    -7.469      3.230      6.100
REMARK INTER + INTRA:         -10.960
REMARK INTER:                  -9.975
REMARK INTRA:                  -0.985
REMARK UNBOUND:                -0.871
REMARK SMILES COCCNc1nc(Nc2ccc(Br)cc2C)c2cnn(C)c2n1
REMARK SMILES IDX 5 1 4 3 3 4 2 5 1 6 6 7 7 8 24 9 8 10 23 11 18 12 21 13
REMARK SMILES IDX 19 14 20 15 22 16 9 17 10 19 11 20 16 21 12 22 15 23 13 24
REMARK SMILES IDX 17 25 14 26
REMARK H PARENT 5 2 9 18
ROOT
ATOM      1  N   UNL     1       6.296  43.397  49.404  1.00  0.00    -0.352 N 
ATOM      2  H   UNL     1       5.469  43.654  48.872  1.00  0.00     0.163 HD
ENDROOT
BRANCH   1   3
ATOM      3  C   UNL     1       6.205  42.115  50.090  1.00  0.00     0.144 C 
BRANCH   3   4
ATOM      4  C   UNL     1       4.799  41.529  49.938  1.00  0.00     0.181 C 
BRANCH   4   5
ATOM      5  O   UNL     1       4.276  41.206  51.228  1.00  0.00    -0.383 OA
ATOM      6  C   UNL     1       3.617  42.318  51.818  1.00  0.00     0.194 C 
ENDBRANCH   4   5
ENDBRANCH   3   4
ENDBRANCH   1   3
BRANCH   1   7
ATOM      7  C   UNL     1       6.509  44.479  50.254  1.00  0.00     0.226 A 
ATOM      8  N   UNL     1       5.382  45.063  50.697  1.00  0.00    -0.195 NA
ATOM      9  N   UNL     1       7.757  44.853  50.564  1.00  0.00    -0.193 NA
ATOM     10  C   UNL     1       5.432  46.139  51.529  1.00  0.00     0.147 A 
ATOM     11  C   UNL     1       7.791  45.908  51.388  1.00  0.00     0.165 A 
ATOM     12  C   UNL     1       6.705  46.586  51.903  1.00  0.00     0.082 A 
ATOM     13  N   UNL     1       8.901  46.531  51.891  1.00  0.00    -0.250 N 
ATOM     14  C   UNL     1       7.274  47.597  52.706  1.00  0.00     0.149 A 
ATOM     15  N   UNL     1       8.611  47.571  52.709  1.00  0.00    -0.179 NA
ATOM     16  C   UNL     1      10.277  46.189  51.636  1.00  0.00     0.176 C 
BRANCH  10  17
ATOM     17  N   UNL     1       4.267  46.746  52.022  1.00  0.00    -0.339 N 
ATOM     18  H   UNL     1       4.215  47.735  51.829  1.00  0.00     0.168 HD
BRANCH  17  19
ATOM     19  C   UNL     1       3.108  46.216  52.626  1.00  0.00     0.043 A 
ATOM     20  C   UNL     1       1.999  45.800  51.875  1.00  0.00     0.027 A 
ATOM     21  C   UNL     1       3.069  46.027  54.029  1.00  0.00    -0.026 A 
ATOM     22  C   UNL     1       0.867  45.244  52.481  1.00  0.00     0.018 A 
ATOM     23  C   UNL     1       1.925  45.470  54.633  1.00  0.00     0.021 A 
ATOM     24  C   UNL     1       0.836  45.083  53.858  1.00  0.00     0.018 A 
ATOM     25  C   UNL     1       4.227  46.408  54.913  1.00  0.00     0.046 C 
ATOM     26  Br  UNL     1      -0.689  44.333  54.685  1.00  0.00    -0.051 Br
ENDBRANCH  17  19
ENDBRANCH  10  17
ENDBRANCH   1   7
TORSDOF 6
ENDMDL
MODEL 13
REMARK VINA RESULT:    -7.424      3.382      5.256
REMARK INTER + INTRA:         -10.900
REMARK INTER:                 -10.077
REMARK INTRA:                  -0.823
REMARK UNBOUND:                -0.871
REMARK SMILES COCCNc1nc(Nc2ccc(Br)cc2C)c2cnn(C)c2n1
REMARK SMILES IDX 5 1 4 3 3 4 2 5 1 6 6 7 7 8 24 9 8 10 23 11 18 12 21 13
REMARK SMILES IDX 19 14 20 15 22 16 9 17 10 19 11 20 16 21 12 22 15 23 13 24
REMARK SMILES IDX 17 25 14 26
REMARK H PARENT 5 2 9 18
ROOT
ATOM      1  N   UNL     1       0.161  45.598  55.578  1.00  0.00    -0.352 N 
ATOM      2  H   UNL     1      -0.069  46.539  55.271  1.00  0.00     0.163 HD
ENDROOT
BRANCH   1   3
ATOM      3  C   UNL     1       1.100  45.531  56.690  1.00  0.00     0.144 C 
BRANCH   3   4
ATOM      4  C   UNL     1       0.640  46.447  57.829  1.00  0.00     0.181 C 
BRANCH   4   5
ATOM      5  O   UNL     1      -0.787  46.452  57.888  1.00  0.00    -0.383 OA
ATOM      6  C   UNL     1      -1.286  47.701  58.348  1.00  0.00     0.194 C 
ENDBRANCH   4   5
ENDBRANCH   3   4
ENDBRANCH   1   3
BRANCH   1   7
ATOM      7  C   UNL     1       0.604  44.957  54.424  1.00  0.00     0.226 A 
ATOM      8  N   UNL     1       1.920  44.684  54.416  1.00  0.00    -0.195 NA
ATOM      9  N   UNL     1      -0.261  44.665  53.445  1.00  0.00    -0.193 NA
ATOM     10  C   UNL     1       2.500  44.067  53.352  1.00  0.00     0.147 A 
ATOM     11  C   UNL     1       0.321  44.052  52.406  1.00  0.00     0.165 A 
ATOM     12  C   UNL     1       1.657  43.723  52.287  1.00  0.00     0.082 A 
ATOM     13  N   UNL     1      -0.279  43.624  51.254  1.00  0.00    -0.250 N 
ATOM     14  C   UNL     1       1.751  43.099  51.026  1.00  0.00     0.149 A 
ATOM     15  N   UNL     1       0.577  43.029  50.389  1.00  0.00    -0.179 NA
ATOM     16  C   UNL     1      -1.672  43.746  50.905  1.00  0.00     0.176 C 
BRANCH  10  17
ATOM     17  N   UNL     1       3.867  43.750  53.335  1.00  0.00    -0.339 N 
ATOM     18  H   UNL     1       4.059  42.781  53.544  1.00  0.00     0.168 HD
BRANCH  17  19
ATOM     19  C   UNL     1       5.006  44.495  52.967  1.00  0.00     0.043 A 
ATOM     20  C   UNL     1       5.331  44.747  51.626  1.00  0.00     0.027 A 
ATOM     21  C   UNL     1       5.823  45.074  53.969  1.00  0.00    -0.026 A 
ATOM     22  C   UNL     1       6.445  45.517  51.272  1.00  0.00     0.018 A 
ATOM     23  C   UNL     1       6.944  45.845  53.605  1.00  0.00     0.021 A 
ATOM     24  C   UNL     1       7.246  46.060  52.264  1.00  0.00     0.018 A 
ATOM     25  C   UNL     1       5.530  44.890  55.434  1.00  0.00     0.046 C 
ATOM     26  Br  UNL     1       8.752  47.101  51.794  1.00  0.00    -0.051 Br
ENDBRANCH  17  19
ENDBRANCH  10  17
ENDBRANCH   1   7
TORSDOF 6
ENDMDL
MODEL 14
REMARK VINA RESULT:    -7.303      3.567      6.924
REMARK INTER + INTRA:         -10.736
REMARK INTER:                  -9.784
REMARK INTRA:                  -0.951
REMARK UNBOUND:                -0.871
REMARK SMILES COCCNc1nc(Nc2ccc(Br)cc2C)c2cnn(C)c2n1
REMARK SMILES IDX 5 1 4 3 3 4 2 5 1 6 6 7 7 8 24 9 8 10 23 11 18 12 21 13
REMARK SMILES IDX 19 14 20 15 22 16 9 17 10 19 11 20 16 21 12 22 15 23 13 24
REMARK SMILES IDX 17 25 14 26
REMARK H PARENT 5 2 9 18
ROOT
ATOM      1  N   UNL     1       6.156  43.778  49.644  1.00  0.00    -0.352 N 
ATOM      2  H   UNL     1       5.200  43.787  49.302  1.00  0.00     0.163 HD
ENDROOT
BRANCH   1   3
ATOM      3  C   UNL     1       6.750  42.453  49.764  1.00  0.00     0.144 C 
BRANCH   3   4
ATOM      4  C   UNL     1       5.765  41.385  49.280  1.00  0.00     0.181 C 
BRANCH   4   5
ATOM      5  O   UNL     1       4.935  40.975  50.368  1.00  0.00    -0.383 OA
ATOM      6  C   UNL     1       3.555  41.127  50.058  1.00  0.00     0.194 C 
ENDBRANCH   4   5
ENDBRANCH   3   4
ENDBRANCH   1   3
BRANCH   1   7
ATOM      7  C   UNL     1       6.100  44.483  50.844  1.00  0.00     0.226 A 
ATOM      8  N   UNL     1       5.181  44.023  51.710  1.00  0.00    -0.195 NA
ATOM      9  N   UNL     1       6.921  45.519  51.052  1.00  0.00    -0.193 NA
ATOM     10  C   UNL     1       5.004  44.616  52.922  1.00  0.00     0.147 A 
ATOM     11  C   UNL     1       6.741  46.090  52.251  1.00  0.00     0.165 A 
ATOM     12  C   UNL     1       5.832  45.706  53.217  1.00  0.00     0.082 A 
ATOM     13  N   UNL     1       7.415  47.161  52.768  1.00  0.00    -0.250 N 
ATOM     14  C   UNL     1       6.045  46.614  54.275  1.00  0.00     0.149 A 
ATOM     15  N   UNL     1       7.010  47.502  54.015  1.00  0.00    -0.179 NA
ATOM     16  C   UNL     1       8.464  47.916  52.131  1.00  0.00     0.176 C 
BRANCH  10  17
ATOM     17  N   UNL     1       4.067  44.135  53.850  1.00  0.00    -0.339 N 
ATOM     18  H   UNL     1       4.484  43.804  54.708  1.00  0.00     0.168 HD
BRANCH  17  19
ATOM     19  C   UNL     1       2.657  44.139  53.860  1.00  0.00     0.043 A 
ATOM     20  C   UNL     1       1.903  43.328  52.998  1.00  0.00     0.027 A 
ATOM     21  C   UNL     1       1.962  44.931  54.806  1.00  0.00    -0.026 A 
ATOM     22  C   UNL     1       0.505  43.315  53.039  1.00  0.00     0.018 A 
ATOM     23  C   UNL     1       0.554  44.915  54.838  1.00  0.00     0.021 A 
ATOM     24  C   UNL     1      -0.163  44.110  53.958  1.00  0.00     0.018 A 
ATOM     25  C   UNL     1       2.687  45.804  55.795  1.00  0.00     0.046 C 
ATOM     26  Br  UNL     1      -2.052  44.098  54.018  1.00  0.00    -0.051 Br
ENDBRANCH  17  19
ENDBRANCH  10  17
ENDBRANCH   1   7
TORSDOF 6
ENDMDL
MODEL 15
REMARK VINA RESULT:    -7.284      3.508      6.620
REMARK INTER + INTRA:         -10.710
REMARK INTER:                 -10.306
REMARK INTRA:                  -0.404
REMARK UNBOUND:                -0.871
REMARK SMILES COCCNc1nc(Nc2ccc(Br)cc2C)c2cnn(C)c2n1
REMARK SMILES IDX 5 1 4 3 3 4 2 5 1 6 6 7 7 8 24 9 8 10 23 11 18 12 21 13
REMARK SMILES IDX 19 14 20 15 22 16 9 17 10 19 11 20 16 21 12 22 15 23 13 24
REMARK SMILES IDX 17 25 14 26
REMARK H PARENT 5 2 9 18
ROOT
ATOM      1  N   UNL     1       5.394  46.885  52.647  1.00  0.00    -0.352 N 
ATOM      2  H   UNL     1       4.953  47.464  51.938  1.00  0.00     0.163 HD
ENDROOT
BRANCH   1   3
ATOM      3  C   UNL     1       6.820  47.124  52.829  1.00  0.00     0.144 C 
BRANCH   3   4
ATOM      4  C   UNL     1       7.261  46.665  54.221  1.00  0.00     0.181 C 
BRANCH   4   5
ATOM      5  O   UNL     1       8.023  47.702  54.844  1.00  0.00    -0.383 OA
ATOM      6  C   UNL     1       9.404  47.601  54.521  1.00  0.00     0.194 C 
ENDBRANCH   4   5
ENDBRANCH   3   4
ENDBRANCH   1   3
BRANCH   1   7
ATOM      7  C   UNL     1       5.082  45.581  52.271  1.00  0.00     0.226 A 
ATOM      8  N   UNL     1       4.020  45.063  52.911  1.00  0.00    -0.195 NA
ATOM      9  N   UNL     1       5.817  44.956  51.344  1.00  0.00    -0.193 NA
ATOM     10  C   UNL     1       3.600  43.794  52.656  1.00  0.00     0.147 A 
ATOM     11  C   UNL     1       5.390  43.711  51.098  1.00  0.00     0.165 A 
ATOM     12  C   UNL     1       4.317  43.076  51.691  1.00  0.00     0.082 A 
ATOM     13  N   UNL     1       5.919  42.814  50.211  1.00  0.00    -0.250 N 
ATOM     14  C   UNL     1       4.289  41.802  51.087  1.00  0.00     0.149 A 
ATOM     15  N   UNL     1       5.257  41.632  50.180  1.00  0.00    -0.179 NA
ATOM     16  C   UNL     1       7.059  43.012  49.353  1.00  0.00     0.176 C 
BRANCH  10  17
ATOM     17  N   UNL     1       2.477  43.244  53.294  1.00  0.00    -0.339 N 
ATOM     18  H   UNL     1       2.405  42.243  53.190  1.00  0.00     0.168 HD
BRANCH  17  19
ATOM     19  C   UNL     1       1.507  43.806  54.149  1.00  0.00     0.043 A 
ATOM     20  C   UNL     1       1.843  44.707  55.171  1.00  0.00     0.027 A 
ATOM     21  C   UNL     1       0.135  43.516  53.944  1.00  0.00    -0.026 A 
ATOM     22  C   UNL     1       0.869  45.285  55.991  1.00  0.00     0.018 A 
ATOM     23  C   UNL     1      -0.840  44.099  54.776  1.00  0.00     0.021 A 
ATOM     24  C   UNL     1      -0.468  44.976  55.791  1.00  0.00     0.018 A 
ATOM     25  C   UNL     1      -0.323  42.590  52.849  1.00  0.00     0.046 C 
ATOM     26  Br  UNL     1      -1.791  45.751  56.896  1.00  0.00    -0.051 Br
ENDBRANCH  17  19
ENDBRANCH  10  17
ENDBRANCH   1   7
TORSDOF 6
ENDMDL
MODEL 16
REMARK VINA RESULT:    -7.270      3.511      6.859
REMARK INTER + INTRA:         -10.692
REMARK INTER:                  -9.831
REMARK INTRA:                  -0.861
REMARK UNBOUND:                -0.871
REMARK SMILES COCCNc1nc(Nc2ccc(Br)cc2C)c2cnn(C)c2n1
REMARK SMILES IDX 5 1 4 3 3 4 2 5 1 6 6 7 7 8 24 9 8 10 23 11 18 12 21 13
REMARK SMILES IDX 19 14 20 15 22 16 9 17 10 19 11 20 16 21 12 22 15 23 13 24
REMARK SMILES IDX 17 25 14 26
REMARK H PARENT 5 2 9 18
ROOT
ATOM      1  N   UNL     1       7.424  45.012  49.590  1.00  0.00    -0.352 N 
ATOM      2  H   UNL     1       6.631  45.264  49.008  1.00  0.00     0.163 HD
ENDROOT
BRANCH   1   3
ATOM      3  C   UNL     1       7.706  43.584  49.652  1.00  0.00     0.144 C 
BRANCH   3   4
ATOM      4  C   UNL     1       6.533  42.786  49.076  1.00  0.00     0.181 C 
BRANCH   4   5
ATOM      5  O   UNL     1       6.317  41.618  49.872  1.00  0.00    -0.383 OA
ATOM      6  C   UNL     1       5.012  41.606  50.436  1.00  0.00     0.194 C 
ENDBRANCH   4   5
ENDBRANCH   3   4
ENDBRANCH   1   3
BRANCH   1   7
ATOM      7  C   UNL     1       7.141  45.587  50.827  1.00  0.00     0.226 A 
ATOM      8  N   UNL     1       5.828  45.727  51.081  1.00  0.00    -0.195 NA
ATOM      9  N   UNL     1       8.138  45.944  51.645  1.00  0.00    -0.193 NA
ATOM     10  C   UNL     1       5.397  46.281  52.247  1.00  0.00     0.147 A 
ATOM     11  C   UNL     1       7.700  46.482  52.790  1.00  0.00     0.165 A 
ATOM     12  C   UNL     1       6.384  46.676  53.159  1.00  0.00     0.082 A 
ATOM     13  N   UNL     1       8.458  46.946  53.831  1.00  0.00    -0.250 N 
ATOM     14  C   UNL     1       6.463  47.261  54.439  1.00  0.00     0.149 A 
ATOM     15  N   UNL     1       7.721  47.427  54.861  1.00  0.00    -0.179 NA
ATOM     16  C   UNL     1       9.896  46.964  53.916  1.00  0.00     0.176 C 
BRANCH  10  17
ATOM     17  N   UNL     1       4.031  46.412  52.542  1.00  0.00    -0.339 N 
ATOM     18  H   UNL     1       3.740  47.368  52.683  1.00  0.00     0.168 HD
BRANCH  17  19
ATOM     19  C   UNL     1       2.974  45.479  52.560  1.00  0.00     0.043 A 
ATOM     20  C   UNL     1       2.354  45.030  51.384  1.00  0.00     0.027 A 
ATOM     21  C   UNL     1       2.555  44.913  53.789  1.00  0.00    -0.026 A 
ATOM     22  C   UNL     1       1.329  44.079  51.411  1.00  0.00     0.018 A 
ATOM     23  C   UNL     1       1.520  43.958  53.809  1.00  0.00     0.021 A 
ATOM     24  C   UNL     1       0.916  43.549  52.624  1.00  0.00     0.018 A 
ATOM     25  C   UNL     1       3.188  45.305  55.099  1.00  0.00     0.046 C 
ATOM     26  Br  UNL     1      -0.468  42.263  52.668  1.00  0.00    -0.051 Br
ENDBRANCH  17  19
ENDBRANCH  10  17
ENDBRANCH   1   7
TORSDOF 6
ENDMDL
MODEL 17
REMARK VINA RESULT:    -7.213      3.845      6.990
REMARK INTER + INTRA:         -10.615
REMARK INTER:                  -9.816
REMARK INTRA:                  -0.798
REMARK UNBOUND:                -0.871
REMARK SMILES COCCNc1nc(Nc2ccc(Br)cc2C)c2cnn(C)c2n1
REMARK SMILES IDX 5 1 4 3 3 4 2 5 1 6 6 7 7 8 24 9 8 10 23 11 18 12 21 13
REMARK SMILES IDX 19 14 20 15 22 16 9 17 10 19 11 20 16 21 12 22 15 23 13 24
REMARK SMILES IDX 17 25 14 26
REMARK H PARENT 5 2 9 18
ROOT
ATOM      1  N   UNL     1       5.719  46.942  52.453  1.00  0.00    -0.352 N 
ATOM      2  H   UNL     1       5.478  47.492  51.633  1.00  0.00     0.163 HD
ENDROOT
BRANCH   1   3
ATOM      3  C   UNL     1       7.104  47.067  52.886  1.00  0.00     0.144 C 
BRANCH   3   4
ATOM      4  C   UNL     1       7.217  46.800  54.389  1.00  0.00     0.181 C 
BRANCH   4   5
ATOM      5  O   UNL     1       8.236  47.632  54.945  1.00  0.00    -0.383 OA
ATOM      6  C   UNL     1       9.469  47.482  54.253  1.00  0.00     0.194 C 
ENDBRANCH   4   5
ENDBRANCH   3   4
ENDBRANCH   1   3
BRANCH   1   7
ATOM      7  C   UNL     1       5.345  45.643  52.118  1.00  0.00     0.226 A 
ATOM      8  N   UNL     1       4.349  45.145  52.871  1.00  0.00    -0.195 NA
ATOM      9  N   UNL     1       5.965  45.003  51.120  1.00  0.00    -0.193 NA
ATOM     10  C   UNL     1       3.882  43.884  52.668  1.00  0.00     0.147 A 
ATOM     11  C   UNL     1       5.492  43.765  50.926  1.00  0.00     0.165 A 
ATOM     12  C   UNL     1       4.479  43.151  51.634  1.00  0.00     0.082 A 
ATOM     13  N   UNL     1       5.907  42.857  49.991  1.00  0.00    -0.250 N 
ATOM     14  C   UNL     1       4.363  41.876  51.041  1.00  0.00     0.149 A 
ATOM     15  N   UNL     1       5.225  41.687  50.037  1.00  0.00    -0.179 NA
ATOM     16  C   UNL     1       6.951  43.033  49.014  1.00  0.00     0.176 C 
BRANCH  10  17
ATOM     17  N   UNL     1       2.826  43.355  53.426  1.00  0.00    -0.339 N 
ATOM     18  H   UNL     1       3.130  42.876  54.261  1.00  0.00     0.168 HD
BRANCH  17  19
ATOM     19  C   UNL     1       1.426  43.471  53.305  1.00  0.00     0.043 A 
ATOM     20  C   UNL     1       0.702  42.782  52.321  1.00  0.00     0.027 A 
ATOM     21  C   UNL     1       0.701  44.250  54.240  1.00  0.00    -0.026 A 
ATOM     22  C   UNL     1      -0.691  42.877  52.231  1.00  0.00     0.018 A 
ATOM     23  C   UNL     1      -0.701  44.344  54.142  1.00  0.00     0.021 A 
ATOM     24  C   UNL     1      -1.385  43.659  53.142  1.00  0.00     0.018 A 
ATOM     25  C   UNL     1       1.388  44.994  55.354  1.00  0.00     0.046 C 
ATOM     26  Br  UNL     1      -3.267  43.793  53.027  1.00  0.00    -0.051 Br
ENDBRANCH  17  19
ENDBRANCH  10  17
ENDBRANCH   1   7
TORSDOF 6
ENDMDL
MODEL 18
REMARK VINA RESULT:    -7.134      3.249      6.112
REMARK INTER + INTRA:         -10.508
REMARK INTER:                  -9.869
REMARK INTRA:                  -0.639
REMARK UNBOUND:                -0.871
REMARK SMILES COCCNc1nc(Nc2ccc(Br)cc2C)c2cnn(C)c2n1
REMARK SMILES IDX 5 1 4 3 3 4 2 5 1 6 6 7 7 8 24 9 8 10 23 11 18 12 21 13
REMARK SMILES IDX 19 14 20 15 22 16 9 17 10 19 11 20 16 21 12 22 15 23 13 24
REMARK SMILES IDX 17 25 14 26
REMARK H PARENT 5 2 9 18
ROOT
ATOM      1  N   UNL     1       1.861  42.508  52.181  1.00  0.00    -0.352 N 
ATOM      2  H   UNL     1       1.503  41.604  52.476  1.00  0.00     0.163 HD
ENDROOT
BRANCH   1   3
ATOM      3  C   UNL     1       3.256  42.504  51.762  1.00  0.00     0.144 C 
BRANCH   3   4
ATOM      4  C   UNL     1       3.434  41.634  50.514  1.00  0.00     0.181 C 
BRANCH   4   5
ATOM      5  O   UNL     1       4.636  40.871  50.634  1.00  0.00    -0.383 OA
ATOM      6  C   UNL     1       5.744  41.547  50.054  1.00  0.00     0.194 C 
ENDBRANCH   4   5
ENDBRANCH   3   4
ENDBRANCH   1   3
BRANCH   1   7
ATOM      7  C   UNL     1       1.595  43.353  53.255  1.00  0.00     0.226 A 
ATOM      8  N   UNL     1       2.632  44.130  53.615  1.00  0.00    -0.195 NA
ATOM      9  N   UNL     1       0.388  43.343  53.833  1.00  0.00    -0.193 NA
ATOM     10  C   UNL     1       2.525  45.001  54.654  1.00  0.00     0.147 A 
ATOM     11  C   UNL     1       0.295  44.209  54.851  1.00  0.00     0.165 A 
ATOM     12  C   UNL     1       1.288  45.053  55.308  1.00  0.00     0.082 A 
ATOM     13  N   UNL     1      -0.795  44.442  55.644  1.00  0.00    -0.250 N 
ATOM     14  C   UNL     1       0.688  45.750  56.377  1.00  0.00     0.149 A 
ATOM     15  N   UNL     1      -0.583  45.389  56.588  1.00  0.00    -0.179 NA
ATOM     16  C   UNL     1      -2.081  43.798  55.560  1.00  0.00     0.176 C 
BRANCH  10  17
ATOM     17  N   UNL     1       3.587  45.839  55.028  1.00  0.00    -0.339 N 
ATOM     18  H   UNL     1       3.502  46.204  55.965  1.00  0.00     0.168 HD
BRANCH  17  19
ATOM     19  C   UNL     1       4.801  46.167  54.391  1.00  0.00     0.043 A 
ATOM     20  C   UNL     1       6.033  45.652  54.821  1.00  0.00     0.027 A 
ATOM     21  C   UNL     1       4.791  46.990  53.238  1.00  0.00    -0.026 A 
ATOM     22  C   UNL     1       7.229  45.957  54.161  1.00  0.00     0.018 A 
ATOM     23  C   UNL     1       5.999  47.296  52.581  1.00  0.00     0.021 A 
ATOM     24  C   UNL     1       7.205  46.779  53.044  1.00  0.00     0.018 A 
ATOM     25  C   UNL     1       3.513  47.558  52.681  1.00  0.00     0.046 C 
ATOM     26  Br  UNL     1       8.815  47.197  52.148  1.00  0.00    -0.051 Br
ENDBRANCH  17  19
ENDBRANCH  10  17
ENDBRANCH   1   7
TORSDOF 6
ENDMDL
MODEL 19
REMARK VINA RESULT:    -7.093      3.372      6.069
REMARK INTER + INTRA:         -10.452
REMARK INTER:                  -9.590
REMARK INTRA:                  -0.862
REMARK UNBOUND:                -0.871
REMARK SMILES COCCNc1nc(Nc2ccc(Br)cc2C)c2cnn(C)c2n1
REMARK SMILES IDX 5 1 4 3 3 4 2 5 1 6 6 7 7 8 24 9 8 10 23 11 18 12 21 13
REMARK SMILES IDX 19 14 20 15 22 16 9 17 10 19 11 20 16 21 12 22 15 23 13 24
REMARK SMILES IDX 17 25 14 26
REMARK H PARENT 5 2 9 18
ROOT
ATOM      1  N   UNL     1      -0.178  44.025  50.834  1.00  0.00    -0.352 N 
ATOM      2  H   UNL     1       0.255  44.718  50.230  1.00  0.00     0.163 HD
ENDROOT
BRANCH   1   3
ATOM      3  C   UNL     1      -1.634  44.074  50.873  1.00  0.00     0.144 C 
BRANCH   3   4
ATOM      4  C   UNL     1      -2.212  42.657  50.922  1.00  0.00     0.181 C 
BRANCH   4   5
ATOM      5  O   UNL     1      -2.720  42.395  52.231  1.00  0.00    -0.383 OA
ATOM      6  C   UNL     1      -3.696  43.356  52.615  1.00  0.00     0.194 C 
ENDBRANCH   4   5
ENDBRANCH   3   4
ENDBRANCH   1   3
BRANCH   1   7
ATOM      7  C   UNL     1       0.428  44.219  52.072  1.00  0.00     0.226 A 
ATOM      8  N   UNL     1       1.744  43.943  52.091  1.00  0.00    -0.195 NA
ATOM      9  N   UNL     1      -0.296  44.647  53.114  1.00  0.00    -0.193 NA
ATOM     10  C   UNL     1       2.470  44.078  53.233  1.00  0.00     0.147 A 
ATOM     11  C   UNL     1       0.433  44.780  54.230  1.00  0.00     0.165 A 
ATOM     12  C   UNL     1       1.783  44.527  54.367  1.00  0.00     0.082 A 
ATOM     13  N   UNL     1      -0.002  45.195  55.459  1.00  0.00    -0.250 N 
ATOM     14  C   UNL     1       2.057  44.825  55.718  1.00  0.00     0.149 A 
ATOM     15  N   UNL     1       0.978  45.237  56.392  1.00  0.00    -0.179 NA
ATOM     16  C   UNL     1      -1.345  45.572  55.821  1.00  0.00     0.176 C 
BRANCH  10  17
ATOM     17  N   UNL     1       3.850  43.820  53.266  1.00  0.00    -0.339 N 
ATOM     18  H   UNL     1       4.077  42.874  53.533  1.00  0.00     0.168 HD
BRANCH  17  19
ATOM     19  C   UNL     1       4.965  44.594  52.883  1.00  0.00     0.043 A 
ATOM     20  C   UNL     1       5.228  44.910  51.542  1.00  0.00     0.027 A 
ATOM     21  C   UNL     1       5.822  45.133  53.874  1.00  0.00    -0.026 A 
ATOM     22  C   UNL     1       6.319  45.707  51.175  1.00  0.00     0.018 A 
ATOM     23  C   UNL     1       6.919  45.931  53.497  1.00  0.00     0.021 A 
ATOM     24  C   UNL     1       7.160  46.212  52.155  1.00  0.00     0.018 A 
ATOM     25  C   UNL     1       5.596  44.878  55.340  1.00  0.00     0.046 C 
ATOM     26  Br  UNL     1       8.635  47.288  51.668  1.00  0.00    -0.051 Br
ENDBRANCH  17  19
ENDBRANCH  10  17
ENDBRANCH   1   7
TORSDOF 6
ENDMDL
MODEL 20
REMARK VINA RESULT:    -7.090      3.392      6.199
REMARK INTER + INTRA:         -10.448
REMARK INTER:                  -9.866
REMARK INTRA:                  -0.582
REMARK UNBOUND:                -0.871
REMARK SMILES COCCNc1nc(Nc2ccc(Br)cc2C)c2cnn(C)c2n1
REMARK SMILES IDX 5 1 4 3 3 4 2 5 1 6 6 7 7 8 24 9 8 10 23 11 18 12 21 13
REMARK SMILES IDX 19 14 20 15 22 16 9 17 10 19 11 20 16 21 12 22 15 23 13 24
REMARK SMILES IDX 17 25 14 26
REMARK H PARENT 5 2 9 18
ROOT
ATOM      1  N   UNL     1       8.224  46.420  51.003  1.00  0.00    -0.352 N 
ATOM      2  H   UNL     1       8.911  45.747  50.675  1.00  0.00     0.163 HD
ENDROOT
BRANCH   1   3
ATOM      3  C   UNL     1       8.604  47.140  52.211  1.00  0.00     0.144 C 
BRANCH   3   4
ATOM      4  C   UNL     1       9.920  46.589  52.766  1.00  0.00     0.181 C 
BRANCH   4   5
ATOM      5  O   UNL     1       9.972  46.813  54.176  1.00  0.00    -0.383 OA
ATOM      6  C   UNL     1       9.145  47.903  54.563  1.00  0.00     0.194 C 
ENDBRANCH   4   5
ENDBRANCH   3   4
ENDBRANCH   1   3
BRANCH   1   7
ATOM      7  C   UNL     1       7.051  45.680  51.131  1.00  0.00     0.226 A 
ATOM      8  N   UNL     1       6.050  46.336  51.742  1.00  0.00    -0.195 NA
ATOM      9  N   UNL     1       6.994  44.428  50.661  1.00  0.00    -0.193 NA
ATOM     10  C   UNL     1       4.844  45.739  51.946  1.00  0.00     0.147 A 
ATOM     11  C   UNL     1       5.800  43.854  50.864  1.00  0.00     0.165 A 
ATOM     12  C   UNL     1       4.704  44.427  51.477  1.00  0.00     0.082 A 
ATOM     13  N   UNL     1       5.417  42.590  50.505  1.00  0.00    -0.250 N 
ATOM     14  C   UNL     1       3.716  43.422  51.432  1.00  0.00     0.149 A 
ATOM     15  N   UNL     1       4.137  42.300  50.839  1.00  0.00    -0.179 NA
ATOM     16  C   UNL     1       6.220  41.597  49.838  1.00  0.00     0.176 C 
BRANCH  10  17
ATOM     17  N   UNL     1       3.778  46.416  52.558  1.00  0.00    -0.339 N 
ATOM     18  H   UNL     1       3.789  47.412  52.398  1.00  0.00     0.168 HD
BRANCH  17  19
ATOM     19  C   UNL     1       2.638  45.955  53.248  1.00  0.00     0.043 A 
ATOM     20  C   UNL     1       1.386  45.837  52.626  1.00  0.00     0.027 A 
ATOM     21  C   UNL     1       2.753  45.531  54.595  1.00  0.00    -0.026 A 
ATOM     22  C   UNL     1       0.269  45.347  53.310  1.00  0.00     0.018 A 
ATOM     23  C   UNL     1       1.623  45.041  55.278  1.00  0.00     0.021 A 
ATOM     24  C   UNL     1       0.393  44.953  54.634  1.00  0.00     0.018 A 
ATOM     25  C   UNL     1       4.065  45.585  55.333  1.00  0.00     0.046 C 
ATOM     26  Br  UNL     1      -1.112  44.290  55.565  1.00  0.00    -0.051 Br
ENDBRANCH  17  19
ENDBRANCH  10  17
ENDBRANCH   1   7
TORSDOF 6
ENDMDL
