MODEL 1
REMARK VINA RESULT:    -8.978      0.000      0.000
REMARK INTER + INTRA:         -13.342
REMARK INTER:                 -12.127
REMARK INTRA:                  -1.216
REMARK UNBOUND:                -1.216
REMARK SMILES Cc1ccccc1Nc1nc(NCC[NH+](C)C)nc2c1cnn2C
REMARK SMILES IDX 12 1 13 3 14 4 15 5 16 6 17 7 11 9 10 10 18 11 9 12 19 13
REMARK SMILES IDX 20 14 23 15 21 16 22 17 24 18 8 19 7 21 6 22 2 23 5 24 3 25
REMARK SMILES IDX 4 26 1 27
REMARK H PARENT 12 2 15 8 8 20
ROOT
ATOM      1  N   UNL     1       4.852  47.005  54.954  1.00  0.00    -0.348 N 
ATOM      2  H   UNL     1       4.266  47.533  54.297  1.00  0.00     0.163 HD
ENDROOT
BRANCH   1   3
ATOM      3  C   UNL     1       4.217  45.759  55.406  1.00  0.00     0.177 C 
BRANCH   3   4
ATOM      4  C   UNL     1       2.743  45.708  54.946  1.00  0.00     0.283 C 
BRANCH   4   5
ATOM      5  N   UNL     1       2.700  45.329  53.470  1.00  0.00    -0.338 N 
ATOM      6  C   UNL     1       2.172  46.419  52.597  1.00  0.00     0.332 C 
ATOM      7  C   UNL     1       2.054  44.006  53.208  1.00  0.00     0.332 C 
ATOM      8  H   UNL     1       3.707  45.218  53.241  1.00  0.00     0.347 HD
ENDBRANCH   4   5
ENDBRANCH   3   4
ENDBRANCH   1   3
BRANCH   1   9
ATOM      9  C   UNL     1       5.997  46.787  54.178  1.00  0.00     0.226 A 
ATOM     10  N   UNL     1       5.742  46.315  52.955  1.00  0.00    -0.195 NA
ATOM     11  N   UNL     1       7.201  47.087  54.685  1.00  0.00    -0.193 NA
ATOM     12  C   UNL     1       6.754  46.072  52.079  1.00  0.00     0.147 A 
ATOM     13  C   UNL     1       8.192  46.839  53.809  1.00  0.00     0.165 A 
ATOM     14  C   UNL     1       8.052  46.348  52.522  1.00  0.00     0.082 A 
ATOM     15  N   UNL     1       9.538  47.014  53.995  1.00  0.00    -0.250 N 
ATOM     16  C   UNL     1       9.368  46.281  52.023  1.00  0.00     0.149 A 
ATOM     17  N   UNL     1      10.278  46.680  52.917  1.00  0.00    -0.179 NA
ATOM     18  C   UNL     1      10.204  47.492  55.180  1.00  0.00     0.176 C 
BRANCH  12  19
ATOM     19  N   UNL     1       6.499  45.551  50.799  1.00  0.00    -0.339 N 
ATOM     20  H   UNL     1       7.064  45.994  50.084  1.00  0.00     0.168 HD
BRANCH  19  21
ATOM     21  C   UNL     1       6.196  44.205  50.493  1.00  0.00     0.043 A 
ATOM     22  C   UNL     1       5.026  43.647  51.039  1.00  0.00     0.026 A 
ATOM     23  C   UNL     1       6.977  43.425  49.617  1.00  0.00    -0.028 A 
ATOM     24  C   UNL     1       4.633  42.346  50.724  1.00  0.00     0.002 A 
ATOM     25  C   UNL     1       6.560  42.121  49.296  1.00  0.00     0.005 A 
ATOM     26  C   UNL     1       5.398  41.585  49.849  1.00  0.00     0.000 A 
ATOM     27  C   UNL     1       8.257  43.928  49.008  1.00  0.00     0.046 C 
ENDBRANCH  19  21
ENDBRANCH  12  19
ENDBRANCH   1   9
TORSDOF 6
ENDMDL
MODEL 2
REMARK VINA RESULT:    -8.474      1.846      5.319
REMARK INTER + INTRA:         -12.661
REMARK INTER:                 -11.827
REMARK INTRA:                  -0.834
REMARK UNBOUND:                -1.216
REMARK SMILES Cc1ccccc1Nc1nc(NCC[NH+](C)C)nc2c1cnn2C
REMARK SMILES IDX 12 1 13 3 14 4 15 5 16 6 17 7 11 9 10 10 18 11 9 12 19 13
REMARK SMILES IDX 20 14 23 15 21 16 22 17 24 18 8 19 7 21 6 22 2 23 5 24 3 25
REMARK SMILES IDX 4 26 1 27
REMARK H PARENT 12 2 15 8 8 20
ROOT
ATOM      1  N   UNL     1       2.904  43.293  52.940  1.00  0.00    -0.348 N 
ATOM      2  H   UNL     1       3.375  42.805  53.711  1.00  0.00     0.163 HD
ENDROOT
BRANCH   1   3
ATOM      3  C   UNL     1       2.194  44.501  53.381  1.00  0.00     0.177 C 
BRANCH   3   4
ATOM      4  C   UNL     1       1.259  44.174  54.566  1.00  0.00     0.283 C 
BRANCH   4   5
ATOM      5  N   UNL     1       1.872  44.731  55.846  1.00  0.00    -0.338 N 
ATOM      6  C   UNL     1       0.856  45.248  56.810  1.00  0.00     0.332 C 
ATOM      7  C   UNL     1       2.993  45.691  55.608  1.00  0.00     0.332 C 
ATOM      8  H   UNL     1       2.294  43.883  56.276  1.00  0.00     0.347 HD
ENDBRANCH   4   5
ENDBRANCH   3   4
ENDBRANCH   1   3
BRANCH   1   9
ATOM      9  C   UNL     1       3.989  43.570  52.098  1.00  0.00     0.226 A 
ATOM     10  N   UNL     1       4.578  44.743  52.339  1.00  0.00    -0.195 NA
ATOM     11  N   UNL     1       4.355  42.663  51.181  1.00  0.00    -0.193 NA
ATOM     12  C   UNL     1       5.658  45.141  51.613  1.00  0.00     0.147 A 
ATOM     13  C   UNL     1       5.422  43.071  50.469  1.00  0.00     0.165 A 
ATOM     14  C   UNL     1       6.111  44.262  50.624  1.00  0.00     0.082 A 
ATOM     15  N   UNL     1       6.051  42.408  49.448  1.00  0.00    -0.250 N 
ATOM     16  C   UNL     1       7.138  44.205  49.661  1.00  0.00     0.149 A 
ATOM     17  N   UNL     1       7.105  43.081  48.938  1.00  0.00    -0.179 NA
ATOM     18  C   UNL     1       5.706  41.125  48.892  1.00  0.00     0.176 C 
BRANCH  12  19
ATOM     19  N   UNL     1       6.269  46.386  51.841  1.00  0.00    -0.339 N 
ATOM     20  H   UNL     1       5.593  47.119  52.016  1.00  0.00     0.168 HD
BRANCH  19  21
ATOM     21  C   UNL     1       7.490  46.601  52.520  1.00  0.00     0.043 A 
ATOM     22  C   UNL     1       8.678  46.594  51.768  1.00  0.00     0.026 A 
ATOM     23  C   UNL     1       7.559  46.887  53.898  1.00  0.00    -0.028 A 
ATOM     24  C   UNL     1       9.910  46.868  52.363  1.00  0.00     0.002 A 
ATOM     25  C   UNL     1       8.805  47.177  54.481  1.00  0.00     0.005 A 
ATOM     26  C   UNL     1       9.973  47.163  53.719  1.00  0.00     0.000 A 
ATOM     27  C   UNL     1       6.345  46.890  54.786  1.00  0.00     0.046 C 
ENDBRANCH  19  21
ENDBRANCH  12  19
ENDBRANCH   1   9
TORSDOF 6
ENDMDL
MODEL 3
REMARK VINA RESULT:    -8.359      0.905      1.839
REMARK INTER + INTRA:         -12.506
REMARK INTER:                 -11.680
REMARK INTRA:                  -0.826
REMARK UNBOUND:                -1.216
REMARK SMILES Cc1ccccc1Nc1nc(NCC[NH+](C)C)nc2c1cnn2C
REMARK SMILES IDX 12 1 13 3 14 4 15 5 16 6 17 7 11 9 10 10 18 11 9 12 19 13
REMARK SMILES IDX 20 14 23 15 21 16 22 17 24 18 8 19 7 21 6 22 2 23 5 24 3 25
REMARK SMILES IDX 4 26 1 27
REMARK H PARENT 12 2 15 8 8 20
ROOT
ATOM      1  N   UNL     1       4.683  47.196  54.978  1.00  0.00    -0.348 N 
ATOM      2  H   UNL     1       4.542  48.198  54.808  1.00  0.00     0.163 HD
ENDROOT
BRANCH   1   3
ATOM      3  C   UNL     1       3.508  46.388  54.621  1.00  0.00     0.177 C 
BRANCH   3   4
ATOM      4  C   UNL     1       3.509  45.059  55.408  1.00  0.00     0.283 C 
BRANCH   4   5
ATOM      5  N   UNL     1       2.070  44.595  55.596  1.00  0.00    -0.338 N 
ATOM      6  C   UNL     1       1.402  44.211  54.317  1.00  0.00     0.332 C 
ATOM      7  C   UNL     1       1.245  45.520  56.432  1.00  0.00     0.332 C 
ATOM      8  H   UNL     1       2.189  43.722  56.149  1.00  0.00     0.347 HD
ENDBRANCH   4   5
ENDBRANCH   3   4
ENDBRANCH   1   3
BRANCH   1   9
ATOM      9  C   UNL     1       5.792  46.939  54.163  1.00  0.00     0.226 A 
ATOM     10  N   UNL     1       5.479  46.479  52.949  1.00  0.00    -0.195 NA
ATOM     11  N   UNL     1       7.023  47.196  54.629  1.00  0.00    -0.193 NA
ATOM     12  C   UNL     1       6.452  46.203  52.039  1.00  0.00     0.147 A 
ATOM     13  C   UNL     1       7.974  46.916  53.719  1.00  0.00     0.165 A 
ATOM     14  C   UNL     1       7.773  46.432  52.438  1.00  0.00     0.082 A 
ATOM     15  N   UNL     1       9.331  47.043  53.860  1.00  0.00    -0.250 N 
ATOM     16  C   UNL     1       9.068  46.320  51.894  1.00  0.00     0.149 A 
ATOM     17  N   UNL     1      10.022  46.686  52.756  1.00  0.00    -0.179 NA
ATOM     18  C   UNL     1      10.053  47.495  55.022  1.00  0.00     0.176 C 
BRANCH  12  19
ATOM     19  N   UNL     1       6.135  45.693  50.768  1.00  0.00    -0.339 N 
ATOM     20  H   UNL     1       6.444  46.305  50.021  1.00  0.00     0.168 HD
BRANCH  19  21
ATOM     21  C   UNL     1       6.144  44.331  50.391  1.00  0.00     0.043 A 
ATOM     22  C   UNL     1       7.262  43.842  49.692  1.00  0.00     0.026 A 
ATOM     23  C   UNL     1       5.117  43.434  50.745  1.00  0.00    -0.028 A 
ATOM     24  C   UNL     1       7.366  42.494  49.350  1.00  0.00     0.002 A 
ATOM     25  C   UNL     1       5.243  42.074  50.408  1.00  0.00     0.005 A 
ATOM     26  C   UNL     1       6.358  41.609  49.711  1.00  0.00     0.000 A 
ATOM     27  C   UNL     1       3.873  43.871  51.468  1.00  0.00     0.046 C 
ENDBRANCH  19  21
ENDBRANCH  12  19
ENDBRANCH   1   9
TORSDOF 6
ENDMDL
MODEL 4
REMARK VINA RESULT:    -8.318      1.738      5.038
REMARK INTER + INTRA:         -12.451
REMARK INTER:                 -11.516
REMARK INTRA:                  -0.935
REMARK UNBOUND:                -1.216
REMARK SMILES Cc1ccccc1Nc1nc(NCC[NH+](C)C)nc2c1cnn2C
REMARK SMILES IDX 12 1 13 3 14 4 15 5 16 6 17 7 11 9 10 10 18 11 9 12 19 13
REMARK SMILES IDX 20 14 23 15 21 16 22 17 24 18 8 19 7 21 6 22 2 23 5 24 3 25
REMARK SMILES IDX 4 26 1 27
REMARK H PARENT 12 2 15 8 8 20
ROOT
ATOM      1  N   UNL     1       3.901  43.838  53.387  1.00  0.00    -0.348 N 
ATOM      2  H   UNL     1       4.334  43.086  53.936  1.00  0.00     0.163 HD
ENDROOT
BRANCH   1   3
ATOM      3  C   UNL     1       3.760  45.088  54.147  1.00  0.00     0.177 C 
BRANCH   3   4
ATOM      4  C   UNL     1       2.268  45.393  54.409  1.00  0.00     0.283 C 
BRANCH   4   5
ATOM      5  N   UNL     1       1.716  46.197  53.237  1.00  0.00    -0.338 N 
ATOM      6  C   UNL     1       0.922  45.371  52.279  1.00  0.00     0.332 C 
ATOM      7  C   UNL     1       2.736  47.056  52.563  1.00  0.00     0.332 C 
ATOM      8  H   UNL     1       1.049  46.842  53.706  1.00  0.00     0.347 HD
ENDBRANCH   4   5
ENDBRANCH   3   4
ENDBRANCH   1   3
BRANCH   1   9
ATOM      9  C   UNL     1       4.801  43.943  52.320  1.00  0.00     0.226 A 
ATOM     10  N   UNL     1       5.573  45.032  52.366  1.00  0.00    -0.195 NA
ATOM     11  N   UNL     1       4.841  42.971  51.397  1.00  0.00    -0.193 NA
ATOM     12  C   UNL     1       6.510  45.260  51.406  1.00  0.00     0.147 A 
ATOM     13  C   UNL     1       5.770  43.212  50.453  1.00  0.00     0.165 A 
ATOM     14  C   UNL     1       6.621  44.302  50.393  1.00  0.00     0.082 A 
ATOM     15  N   UNL     1       6.072  42.444  49.360  1.00  0.00    -0.250 N 
ATOM     16  C   UNL     1       7.398  44.082  49.238  1.00  0.00     0.149 A 
ATOM     17  N   UNL     1       7.066  42.954  48.601  1.00  0.00    -0.179 NA
ATOM     18  C   UNL     1       5.454  41.205  48.961  1.00  0.00     0.176 C 
BRANCH  12  19
ATOM     19  N   UNL     1       7.309  46.416  51.430  1.00  0.00    -0.339 N 
ATOM     20  H   UNL     1       6.848  47.211  51.004  1.00  0.00     0.168 HD
BRANCH  19  21
ATOM     21  C   UNL     1       8.195  46.794  52.464  1.00  0.00     0.043 A 
ATOM     22  C   UNL     1       7.677  47.522  53.550  1.00  0.00     0.026 A 
ATOM     23  C   UNL     1       9.552  46.415  52.486  1.00  0.00    -0.028 A 
ATOM     24  C   UNL     1       8.481  47.868  54.636  1.00  0.00     0.002 A 
ATOM     25  C   UNL     1      10.347  46.756  53.595  1.00  0.00     0.005 A 
ATOM     26  C   UNL     1       9.815  47.481  54.660  1.00  0.00     0.000 A 
ATOM     27  C   UNL     1      10.200  45.659  51.358  1.00  0.00     0.046 C 
ENDBRANCH  19  21
ENDBRANCH  12  19
ENDBRANCH   1   9
TORSDOF 6
ENDMDL
MODEL 5
REMARK VINA RESULT:    -8.289      1.635      5.095
REMARK INTER + INTRA:         -12.412
REMARK INTER:                 -11.335
REMARK INTRA:                  -1.077
REMARK UNBOUND:                -1.216
REMARK SMILES Cc1ccccc1Nc1nc(NCC[NH+](C)C)nc2c1cnn2C
REMARK SMILES IDX 12 1 13 3 14 4 15 5 16 6 17 7 11 9 10 10 18 11 9 12 19 13
REMARK SMILES IDX 20 14 23 15 21 16 22 17 24 18 8 19 7 21 6 22 2 23 5 24 3 25
REMARK SMILES IDX 4 26 1 27
REMARK H PARENT 12 2 15 8 8 20
ROOT
ATOM      1  N   UNL     1       3.507  45.391  51.935  1.00  0.00    -0.348 N 
ATOM      2  H   UNL     1       2.852  45.053  51.220  1.00  0.00     0.163 HD
ENDROOT
BRANCH   1   3
ATOM      3  C   UNL     1       3.357  44.694  53.220  1.00  0.00     0.177 C 
BRANCH   3   4
ATOM      4  C   UNL     1       2.855  45.671  54.306  1.00  0.00     0.283 C 
BRANCH   4   5
ATOM      5  N   UNL     1       4.048  46.162  55.118  1.00  0.00    -0.338 N 
ATOM      6  C   UNL     1       4.588  47.468  54.639  1.00  0.00     0.332 C 
ATOM      7  C   UNL     1       5.108  45.126  55.314  1.00  0.00     0.332 C 
ATOM      8  H   UNL     1       3.624  46.333  56.052  1.00  0.00     0.347 HD
ENDBRANCH   4   5
ENDBRANCH   3   4
ENDBRANCH   1   3
BRANCH   1   9
ATOM      9  C   UNL     1       4.736  45.136  51.313  1.00  0.00     0.226 A 
ATOM     10  N   UNL     1       5.663  46.071  51.536  1.00  0.00    -0.195 NA
ATOM     11  N   UNL     1       4.891  44.008  50.605  1.00  0.00    -0.193 NA
ATOM     12  C   UNL     1       6.912  45.950  51.013  1.00  0.00     0.147 A 
ATOM     13  C   UNL     1       6.131  43.903  50.091  1.00  0.00     0.165 A 
ATOM     14  C   UNL     1       7.168  44.806  50.249  1.00  0.00     0.082 A 
ATOM     15  N   UNL     1       6.631  42.896  49.309  1.00  0.00    -0.250 N 
ATOM     16  C   UNL     1       8.244  44.238  49.537  1.00  0.00     0.149 A 
ATOM     17  N   UNL     1       7.922  43.077  48.958  1.00  0.00    -0.179 NA
ATOM     18  C   UNL     1       5.939  41.720  48.844  1.00  0.00     0.176 C 
BRANCH  12  19
ATOM     19  N   UNL     1       7.887  46.941  51.220  1.00  0.00    -0.339 N 
ATOM     20  H   UNL     1       7.673  47.799  50.724  1.00  0.00     0.168 HD
BRANCH  19  21
ATOM     21  C   UNL     1       8.599  47.171  52.418  1.00  0.00     0.043 A 
ATOM     22  C   UNL     1       7.977  47.930  53.425  1.00  0.00     0.026 A 
ATOM     23  C   UNL     1       9.870  46.618  52.671  1.00  0.00    -0.028 A 
ATOM     24  C   UNL     1       8.596  48.138  54.659  1.00  0.00     0.002 A 
ATOM     25  C   UNL     1      10.475  46.821  53.924  1.00  0.00     0.005 A 
ATOM     26  C   UNL     1       9.843  47.579  54.909  1.00  0.00     0.000 A 
ATOM     27  C   UNL     1      10.623  45.816  51.645  1.00  0.00     0.046 C 
ENDBRANCH  19  21
ENDBRANCH  12  19
ENDBRANCH   1   9
TORSDOF 6
ENDMDL
MODEL 6
REMARK VINA RESULT:    -8.233      1.804      5.294
REMARK INTER + INTRA:         -12.336
REMARK INTER:                 -11.305
REMARK INTRA:                  -1.031
REMARK UNBOUND:                -1.216
REMARK SMILES Cc1ccccc1Nc1nc(NCC[NH+](C)C)nc2c1cnn2C
REMARK SMILES IDX 12 1 13 3 14 4 15 5 16 6 17 7 11 9 10 10 18 11 9 12 19 13
REMARK SMILES IDX 20 14 23 15 21 16 22 17 24 18 8 19 7 21 6 22 2 23 5 24 3 25
REMARK SMILES IDX 4 26 1 27
REMARK H PARENT 12 2 15 8 8 20
ROOT
ATOM      1  N   UNL     1       3.235  42.874  53.075  1.00  0.00    -0.348 N 
ATOM      2  H   UNL     1       3.607  43.283  53.941  1.00  0.00     0.163 HD
ENDROOT
BRANCH   1   3
ATOM      3  C   UNL     1       1.890  43.366  52.746  1.00  0.00     0.177 C 
BRANCH   3   4
ATOM      4  C   UNL     1       1.183  43.891  54.016  1.00  0.00     0.283 C 
BRANCH   4   5
ATOM      5  N   UNL     1       1.475  45.379  54.163  1.00  0.00    -0.338 N 
ATOM      6  C   UNL     1       1.634  46.081  52.855  1.00  0.00     0.332 C 
ATOM      7  C   UNL     1       2.576  45.683  55.127  1.00  0.00     0.332 C 
ATOM      8  H   UNL     1       0.598  45.735  54.594  1.00  0.00     0.347 HD
ENDBRANCH   4   5
ENDBRANCH   3   4
ENDBRANCH   1   3
BRANCH   1   9
ATOM      9  C   UNL     1       4.207  43.275  52.150  1.00  0.00     0.226 A 
ATOM     10  N   UNL     1       4.742  44.471  52.408  1.00  0.00    -0.195 NA
ATOM     11  N   UNL     1       4.536  42.450  51.145  1.00  0.00    -0.193 NA
ATOM     12  C   UNL     1       5.714  44.985  51.607  1.00  0.00     0.147 A 
ATOM     13  C   UNL     1       5.496  42.973  50.359  1.00  0.00     0.165 A 
ATOM     14  C   UNL     1       6.119  44.198  50.523  1.00  0.00     0.082 A 
ATOM     15  N   UNL     1       6.058  42.416  49.241  1.00  0.00    -0.250 N 
ATOM     16  C   UNL     1       7.044  44.270  49.462  1.00  0.00     0.149 A 
ATOM     17  N   UNL     1       7.009  43.190  48.675  1.00  0.00    -0.179 NA
ATOM     18  C   UNL     1       5.740  41.146  48.640  1.00  0.00     0.176 C 
BRANCH  12  19
ATOM     19  N   UNL     1       6.265  46.254  51.854  1.00  0.00    -0.339 N 
ATOM     20  H   UNL     1       5.554  46.950  52.047  1.00  0.00     0.168 HD
BRANCH  19  21
ATOM     21  C   UNL     1       7.479  46.518  52.526  1.00  0.00     0.043 A 
ATOM     22  C   UNL     1       8.667  46.525  51.774  1.00  0.00     0.026 A 
ATOM     23  C   UNL     1       7.541  46.838  53.897  1.00  0.00    -0.028 A 
ATOM     24  C   UNL     1       9.892  46.844  52.361  1.00  0.00     0.002 A 
ATOM     25  C   UNL     1       8.779  47.174  54.472  1.00  0.00     0.005 A 
ATOM     26  C   UNL     1       9.947  47.173  53.710  1.00  0.00     0.000 A 
ATOM     27  C   UNL     1       6.327  46.829  54.786  1.00  0.00     0.046 C 
ENDBRANCH  19  21
ENDBRANCH  12  19
ENDBRANCH   1   9
TORSDOF 6
ENDMDL
MODEL 7
REMARK VINA RESULT:    -8.086      1.897      5.288
REMARK INTER + INTRA:         -12.138
REMARK INTER:                 -11.340
REMARK INTRA:                  -0.798
REMARK UNBOUND:                -1.216
REMARK SMILES Cc1ccccc1Nc1nc(NCC[NH+](C)C)nc2c1cnn2C
REMARK SMILES IDX 12 1 13 3 14 4 15 5 16 6 17 7 11 9 10 10 18 11 9 12 19 13
REMARK SMILES IDX 20 14 23 15 21 16 22 17 24 18 8 19 7 21 6 22 2 23 5 24 3 25
REMARK SMILES IDX 4 26 1 27
REMARK H PARENT 12 2 15 8 8 20
ROOT
ATOM      1  N   UNL     1       2.758  43.809  53.447  1.00  0.00    -0.348 N 
ATOM      2  H   UNL     1       3.251  43.369  54.233  1.00  0.00     0.163 HD
ENDROOT
BRANCH   1   3
ATOM      3  C   UNL     1       2.181  45.115  53.796  1.00  0.00     0.177 C 
BRANCH   3   4
ATOM      4  C   UNL     1       0.790  45.280  53.144  1.00  0.00     0.283 C 
BRANCH   4   5
ATOM      5  N   UNL     1      -0.280  45.123  54.219  1.00  0.00    -0.338 N 
ATOM      6  C   UNL     1       0.250  45.284  55.606  1.00  0.00     0.332 C 
ATOM      7  C   UNL     1      -1.122  43.899  54.053  1.00  0.00     0.332 C 
ATOM      8  H   UNL     1      -0.900  45.937  54.034  1.00  0.00     0.347 HD
ENDBRANCH   4   5
ENDBRANCH   3   4
ENDBRANCH   1   3
BRANCH   1   9
ATOM      9  C   UNL     1       3.788  43.899  52.502  1.00  0.00     0.226 A 
ATOM     10  N   UNL     1       4.501  45.026  52.582  1.00  0.00    -0.195 NA
ATOM     11  N   UNL     1       3.992  42.881  51.654  1.00  0.00    -0.193 NA
ATOM     12  C   UNL     1       5.547  45.247  51.741  1.00  0.00     0.147 A 
ATOM     13  C   UNL     1       5.028  43.115  50.827  1.00  0.00     0.165 A 
ATOM     14  C   UNL     1       5.833  44.240  50.811  1.00  0.00     0.082 A 
ATOM     15  N   UNL     1       5.505  42.303  49.832  1.00  0.00    -0.250 N 
ATOM     16  C   UNL     1       6.766  43.995  49.784  1.00  0.00     0.149 A 
ATOM     17  N   UNL     1       6.569  42.818  49.181  1.00  0.00    -0.179 NA
ATOM     18  C   UNL     1       4.998  41.014  49.433  1.00  0.00     0.176 C 
BRANCH  12  19
ATOM     19  N   UNL     1       6.287  46.440  51.798  1.00  0.00    -0.339 N 
ATOM     20  H   UNL     1       5.693  47.257  51.871  1.00  0.00     0.168 HD
BRANCH  19  21
ATOM     21  C   UNL     1       7.533  46.616  52.442  1.00  0.00     0.043 A 
ATOM     22  C   UNL     1       8.699  46.563  51.657  1.00  0.00     0.026 A 
ATOM     23  C   UNL     1       7.650  46.908  53.815  1.00  0.00    -0.028 A 
ATOM     24  C   UNL     1       9.956  46.797  52.216  1.00  0.00     0.002 A 
ATOM     25  C   UNL     1       8.922  47.157  54.362  1.00  0.00     0.005 A 
ATOM     26  C   UNL     1      10.067  47.097  53.568  1.00  0.00     0.000 A 
ATOM     27  C   UNL     1       6.462  46.959  54.736  1.00  0.00     0.046 C 
ENDBRANCH  19  21
ENDBRANCH  12  19
ENDBRANCH   1   9
TORSDOF 6
ENDMDL
MODEL 8
REMARK VINA RESULT:    -8.062      2.516      6.494
REMARK INTER + INTRA:         -12.106
REMARK INTER:                 -11.316
REMARK INTRA:                  -0.790
REMARK UNBOUND:                -1.216
REMARK SMILES Cc1ccccc1Nc1nc(NCC[NH+](C)C)nc2c1cnn2C
REMARK SMILES IDX 12 1 13 3 14 4 15 5 16 6 17 7 11 9 10 10 18 11 9 12 19 13
REMARK SMILES IDX 20 14 23 15 21 16 22 17 24 18 8 19 7 21 6 22 2 23 5 24 3 25
REMARK SMILES IDX 4 26 1 27
REMARK H PARENT 12 2 15 8 8 20
ROOT
ATOM      1  N   UNL     1       6.324  41.579  49.521  1.00  0.00    -0.348 N 
ATOM      2  H   UNL     1       6.386  40.875  50.266  1.00  0.00     0.163 HD
ENDROOT
BRANCH   1   3
ATOM      3  C   UNL     1       5.410  41.184  48.440  1.00  0.00     0.177 C 
BRANCH   3   4
ATOM      4  C   UNL     1       5.789  41.905  47.126  1.00  0.00     0.283 C 
BRANCH   4   5
ATOM      5  N   UNL     1       5.093  41.207  45.963  1.00  0.00    -0.338 N 
ATOM      6  C   UNL     1       5.047  42.035  44.722  1.00  0.00     0.332 C 
ATOM      7  C   UNL     1       3.768  40.616  46.322  1.00  0.00     0.332 C 
ATOM      8  H   UNL     1       5.731  40.408  45.771  1.00  0.00     0.347 HD
ENDBRANCH   4   5
ENDBRANCH   3   4
ENDBRANCH   1   3
BRANCH   1   9
ATOM      9  C   UNL     1       5.872  42.692  50.242  1.00  0.00     0.226 A 
ATOM     10  N   UNL     1       6.640  43.776  50.106  1.00  0.00    -0.195 NA
ATOM     11  N   UNL     1       4.737  42.598  50.950  1.00  0.00    -0.193 NA
ATOM     12  C   UNL     1       6.317  44.939  50.732  1.00  0.00     0.147 A 
ATOM     13  C   UNL     1       4.432  43.756  51.566  1.00  0.00     0.165 A 
ATOM     14  C   UNL     1       5.150  44.937  51.504  1.00  0.00     0.082 A 
ATOM     15  N   UNL     1       3.359  44.015  52.378  1.00  0.00    -0.250 N 
ATOM     16  C   UNL     1       4.416  45.840  52.299  1.00  0.00     0.149 A 
ATOM     17  N   UNL     1       3.327  45.284  52.838  1.00  0.00    -0.179 NA
ATOM     18  C   UNL     1       2.317  43.101  52.772  1.00  0.00     0.176 C 
BRANCH  12  19
ATOM     19  N   UNL     1       7.133  46.078  50.618  1.00  0.00    -0.339 N 
ATOM     20  H   UNL     1       6.651  46.853  50.177  1.00  0.00     0.168 HD
BRANCH  19  21
ATOM     21  C   UNL     1       8.103  46.504  51.553  1.00  0.00     0.043 A 
ATOM     22  C   UNL     1       7.722  47.453  52.518  1.00  0.00     0.026 A 
ATOM     23  C   UNL     1       9.406  45.971  51.599  1.00  0.00    -0.028 A 
ATOM     24  C   UNL     1       8.610  47.867  53.512  1.00  0.00     0.002 A 
ATOM     25  C   UNL     1      10.285  46.385  52.617  1.00  0.00     0.005 A 
ATOM     26  C   UNL     1       9.890  47.329  53.564  1.00  0.00     0.000 A 
ATOM     27  C   UNL     1       9.910  44.973  50.593  1.00  0.00     0.046 C 
ENDBRANCH  19  21
ENDBRANCH  12  19
ENDBRANCH   1   9
TORSDOF 6
ENDMDL
MODEL 9
REMARK VINA RESULT:    -8.029      1.834      4.998
REMARK INTER + INTRA:         -12.061
REMARK INTER:                 -11.095
REMARK INTRA:                  -0.966
REMARK UNBOUND:                -1.216
REMARK SMILES Cc1ccccc1Nc1nc(NCC[NH+](C)C)nc2c1cnn2C
REMARK SMILES IDX 12 1 13 3 14 4 15 5 16 6 17 7 11 9 10 10 18 11 9 12 19 13
REMARK SMILES IDX 20 14 23 15 21 16 22 17 24 18 8 19 7 21 6 22 2 23 5 24 3 25
REMARK SMILES IDX 4 26 1 27
REMARK H PARENT 12 2 15 8 8 20
ROOT
ATOM      1  N   UNL     1       3.254  44.632  54.517  1.00  0.00    -0.348 N 
ATOM      2  H   UNL     1       3.931  45.004  55.194  1.00  0.00     0.163 HD
ENDROOT
BRANCH   1   3
ATOM      3  C   UNL     1       2.106  45.526  54.310  1.00  0.00     0.177 C 
BRANCH   3   4
ATOM      4  C   UNL     1       0.795  44.825  54.732  1.00  0.00     0.283 C 
BRANCH   4   5
ATOM      5  N   UNL     1       0.155  44.194  53.501  1.00  0.00    -0.338 N 
ATOM      6  C   UNL     1       0.405  42.725  53.395  1.00  0.00     0.332 C 
ATOM      7  C   UNL     1       0.441  44.929  52.231  1.00  0.00     0.332 C 
ATOM      8  H   UNL     1      -0.859  44.316  53.693  1.00  0.00     0.347 HD
ENDBRANCH   4   5
ENDBRANCH   3   4
ENDBRANCH   1   3
BRANCH   1   9
ATOM      9  C   UNL     1       4.059  44.501  53.378  1.00  0.00     0.226 A 
ATOM     10  N   UNL     1       4.909  45.514  53.195  1.00  0.00    -0.195 NA
ATOM     11  N   UNL     1       3.944  43.403  52.617  1.00  0.00    -0.193 NA
ATOM     12  C   UNL     1       5.769  45.517  52.140  1.00  0.00     0.147 A 
ATOM     13  C   UNL     1       4.799  43.422  51.576  1.00  0.00     0.165 A 
ATOM     14  C   UNL     1       5.718  44.414  51.281  1.00  0.00     0.082 A 
ATOM     15  N   UNL     1       4.944  42.477  50.594  1.00  0.00    -0.250 N 
ATOM     16  C   UNL     1       6.369  43.959  50.117  1.00  0.00     0.149 A 
ATOM     17  N   UNL     1       5.899  42.783  49.691  1.00  0.00    -0.179 NA
ATOM     18  C   UNL     1       4.203  41.251  50.442  1.00  0.00     0.176 C 
BRANCH  12  19
ATOM     19  N   UNL     1       6.649  46.591  51.923  1.00  0.00    -0.339 N 
ATOM     20  H   UNL     1       6.161  47.442  51.672  1.00  0.00     0.168 HD
BRANCH  19  21
ATOM     21  C   UNL     1       7.848  46.840  52.628  1.00  0.00     0.043 A 
ATOM     22  C   UNL     1       7.763  47.492  53.872  1.00  0.00     0.026 A 
ATOM     23  C   UNL     1       9.108  46.407  52.173  1.00  0.00    -0.028 A 
ATOM     24  C   UNL     1       8.900  47.708  54.652  1.00  0.00     0.002 A 
ATOM     25  C   UNL     1      10.243  46.617  52.976  1.00  0.00     0.005 A 
ATOM     26  C   UNL     1      10.139  47.267  54.206  1.00  0.00     0.000 A 
ATOM     27  C   UNL     1       9.299  45.727  50.844  1.00  0.00     0.046 C 
ENDBRANCH  19  21
ENDBRANCH  12  19
ENDBRANCH   1   9
TORSDOF 6
ENDMDL
MODEL 10
REMARK VINA RESULT:    -7.956      2.345      6.711
REMARK INTER + INTRA:         -11.963
REMARK INTER:                 -11.164
REMARK INTRA:                  -0.799
REMARK UNBOUND:                -1.216
REMARK SMILES Cc1ccccc1Nc1nc(NCC[NH+](C)C)nc2c1cnn2C
REMARK SMILES IDX 12 1 13 3 14 4 15 5 16 6 17 7 11 9 10 10 18 11 9 12 19 13
REMARK SMILES IDX 20 14 23 15 21 16 22 17 24 18 8 19 7 21 6 22 2 23 5 24 3 25
REMARK SMILES IDX 4 26 1 27
REMARK H PARENT 12 2 15 8 8 20
ROOT
ATOM      1  N   UNL     1       6.103  41.857  50.063  1.00  0.00    -0.348 N 
ATOM      2  H   UNL     1       6.276  41.180  50.815  1.00  0.00     0.163 HD
ENDROOT
BRANCH   1   3
ATOM      3  C   UNL     1       5.331  41.285  48.951  1.00  0.00     0.177 C 
BRANCH   3   4
ATOM      4  C   UNL     1       5.794  41.890  47.607  1.00  0.00     0.283 C 
BRANCH   4   5
ATOM      5  N   UNL     1       5.118  41.136  46.467  1.00  0.00    -0.338 N 
ATOM      6  C   UNL     1       5.066  41.915  45.195  1.00  0.00     0.332 C 
ATOM      7  C   UNL     1       3.799  40.539  46.841  1.00  0.00     0.332 C 
ATOM      8  H   UNL     1       5.769  40.342  46.310  1.00  0.00     0.347 HD
ENDBRANCH   4   5
ENDBRANCH   3   4
ENDBRANCH   1   3
BRANCH   1   9
ATOM      9  C   UNL     1       5.410  42.857  50.755  1.00  0.00     0.226 A 
ATOM     10  N   UNL     1       6.064  44.018  50.833  1.00  0.00    -0.195 NA
ATOM     11  N   UNL     1       4.185  42.594  51.234  1.00  0.00    -0.193 NA
ATOM     12  C   UNL     1       5.507  45.089  51.460  1.00  0.00     0.147 A 
ATOM     13  C   UNL     1       3.647  43.662  51.854  1.00  0.00     0.165 A 
ATOM     14  C   UNL     1       4.229  44.909  52.001  1.00  0.00     0.082 A 
ATOM     15  N   UNL     1       2.426  43.746  52.468  1.00  0.00    -0.250 N 
ATOM     16  C   UNL     1       3.269  45.667  52.701  1.00  0.00     0.149 A 
ATOM     17  N   UNL     1       2.171  44.964  52.993  1.00  0.00    -0.179 NA
ATOM     18  C   UNL     1       1.438  42.706  52.603  1.00  0.00     0.176 C 
BRANCH  12  19
ATOM     19  N   UNL     1       6.198  46.308  51.571  1.00  0.00    -0.339 N 
ATOM     20  H   UNL     1       5.571  47.098  51.664  1.00  0.00     0.168 HD
BRANCH  19  21
ATOM     21  C   UNL     1       7.427  46.510  52.239  1.00  0.00     0.043 A 
ATOM     22  C   UNL     1       8.608  46.492  51.476  1.00  0.00     0.026 A 
ATOM     23  C   UNL     1       7.511  46.794  53.616  1.00  0.00    -0.028 A 
ATOM     24  C   UNL     1       9.848  46.752  52.060  1.00  0.00     0.002 A 
ATOM     25  C   UNL     1       8.766  47.070  54.188  1.00  0.00     0.005 A 
ATOM     26  C   UNL     1       9.926  47.045  53.416  1.00  0.00     0.000 A 
ATOM     27  C   UNL     1       6.305  46.808  54.516  1.00  0.00     0.046 C 
ENDBRANCH  19  21
ENDBRANCH  12  19
ENDBRANCH   1   9
TORSDOF 6
ENDMDL
MODEL 11
REMARK VINA RESULT:    -7.861      2.102      5.328
REMARK INTER + INTRA:         -11.834
REMARK INTER:                 -11.012
REMARK INTRA:                  -0.822
REMARK UNBOUND:                -1.216
REMARK SMILES Cc1ccccc1Nc1nc(NCC[NH+](C)C)nc2c1cnn2C
REMARK SMILES IDX 12 1 13 3 14 4 15 5 16 6 17 7 11 9 10 10 18 11 9 12 19 13
REMARK SMILES IDX 20 14 23 15 21 16 22 17 24 18 8 19 7 21 6 22 2 23 5 24 3 25
REMARK SMILES IDX 4 26 1 27
REMARK H PARENT 12 2 15 8 8 20
ROOT
ATOM      1  N   UNL     1       3.441  42.187  51.626  1.00  0.00    -0.348 N 
ATOM      2  H   UNL     1       2.534  42.433  51.213  1.00  0.00     0.163 HD
ENDROOT
BRANCH   1   3
ATOM      3  C   UNL     1       4.353  41.557  50.660  1.00  0.00     0.177 C 
BRANCH   3   4
ATOM      4  C   UNL     1       3.557  40.711  49.641  1.00  0.00     0.283 C 
BRANCH   4   5
ATOM      5  N   UNL     1       4.408  40.514  48.392  1.00  0.00    -0.338 N 
ATOM      6  C   UNL     1       5.576  41.441  48.323  1.00  0.00     0.332 C 
ATOM      7  C   UNL     1       3.615  40.476  47.125  1.00  0.00     0.332 C 
ATOM      8  H   UNL     1       4.789  39.557  48.533  1.00  0.00     0.347 HD
ENDBRANCH   4   5
ENDBRANCH   3   4
ENDBRANCH   1   3
BRANCH   1   9
ATOM      9  C   UNL     1       3.886  43.441  52.062  1.00  0.00     0.226 A 
ATOM     10  N   UNL     1       4.783  44.010  51.253  1.00  0.00    -0.195 NA
ATOM     11  N   UNL     1       3.374  43.964  53.185  1.00  0.00    -0.193 NA
ATOM     12  C   UNL     1       5.293  45.240  51.537  1.00  0.00     0.147 A 
ATOM     13  C   UNL     1       3.889  45.179  53.454  1.00  0.00     0.165 A 
ATOM     14  C   UNL     1       4.823  45.864  52.698  1.00  0.00     0.082 A 
ATOM     15  N   UNL     1       3.607  45.991  54.521  1.00  0.00    -0.250 N 
ATOM     16  C   UNL     1       5.019  47.077  53.389  1.00  0.00     0.149 A 
ATOM     17  N   UNL     1       4.285  47.158  54.503  1.00  0.00    -0.179 NA
ATOM     18  C   UNL     1       2.701  45.724  55.610  1.00  0.00     0.176 C 
BRANCH  12  19
ATOM     19  N   UNL     1       6.257  45.837  50.707  1.00  0.00    -0.339 N 
ATOM     20  H   UNL     1       5.919  46.689  50.276  1.00  0.00     0.168 HD
BRANCH  19  21
ATOM     21  C   UNL     1       7.652  45.862  50.937  1.00  0.00     0.043 A 
ATOM     22  C   UNL     1       8.157  46.810  51.845  1.00  0.00     0.026 A 
ATOM     23  C   UNL     1       8.540  44.941  50.350  1.00  0.00    -0.028 A 
ATOM     24  C   UNL     1       9.514  46.845  52.169  1.00  0.00     0.002 A 
ATOM     25  C   UNL     1       9.902  44.977  50.699  1.00  0.00     0.005 A 
ATOM     26  C   UNL     1      10.386  45.926  51.599  1.00  0.00     0.000 A 
ATOM     27  C   UNL     1       8.095  43.910  49.348  1.00  0.00     0.046 C 
ENDBRANCH  19  21
ENDBRANCH  12  19
ENDBRANCH   1   9
TORSDOF 6
ENDMDL
MODEL 12
REMARK VINA RESULT:    -7.794      1.336      5.370
REMARK INTER + INTRA:         -11.743
REMARK INTER:                 -11.447
REMARK INTRA:                  -0.296
REMARK UNBOUND:                -1.216
REMARK SMILES Cc1ccccc1Nc1nc(NCC[NH+](C)C)nc2c1cnn2C
REMARK SMILES IDX 12 1 13 3 14 4 15 5 16 6 17 7 11 9 10 10 18 11 9 12 19 13
REMARK SMILES IDX 20 14 23 15 21 16 22 17 24 18 8 19 7 21 6 22 2 23 5 24 3 25
REMARK SMILES IDX 4 26 1 27
REMARK H PARENT 12 2 15 8 8 20
ROOT
ATOM      1  N   UNL     1       6.114  46.910  54.736  1.00  0.00    -0.348 N 
ATOM      2  H   UNL     1       6.088  46.809  55.757  1.00  0.00     0.163 HD
ENDROOT
BRANCH   1   3
ATOM      3  C   UNL     1       7.381  46.450  54.150  1.00  0.00     0.177 C 
BRANCH   3   4
ATOM      4  C   UNL     1       8.000  47.557  53.268  1.00  0.00     0.283 C 
BRANCH   4   5
ATOM      5  N   UNL     1       9.518  47.429  53.309  1.00  0.00    -0.338 N 
ATOM      6  C   UNL     1      10.054  46.443  52.324  1.00  0.00     0.332 C 
ATOM      7  C   UNL     1      10.068  47.238  54.686  1.00  0.00     0.332 C 
ATOM      8  H   UNL     1       9.828  48.370  52.995  1.00  0.00     0.347 HD
ENDBRANCH   4   5
ENDBRANCH   3   4
ENDBRANCH   1   3
BRANCH   1   9
ATOM      9  C   UNL     1       5.018  46.123  54.360  1.00  0.00     0.226 A 
ATOM     10  N   UNL     1       5.184  45.479  53.203  1.00  0.00    -0.195 NA
ATOM     11  N   UNL     1       3.953  46.053  55.171  1.00  0.00    -0.193 NA
ATOM     12  C   UNL     1       4.211  44.661  52.718  1.00  0.00     0.147 A 
ATOM     13  C   UNL     1       2.998  45.242  54.678  1.00  0.00     0.165 A 
ATOM     14  C   UNL     1       3.053  44.529  53.493  1.00  0.00     0.082 A 
ATOM     15  N   UNL     1       1.779  44.951  55.230  1.00  0.00    -0.250 N 
ATOM     16  C   UNL     1       1.828  43.835  53.439  1.00  0.00     0.149 A 
ATOM     17  N   UNL     1       1.045  44.091  54.492  1.00  0.00    -0.179 NA
ATOM     18  C   UNL     1       1.232  45.457  56.464  1.00  0.00     0.176 C 
BRANCH  12  19
ATOM     19  N   UNL     1       4.363  43.998  51.488  1.00  0.00    -0.339 N 
ATOM     20  H   UNL     1       3.536  44.072  50.907  1.00  0.00     0.168 HD
BRANCH  19  21
ATOM     21  C   UNL     1       5.553  43.916  50.729  1.00  0.00     0.043 A 
ATOM     22  C   UNL     1       6.341  45.074  50.602  1.00  0.00     0.026 A 
ATOM     23  C   UNL     1       6.012  42.714  50.155  1.00  0.00    -0.028 A 
ATOM     24  C   UNL     1       7.561  45.046  49.925  1.00  0.00     0.002 A 
ATOM     25  C   UNL     1       7.251  42.697  49.490  1.00  0.00     0.005 A 
ATOM     26  C   UNL     1       8.017  43.856  49.372  1.00  0.00     0.000 A 
ATOM     27  C   UNL     1       5.224  41.434  50.217  1.00  0.00     0.046 C 
ENDBRANCH  19  21
ENDBRANCH  12  19
ENDBRANCH   1   9
TORSDOF 6
ENDMDL
MODEL 13
REMARK VINA RESULT:    -7.635      2.252      6.496
REMARK INTER + INTRA:         -11.528
REMARK INTER:                 -10.761
REMARK INTRA:                  -0.767
REMARK UNBOUND:                -1.216
REMARK SMILES Cc1ccccc1Nc1nc(NCC[NH+](C)C)nc2c1cnn2C
REMARK SMILES IDX 12 1 13 3 14 4 15 5 16 6 17 7 11 9 10 10 18 11 9 12 19 13
REMARK SMILES IDX 20 14 23 15 21 16 22 17 24 18 8 19 7 21 6 22 2 23 5 24 3 25
REMARK SMILES IDX 4 26 1 27
REMARK H PARENT 12 2 15 8 8 20
ROOT
ATOM      1  N   UNL     1       4.656  41.549  51.184  1.00  0.00    -0.348 N 
ATOM      2  H   UNL     1       4.240  40.875  51.836  1.00  0.00     0.163 HD
ENDROOT
BRANCH   1   3
ATOM      3  C   UNL     1       4.231  41.334  49.794  1.00  0.00     0.177 C 
BRANCH   3   4
ATOM      4  C   UNL     1       5.452  41.353  48.848  1.00  0.00     0.283 C 
BRANCH   4   5
ATOM      5  N   UNL     1       5.026  40.834  47.480  1.00  0.00    -0.338 N 
ATOM      6  C   UNL     1       5.427  41.732  46.357  1.00  0.00     0.332 C 
ATOM      7  C   UNL     1       3.590  40.421  47.415  1.00  0.00     0.332 C 
ATOM      8  H   UNL     1       5.588  39.964  47.388  1.00  0.00     0.347 HD
ENDBRANCH   4   5
ENDBRANCH   3   4
ENDBRANCH   1   3
BRANCH   1   9
ATOM      9  C   UNL     1       4.194  42.758  51.718  1.00  0.00     0.226 A 
ATOM     10  N   UNL     1       4.999  43.798  51.485  1.00  0.00    -0.195 NA
ATOM     11  N   UNL     1       3.017  42.784  52.360  1.00  0.00    -0.193 NA
ATOM     12  C   UNL     1       4.671  45.043  51.927  1.00  0.00     0.147 A 
ATOM     13  C   UNL     1       2.708  44.021  52.793  1.00  0.00     0.165 A 
ATOM     14  C   UNL     1       3.461  45.169  52.618  1.00  0.00     0.082 A 
ATOM     15  N   UNL     1       1.597  44.409  53.495  1.00  0.00    -0.250 N 
ATOM     16  C   UNL     1       2.707  46.186  53.236  1.00  0.00     0.149 A 
ATOM     17  N   UNL     1       1.572  45.730  53.776  1.00  0.00    -0.179 NA
ATOM     18  C   UNL     1       0.508  43.579  53.942  1.00  0.00     0.176 C 
BRANCH  12  19
ATOM     19  N   UNL     1       5.524  46.139  51.710  1.00  0.00    -0.339 N 
ATOM     20  H   UNL     1       5.030  47.023  51.752  1.00  0.00     0.168 HD
BRANCH  19  21
ATOM     21  C   UNL     1       6.866  46.246  52.139  1.00  0.00     0.043 A 
ATOM     22  C   UNL     1       7.884  46.068  51.185  1.00  0.00     0.026 A 
ATOM     23  C   UNL     1       7.223  46.589  53.458  1.00  0.00    -0.028 A 
ATOM     24  C   UNL     1       9.228  46.227  51.525  1.00  0.00     0.002 A 
ATOM     25  C   UNL     1       8.580  46.762  53.783  1.00  0.00     0.005 A 
ATOM     26  C   UNL     1       9.575  46.579  52.824  1.00  0.00     0.000 A 
ATOM     27  C   UNL     1       6.205  46.773  54.551  1.00  0.00     0.046 C 
ENDBRANCH  19  21
ENDBRANCH  12  19
ENDBRANCH   1   9
TORSDOF 6
ENDMDL
MODEL 14
REMARK VINA RESULT:    -7.628      1.326      5.227
REMARK INTER + INTRA:         -11.519
REMARK INTER:                 -10.790
REMARK INTRA:                  -0.729
REMARK UNBOUND:                -1.216
REMARK SMILES Cc1ccccc1Nc1nc(NCC[NH+](C)C)nc2c1cnn2C
REMARK SMILES IDX 12 1 13 3 14 4 15 5 16 6 17 7 11 9 10 10 18 11 9 12 19 13
REMARK SMILES IDX 20 14 23 15 21 16 22 17 24 18 8 19 7 21 6 22 2 23 5 24 3 25
REMARK SMILES IDX 4 26 1 27
REMARK H PARENT 12 2 15 8 8 20
ROOT
ATOM      1  N   UNL     1       6.032  46.923  54.856  1.00  0.00    -0.348 N 
ATOM      2  H   UNL     1       6.033  46.733  55.865  1.00  0.00     0.163 HD
ENDROOT
BRANCH   1   3
ATOM      3  C   UNL     1       7.258  46.461  54.190  1.00  0.00     0.177 C 
BRANCH   3   4
ATOM      4  C   UNL     1       7.793  47.549  53.232  1.00  0.00     0.283 C 
BRANCH   4   5
ATOM      5  N   UNL     1       9.317  47.515  53.247  1.00  0.00    -0.338 N 
ATOM      6  C   UNL     1       9.899  46.691  52.146  1.00  0.00     0.332 C 
ATOM      7  C   UNL     1       9.897  47.193  54.587  1.00  0.00     0.332 C 
ATOM      8  H   UNL     1       9.562  48.505  53.048  1.00  0.00     0.347 HD
ENDBRANCH   4   5
ENDBRANCH   3   4
ENDBRANCH   1   3
BRANCH   1   9
ATOM      9  C   UNL     1       4.891  46.219  54.451  1.00  0.00     0.226 A 
ATOM     10  N   UNL     1       4.949  45.764  53.197  1.00  0.00    -0.195 NA
ATOM     11  N   UNL     1       3.890  46.036  55.324  1.00  0.00    -0.193 NA
ATOM     12  C   UNL     1       3.921  45.045  52.671  1.00  0.00     0.147 A 
ATOM     13  C   UNL     1       2.879  45.326  54.788  1.00  0.00     0.165 A 
ATOM     14  C   UNL     1       2.824  44.809  53.506  1.00  0.00     0.082 A 
ATOM     15  N   UNL     1       1.699  44.967  55.385  1.00  0.00    -0.250 N 
ATOM     16  C   UNL     1       1.581  44.148  53.444  1.00  0.00     0.149 A 
ATOM     17  N   UNL     1       0.889  44.245  54.583  1.00  0.00    -0.179 NA
ATOM     18  C   UNL     1       1.262  45.279  56.723  1.00  0.00     0.176 C 
BRANCH  12  19
ATOM     19  N   UNL     1       3.961  44.584  51.344  1.00  0.00    -0.339 N 
ATOM     20  H   UNL     1       3.767  45.320  50.675  1.00  0.00     0.168 HD
BRANCH  19  21
ATOM     21  C   UNL     1       4.838  43.602  50.830  1.00  0.00     0.043 A 
ATOM     22  C   UNL     1       4.395  42.268  50.795  1.00  0.00     0.026 A 
ATOM     23  C   UNL     1       6.103  43.913  50.293  1.00  0.00    -0.028 A 
ATOM     24  C   UNL     1       5.183  41.260  50.238  1.00  0.00     0.002 A 
ATOM     25  C   UNL     1       6.880  42.890  49.721  1.00  0.00     0.005 A 
ATOM     26  C   UNL     1       6.424  41.572  49.698  1.00  0.00     0.000 A 
ATOM     27  C   UNL     1       6.671  45.306  50.312  1.00  0.00     0.046 C 
ENDBRANCH  19  21
ENDBRANCH  12  19
ENDBRANCH   1   9
TORSDOF 6
ENDMDL
MODEL 15
REMARK VINA RESULT:    -7.486      1.860      6.028
REMARK INTER + INTRA:         -11.327
REMARK INTER:                 -10.506
REMARK INTRA:                  -0.821
REMARK UNBOUND:                -1.216
REMARK SMILES Cc1ccccc1Nc1nc(NCC[NH+](C)C)nc2c1cnn2C
REMARK SMILES IDX 12 1 13 3 14 4 15 5 16 6 17 7 11 9 10 10 18 11 9 12 19 13
REMARK SMILES IDX 20 14 23 15 21 16 22 17 24 18 8 19 7 21 6 22 2 23 5 24 3 25
REMARK SMILES IDX 4 26 1 27
REMARK H PARENT 12 2 15 8 8 20
ROOT
ATOM      1  N   UNL     1       6.227  43.638  49.704  1.00  0.00    -0.348 N 
ATOM      2  H   UNL     1       7.222  43.841  49.557  1.00  0.00     0.163 HD
ENDROOT
BRANCH   1   3
ATOM      3  C   UNL     1       5.983  42.241  50.092  1.00  0.00     0.177 C 
BRANCH   3   4
ATOM      4  C   UNL     1       5.700  41.377  48.843  1.00  0.00     0.283 C 
BRANCH   4   5
ATOM      5  N   UNL     1       4.379  40.643  49.040  1.00  0.00    -0.338 N 
ATOM      6  C   UNL     1       3.645  40.397  47.763  1.00  0.00     0.332 C 
ATOM      7  C   UNL     1       3.515  41.235  50.106  1.00  0.00     0.332 C 
ATOM      8  H   UNL     1       4.692  39.716  49.392  1.00  0.00     0.347 HD
ENDBRANCH   4   5
ENDBRANCH   3   4
ENDBRANCH   1   3
BRANCH   1   9
ATOM      9  C   UNL     1       5.914  44.551  50.719  1.00  0.00     0.226 A 
ATOM     10  N   UNL     1       6.826  45.512  50.885  1.00  0.00    -0.195 NA
ATOM     11  N   UNL     1       4.760  44.417  51.390  1.00  0.00    -0.193 NA
ATOM     12  C   UNL     1       6.649  46.483  51.821  1.00  0.00     0.147 A 
ATOM     13  C   UNL     1       4.601  45.382  52.314  1.00  0.00     0.165 A 
ATOM     14  C   UNL     1       5.475  46.422  52.580  1.00  0.00     0.082 A 
ATOM     15  N   UNL     1       3.555  45.544  53.184  1.00  0.00    -0.250 N 
ATOM     16  C   UNL     1       4.852  47.154  53.611  1.00  0.00     0.149 A 
ATOM     17  N   UNL     1       3.685  46.622  53.986  1.00  0.00    -0.179 NA
ATOM     18  C   UNL     1       2.388  44.709  53.318  1.00  0.00     0.176 C 
BRANCH  12  19
ATOM     19  N   UNL     1       7.615  47.484  52.022  1.00  0.00    -0.339 N 
ATOM     20  H   UNL     1       7.271  48.404  51.775  1.00  0.00     0.168 HD
BRANCH  19  21
ATOM     21  C   UNL     1       8.568  47.524  53.065  1.00  0.00     0.043 A 
ATOM     22  C   UNL     1       8.263  48.274  54.215  1.00  0.00     0.026 A 
ATOM     23  C   UNL     1       9.772  46.793  53.030  1.00  0.00    -0.028 A 
ATOM     24  C   UNL     1       9.128  48.301  55.309  1.00  0.00     0.002 A 
ATOM     25  C   UNL     1      10.626  46.816  54.146  1.00  0.00     0.005 A 
ATOM     26  C   UNL     1      10.308  47.568  55.276  1.00  0.00     0.000 A 
ATOM     27  C   UNL     1      10.193  45.984  51.833  1.00  0.00     0.046 C 
ENDBRANCH  19  21
ENDBRANCH  12  19
ENDBRANCH   1   9
TORSDOF 6
ENDMDL
MODEL 16
REMARK VINA RESULT:    -7.391      2.277      5.530
REMARK INTER + INTRA:         -11.199
REMARK INTER:                 -10.585
REMARK INTRA:                  -0.615
REMARK UNBOUND:                -1.216
REMARK SMILES Cc1ccccc1Nc1nc(NCC[NH+](C)C)nc2c1cnn2C
REMARK SMILES IDX 12 1 13 3 14 4 15 5 16 6 17 7 11 9 10 10 18 11 9 12 19 13
REMARK SMILES IDX 20 14 23 15 21 16 22 17 24 18 8 19 7 21 6 22 2 23 5 24 3 25
REMARK SMILES IDX 4 26 1 27
REMARK H PARENT 12 2 15 8 8 20
ROOT
ATOM      1  N   UNL     1       2.453  42.322  53.040  1.00  0.00    -0.348 N 
ATOM      2  H   UNL     1       2.977  41.951  53.842  1.00  0.00     0.163 HD
ENDROOT
BRANCH   1   3
ATOM      3  C   UNL     1       1.426  43.296  53.435  1.00  0.00     0.177 C 
BRANCH   3   4
ATOM      4  C   UNL     1       0.031  42.632  53.447  1.00  0.00     0.283 C 
BRANCH   4   5
ATOM      5  N   UNL     1      -0.915  43.454  52.579  1.00  0.00    -0.338 N 
ATOM      6  C   UNL     1      -1.585  44.562  53.323  1.00  0.00     0.332 C 
ATOM      7  C   UNL     1      -1.869  42.627  51.779  1.00  0.00     0.332 C 
ATOM      8  H   UNL     1      -0.264  43.896  51.899  1.00  0.00     0.347 HD
ENDBRANCH   4   5
ENDBRANCH   3   4
ENDBRANCH   1   3
BRANCH   1   9
ATOM      9  C   UNL     1       3.486  42.891  52.285  1.00  0.00     0.226 A 
ATOM     10  N   UNL     1       3.799  44.138  52.645  1.00  0.00    -0.195 NA
ATOM     11  N   UNL     1       4.078  42.161  51.329  1.00  0.00    -0.193 NA
ATOM     12  C   UNL     1       4.798  44.813  52.014  1.00  0.00     0.147 A 
ATOM     13  C   UNL     1       5.061  42.843  50.712  1.00  0.00     0.165 A 
ATOM     14  C   UNL     1       5.470  44.135  50.992  1.00  0.00     0.082 A 
ATOM     15  N   UNL     1       5.860  42.415  49.684  1.00  0.00    -0.250 N 
ATOM     16  C   UNL     1       6.525  44.376  50.090  1.00  0.00     0.149 A 
ATOM     17  N   UNL     1       6.765  43.335  49.287  1.00  0.00    -0.179 NA
ATOM     18  C   UNL     1       5.823  41.138  49.018  1.00  0.00     0.176 C 
BRANCH  12  19
ATOM     19  N   UNL     1       5.117  46.136  52.367  1.00  0.00    -0.339 N 
ATOM     20  H   UNL     1       4.344  46.610  52.818  1.00  0.00     0.168 HD
BRANCH  19  21
ATOM     21  C   UNL     1       6.374  46.596  52.821  1.00  0.00     0.043 A 
ATOM     22  C   UNL     1       7.188  47.303  51.917  1.00  0.00     0.026 A 
ATOM     23  C   UNL     1       6.813  46.435  54.149  1.00  0.00    -0.028 A 
ATOM     24  C   UNL     1       8.410  47.843  52.319  1.00  0.00     0.002 A 
ATOM     25  C   UNL     1       8.040  46.999  54.544  1.00  0.00     0.005 A 
ATOM     26  C   UNL     1       8.834  47.694  53.633  1.00  0.00     0.000 A 
ATOM     27  C   UNL     1       6.023  45.671  55.177  1.00  0.00     0.046 C 
ENDBRANCH  19  21
ENDBRANCH  12  19
ENDBRANCH   1   9
TORSDOF 6
ENDMDL
MODEL 17
REMARK VINA RESULT:    -7.331      2.535      5.673
REMARK INTER + INTRA:         -11.119
REMARK INTER:                 -10.255
REMARK INTRA:                  -0.863
REMARK UNBOUND:                -1.216
REMARK SMILES Cc1ccccc1Nc1nc(NCC[NH+](C)C)nc2c1cnn2C
REMARK SMILES IDX 12 1 13 3 14 4 15 5 16 6 17 7 11 9 10 10 18 11 9 12 19 13
REMARK SMILES IDX 20 14 23 15 21 16 22 17 24 18 8 19 7 21 6 22 2 23 5 24 3 25
REMARK SMILES IDX 4 26 1 27
REMARK H PARENT 12 2 15 8 8 20
ROOT
ATOM      1  N   UNL     1       2.420  46.046  56.500  1.00  0.00    -0.348 N 
ATOM      2  H   UNL     1       2.356  47.064  56.377  1.00  0.00     0.163 HD
ENDROOT
BRANCH   1   3
ATOM      3  C   UNL     1       1.186  45.461  57.044  1.00  0.00     0.177 C 
BRANCH   3   4
ATOM      4  C   UNL     1       0.311  46.557  57.692  1.00  0.00     0.283 C 
BRANCH   4   5
ATOM      5  N   UNL     1      -0.908  46.800  56.811  1.00  0.00    -0.338 N 
ATOM      6  C   UNL     1      -1.898  47.739  57.419  1.00  0.00     0.332 C 
ATOM      7  C   UNL     1      -1.535  45.546  56.292  1.00  0.00     0.332 C 
ATOM      8  H   UNL     1      -0.494  47.286  55.990  1.00  0.00     0.347 HD
ENDBRANCH   4   5
ENDBRANCH   3   4
ENDBRANCH   1   3
BRANCH   1   9
ATOM      9  C   UNL     1       2.690  45.635  55.189  1.00  0.00     0.226 A 
ATOM     10  N   UNL     1       3.984  45.415  54.944  1.00  0.00    -0.195 NA
ATOM     11  N   UNL     1       1.673  45.468  54.331  1.00  0.00    -0.193 NA
ATOM     12  C   UNL     1       4.397  44.992  53.719  1.00  0.00     0.147 A 
ATOM     13  C   UNL     1       2.097  45.052  53.123  1.00  0.00     0.165 A 
ATOM     14  C   UNL     1       3.405  44.796  52.752  1.00  0.00     0.082 A 
ATOM     15  N   UNL     1       1.338  44.797  52.011  1.00  0.00    -0.250 N 
ATOM     16  C   UNL     1       3.318  44.380  51.408  1.00  0.00     0.149 A 
ATOM     17  N   UNL     1       2.062  44.383  50.949  1.00  0.00    -0.179 NA
ATOM     18  C   UNL     1      -0.090  44.927  51.876  1.00  0.00     0.176 C 
BRANCH  12  19
ATOM     19  N   UNL     1       5.759  44.782  53.443  1.00  0.00    -0.339 N 
ATOM     20  H   UNL     1       5.918  43.928  52.924  1.00  0.00     0.168 HD
BRANCH  19  21
ATOM     21  C   UNL     1       6.712  45.783  53.146  1.00  0.00     0.043 A 
ATOM     22  C   UNL     1       7.259  46.517  54.214  1.00  0.00     0.026 A 
ATOM     23  C   UNL     1       7.181  46.029  51.841  1.00  0.00    -0.028 A 
ATOM     24  C   UNL     1       8.253  47.472  53.998  1.00  0.00     0.002 A 
ATOM     25  C   UNL     1       8.195  46.983  51.640  1.00  0.00     0.005 A 
ATOM     26  C   UNL     1       8.724  47.702  52.711  1.00  0.00     0.000 A 
ATOM     27  C   UNL     1       6.635  45.313  50.635  1.00  0.00     0.046 C 
ENDBRANCH  19  21
ENDBRANCH  12  19
ENDBRANCH   1   9
TORSDOF 6
ENDMDL
MODEL 18
REMARK VINA RESULT:    -7.316      2.701      4.640
REMARK INTER + INTRA:         -11.098
REMARK INTER:                 -10.129
REMARK INTRA:                  -0.969
REMARK UNBOUND:                -1.216
REMARK SMILES Cc1ccccc1Nc1nc(NCC[NH+](C)C)nc2c1cnn2C
REMARK SMILES IDX 12 1 13 3 14 4 15 5 16 6 17 7 11 9 10 10 18 11 9 12 19 13
REMARK SMILES IDX 20 14 23 15 21 16 22 17 24 18 8 19 7 21 6 22 2 23 5 24 3 25
REMARK SMILES IDX 4 26 1 27
REMARK H PARENT 12 2 15 8 8 20
ROOT
ATOM      1  N   UNL     1       2.999  42.284  52.495  1.00  0.00    -0.348 N 
ATOM      2  H   UNL     1       3.401  42.339  53.438  1.00  0.00     0.163 HD
ENDROOT
BRANCH   1   3
ATOM      3  C   UNL     1       1.839  43.168  52.318  1.00  0.00     0.177 C 
BRANCH   3   4
ATOM      4  C   UNL     1       1.284  43.609  53.691  1.00  0.00     0.283 C 
BRANCH   4   5
ATOM      5  N   UNL     1       2.243  44.619  54.310  1.00  0.00    -0.338 N 
ATOM      6  C   UNL     1       1.952  44.904  55.746  1.00  0.00     0.332 C 
ATOM      7  C   UNL     1       2.421  45.858  53.492  1.00  0.00     0.332 C 
ATOM      8  H   UNL     1       3.149  44.111  54.279  1.00  0.00     0.347 HD
ENDBRANCH   4   5
ENDBRANCH   3   4
ENDBRANCH   1   3
BRANCH   1   9
ATOM      9  C   UNL     1       4.099  42.658  51.713  1.00  0.00     0.226 A 
ATOM     10  N   UNL     1       4.362  41.819  50.708  1.00  0.00    -0.195 NA
ATOM     11  N   UNL     1       4.750  43.795  51.998  1.00  0.00    -0.193 NA
ATOM     12  C   UNL     1       5.390  42.062  49.851  1.00  0.00     0.147 A 
ATOM     13  C   UNL     1       5.765  44.021  51.144  1.00  0.00     0.165 A 
ATOM     14  C   UNL     1       6.135  43.225  50.074  1.00  0.00     0.082 A 
ATOM     15  N   UNL     1       6.644  45.072  51.147  1.00  0.00    -0.250 N 
ATOM     16  C   UNL     1       7.232  43.896  49.497  1.00  0.00     0.149 A 
ATOM     17  N   UNL     1       7.550  45.019  50.148  1.00  0.00    -0.179 NA
ATOM     18  C   UNL     1       6.691  46.173  52.076  1.00  0.00     0.176 C 
BRANCH  12  19
ATOM     19  N   UNL     1       5.692  41.172  48.806  1.00  0.00    -0.339 N 
ATOM     20  H   UNL     1       5.921  40.246  49.146  1.00  0.00     0.168 HD
BRANCH  19  21
ATOM     21  C   UNL     1       5.083  41.147  47.532  1.00  0.00     0.043 A 
ATOM     22  C   UNL     1       5.655  41.923  46.507  1.00  0.00     0.026 A 
ATOM     23  C   UNL     1       3.975  40.332  47.229  1.00  0.00    -0.028 A 
ATOM     24  C   UNL     1       5.146  41.892  45.209  1.00  0.00     0.002 A 
ATOM     25  C   UNL     1       3.482  40.298  45.912  1.00  0.00     0.005 A 
ATOM     26  C   UNL     1       4.061  41.077  44.911  1.00  0.00     0.000 A 
ATOM     27  C   UNL     1       3.282  39.490  48.265  1.00  0.00     0.046 C 
ENDBRANCH  19  21
ENDBRANCH  12  19
ENDBRANCH   1   9
TORSDOF 6
ENDMDL
MODEL 19
REMARK VINA RESULT:    -7.277      2.216      4.606
REMARK INTER + INTRA:         -11.045
REMARK INTER:                 -10.349
REMARK INTRA:                  -0.696
REMARK UNBOUND:                -1.216
REMARK SMILES Cc1ccccc1Nc1nc(NCC[NH+](C)C)nc2c1cnn2C
REMARK SMILES IDX 12 1 13 3 14 4 15 5 16 6 17 7 11 9 10 10 18 11 9 12 19 13
REMARK SMILES IDX 20 14 23 15 21 16 22 17 24 18 8 19 7 21 6 22 2 23 5 24 3 25
REMARK SMILES IDX 4 26 1 27
REMARK H PARENT 12 2 15 8 8 20
ROOT
ATOM      1  N   UNL     1       3.340  42.424  51.769  1.00  0.00    -0.348 N 
ATOM      2  H   UNL     1       3.082  41.995  52.665  1.00  0.00     0.163 HD
ENDROOT
BRANCH   1   3
ATOM      3  C   UNL     1       2.194  42.575  50.861  1.00  0.00     0.177 C 
BRANCH   3   4
ATOM      4  C   UNL     1       0.885  42.730  51.667  1.00  0.00     0.283 C 
BRANCH   4   5
ATOM      5  N   UNL     1       0.070  43.871  51.070  1.00  0.00    -0.338 N 
ATOM      6  C   UNL     1      -0.043  45.052  51.976  1.00  0.00     0.332 C 
ATOM      7  C   UNL     1      -1.246  43.438  50.506  1.00  0.00     0.332 C 
ATOM      8  H   UNL     1       0.656  44.163  50.263  1.00  0.00     0.347 HD
ENDBRANCH   4   5
ENDBRANCH   3   4
ENDBRANCH   1   3
BRANCH   1   9
ATOM      9  C   UNL     1       3.863  43.650  52.199  1.00  0.00     0.226 A 
ATOM     10  N   UNL     1       4.762  44.179  51.365  1.00  0.00    -0.195 NA
ATOM     11  N   UNL     1       3.417  44.189  53.343  1.00  0.00    -0.193 NA
ATOM     12  C   UNL     1       5.344  45.377  51.641  1.00  0.00     0.147 A 
ATOM     13  C   UNL     1       4.003  45.372  53.603  1.00  0.00     0.165 A 
ATOM     14  C   UNL     1       4.947  46.015  52.821  1.00  0.00     0.082 A 
ATOM     15  N   UNL     1       3.799  46.188  54.685  1.00  0.00    -0.250 N 
ATOM     16  C   UNL     1       5.228  47.209  53.515  1.00  0.00     0.149 A 
ATOM     17  N   UNL     1       4.536  47.318  54.653  1.00  0.00    -0.179 NA
ATOM     18  C   UNL     1       2.917  45.959  55.802  1.00  0.00     0.176 C 
BRANCH  12  19
ATOM     19  N   UNL     1       6.311  45.931  50.784  1.00  0.00    -0.339 N 
ATOM     20  H   UNL     1       5.996  46.793  50.356  1.00  0.00     0.168 HD
BRANCH  19  21
ATOM     21  C   UNL     1       7.710  45.902  50.979  1.00  0.00     0.043 A 
ATOM     22  C   UNL     1       8.275  46.829  51.873  1.00  0.00     0.026 A 
ATOM     23  C   UNL     1       8.548  44.946  50.372  1.00  0.00    -0.028 A 
ATOM     24  C   UNL     1       9.640  46.812  52.164  1.00  0.00     0.002 A 
ATOM     25  C   UNL     1       9.918  44.930  50.687  1.00  0.00     0.005 A 
ATOM     26  C   UNL     1      10.460  45.859  51.573  1.00  0.00     0.000 A 
ATOM     27  C   UNL     1       8.037  43.933  49.383  1.00  0.00     0.046 C 
ENDBRANCH  19  21
ENDBRANCH  12  19
ENDBRANCH   1   9
TORSDOF 6
ENDMDL
MODEL 20
REMARK VINA RESULT:    -7.207      1.681      5.995
REMARK INTER + INTRA:         -10.950
REMARK INTER:                 -10.097
REMARK INTRA:                  -0.853
REMARK UNBOUND:                -1.216
REMARK SMILES Cc1ccccc1Nc1nc(NCC[NH+](C)C)nc2c1cnn2C
REMARK SMILES IDX 12 1 13 3 14 4 15 5 16 6 17 7 11 9 10 10 18 11 9 12 19 13
REMARK SMILES IDX 20 14 23 15 21 16 22 17 24 18 8 19 7 21 6 22 2 23 5 24 3 25
REMARK SMILES IDX 4 26 1 27
REMARK H PARENT 12 2 15 8 8 20
ROOT
ATOM      1  N   UNL     1       6.124  47.063  52.335  1.00  0.00    -0.348 N 
ATOM      2  H   UNL     1       5.271  47.287  52.860  1.00  0.00     0.163 HD
ENDROOT
BRANCH   1   3
ATOM      3  C   UNL     1       7.339  47.158  53.156  1.00  0.00     0.177 C 
BRANCH   3   4
ATOM      4  C   UNL     1       8.478  47.828  52.356  1.00  0.00     0.283 C 
BRANCH   4   5
ATOM      5  N   UNL     1       9.808  47.221  52.787  1.00  0.00    -0.338 N 
ATOM      6  C   UNL     1      10.259  46.104  51.904  1.00  0.00     0.332 C 
ATOM      7  C   UNL     1       9.869  46.879  54.241  1.00  0.00     0.332 C 
ATOM      8  H   UNL     1      10.469  48.010  52.640  1.00  0.00     0.347 HD
ENDBRANCH   4   5
ENDBRANCH   3   4
ENDBRANCH   1   3
BRANCH   1   9
ATOM      9  C   UNL     1       5.845  45.755  51.918  1.00  0.00     0.226 A 
ATOM     10  N   UNL     1       4.870  45.160  52.609  1.00  0.00    -0.195 NA
ATOM     11  N   UNL     1       6.524  45.238  50.883  1.00  0.00    -0.193 NA
ATOM     12  C   UNL     1       4.475  43.894  52.305  1.00  0.00     0.147 A 
ATOM     13  C   UNL     1       6.125  43.985  50.596  1.00  0.00     0.165 A 
ATOM     14  C   UNL     1       5.133  43.267  51.241  1.00  0.00     0.082 A 
ATOM     15  N   UNL     1       6.607  43.155  49.618  1.00  0.00    -0.250 N 
ATOM     16  C   UNL     1       5.091  42.032  50.564  1.00  0.00     0.149 A 
ATOM     17  N   UNL     1       5.990  41.955  49.577  1.00  0.00    -0.179 NA
ATOM     18  C   UNL     1       7.664  43.431  48.678  1.00  0.00     0.176 C 
BRANCH  12  19
ATOM     19  N   UNL     1       3.467  43.250  53.043  1.00  0.00    -0.339 N 
ATOM     20  H   UNL     1       3.746  43.074  54.001  1.00  0.00     0.168 HD
BRANCH  19  21
ATOM     21  C   UNL     1       2.076  43.461  52.912  1.00  0.00     0.043 A 
ATOM     22  C   UNL     1       1.417  42.881  51.814  1.00  0.00     0.026 A 
ATOM     23  C   UNL     1       1.317  44.166  53.867  1.00  0.00    -0.028 A 
ATOM     24  C   UNL     1       0.034  42.993  51.661  1.00  0.00     0.002 A 
ATOM     25  C   UNL     1      -0.078  44.257  53.709  1.00  0.00     0.005 A 
ATOM     26  C   UNL     1      -0.713  43.678  52.611  1.00  0.00     0.000 A 
ATOM     27  C   UNL     1       1.939  44.842  55.058  1.00  0.00     0.046 C 
ENDBRANCH  19  21
ENDBRANCH  12  19
ENDBRANCH   1   9
TORSDOF 6
ENDMDL
