MODEL 1
REMARK VINA RESULT:    -9.636      0.000      0.000
REMARK INTER + INTRA:         -14.742
REMARK INTER:                 -13.580
REMARK INTRA:                  -1.163
REMARK UNBOUND:                -1.163
REMARK SMILES COc1ccc(CNc2nc(Nc3cc(C)c(Cl)cc3OC)c3cnn(C)c3n2)cc1
REMARK SMILES IDX 9 1 10 2 11 3 23 4 24 5 25 6 26 7 27 8 28 9 29 10 8 11 7 13
REMARK SMILES IDX 6 14 3 15 4 16 31 17 5 18 30 19 2 20 1 21 12 22 13 24 14 25
REMARK SMILES IDX 20 26 15 27 19 28 17 29 16 30 18 31 21 32 22 33
REMARK H PARENT 8 12 12 23
ROOT
ATOM      1  C   UNL     1       3.996  42.671  51.163  1.00  0.00     0.227 A 
ATOM      2  N   UNL     1       4.864  43.699  51.159  1.00  0.00    -0.195 NA
ATOM      3  C   UNL     1       4.450  44.966  51.432  1.00  0.00     0.147 A 
ATOM      4  C   UNL     1       3.089  45.136  51.719  1.00  0.00     0.082 A 
ATOM      5  C   UNL     1       2.201  46.182  52.047  1.00  0.00     0.149 A 
ATOM      6  N   UNL     1       0.943  45.763  52.222  1.00  0.00    -0.179 NA
ATOM      7  N   UNL     1       1.027  44.432  51.988  1.00  0.00    -0.250 N 
ATOM      8  C   UNL     1      -0.161  43.620  52.057  1.00  0.00     0.176 C 
ATOM      9  C   UNL     1       2.294  44.008  51.699  1.00  0.00     0.165 A 
ATOM     10  N   UNL     1       2.692  42.756  51.443  1.00  0.00    -0.193 NA
ENDROOT
BRANCH   1  11
ATOM     11  N   UNL     1       4.568  41.441  50.853  1.00  0.00    -0.350 N 
ATOM     12  H   UNL     1       3.784  40.847  50.608  1.00  0.00     0.164 HD
BRANCH  11  13
ATOM     13  C   UNL     1       5.623  41.483  49.858  1.00  0.00     0.152 C 
BRANCH  13  14
ATOM     14  C   UNL     1       5.104  41.249  48.456  1.00  0.00    -0.029 A 
ATOM     15  C   UNL     1       4.116  40.878  45.840  1.00  0.00     0.118 A 
ATOM     16  C   UNL     1       3.453  40.321  46.935  1.00  0.00     0.047 A 
ATOM     17  C   UNL     1       5.274  41.625  46.054  1.00  0.00     0.047 A 
ATOM     18  C   UNL     1       3.939  40.505  48.233  1.00  0.00     0.009 A 
ATOM     19  C   UNL     1       5.763  41.810  47.354  1.00  0.00     0.009 A 
BRANCH  15  20
ATOM     20  O   UNL     1       3.533  40.624  44.628  1.00  0.00    -0.497 OA
ATOM     21  C   UNL     1       2.122  40.777  44.550  1.00  0.00     0.278 C 
ENDBRANCH  15  20
ENDBRANCH  13  14
ENDBRANCH  11  13
ENDBRANCH   1  11
BRANCH   3  22
ATOM     22  N   UNL     1       5.332  46.050  51.444  1.00  0.00    -0.336 N 
ATOM     23  H   UNL     1       5.075  46.823  50.838  1.00  0.00     0.168 HD
BRANCH  22  24
ATOM     24  C   UNL     1       6.525  46.329  52.144  1.00  0.00     0.083 A 
ATOM     25  C   UNL     1       7.802  46.118  51.612  1.00  0.00     0.035 A 
ATOM     26  C   UNL     1       6.416  46.842  53.458  1.00  0.00     0.143 A 
ATOM     27  C   UNL     1       8.965  46.400  52.351  1.00  0.00    -0.030 A 
ATOM     28  C   UNL     1       7.563  47.127  54.203  1.00  0.00     0.069 A 
ATOM     29  C   UNL     1       8.828  46.905  53.649  1.00  0.00     0.047 A 
ATOM     30  C   UNL     1      10.311  46.158  51.728  1.00  0.00     0.046 C 
ATOM     31  Cl  UNL     1      10.208  47.278  54.622  1.00  0.00    -0.084 Cl
BRANCH  26  32
ATOM     32  O   UNL     1       5.124  47.024  53.903  1.00  0.00    -0.495 OA
ATOM     33  C   UNL     1       4.679  46.183  54.961  1.00  0.00     0.278 C 
ENDBRANCH  26  32
ENDBRANCH  22  24
ENDBRANCH   3  22
TORSDOF 7
ENDMDL
MODEL 2
REMARK VINA RESULT:    -9.301      3.655      7.964
REMARK INTER + INTRA:         -14.270
REMARK INTER:                 -13.149
REMARK INTRA:                  -1.121
REMARK UNBOUND:                -1.163
REMARK SMILES COc1ccc(CNc2nc(Nc3cc(C)c(Cl)cc3OC)c3cnn(C)c3n2)cc1
REMARK SMILES IDX 9 1 10 2 11 3 23 4 24 5 25 6 26 7 27 8 28 9 29 10 8 11 7 13
REMARK SMILES IDX 6 14 3 15 4 16 31 17 5 18 30 19 2 20 1 21 12 22 13 24 14 25
REMARK SMILES IDX 20 26 15 27 19 28 17 29 16 30 18 31 21 32 22 33
REMARK H PARENT 8 12 12 23
ROOT
ATOM      1  C   UNL     1       6.125  44.884  50.766  1.00  0.00     0.227 A 
ATOM      2  N   UNL     1       5.452  44.852  51.930  1.00  0.00    -0.195 NA
ATOM      3  C   UNL     1       4.677  43.784  52.261  1.00  0.00     0.147 A 
ATOM      4  C   UNL     1       4.624  42.732  51.336  1.00  0.00     0.082 A 
ATOM      5  C   UNL     1       4.004  41.472  51.203  1.00  0.00     0.149 A 
ATOM      6  N   UNL     1       4.315  40.856  50.057  1.00  0.00    -0.179 NA
ATOM      7  N   UNL     1       5.134  41.743  49.443  1.00  0.00    -0.250 N 
ATOM      8  C   UNL     1       5.665  41.438  48.140  1.00  0.00     0.176 C 
ATOM      9  C   UNL     1       5.361  42.874  50.178  1.00  0.00     0.165 A 
ATOM     10  N   UNL     1       6.135  43.913  49.847  1.00  0.00    -0.193 NA
ENDROOT
BRANCH   1  11
ATOM     11  N   UNL     1       6.864  46.046  50.566  1.00  0.00    -0.350 N 
ATOM     12  H   UNL     1       6.393  46.750  51.125  1.00  0.00     0.164 HD
BRANCH  11  13
ATOM     13  C   UNL     1       8.286  45.927  50.825  1.00  0.00     0.152 C 
BRANCH  13  14
ATOM     14  C   UNL     1       8.682  46.525  52.158  1.00  0.00    -0.029 A 
ATOM     15  C   UNL     1       9.431  47.699  54.611  1.00  0.00     0.118 A 
ATOM     16  C   UNL     1      10.288  46.812  53.958  1.00  0.00     0.047 A 
ATOM     17  C   UNL     1       8.199  48.003  54.034  1.00  0.00     0.047 A 
ATOM     18  C   UNL     1       9.921  46.230  52.742  1.00  0.00     0.009 A 
ATOM     19  C   UNL     1       7.828  47.421  52.815  1.00  0.00     0.009 A 
BRANCH  15  20
ATOM     20  O   UNL     1       9.914  48.197  55.791  1.00  0.00    -0.497 OA
ATOM     21  C   UNL     1      11.056  47.552  56.340  1.00  0.00     0.278 C 
ENDBRANCH  15  20
ENDBRANCH  13  14
ENDBRANCH  11  13
ENDBRANCH   1  11
BRANCH   3  22
ATOM     22  N   UNL     1       3.974  43.721  53.468  1.00  0.00    -0.336 N 
ATOM     23  H   UNL     1       4.524  43.437  54.273  1.00  0.00     0.168 HD
BRANCH  22  24
ATOM     24  C   UNL     1       2.639  43.991  53.834  1.00  0.00     0.083 A 
ATOM     25  C   UNL     1       1.533  43.373  53.238  1.00  0.00     0.035 A 
ATOM     26  C   UNL     1       2.413  44.945  54.854  1.00  0.00     0.143 A 
ATOM     27  C   UNL     1       0.217  43.681  53.628  1.00  0.00    -0.030 A 
ATOM     28  C   UNL     1       1.111  45.260  55.251  1.00  0.00     0.069 A 
ATOM     29  C   UNL     1       0.023  44.631  54.639  1.00  0.00     0.047 A 
ATOM     30  C   UNL     1      -0.932  42.984  52.957  1.00  0.00     0.046 C 
ATOM     31  Cl  UNL     1      -1.563  45.064  55.174  1.00  0.00    -0.084 Cl
BRANCH  26  32
ATOM     32  O   UNL     1       3.555  45.501  55.390  1.00  0.00    -0.495 OA
ATOM     33  C   UNL     1       3.994  46.737  54.837  1.00  0.00     0.278 C 
ENDBRANCH  26  32
ENDBRANCH  22  24
ENDBRANCH   3  22
TORSDOF 7
ENDMDL
MODEL 3
REMARK VINA RESULT:    -9.238      2.888      6.812
REMARK INTER + INTRA:         -14.181
REMARK INTER:                 -13.018
REMARK INTRA:                  -1.164
REMARK UNBOUND:                -1.163
REMARK SMILES COc1ccc(CNc2nc(Nc3cc(C)c(Cl)cc3OC)c3cnn(C)c3n2)cc1
REMARK SMILES IDX 9 1 10 2 11 3 23 4 24 5 25 6 26 7 27 8 28 9 29 10 8 11 7 13
REMARK SMILES IDX 6 14 3 15 4 16 31 17 5 18 30 19 2 20 1 21 12 22 13 24 14 25
REMARK SMILES IDX 20 26 15 27 19 28 17 29 16 30 18 31 21 32 22 33
REMARK H PARENT 8 12 12 23
ROOT
ATOM      1  C   UNL     1       2.276  44.380  51.971  1.00  0.00     0.227 A 
ATOM      2  N   UNL     1       3.118  45.421  52.094  1.00  0.00    -0.195 NA
ATOM      3  C   UNL     1       4.398  45.344  51.638  1.00  0.00     0.147 A 
ATOM      4  C   UNL     1       4.781  44.139  51.036  1.00  0.00     0.082 A 
ATOM      5  C   UNL     1       5.926  43.575  50.435  1.00  0.00     0.149 A 
ATOM      6  N   UNL     1       5.729  42.322  50.010  1.00  0.00    -0.179 NA
ATOM      7  N   UNL     1       4.443  42.078  50.357  1.00  0.00    -0.250 N 
ATOM      8  C   UNL     1       3.863  40.789  50.081  1.00  0.00     0.176 C 
ATOM      9  C   UNL     1       3.830  43.142  50.960  1.00  0.00     0.165 A 
ATOM     10  N   UNL     1       2.566  43.209  51.395  1.00  0.00    -0.193 NA
ENDROOT
BRANCH   1  11
ATOM     11  N   UNL     1       1.007  44.607  52.496  1.00  0.00    -0.350 N 
ATOM     12  H   UNL     1       0.385  44.557  51.697  1.00  0.00     0.164 HD
BRANCH  11  13
ATOM     13  C   UNL     1       0.633  43.746  53.602  1.00  0.00     0.152 C 
BRANCH  13  14
ATOM     14  C   UNL     1       0.352  44.524  54.869  1.00  0.00    -0.029 A 
ATOM     15  C   UNL     1      -0.187  46.029  57.194  1.00  0.00     0.118 A 
ATOM     16  C   UNL     1       1.126  45.710  56.844  1.00  0.00     0.047 A 
ATOM     17  C   UNL     1      -1.232  45.598  56.379  1.00  0.00     0.047 A 
ATOM     18  C   UNL     1       1.397  44.967  55.691  1.00  0.00     0.009 A 
ATOM     19  C   UNL     1      -0.963  44.852  55.224  1.00  0.00     0.009 A 
BRANCH  15  20
ATOM     20  O   UNL     1      -0.310  46.762  58.343  1.00  0.00    -0.497 OA
ATOM     21  C   UNL     1       0.895  47.202  58.956  1.00  0.00     0.278 C 
ENDBRANCH  15  20
ENDBRANCH  13  14
ENDBRANCH  11  13
ENDBRANCH   1  11
BRANCH   3  22
ATOM     22  N   UNL     1       5.290  46.415  51.745  1.00  0.00    -0.336 N 
ATOM     23  H   UNL     1       5.016  47.257  51.249  1.00  0.00     0.168 HD
BRANCH  22  24
ATOM     24  C   UNL     1       6.512  46.601  52.425  1.00  0.00     0.083 A 
ATOM     25  C   UNL     1       7.766  46.445  51.820  1.00  0.00     0.035 A 
ATOM     26  C   UNL     1       6.462  46.957  53.793  1.00  0.00     0.143 A 
ATOM     27  C   UNL     1       8.959  46.630  52.539  1.00  0.00    -0.030 A 
ATOM     28  C   UNL     1       7.640  47.144  54.519  1.00  0.00     0.069 A 
ATOM     29  C   UNL     1       8.879  46.979  53.893  1.00  0.00     0.047 A 
ATOM     30  C   UNL     1      10.277  46.453  51.838  1.00  0.00     0.046 C 
ATOM     31  Cl  UNL     1      10.301  47.225  54.845  1.00  0.00    -0.084 Cl
BRANCH  26  32
ATOM     32  O   UNL     1       5.190  47.094  54.308  1.00  0.00    -0.495 OA
ATOM     33  C   UNL     1       4.783  46.148  55.290  1.00  0.00     0.278 C 
ENDBRANCH  26  32
ENDBRANCH  22  24
ENDBRANCH   3  22
TORSDOF 7
ENDMDL
MODEL 4
REMARK VINA RESULT:    -9.209      2.709      6.875
REMARK INTER + INTRA:         -14.140
REMARK INTER:                 -12.703
REMARK INTRA:                  -1.437
REMARK UNBOUND:                -1.163
REMARK SMILES COc1ccc(CNc2nc(Nc3cc(C)c(Cl)cc3OC)c3cnn(C)c3n2)cc1
REMARK SMILES IDX 9 1 10 2 11 3 23 4 24 5 25 6 26 7 27 8 28 9 29 10 8 11 7 13
REMARK SMILES IDX 6 14 3 15 4 16 31 17 5 18 30 19 2 20 1 21 12 22 13 24 14 25
REMARK SMILES IDX 20 26 15 27 19 28 17 29 16 30 18 31 21 32 22 33
REMARK H PARENT 8 12 12 23
ROOT
ATOM      1  C   UNL     1       1.554  44.169  54.504  1.00  0.00     0.227 A 
ATOM      2  N   UNL     1       2.366  43.542  53.634  1.00  0.00    -0.195 NA
ATOM      3  C   UNL     1       1.897  43.092  52.439  1.00  0.00     0.147 A 
ATOM      4  C   UNL     1       0.541  43.319  52.168  1.00  0.00     0.082 A 
ATOM      5  C   UNL     1      -0.387  43.066  51.136  1.00  0.00     0.149 A 
ATOM      6  N   UNL     1      -1.614  43.522  51.415  1.00  0.00    -0.179 NA
ATOM      7  N   UNL     1      -1.469  44.061  52.648  1.00  0.00    -0.250 N 
ATOM      8  C   UNL     1      -2.609  44.642  53.310  1.00  0.00     0.176 C 
ATOM      9  C   UNL     1      -0.193  43.977  53.133  1.00  0.00     0.165 A 
ATOM     10  N   UNL     1       0.260  44.435  54.307  1.00  0.00    -0.193 NA
ENDROOT
BRANCH   1  11
ATOM     11  N   UNL     1       2.178  44.559  55.686  1.00  0.00    -0.350 N 
ATOM     12  H   UNL     1       2.872  43.841  55.860  1.00  0.00     0.164 HD
BRANCH  11  13
ATOM     13  C   UNL     1       2.700  45.913  55.692  1.00  0.00     0.152 C 
BRANCH  13  14
ATOM     14  C   UNL     1       4.115  45.988  55.163  1.00  0.00    -0.029 A 
ATOM     15  C   UNL     1       6.778  46.135  54.242  1.00  0.00     0.118 A 
ATOM     16  C   UNL     1       5.902  47.205  54.055  1.00  0.00     0.047 A 
ATOM     17  C   UNL     1       6.323  44.990  54.894  1.00  0.00     0.047 A 
ATOM     18  C   UNL     1       4.583  47.137  54.512  1.00  0.00     0.009 A 
ATOM     19  C   UNL     1       5.001  44.918  55.352  1.00  0.00     0.009 A 
BRANCH  15  20
ATOM     20  O   UNL     1       8.039  46.335  53.748  1.00  0.00    -0.497 OA
ATOM     21  C   UNL     1       8.741  47.474  54.226  1.00  0.00     0.278 C 
ENDBRANCH  15  20
ENDBRANCH  13  14
ENDBRANCH  11  13
ENDBRANCH   1  11
BRANCH   3  22
ATOM     22  N   UNL     1       2.721  42.445  51.513  1.00  0.00    -0.336 N 
ATOM     23  H   UNL     1       2.344  41.586  51.126  1.00  0.00     0.168 HD
BRANCH  22  24
ATOM     24  C   UNL     1       3.987  42.737  50.964  1.00  0.00     0.083 A 
ATOM     25  C   UNL     1       4.638  43.966  51.130  1.00  0.00     0.035 A 
ATOM     26  C   UNL     1       4.624  41.732  50.199  1.00  0.00     0.143 A 
ATOM     27  C   UNL     1       5.896  44.217  50.555  1.00  0.00    -0.030 A 
ATOM     28  C   UNL     1       5.874  41.969  49.622  1.00  0.00     0.069 A 
ATOM     29  C   UNL     1       6.503  43.205  49.801  1.00  0.00     0.047 A 
ATOM     30  C   UNL     1       6.551  45.552  50.769  1.00  0.00     0.046 C 
ATOM     31  Cl  UNL     1       8.048  43.435  49.062  1.00  0.00    -0.084 Cl
BRANCH  26  32
ATOM     32  O   UNL     1       3.918  40.553  50.089  1.00  0.00    -0.495 OA
ATOM     33  C   UNL     1       3.549  40.139  48.779  1.00  0.00     0.278 C 
ENDBRANCH  26  32
ENDBRANCH  22  24
ENDBRANCH   3  22
TORSDOF 7
ENDMDL
MODEL 5
REMARK VINA RESULT:    -8.970      2.825      6.762
REMARK INTER + INTRA:         -13.803
REMARK INTER:                 -12.752
REMARK INTRA:                  -1.051
REMARK UNBOUND:                -1.163
REMARK SMILES COc1ccc(CNc2nc(Nc3cc(C)c(Cl)cc3OC)c3cnn(C)c3n2)cc1
REMARK SMILES IDX 9 1 10 2 11 3 23 4 24 5 25 6 26 7 27 8 28 9 29 10 8 11 7 13
REMARK SMILES IDX 6 14 3 15 4 16 31 17 5 18 30 19 2 20 1 21 12 22 13 24 14 25
REMARK SMILES IDX 20 26 15 27 19 28 17 29 16 30 18 31 21 32 22 33
REMARK H PARENT 8 12 12 23
ROOT
ATOM      1  C   UNL     1       2.756  45.406  54.573  1.00  0.00     0.227 A 
ATOM      2  N   UNL     1       3.352  44.678  53.611  1.00  0.00    -0.195 NA
ATOM      3  C   UNL     1       2.700  43.646  53.010  1.00  0.00     0.147 A 
ATOM      4  C   UNL     1       1.392  43.391  53.440  1.00  0.00     0.082 A 
ATOM      5  C   UNL     1       0.344  42.489  53.158  1.00  0.00     0.149 A 
ATOM      6  N   UNL     1      -0.746  42.707  53.903  1.00  0.00    -0.179 NA
ATOM      7  N   UNL     1      -0.383  43.753  54.682  1.00  0.00    -0.250 N 
ATOM      8  C   UNL     1      -1.307  44.269  55.658  1.00  0.00     0.176 C 
ATOM      9  C   UNL     1       0.882  44.207  54.429  1.00  0.00     0.165 A 
ATOM     10  N   UNL     1       1.509  45.232  55.019  1.00  0.00    -0.193 NA
ENDROOT
BRANCH   1  11
ATOM     11  N   UNL     1       3.554  46.418  55.099  1.00  0.00    -0.350 N 
ATOM     12  H   UNL     1       4.243  45.935  55.665  1.00  0.00     0.164 HD
BRANCH  11  13
ATOM     13  C   UNL     1       4.115  47.333  54.122  1.00  0.00     0.152 C 
BRANCH  13  14
ATOM     14  C   UNL     1       5.603  47.137  53.935  1.00  0.00    -0.029 A 
ATOM     15  C   UNL     1       8.366  46.740  53.526  1.00  0.00     0.118 A 
ATOM     16  C   UNL     1       7.674  45.988  54.477  1.00  0.00     0.047 A 
ATOM     17  C   UNL     1       7.675  47.689  52.775  1.00  0.00     0.047 A 
ATOM     18  C   UNL     1       6.305  46.181  54.681  1.00  0.00     0.009 A 
ATOM     19  C   UNL     1       6.303  47.885  52.978  1.00  0.00     0.009 A 
BRANCH  15  20
ATOM     20  O   UNL     1       9.700  46.449  53.428  1.00  0.00    -0.497 OA
ATOM     21  C   UNL     1      10.235  46.329  52.116  1.00  0.00     0.278 C 
ENDBRANCH  15  20
ENDBRANCH  13  14
ENDBRANCH  11  13
ENDBRANCH   1  11
BRANCH   3  22
ATOM     22  N   UNL     1       3.293  42.880  52.002  1.00  0.00    -0.336 N 
ATOM     23  H   UNL     1       2.793  42.032  51.754  1.00  0.00     0.168 HD
BRANCH  22  24
ATOM     24  C   UNL     1       4.454  43.033  51.215  1.00  0.00     0.083 A 
ATOM     25  C   UNL     1       5.202  44.215  51.162  1.00  0.00     0.035 A 
ATOM     26  C   UNL     1       4.874  41.931  50.433  1.00  0.00     0.143 A 
ATOM     27  C   UNL     1       6.348  44.327  50.355  1.00  0.00    -0.030 A 
ATOM     28  C   UNL     1       6.010  42.030  49.627  1.00  0.00     0.069 A 
ATOM     29  C   UNL     1       6.739  43.222  49.590  1.00  0.00     0.047 A 
ATOM     30  C   UNL     1       7.116  45.619  50.340  1.00  0.00     0.046 C 
ATOM     31  Cl  UNL     1       8.135  43.279  48.572  1.00  0.00    -0.084 Cl
BRANCH  26  32
ATOM     32  O   UNL     1       4.084  40.807  50.547  1.00  0.00    -0.495 OA
ATOM     33  C   UNL     1       3.427  40.355  49.368  1.00  0.00     0.278 C 
ENDBRANCH  26  32
ENDBRANCH  22  24
ENDBRANCH   3  22
TORSDOF 7
ENDMDL
MODEL 6
REMARK VINA RESULT:    -8.922      3.650      8.210
REMARK INTER + INTRA:         -13.736
REMARK INTER:                 -12.648
REMARK INTRA:                  -1.088
REMARK UNBOUND:                -1.163
REMARK SMILES COc1ccc(CNc2nc(Nc3cc(C)c(Cl)cc3OC)c3cnn(C)c3n2)cc1
REMARK SMILES IDX 9 1 10 2 11 3 23 4 24 5 25 6 26 7 27 8 28 9 29 10 8 11 7 13
REMARK SMILES IDX 6 14 3 15 4 16 31 17 5 18 30 19 2 20 1 21 12 22 13 24 14 25
REMARK SMILES IDX 20 26 15 27 19 28 17 29 16 30 18 31 21 32 22 33
REMARK H PARENT 8 12 12 23
ROOT
ATOM      1  C   UNL     1       5.742  45.367  50.880  1.00  0.00     0.227 A 
ATOM      2  N   UNL     1       4.470  45.685  51.179  1.00  0.00    -0.195 NA
ATOM      3  C   UNL     1       3.505  44.728  51.237  1.00  0.00     0.147 A 
ATOM      4  C   UNL     1       3.905  43.412  50.975  1.00  0.00     0.082 A 
ATOM      5  C   UNL     1       3.330  42.126  50.909  1.00  0.00     0.149 A 
ATOM      6  N   UNL     1       4.217  41.172  50.601  1.00  0.00    -0.179 NA
ATOM      7  N   UNL     1       5.372  41.863  50.454  1.00  0.00    -0.250 N 
ATOM      8  C   UNL     1       6.577  41.165  50.086  1.00  0.00     0.176 C 
ATOM      9  C   UNL     1       5.238  43.204  50.685  1.00  0.00     0.165 A 
ATOM     10  N   UNL     1       6.199  44.135  50.636  1.00  0.00    -0.193 NA
ENDROOT
BRANCH   1  11
ATOM     11  N   UNL     1       6.610  46.455  50.847  1.00  0.00    -0.350 N 
ATOM     12  H   UNL     1       6.225  47.111  51.518  1.00  0.00     0.164 HD
BRANCH  11  13
ATOM     13  C   UNL     1       8.010  46.136  51.055  1.00  0.00     0.152 C 
BRANCH  13  14
ATOM     14  C   UNL     1       8.520  46.622  52.394  1.00  0.00    -0.029 A 
ATOM     15  C   UNL     1       9.459  47.594  54.871  1.00  0.00     0.118 A 
ATOM     16  C   UNL     1      10.353  47.115  53.912  1.00  0.00     0.047 A 
ATOM     17  C   UNL     1       8.094  47.590  54.590  1.00  0.00     0.047 A 
ATOM     18  C   UNL     1       9.891  46.635  52.683  1.00  0.00     0.009 A 
ATOM     19  C   UNL     1       7.628  47.109  53.359  1.00  0.00     0.009 A 
BRANCH  15  20
ATOM     20  O   UNL     1      10.043  48.035  56.027  1.00  0.00    -0.497 OA
ATOM     21  C   UNL     1      11.291  47.452  56.378  1.00  0.00     0.278 C 
ENDBRANCH  15  20
ENDBRANCH  13  14
ENDBRANCH  11  13
ENDBRANCH   1  11
BRANCH   3  22
ATOM     22  N   UNL     1       2.177  45.031  51.556  1.00  0.00    -0.336 N 
ATOM     23  H   UNL     1       1.639  45.454  50.806  1.00  0.00     0.168 HD
BRANCH  22  24
ATOM     24  C   UNL     1       1.388  44.858  52.712  1.00  0.00     0.083 A 
ATOM     25  C   UNL     1       1.769  45.303  53.983  1.00  0.00     0.035 A 
ATOM     26  C   UNL     1       0.149  44.188  52.573  1.00  0.00     0.143 A 
ATOM     27  C   UNL     1       0.955  45.099  55.111  1.00  0.00    -0.030 A 
ATOM     28  C   UNL     1      -0.669  43.979  53.686  1.00  0.00     0.069 A 
ATOM     29  C   UNL     1      -0.265  44.432  54.945  1.00  0.00     0.047 A 
ATOM     30  C   UNL     1       1.412  45.603  56.451  1.00  0.00     0.046 C 
ATOM     31  Cl  UNL     1      -1.322  44.142  56.282  1.00  0.00    -0.084 Cl
BRANCH  26  32
ATOM     32  O   UNL     1      -0.151  43.786  51.289  1.00  0.00    -0.495 OA
ATOM     33  C   UNL     1      -1.493  43.962  50.852  1.00  0.00     0.278 C 
ENDBRANCH  26  32
ENDBRANCH  22  24
ENDBRANCH   3  22
TORSDOF 7
ENDMDL
MODEL 7
REMARK VINA RESULT:    -8.897      3.641      7.494
REMARK INTER + INTRA:         -13.701
REMARK INTER:                 -12.600
REMARK INTRA:                  -1.101
REMARK UNBOUND:                -1.163
REMARK SMILES COc1ccc(CNc2nc(Nc3cc(C)c(Cl)cc3OC)c3cnn(C)c3n2)cc1
REMARK SMILES IDX 9 1 10 2 11 3 23 4 24 5 25 6 26 7 27 8 28 9 29 10 8 11 7 13
REMARK SMILES IDX 6 14 3 15 4 16 31 17 5 18 30 19 2 20 1 21 12 22 13 24 14 25
REMARK SMILES IDX 20 26 15 27 19 28 17 29 16 30 18 31 21 32 22 33
REMARK H PARENT 8 12 12 23
ROOT
ATOM      1  C   UNL     1       5.602  46.895  54.210  1.00  0.00     0.227 A 
ATOM      2  N   UNL     1       5.513  46.131  53.106  1.00  0.00    -0.195 NA
ATOM      3  C   UNL     1       6.622  45.815  52.383  1.00  0.00     0.147 A 
ATOM      4  C   UNL     1       7.843  46.321  52.847  1.00  0.00     0.082 A 
ATOM      5  C   UNL     1       9.206  46.291  52.484  1.00  0.00     0.149 A 
ATOM      6  N   UNL     1       9.985  46.982  53.324  1.00  0.00    -0.179 NA
ATOM      7  N   UNL     1       9.104  47.471  54.228  1.00  0.00    -0.250 N 
ATOM      8  C   UNL     1       9.576  48.310  55.300  1.00  0.00     0.176 C 
ATOM      9  C   UNL     1       7.812  47.089  53.993  1.00  0.00     0.165 A 
ATOM     10  N   UNL     1       6.731  47.396  54.719  1.00  0.00    -0.193 NA
ENDROOT
BRANCH   1  11
ATOM     11  N   UNL     1       4.382  47.139  54.833  1.00  0.00    -0.350 N 
ATOM     12  H   UNL     1       3.824  47.612  54.131  1.00  0.00     0.164 HD
BRANCH  11  13
ATOM     13  C   UNL     1       3.746  45.976  55.423  1.00  0.00     0.152 C 
BRANCH  13  14
ATOM     14  C   UNL     1       2.502  45.555  54.671  1.00  0.00    -0.029 A 
ATOM     15  C   UNL     1       0.156  44.831  53.282  1.00  0.00     0.118 A 
ATOM     16  C   UNL     1       0.430  44.293  54.540  1.00  0.00     0.047 A 
ATOM     17  C   UNL     1       1.054  45.736  52.719  1.00  0.00     0.047 A 
ATOM     18  C   UNL     1       1.591  44.651  55.232  1.00  0.00     0.009 A 
ATOM     19  C   UNL     1       2.218  46.096  53.410  1.00  0.00     0.009 A 
BRANCH  15  20
ATOM     20  O   UNL     1      -1.013  44.398  52.717  1.00  0.00    -0.497 OA
ATOM     21  C   UNL     1      -1.165  44.604  51.319  1.00  0.00     0.278 C 
ENDBRANCH  15  20
ENDBRANCH  13  14
ENDBRANCH  11  13
ENDBRANCH   1  11
BRANCH   3  22
ATOM     22  N   UNL     1       6.559  45.015  51.238  1.00  0.00    -0.336 N 
ATOM     23  H   UNL     1       7.231  45.246  50.513  1.00  0.00     0.168 HD
BRANCH  22  24
ATOM     24  C   UNL     1       5.761  43.914  50.860  1.00  0.00     0.083 A 
ATOM     25  C   UNL     1       4.413  43.779  51.211  1.00  0.00     0.035 A 
ATOM     26  C   UNL     1       6.366  42.891  50.092  1.00  0.00     0.143 A 
ATOM     27  C   UNL     1       3.659  42.658  50.822  1.00  0.00    -0.030 A 
ATOM     28  C   UNL     1       5.628  41.773  49.699  1.00  0.00     0.069 A 
ATOM     29  C   UNL     1       4.283  41.660  50.064  1.00  0.00     0.047 A 
ATOM     30  C   UNL     1       2.213  42.567  51.223  1.00  0.00     0.046 C 
ATOM     31  Cl  UNL     1       3.425  40.252  49.546  1.00  0.00    -0.084 Cl
BRANCH  26  32
ATOM     32  O   UNL     1       7.694  43.105  49.787  1.00  0.00    -0.495 OA
ATOM     33  C   UNL     1       7.976  43.826  48.593  1.00  0.00     0.278 C 
ENDBRANCH  26  32
ENDBRANCH  22  24
ENDBRANCH   3  22
TORSDOF 7
ENDMDL
MODEL 8
REMARK VINA RESULT:    -8.894      4.007      8.329
REMARK INTER + INTRA:         -13.696
REMARK INTER:                 -12.689
REMARK INTRA:                  -1.007
REMARK UNBOUND:                -1.163
REMARK SMILES COc1ccc(CNc2nc(Nc3cc(C)c(Cl)cc3OC)c3cnn(C)c3n2)cc1
REMARK SMILES IDX 9 1 10 2 11 3 23 4 24 5 25 6 26 7 27 8 28 9 29 10 8 11 7 13
REMARK SMILES IDX 6 14 3 15 4 16 31 17 5 18 30 19 2 20 1 21 12 22 13 24 14 25
REMARK SMILES IDX 20 26 15 27 19 28 17 29 16 30 18 31 21 32 22 33
REMARK H PARENT 8 12 12 23
ROOT
ATOM      1  C   UNL     1       5.708  45.375  51.314  1.00  0.00     0.227 A 
ATOM      2  N   UNL     1       4.734  45.472  52.237  1.00  0.00    -0.195 NA
ATOM      3  C   UNL     1       3.927  44.413  52.516  1.00  0.00     0.147 A 
ATOM      4  C   UNL     1       4.167  43.232  51.801  1.00  0.00     0.082 A 
ATOM      5  C   UNL     1       3.645  41.924  51.716  1.00  0.00     0.149 A 
ATOM      6  N   UNL     1       4.284  41.165  50.819  1.00  0.00    -0.179 NA
ATOM      7  N   UNL     1       5.218  42.005  50.314  1.00  0.00    -0.250 N 
ATOM      8  C   UNL     1       6.105  41.545  49.276  1.00  0.00     0.176 C 
ATOM      9  C   UNL     1       5.197  43.248  50.883  1.00  0.00     0.165 A 
ATOM     10  N   UNL     1       6.004  44.279  50.608  1.00  0.00    -0.193 NA
ENDROOT
BRANCH   1  11
ATOM     11  N   UNL     1       6.440  46.545  51.133  1.00  0.00    -0.350 N 
ATOM     12  H   UNL     1       6.098  47.176  51.849  1.00  0.00     0.164 HD
BRANCH  11  13
ATOM     13  C   UNL     1       7.881  46.376  51.121  1.00  0.00     0.152 C 
BRANCH  13  14
ATOM     14  C   UNL     1       8.527  46.829  52.413  1.00  0.00    -0.029 A 
ATOM     15  C   UNL     1       9.726  47.610  54.844  1.00  0.00     0.118 A 
ATOM     16  C   UNL     1       8.405  47.959  54.560  1.00  0.00     0.047 A 
ATOM     17  C   UNL     1      10.448  46.866  53.912  1.00  0.00     0.047 A 
ATOM     18  C   UNL     1       7.807  47.572  53.357  1.00  0.00     0.009 A 
ATOM     19  C   UNL     1       9.851  46.478  52.705  1.00  0.00     0.009 A 
BRANCH  15  20
ATOM     20  O   UNL     1      10.186  48.050  56.055  1.00  0.00    -0.497 OA
ATOM     21  C   UNL     1      11.354  47.421  56.565  1.00  0.00     0.278 C 
ENDBRANCH  15  20
ENDBRANCH  13  14
ENDBRANCH  11  13
ENDBRANCH   1  11
BRANCH   3  22
ATOM     22  N   UNL     1       2.914  44.483  53.477  1.00  0.00    -0.336 N 
ATOM     23  H   UNL     1       3.233  44.612  54.432  1.00  0.00     0.168 HD
BRANCH  22  24
ATOM     24  C   UNL     1       1.505  44.436  53.414  1.00  0.00     0.083 A 
ATOM     25  C   UNL     1       0.788  44.297  52.220  1.00  0.00     0.035 A 
ATOM     26  C   UNL     1       0.785  44.542  54.627  1.00  0.00     0.143 A 
ATOM     27  C   UNL     1      -0.618  44.265  52.204  1.00  0.00    -0.030 A 
ATOM     28  C   UNL     1      -0.611  44.512  54.625  1.00  0.00     0.069 A 
ATOM     29  C   UNL     1      -1.305  44.375  53.418  1.00  0.00     0.047 A 
ATOM     30  C   UNL     1      -1.336  44.110  50.893  1.00  0.00     0.046 C 
ATOM     31  Cl  UNL     1      -3.032  44.344  53.483  1.00  0.00    -0.084 Cl
BRANCH  26  32
ATOM     32  O   UNL     1       1.567  44.671  55.755  1.00  0.00    -0.495 OA
ATOM     33  C   UNL     1       1.058  45.483  56.807  1.00  0.00     0.278 C 
ENDBRANCH  26  32
ENDBRANCH  22  24
ENDBRANCH   3  22
TORSDOF 7
ENDMDL
MODEL 9
REMARK VINA RESULT:    -8.734      4.176      8.455
REMARK INTER + INTRA:         -13.470
REMARK INTER:                 -12.482
REMARK INTRA:                  -0.988
REMARK UNBOUND:                -1.163
REMARK SMILES COc1ccc(CNc2nc(Nc3cc(C)c(Cl)cc3OC)c3cnn(C)c3n2)cc1
REMARK SMILES IDX 9 1 10 2 11 3 23 4 24 5 25 6 26 7 27 8 28 9 29 10 8 11 7 13
REMARK SMILES IDX 6 14 3 15 4 16 31 17 5 18 30 19 2 20 1 21 12 22 13 24 14 25
REMARK SMILES IDX 20 26 15 27 19 28 17 29 16 30 18 31 21 32 22 33
REMARK H PARENT 8 12 12 23
ROOT
ATOM      1  C   UNL     1       2.442  45.552  55.151  1.00  0.00     0.227 A 
ATOM      2  N   UNL     1       3.367  46.184  54.406  1.00  0.00    -0.195 NA
ATOM      3  C   UNL     1       3.607  45.806  53.121  1.00  0.00     0.147 A 
ATOM      4  C   UNL     1       2.846  44.741  52.624  1.00  0.00     0.082 A 
ATOM      5  C   UNL     1       2.713  44.004  51.428  1.00  0.00     0.149 A 
ATOM      6  N   UNL     1       1.785  43.043  51.507  1.00  0.00    -0.179 NA
ATOM      7  N   UNL     1       1.329  43.160  52.776  1.00  0.00    -0.250 N 
ATOM      8  C   UNL     1       0.315  42.256  53.255  1.00  0.00     0.176 C 
ATOM      9  C   UNL     1       1.923  44.173  53.478  1.00  0.00     0.165 A 
ATOM     10  N   UNL     1       1.669  44.542  54.739  1.00  0.00    -0.193 NA
ENDROOT
BRANCH   1  11
ATOM     11  N   UNL     1       2.321  46.044  56.447  1.00  0.00    -0.350 N 
ATOM     12  H   UNL     1       2.269  47.051  56.336  1.00  0.00     0.164 HD
BRANCH  11  13
ATOM     13  C   UNL     1       1.240  45.470  57.227  1.00  0.00     0.152 C 
BRANCH  13  14
ATOM     14  C   UNL     1       0.418  46.523  57.937  1.00  0.00    -0.029 A 
ATOM     15  C   UNL     1      -1.126  48.442  59.312  1.00  0.00     0.118 A 
ATOM     16  C   UNL     1      -1.627  47.814  58.171  1.00  0.00     0.047 A 
ATOM     17  C   UNL     1       0.148  48.109  59.769  1.00  0.00     0.047 A 
ATOM     18  C   UNL     1      -0.865  46.861  57.489  1.00  0.00     0.009 A 
ATOM     19  C   UNL     1       0.914  47.155  59.086  1.00  0.00     0.009 A 
BRANCH  15  20
ATOM     20  O   UNL     1      -1.975  49.352  59.883  1.00  0.00    -0.497 OA
ATOM     21  C   UNL     1      -1.871  50.696  59.435  1.00  0.00     0.278 C 
ENDBRANCH  15  20
ENDBRANCH  13  14
ENDBRANCH  11  13
ENDBRANCH   1  11
BRANCH   3  22
ATOM     22  N   UNL     1       4.556  46.452  52.322  1.00  0.00    -0.336 N 
ATOM     23  H   UNL     1       4.173  47.057  51.602  1.00  0.00     0.168 HD
BRANCH  22  24
ATOM     24  C   UNL     1       5.966  46.468  52.303  1.00  0.00     0.083 A 
ATOM     25  C   UNL     1       6.745  47.157  53.240  1.00  0.00     0.035 A 
ATOM     26  C   UNL     1       6.622  45.755  51.271  1.00  0.00     0.143 A 
ATOM     27  C   UNL     1       8.150  47.155  53.176  1.00  0.00    -0.030 A 
ATOM     28  C   UNL     1       8.017  45.745  51.197  1.00  0.00     0.069 A 
ATOM     29  C   UNL     1       8.772  46.442  52.144  1.00  0.00     0.047 A 
ATOM     30  C   UNL     1       8.936  47.907  54.213  1.00  0.00     0.046 C 
ATOM     31  Cl  UNL     1      10.494  46.390  51.996  1.00  0.00    -0.084 Cl
BRANCH  26  32
ATOM     32  O   UNL     1       5.782  45.103  50.394  1.00  0.00    -0.495 OA
ATOM     33  C   UNL     1       6.106  43.757  50.067  1.00  0.00     0.278 C 
ENDBRANCH  26  32
ENDBRANCH  22  24
ENDBRANCH   3  22
TORSDOF 7
ENDMDL
MODEL 10
REMARK VINA RESULT:    -8.729      2.917      5.618
REMARK INTER + INTRA:         -13.464
REMARK INTER:                 -12.118
REMARK INTRA:                  -1.346
REMARK UNBOUND:                -1.163
REMARK SMILES COc1ccc(CNc2nc(Nc3cc(C)c(Cl)cc3OC)c3cnn(C)c3n2)cc1
REMARK SMILES IDX 9 1 10 2 11 3 23 4 24 5 25 6 26 7 27 8 28 9 29 10 8 11 7 13
REMARK SMILES IDX 6 14 3 15 4 16 31 17 5 18 30 19 2 20 1 21 12 22 13 24 14 25
REMARK SMILES IDX 20 26 15 27 19 28 17 29 16 30 18 31 21 32 22 33
REMARK H PARENT 8 12 12 23
ROOT
ATOM      1  C   UNL     1       7.258  45.397  50.671  1.00  0.00     0.227 A 
ATOM      2  N   UNL     1       5.953  45.542  50.965  1.00  0.00    -0.195 NA
ATOM      3  C   UNL     1       5.559  46.156  52.113  1.00  0.00     0.147 A 
ATOM      4  C   UNL     1       6.573  46.627  52.957  1.00  0.00     0.082 A 
ATOM      5  C   UNL     1       6.694  47.295  54.194  1.00  0.00     0.149 A 
ATOM      6  N   UNL     1       7.966  47.506  54.551  1.00  0.00    -0.179 NA
ATOM      7  N   UNL     1       8.667  46.951  53.534  1.00  0.00    -0.250 N 
ATOM      8  C   UNL     1      10.107  46.957  53.575  1.00  0.00     0.176 C 
ATOM      9  C   UNL     1       7.876  46.427  52.549  1.00  0.00     0.165 A 
ATOM     10  N   UNL     1       8.276  45.835  51.418  1.00  0.00    -0.193 NA
ENDROOT
BRANCH   1  11
ATOM     11  N   UNL     1       7.501  44.739  49.469  1.00  0.00    -0.350 N 
ATOM     12  H   UNL     1       8.246  45.269  49.031  1.00  0.00     0.164 HD
BRANCH  11  13
ATOM     13  C   UNL     1       7.766  43.317  49.587  1.00  0.00     0.152 C 
BRANCH  13  14
ATOM     14  C   UNL     1       6.533  42.477  49.333  1.00  0.00    -0.029 A 
ATOM     15  C   UNL     1       4.267  40.858  48.887  1.00  0.00     0.118 A 
ATOM     16  C   UNL     1       5.076  41.254  47.821  1.00  0.00     0.047 A 
ATOM     17  C   UNL     1       4.593  41.269  50.178  1.00  0.00     0.047 A 
ATOM     18  C   UNL     1       6.201  42.055  48.039  1.00  0.00     0.009 A 
ATOM     19  C   UNL     1       5.719  42.072  50.399  1.00  0.00     0.009 A 
BRANCH  15  20
ATOM     20  O   UNL     1       3.201  40.075  48.534  1.00  0.00    -0.497 OA
ATOM     21  C   UNL     1       3.214  39.526  47.223  1.00  0.00     0.278 C 
ENDBRANCH  15  20
ENDBRANCH  13  14
ENDBRANCH  11  13
ENDBRANCH   1  11
BRANCH   3  22
ATOM     22  N   UNL     1       4.210  46.328  52.438  1.00  0.00    -0.336 N 
ATOM     23  H   UNL     1       3.910  47.293  52.540  1.00  0.00     0.168 HD
BRANCH  22  24
ATOM     24  C   UNL     1       3.135  45.438  52.644  1.00  0.00     0.083 A 
ATOM     25  C   UNL     1       2.504  44.734  51.612  1.00  0.00     0.035 A 
ATOM     26  C   UNL     1       2.670  45.257  53.968  1.00  0.00     0.143 A 
ATOM     27  C   UNL     1       1.428  43.864  51.862  1.00  0.00    -0.030 A 
ATOM     28  C   UNL     1       1.602  44.396  54.230  1.00  0.00     0.069 A 
ATOM     29  C   UNL     1       0.987  43.707  53.181  1.00  0.00     0.047 A 
ATOM     30  C   UNL     1       0.791  43.131  50.715  1.00  0.00     0.046 C 
ATOM     31  Cl  UNL     1      -0.329  42.656  53.571  1.00  0.00    -0.084 Cl
BRANCH  26  32
ATOM     32  O   UNL     1       3.348  45.983  54.924  1.00  0.00    -0.495 OA
ATOM     33  C   UNL     1       4.339  45.294  55.678  1.00  0.00     0.278 C 
ENDBRANCH  26  32
ENDBRANCH  22  24
ENDBRANCH   3  22
TORSDOF 7
ENDMDL
MODEL 11
REMARK VINA RESULT:    -8.620      1.216      1.992
REMARK INTER + INTRA:         -13.311
REMARK INTER:                 -12.088
REMARK INTRA:                  -1.223
REMARK UNBOUND:                -1.163
REMARK SMILES COc1ccc(CNc2nc(Nc3cc(C)c(Cl)cc3OC)c3cnn(C)c3n2)cc1
REMARK SMILES IDX 9 1 10 2 11 3 23 4 24 5 25 6 26 7 27 8 28 9 29 10 8 11 7 13
REMARK SMILES IDX 6 14 3 15 4 16 31 17 5 18 30 19 2 20 1 21 12 22 13 24 14 25
REMARK SMILES IDX 20 26 15 27 19 28 17 29 16 30 18 31 21 32 22 33
REMARK H PARENT 8 12 12 23
ROOT
ATOM      1  C   UNL     1       3.710  42.470  51.125  1.00  0.00     0.227 A 
ATOM      2  N   UNL     1       4.597  43.471  50.987  1.00  0.00    -0.195 NA
ATOM      3  C   UNL     1       4.241  44.761  51.236  1.00  0.00     0.147 A 
ATOM      4  C   UNL     1       2.919  44.982  51.642  1.00  0.00     0.082 A 
ATOM      5  C   UNL     1       2.092  46.067  52.002  1.00  0.00     0.149 A 
ATOM      6  N   UNL     1       0.846  45.692  52.317  1.00  0.00    -0.179 NA
ATOM      7  N   UNL     1       0.876  44.350  52.141  1.00  0.00    -0.250 N 
ATOM      8  C   UNL     1      -0.319  43.576  52.363  1.00  0.00     0.176 C 
ATOM      9  C   UNL     1       2.099  43.877  51.754  1.00  0.00     0.165 A 
ATOM     10  N   UNL     1       2.441  42.604  51.523  1.00  0.00    -0.193 NA
ENDROOT
BRANCH   1  11
ATOM     11  N   UNL     1       4.220  41.211  50.823  1.00  0.00    -0.350 N 
ATOM     12  H   UNL     1       3.423  40.685  50.482  1.00  0.00     0.164 HD
BRANCH  11  13
ATOM     13  C   UNL     1       5.366  41.205  49.934  1.00  0.00     0.152 C 
BRANCH  13  14
ATOM     14  C   UNL     1       4.968  41.104  48.478  1.00  0.00    -0.029 A 
ATOM     15  C   UNL     1       4.204  40.980  45.765  1.00  0.00     0.118 A 
ATOM     16  C   UNL     1       3.452  40.329  46.744  1.00  0.00     0.047 A 
ATOM     17  C   UNL     1       5.337  41.698  46.143  1.00  0.00     0.047 A 
ATOM     18  C   UNL     1       3.827  40.390  48.089  1.00  0.00     0.009 A 
ATOM     19  C   UNL     1       5.715  41.760  47.490  1.00  0.00     0.009 A 
BRANCH  15  20
ATOM     20  O   UNL     1       3.725  40.841  44.490  1.00  0.00    -0.497 OA
ATOM     21  C   UNL     1       2.474  40.183  44.343  1.00  0.00     0.278 C 
ENDBRANCH  15  20
ENDBRANCH  13  14
ENDBRANCH  11  13
ENDBRANCH   1  11
BRANCH   3  22
ATOM     22  N   UNL     1       5.146  45.819  51.110  1.00  0.00    -0.336 N 
ATOM     23  H   UNL     1       4.830  46.591  50.532  1.00  0.00     0.168 HD
BRANCH  22  24
ATOM     24  C   UNL     1       6.429  46.072  51.638  1.00  0.00     0.083 A 
ATOM     25  C   UNL     1       6.650  46.700  52.869  1.00  0.00     0.035 A 
ATOM     26  C   UNL     1       7.550  45.675  50.871  1.00  0.00     0.143 A 
ATOM     27  C   UNL     1       7.949  46.942  53.351  1.00  0.00    -0.030 A 
ATOM     28  C   UNL     1       8.845  45.910  51.338  1.00  0.00     0.069 A 
ATOM     29  C   UNL     1       9.039  46.540  52.571  1.00  0.00     0.047 A 
ATOM     30  C   UNL     1       8.127  47.616  54.683  1.00  0.00     0.046 C 
ATOM     31  Cl  UNL     1      10.666  46.802  53.093  1.00  0.00    -0.084 Cl
BRANCH  26  32
ATOM     32  O   UNL     1       7.245  45.061  49.675  1.00  0.00    -0.495 OA
ATOM     33  C   UNL     1       8.027  43.930  49.309  1.00  0.00     0.278 C 
ENDBRANCH  26  32
ENDBRANCH  22  24
ENDBRANCH   3  22
TORSDOF 7
ENDMDL
MODEL 12
REMARK VINA RESULT:    -8.594      2.955      5.637
REMARK INTER + INTRA:         -13.273
REMARK INTER:                 -12.250
REMARK INTRA:                  -1.023
REMARK UNBOUND:                -1.163
REMARK SMILES COc1ccc(CNc2nc(Nc3cc(C)c(Cl)cc3OC)c3cnn(C)c3n2)cc1
REMARK SMILES IDX 9 1 10 2 11 3 23 4 24 5 25 6 26 7 27 8 28 9 29 10 8 11 7 13
REMARK SMILES IDX 6 14 3 15 4 16 31 17 5 18 30 19 2 20 1 21 12 22 13 24 14 25
REMARK SMILES IDX 20 26 15 27 19 28 17 29 16 30 18 31 21 32 22 33
REMARK H PARENT 8 12 12 23
ROOT
ATOM      1  C   UNL     1       6.525  44.653  50.982  1.00  0.00     0.227 A 
ATOM      2  N   UNL     1       5.447  44.241  51.672  1.00  0.00    -0.195 NA
ATOM      3  C   UNL     1       5.189  44.720  52.919  1.00  0.00     0.147 A 
ATOM      4  C   UNL     1       6.095  45.656  53.435  1.00  0.00     0.082 A 
ATOM      5  C   UNL     1       6.277  46.414  54.611  1.00  0.00     0.149 A 
ATOM      6  N   UNL     1       7.369  47.186  54.570  1.00  0.00    -0.179 NA
ATOM      7  N   UNL     1       7.899  46.906  53.356  1.00  0.00    -0.250 N 
ATOM      8  C   UNL     1       9.127  47.540  52.951  1.00  0.00     0.176 C 
ATOM      9  C   UNL     1       7.163  46.007  52.634  1.00  0.00     0.165 A 
ATOM     10  N   UNL     1       7.420  45.552  51.403  1.00  0.00    -0.193 NA
ENDROOT
BRANCH   1  11
ATOM     11  N   UNL     1       6.659  44.064  49.728  1.00  0.00    -0.350 N 
ATOM     12  H   UNL     1       7.375  44.611  49.262  1.00  0.00     0.164 HD
BRANCH  11  13
ATOM     13  C   UNL     1       6.907  42.635  49.740  1.00  0.00     0.152 C 
BRANCH  13  14
ATOM     14  C   UNL     1       5.807  41.852  49.057  1.00  0.00    -0.029 A 
ATOM     15  C   UNL     1       3.728  40.451  47.763  1.00  0.00     0.118 A 
ATOM     16  C   UNL     1       3.745  40.570  49.154  1.00  0.00     0.047 A 
ATOM     17  C   UNL     1       4.750  41.036  47.018  1.00  0.00     0.047 A 
ATOM     18  C   UNL     1       4.772  41.266  49.798  1.00  0.00     0.009 A 
ATOM     19  C   UNL     1       5.781  41.733  47.661  1.00  0.00     0.009 A 
BRANCH  15  20
ATOM     20  O   UNL     1       2.665  39.748  47.263  1.00  0.00    -0.497 OA
ATOM     21  C   UNL     1       2.865  38.360  47.035  1.00  0.00     0.278 C 
ENDBRANCH  15  20
ENDBRANCH  13  14
ENDBRANCH  11  13
ENDBRANCH   1  11
BRANCH   3  22
ATOM     22  N   UNL     1       4.070  44.316  53.654  1.00  0.00    -0.336 N 
ATOM     23  H   UNL     1       4.269  43.965  54.586  1.00  0.00     0.168 HD
BRANCH  22  24
ATOM     24  C   UNL     1       2.684  44.303  53.392  1.00  0.00     0.083 A 
ATOM     25  C   UNL     1       1.938  43.130  53.227  1.00  0.00     0.035 A 
ATOM     26  C   UNL     1       2.020  45.548  53.283  1.00  0.00     0.143 A 
ATOM     27  C   UNL     1       0.559  43.165  52.956  1.00  0.00    -0.030 A 
ATOM     28  C   UNL     1       0.651  45.596  53.014  1.00  0.00     0.069 A 
ATOM     29  C   UNL     1      -0.072  44.411  52.851  1.00  0.00     0.047 A 
ATOM     30  C   UNL     1      -0.193  41.875  52.792  1.00  0.00     0.046 C 
ATOM     31  Cl  UNL     1      -1.764  44.539  52.521  1.00  0.00    -0.084 Cl
BRANCH  26  32
ATOM     32  O   UNL     1       2.826  46.652  53.463  1.00  0.00    -0.495 OA
ATOM     33  C   UNL     1       3.043  47.487  52.332  1.00  0.00     0.278 C 
ENDBRANCH  26  32
ENDBRANCH  22  24
ENDBRANCH   3  22
TORSDOF 7
ENDMDL
MODEL 13
REMARK VINA RESULT:    -8.565      3.133      5.625
REMARK INTER + INTRA:         -13.233
REMARK INTER:                 -11.983
REMARK INTRA:                  -1.250
REMARK UNBOUND:                -1.163
REMARK SMILES COc1ccc(CNc2nc(Nc3cc(C)c(Cl)cc3OC)c3cnn(C)c3n2)cc1
REMARK SMILES IDX 9 1 10 2 11 3 23 4 24 5 25 6 26 7 27 8 28 9 29 10 8 11 7 13
REMARK SMILES IDX 6 14 3 15 4 16 31 17 5 18 30 19 2 20 1 21 12 22 13 24 14 25
REMARK SMILES IDX 20 26 15 27 19 28 17 29 16 30 18 31 21 32 22 33
REMARK H PARENT 8 12 12 23
ROOT
ATOM      1  C   UNL     1       6.241  44.641  50.956  1.00  0.00     0.227 A 
ATOM      2  N   UNL     1       5.319  44.026  51.719  1.00  0.00    -0.195 NA
ATOM      3  C   UNL     1       5.042  44.469  52.975  1.00  0.00     0.147 A 
ATOM      4  C   UNL     1       5.758  45.587  53.422  1.00  0.00     0.082 A 
ATOM      5  C   UNL     1       5.845  46.394  54.575  1.00  0.00     0.149 A 
ATOM      6  N   UNL     1       6.742  47.380  54.456  1.00  0.00    -0.179 NA
ATOM      7  N   UNL     1       7.245  47.189  53.213  1.00  0.00    -0.250 N 
ATOM      8  C   UNL     1       8.283  48.060  52.723  1.00  0.00     0.176 C 
ATOM      9  C   UNL     1       6.675  46.138  52.550  1.00  0.00     0.165 A 
ATOM     10  N   UNL     1       6.947  45.719  51.309  1.00  0.00    -0.193 NA
ENDROOT
BRANCH   1  11
ATOM     11  N   UNL     1       6.420  44.064  49.702  1.00  0.00    -0.350 N 
ATOM     12  H   UNL     1       7.133  44.632  49.257  1.00  0.00     0.164 HD
BRANCH  11  13
ATOM     13  C   UNL     1       6.704  42.641  49.711  1.00  0.00     0.152 C 
BRANCH  13  14
ATOM     14  C   UNL     1       5.670  41.841  48.950  1.00  0.00    -0.029 A 
ATOM     15  C   UNL     1       3.713  40.408  47.509  1.00  0.00     0.118 A 
ATOM     16  C   UNL     1       3.670  40.462  48.903  1.00  0.00     0.047 A 
ATOM     17  C   UNL     1       4.733  41.075  46.834  1.00  0.00     0.047 A 
ATOM     18  C   UNL     1       4.637  41.173  49.620  1.00  0.00     0.009 A 
ATOM     19  C   UNL     1       5.704  41.788  47.550  1.00  0.00     0.009 A 
BRANCH  15  20
ATOM     20  O   UNL     1       2.706  39.681  46.934  1.00  0.00    -0.497 OA
ATOM     21  C   UNL     1       2.744  38.273  47.122  1.00  0.00     0.278 C 
ENDBRANCH  15  20
ENDBRANCH  13  14
ENDBRANCH  11  13
ENDBRANCH   1  11
BRANCH   3  22
ATOM     22  N   UNL     1       4.082  43.854  53.785  1.00  0.00    -0.336 N 
ATOM     23  H   UNL     1       4.399  43.024  54.276  1.00  0.00     0.168 HD
BRANCH  22  24
ATOM     24  C   UNL     1       2.739  44.147  54.099  1.00  0.00     0.083 A 
ATOM     25  C   UNL     1       2.352  44.934  55.191  1.00  0.00     0.035 A 
ATOM     26  C   UNL     1       1.731  43.607  53.265  1.00  0.00     0.143 A 
ATOM     27  C   UNL     1       0.999  45.192  55.472  1.00  0.00    -0.030 A 
ATOM     28  C   UNL     1       0.383  43.855  53.534  1.00  0.00     0.069 A 
ATOM     29  C   UNL     1       0.023  44.642  54.632  1.00  0.00     0.047 A 
ATOM     30  C   UNL     1       0.643  46.047  56.655  1.00  0.00     0.046 C 
ATOM     31  Cl  UNL     1      -1.661  44.913  54.910  1.00  0.00    -0.084 Cl
BRANCH  26  32
ATOM     32  O   UNL     1       2.197  42.849  52.212  1.00  0.00    -0.495 OA
ATOM     33  C   UNL     1       1.668  43.136  50.923  1.00  0.00     0.278 C 
ENDBRANCH  26  32
ENDBRANCH  22  24
ENDBRANCH   3  22
TORSDOF 7
ENDMDL
MODEL 14
REMARK VINA RESULT:    -8.530      2.622      5.282
REMARK INTER + INTRA:         -13.184
REMARK INTER:                 -11.973
REMARK INTRA:                  -1.211
REMARK UNBOUND:                -1.163
REMARK SMILES COc1ccc(CNc2nc(Nc3cc(C)c(Cl)cc3OC)c3cnn(C)c3n2)cc1
REMARK SMILES IDX 9 1 10 2 11 3 23 4 24 5 25 6 26 7 27 8 28 9 29 10 8 11 7 13
REMARK SMILES IDX 6 14 3 15 4 16 31 17 5 18 30 19 2 20 1 21 12 22 13 24 14 25
REMARK SMILES IDX 20 26 15 27 19 28 17 29 16 30 18 31 21 32 22 33
REMARK H PARENT 8 12 12 23
ROOT
ATOM      1  C   UNL     1       7.025  44.130  49.834  1.00  0.00     0.227 A 
ATOM      2  N   UNL     1       5.773  44.491  50.171  1.00  0.00    -0.195 NA
ATOM      3  C   UNL     1       5.551  45.524  51.028  1.00  0.00     0.147 A 
ATOM      4  C   UNL     1       6.681  46.183  51.528  1.00  0.00     0.082 A 
ATOM      5  C   UNL     1       6.982  47.253  52.397  1.00  0.00     0.149 A 
ATOM      6  N   UNL     1       8.297  47.467  52.525  1.00  0.00    -0.179 NA
ATOM      7  N   UNL     1       8.842  46.511  51.737  1.00  0.00    -0.250 N 
ATOM      8  C   UNL     1      10.275  46.402  51.638  1.00  0.00     0.176 C 
ATOM      9  C   UNL     1       7.914  45.729  51.107  1.00  0.00     0.165 A 
ATOM     10  N   UNL     1       8.146  44.722  50.257  1.00  0.00    -0.193 NA
ENDROOT
BRANCH   1  11
ATOM     11  N   UNL     1       7.090  43.049  48.959  1.00  0.00    -0.350 N 
ATOM     12  H   UNL     1       8.070  42.791  48.941  1.00  0.00     0.164 HD
BRANCH  11  13
ATOM     13  C   UNL     1       6.186  41.955  49.260  1.00  0.00     0.152 C 
BRANCH  13  14
ATOM     14  C   UNL     1       5.385  41.518  48.052  1.00  0.00    -0.029 A 
ATOM     15  C   UNL     1       3.869  40.768  45.795  1.00  0.00     0.118 A 
ATOM     16  C   UNL     1       3.483  40.366  47.075  1.00  0.00     0.047 A 
ATOM     17  C   UNL     1       5.013  41.550  45.644  1.00  0.00     0.047 A 
ATOM     18  C   UNL     1       4.231  40.737  48.195  1.00  0.00     0.009 A 
ATOM     19  C   UNL     1       5.765  41.923  46.765  1.00  0.00     0.009 A 
BRANCH  15  20
ATOM     20  O   UNL     1       3.048  40.337  44.788  1.00  0.00    -0.497 OA
ATOM     21  C   UNL     1       1.688  40.747  44.849  1.00  0.00     0.278 C 
ENDBRANCH  15  20
ENDBRANCH  13  14
ENDBRANCH  11  13
ENDBRANCH   1  11
BRANCH   3  22
ATOM     22  N   UNL     1       4.261  45.926  51.387  1.00  0.00    -0.336 N 
ATOM     23  H   UNL     1       4.042  46.898  51.195  1.00  0.00     0.168 HD
BRANCH  22  24
ATOM     24  C   UNL     1       3.155  45.259  51.956  1.00  0.00     0.083 A 
ATOM     25  C   UNL     1       2.138  44.664  51.201  1.00  0.00     0.035 A 
ATOM     26  C   UNL     1       3.071  45.202  53.367  1.00  0.00     0.143 A 
ATOM     27  C   UNL     1       1.047  44.019  51.811  1.00  0.00    -0.030 A 
ATOM     28  C   UNL     1       1.993  44.564  53.986  1.00  0.00     0.069 A 
ATOM     29  C   UNL     1       0.989  43.979  53.209  1.00  0.00     0.047 A 
ATOM     30  C   UNL     1      -0.014  43.393  50.950  1.00  0.00     0.046 C 
ATOM     31  Cl  UNL     1      -0.318  43.205  54.034  1.00  0.00    -0.084 Cl
BRANCH  26  32
ATOM     32  O   UNL     1       4.114  45.809  54.034  1.00  0.00    -0.495 OA
ATOM     33  C   UNL     1       5.006  44.961  54.749  1.00  0.00     0.278 C 
ENDBRANCH  26  32
ENDBRANCH  22  24
ENDBRANCH   3  22
TORSDOF 7
ENDMDL
MODEL 15
REMARK VINA RESULT:    -8.525      2.868      3.970
REMARK INTER + INTRA:         -13.176
REMARK INTER:                 -12.043
REMARK INTRA:                  -1.133
REMARK UNBOUND:                -1.163
REMARK SMILES COc1ccc(CNc2nc(Nc3cc(C)c(Cl)cc3OC)c3cnn(C)c3n2)cc1
REMARK SMILES IDX 9 1 10 2 11 3 23 4 24 5 25 6 26 7 27 8 28 9 29 10 8 11 7 13
REMARK SMILES IDX 6 14 3 15 4 16 31 17 5 18 30 19 2 20 1 21 12 22 13 24 14 25
REMARK SMILES IDX 20 26 15 27 19 28 17 29 16 30 18 31 21 32 22 33
REMARK H PARENT 8 12 12 23
ROOT
ATOM      1  C   UNL     1       2.034  43.297  53.652  1.00  0.00     0.227 A 
ATOM      2  N   UNL     1       3.141  44.017  53.913  1.00  0.00    -0.195 NA
ATOM      3  C   UNL     1       3.133  44.996  54.857  1.00  0.00     0.147 A 
ATOM      4  C   UNL     1       1.926  45.206  55.537  1.00  0.00     0.082 A 
ATOM      5  C   UNL     1       1.415  46.049  56.547  1.00  0.00     0.149 A 
ATOM      6  N   UNL     1       0.128  45.809  56.824  1.00  0.00    -0.179 NA
ATOM      7  N   UNL     1      -0.190  44.809  55.968  1.00  0.00    -0.250 N 
ATOM      8  C   UNL     1      -1.533  44.288  55.950  1.00  0.00     0.176 C 
ATOM      9  C   UNL     1       0.858  44.404  55.189  1.00  0.00     0.165 A 
ATOM     10  N   UNL     1       0.857  43.431  54.271  1.00  0.00    -0.193 NA
ENDROOT
BRANCH   1  11
ATOM     11  N   UNL     1       2.197  42.342  52.653  1.00  0.00    -0.350 N 
ATOM     12  H   UNL     1       1.412  41.711  52.770  1.00  0.00     0.164 HD
BRANCH  11  13
ATOM     13  C   UNL     1       2.347  42.872  51.311  1.00  0.00     0.152 C 
BRANCH  13  14
ATOM     14  C   UNL     1       3.777  42.810  50.821  1.00  0.00    -0.029 A 
ATOM     15  C   UNL     1       6.462  42.661  49.967  1.00  0.00     0.118 A 
ATOM     16  C   UNL     1       5.919  43.875  50.393  1.00  0.00     0.047 A 
ATOM     17  C   UNL     1       5.662  41.520  49.971  1.00  0.00     0.047 A 
ATOM     18  C   UNL     1       4.590  43.951  50.819  1.00  0.00     0.009 A 
ATOM     19  C   UNL     1       4.330  41.594  50.397  1.00  0.00     0.009 A 
BRANCH  15  20
ATOM     20  O   UNL     1       7.773  42.726  49.579  1.00  0.00    -0.497 OA
ATOM     21  C   UNL     1       8.264  44.002  49.190  1.00  0.00     0.278 C 
ENDBRANCH  15  20
ENDBRANCH  13  14
ENDBRANCH  11  13
ENDBRANCH   1  11
BRANCH   3  22
ATOM     22  N   UNL     1       4.271  45.751  55.154  1.00  0.00    -0.336 N 
ATOM     23  H   UNL     1       4.410  45.954  56.139  1.00  0.00     0.168 HD
BRANCH  22  24
ATOM     24  C   UNL     1       5.312  46.294  54.372  1.00  0.00     0.083 A 
ATOM     25  C   UNL     1       6.666  46.000  54.574  1.00  0.00     0.035 A 
ATOM     26  C   UNL     1       4.963  47.191  53.335  1.00  0.00     0.143 A 
ATOM     27  C   UNL     1       7.672  46.573  53.776  1.00  0.00    -0.030 A 
ATOM     28  C   UNL     1       5.952  47.767  52.536  1.00  0.00     0.069 A 
ATOM     29  C   UNL     1       7.297  47.459  52.759  1.00  0.00     0.047 A 
ATOM     30  C   UNL     1       9.109  46.217  54.034  1.00  0.00     0.046 C 
ATOM     31  Cl  UNL     1       8.474  48.205  51.736  1.00  0.00    -0.084 Cl
BRANCH  26  32
ATOM     32  O   UNL     1       3.610  47.423  53.203  1.00  0.00    -0.495 OA
ATOM     33  C   UNL     1       3.016  47.093  51.952  1.00  0.00     0.278 C 
ENDBRANCH  26  32
ENDBRANCH  22  24
ENDBRANCH   3  22
TORSDOF 7
ENDMDL
MODEL 16
REMARK VINA RESULT:    -8.505      2.576      5.048
REMARK INTER + INTRA:         -13.148
REMARK INTER:                 -12.105
REMARK INTRA:                  -1.043
REMARK UNBOUND:                -1.163
REMARK SMILES COc1ccc(CNc2nc(Nc3cc(C)c(Cl)cc3OC)c3cnn(C)c3n2)cc1
REMARK SMILES IDX 9 1 10 2 11 3 23 4 24 5 25 6 26 7 27 8 28 9 29 10 8 11 7 13
REMARK SMILES IDX 6 14 3 15 4 16 31 17 5 18 30 19 2 20 1 21 12 22 13 24 14 25
REMARK SMILES IDX 20 26 15 27 19 28 17 29 16 30 18 31 21 32 22 33
REMARK H PARENT 8 12 12 23
ROOT
ATOM      1  C   UNL     1       3.276  42.750  52.257  1.00  0.00     0.227 A 
ATOM      2  N   UNL     1       3.780  43.948  52.605  1.00  0.00    -0.195 NA
ATOM      3  C   UNL     1       4.815  44.499  51.915  1.00  0.00     0.147 A 
ATOM      4  C   UNL     1       5.316  43.762  50.835  1.00  0.00     0.082 A 
ATOM      5  C   UNL     1       6.323  43.877  49.853  1.00  0.00     0.149 A 
ATOM      6  N   UNL     1       6.368  42.826  49.026  1.00  0.00    -0.179 NA
ATOM      7  N   UNL     1       5.385  42.023  49.496  1.00  0.00    -0.250 N 
ATOM      8  C   UNL     1       5.141  40.751  48.864  1.00  0.00     0.176 C 
ATOM      9  C   UNL     1       4.717  42.548  50.567  1.00  0.00     0.165 A 
ATOM     10  N   UNL     1       3.692  42.001  51.231  1.00  0.00    -0.193 NA
ENDROOT
BRANCH   1  11
ATOM     11  N   UNL     1       2.230  42.314  53.065  1.00  0.00    -0.350 N 
ATOM     12  H   UNL     1       2.665  41.693  53.737  1.00  0.00     0.164 HD
BRANCH  11  13
ATOM     13  C   UNL     1       1.425  43.368  53.654  1.00  0.00     0.152 C 
BRANCH  13  14
ATOM     14  C   UNL     1       0.168  43.648  52.859  1.00  0.00    -0.029 A 
ATOM     15  C   UNL     1      -2.204  44.194  51.433  1.00  0.00     0.118 A 
ATOM     16  C   UNL     1      -1.848  42.880  51.742  1.00  0.00     0.047 A 
ATOM     17  C   UNL     1      -1.374  45.237  51.841  1.00  0.00     0.047 A 
ATOM     18  C   UNL     1      -0.674  42.606  52.450  1.00  0.00     0.009 A 
ATOM     19  C   UNL     1      -0.197  44.965  52.550  1.00  0.00     0.009 A 
BRANCH  15  20
ATOM     20  O   UNL     1      -3.377  44.321  50.739  1.00  0.00    -0.497 OA
ATOM     21  C   UNL     1      -3.618  43.372  49.709  1.00  0.00     0.278 C 
ENDBRANCH  15  20
ENDBRANCH  13  14
ENDBRANCH  11  13
ENDBRANCH   1  11
BRANCH   3  22
ATOM     22  N   UNL     1       5.350  45.746  52.250  1.00  0.00    -0.336 N 
ATOM     23  H   UNL     1       4.746  46.540  52.060  1.00  0.00     0.168 HD
BRANCH  22  24
ATOM     24  C   UNL     1       6.568  46.161  52.828  1.00  0.00     0.083 A 
ATOM     25  C   UNL     1       7.796  46.127  52.156  1.00  0.00     0.035 A 
ATOM     26  C   UNL     1       6.542  46.628  54.164  1.00  0.00     0.143 A 
ATOM     27  C   UNL     1       8.988  46.541  52.776  1.00  0.00    -0.030 A 
ATOM     28  C   UNL     1       7.719  47.042  54.791  1.00  0.00     0.069 A 
ATOM     29  C   UNL     1       8.932  46.996  54.099  1.00  0.00     0.047 A 
ATOM     30  C   UNL     1      10.276  46.487  52.005  1.00  0.00     0.046 C 
ATOM     31  Cl  UNL     1      10.353  47.523  54.930  1.00  0.00    -0.084 Cl
BRANCH  26  32
ATOM     32  O   UNL     1       5.294  46.633  54.750  1.00  0.00    -0.495 OA
ATOM     33  C   UNL     1       4.957  45.517  55.566  1.00  0.00     0.278 C 
ENDBRANCH  26  32
ENDBRANCH  22  24
ENDBRANCH   3  22
TORSDOF 7
ENDMDL
MODEL 17
REMARK VINA RESULT:    -8.487      3.226      6.395
REMARK INTER + INTRA:         -13.122
REMARK INTER:                 -12.269
REMARK INTRA:                  -0.853
REMARK UNBOUND:                -1.163
REMARK SMILES COc1ccc(CNc2nc(Nc3cc(C)c(Cl)cc3OC)c3cnn(C)c3n2)cc1
REMARK SMILES IDX 9 1 10 2 11 3 23 4 24 5 25 6 26 7 27 8 28 9 29 10 8 11 7 13
REMARK SMILES IDX 6 14 3 15 4 16 31 17 5 18 30 19 2 20 1 21 12 22 13 24 14 25
REMARK SMILES IDX 20 26 15 27 19 28 17 29 16 30 18 31 21 32 22 33
REMARK H PARENT 8 12 12 23
ROOT
ATOM      1  C   UNL     1       1.502  44.261  54.867  1.00  0.00     0.227 A 
ATOM      2  N   UNL     1       2.234  43.775  53.848  1.00  0.00    -0.195 NA
ATOM      3  C   UNL     1       1.637  43.301  52.721  1.00  0.00     0.147 A 
ATOM      4  C   UNL     1       0.237  43.352  52.680  1.00  0.00     0.082 A 
ATOM      5  C   UNL     1      -0.807  43.007  51.797  1.00  0.00     0.149 A 
ATOM      6  N   UNL     1      -2.020  43.285  52.289  1.00  0.00    -0.179 NA
ATOM      7  N   UNL     1      -1.746  43.802  53.510  1.00  0.00    -0.250 N 
ATOM      8  C   UNL     1      -2.827  44.203  54.372  1.00  0.00     0.176 C 
ATOM      9  C   UNL     1      -0.407  43.876  53.782  1.00  0.00     0.165 A 
ATOM     10  N   UNL     1       0.169  44.355  54.891  1.00  0.00    -0.193 NA
ENDROOT
BRANCH   1  11
ATOM     11  N   UNL     1       2.255  44.697  55.953  1.00  0.00    -0.350 N 
ATOM     12  H   UNL     1       2.965  43.984  56.076  1.00  0.00     0.164 HD
BRANCH  11  13
ATOM     13  C   UNL     1       2.772  46.048  55.845  1.00  0.00     0.152 C 
BRANCH  13  14
ATOM     14  C   UNL     1       4.077  46.107  55.081  1.00  0.00    -0.029 A 
ATOM     15  C   UNL     1       6.475  46.205  53.599  1.00  0.00     0.118 A 
ATOM     16  C   UNL     1       6.195  45.114  54.423  1.00  0.00     0.047 A 
ATOM     17  C   UNL     1       5.553  47.247  53.513  1.00  0.00     0.047 A 
ATOM     18  C   UNL     1       5.006  45.062  55.158  1.00  0.00     0.009 A 
ATOM     19  C   UNL     1       4.362  47.197  54.248  1.00  0.00     0.009 A 
BRANCH  15  20
ATOM     20  O   UNL     1       7.670  46.128  52.936  1.00  0.00    -0.497 OA
ATOM     21  C   UNL     1       7.908  47.100  51.927  1.00  0.00     0.278 C 
ENDBRANCH  15  20
ENDBRANCH  13  14
ENDBRANCH  11  13
ENDBRANCH   1  11
BRANCH   3  22
ATOM     22  N   UNL     1       2.374  42.800  51.645  1.00  0.00    -0.336 N 
ATOM     23  H   UNL     1       1.892  42.113  51.074  1.00  0.00     0.168 HD
BRANCH  22  24
ATOM     24  C   UNL     1       3.669  43.056  51.146  1.00  0.00     0.083 A 
ATOM     25  C   UNL     1       4.580  42.049  50.807  1.00  0.00     0.035 A 
ATOM     26  C   UNL     1       4.063  44.406  50.991  1.00  0.00     0.143 A 
ATOM     27  C   UNL     1       5.866  42.351  50.323  1.00  0.00    -0.030 A 
ATOM     28  C   UNL     1       5.337  44.719  50.511  1.00  0.00     0.069 A 
ATOM     29  C   UNL     1       6.230  43.695  50.181  1.00  0.00     0.047 A 
ATOM     30  C   UNL     1       6.802  41.230  49.969  1.00  0.00     0.046 C 
ATOM     31  Cl  UNL     1       7.791  44.148  49.593  1.00  0.00    -0.084 Cl
BRANCH  26  32
ATOM     32  O   UNL     1       3.105  45.333  51.343  1.00  0.00    -0.495 OA
ATOM     33  C   UNL     1       3.288  46.663  50.874  1.00  0.00     0.278 C 
ENDBRANCH  26  32
ENDBRANCH  22  24
ENDBRANCH   3  22
TORSDOF 7
ENDMDL
MODEL 18
REMARK VINA RESULT:    -8.434      4.052      8.209
REMARK INTER + INTRA:         -13.048
REMARK INTER:                 -12.129
REMARK INTRA:                  -0.919
REMARK UNBOUND:                -1.163
REMARK SMILES COc1ccc(CNc2nc(Nc3cc(C)c(Cl)cc3OC)c3cnn(C)c3n2)cc1
REMARK SMILES IDX 9 1 10 2 11 3 23 4 24 5 25 6 26 7 27 8 28 9 29 10 8 11 7 13
REMARK SMILES IDX 6 14 3 15 4 16 31 17 5 18 30 19 2 20 1 21 12 22 13 24 14 25
REMARK SMILES IDX 20 26 15 27 19 28 17 29 16 30 18 31 21 32 22 33
REMARK H PARENT 8 12 12 23
ROOT
ATOM      1  C   UNL     1       2.158  45.251  54.760  1.00  0.00     0.227 A 
ATOM      2  N   UNL     1       3.069  45.901  54.013  1.00  0.00    -0.195 NA
ATOM      3  C   UNL     1       3.222  45.616  52.692  1.00  0.00     0.147 A 
ATOM      4  C   UNL     1       2.386  44.627  52.159  1.00  0.00     0.082 A 
ATOM      5  C   UNL     1       2.155  43.993  50.920  1.00  0.00     0.149 A 
ATOM      6  N   UNL     1       1.189  43.069  50.978  1.00  0.00    -0.179 NA
ATOM      7  N   UNL     1       0.808  43.104  52.277  1.00  0.00    -0.250 N 
ATOM      8  C   UNL     1      -0.219  42.208  52.742  1.00  0.00     0.176 C 
ATOM      9  C   UNL     1       1.485  44.032  53.019  1.00  0.00     0.165 A 
ATOM     10  N   UNL     1       1.318  44.311  54.317  1.00  0.00    -0.193 NA
ENDROOT
BRANCH   1  11
ATOM     11  N   UNL     1       2.130  45.644  56.095  1.00  0.00    -0.350 N 
ATOM     12  H   UNL     1       2.243  46.651  56.069  1.00  0.00     0.164 HD
BRANCH  11  13
ATOM     13  C   UNL     1       0.976  45.189  56.848  1.00  0.00     0.152 C 
BRANCH  13  14
ATOM     14  C   UNL     1       0.330  46.303  57.644  1.00  0.00    -0.029 A 
ATOM     15  C   UNL     1      -0.885  48.335  59.177  1.00  0.00     0.118 A 
ATOM     16  C   UNL     1      -1.545  47.786  58.076  1.00  0.00     0.047 A 
ATOM     17  C   UNL     1       0.383  47.864  59.514  1.00  0.00     0.047 A 
ATOM     18  C   UNL     1      -0.946  46.778  57.316  1.00  0.00     0.009 A 
ATOM     19  C   UNL     1       0.985  46.855  58.753  1.00  0.00     0.009 A 
BRANCH  15  20
ATOM     20  O   UNL     1      -1.584  49.311  59.834  1.00  0.00    -0.497 OA
ATOM     21  C   UNL     1      -2.284  50.251  59.030  1.00  0.00     0.278 C 
ENDBRANCH  15  20
ENDBRANCH  13  14
ENDBRANCH  11  13
ENDBRANCH   1  11
BRANCH   3  22
ATOM     22  N   UNL     1       4.154  46.283  51.891  1.00  0.00    -0.336 N 
ATOM     23  H   UNL     1       3.787  47.070  51.364  1.00  0.00     0.168 HD
BRANCH  22  24
ATOM     24  C   UNL     1       5.536  46.117  51.659  1.00  0.00     0.083 A 
ATOM     25  C   UNL     1       6.059  45.287  50.660  1.00  0.00     0.035 A 
ATOM     26  C   UNL     1       6.437  46.824  52.490  1.00  0.00     0.143 A 
ATOM     27  C   UNL     1       7.444  45.143  50.471  1.00  0.00    -0.030 A 
ATOM     28  C   UNL     1       7.815  46.690  52.313  1.00  0.00     0.069 A 
ATOM     29  C   UNL     1       8.312  45.853  51.309  1.00  0.00     0.047 A 
ATOM     30  C   UNL     1       7.949  44.242  49.379  1.00  0.00     0.046 C 
ATOM     31  Cl  UNL     1      10.028  45.730  51.141  1.00  0.00    -0.084 Cl
BRANCH  26  32
ATOM     32  O   UNL     1       5.840  47.621  53.444  1.00  0.00    -0.495 OA
ATOM     33  C   UNL     1       6.055  47.271  54.806  1.00  0.00     0.278 C 
ENDBRANCH  26  32
ENDBRANCH  22  24
ENDBRANCH   3  22
TORSDOF 7
ENDMDL
