MODEL 1
REMARK VINA RESULT:    -8.842      0.000      0.000
REMARK INTER + INTRA:         -12.688
REMARK INTER:                 -12.201
REMARK INTRA:                  -0.486
REMARK UNBOUND:                -0.486
REMARK SMILES CCc1ccc(Nc2nc(NC[C@H](C)O)nc3c2cnn3C)cc1
REMARK SMILES IDX 8 1 9 2 10 3 16 4 17 5 18 6 19 7 20 8 21 9 22 10 7 11 6 13
REMARK SMILES IDX 3 14 4 15 24 16 5 17 23 18 2 19 1 20 11 21 12 23 13 24 14 25
REMARK SMILES IDX 15 26
REMARK H PARENT 7 12 11 22 15 27
ROOT
ATOM      1  C   UNL     1       5.959  44.475  51.369  1.00  0.00     0.147 A 
ATOM      2  N   UNL     1       5.023  44.559  52.349  1.00  0.00    -0.195 NA
ATOM      3  C   UNL     1       4.002  43.682  52.414  1.00  0.00     0.226 A 
ATOM      4  N   UNL     1       3.799  42.661  51.574  1.00  0.00    -0.193 NA
ATOM      5  C   UNL     1       4.729  42.589  50.612  1.00  0.00     0.165 A 
ATOM      6  C   UNL     1       5.812  43.431  50.447  1.00  0.00     0.082 A 
ATOM      7  C   UNL     1       6.474  42.927  49.308  1.00  0.00     0.149 A 
ATOM      8  N   UNL     1       5.873  41.852  48.787  1.00  0.00    -0.179 NA
ATOM      9  N   UNL     1       4.804  41.673  49.599  1.00  0.00    -0.250 N 
ATOM     10  C   UNL     1       3.890  40.589  49.340  1.00  0.00     0.176 C 
ENDROOT
BRANCH   1  11
ATOM     11  N   UNL     1       7.043  45.364  51.301  1.00  0.00    -0.339 N 
ATOM     12  H   UNL     1       7.307  45.616  50.360  1.00  0.00     0.168 HD
BRANCH  11  13
ATOM     13  C   UNL     1       7.771  46.040  52.296  1.00  0.00     0.040 A 
ATOM     14  C   UNL     1       9.106  47.469  54.354  1.00  0.00    -0.048 A 
ATOM     15  C   UNL     1       9.779  47.097  53.188  1.00  0.00     0.006 A 
ATOM     16  C   UNL     1       7.755  47.137  54.482  1.00  0.00     0.006 A 
ATOM     17  C   UNL     1       9.116  46.394  52.173  1.00  0.00     0.026 A 
ATOM     18  C   UNL     1       7.099  46.432  53.465  1.00  0.00     0.026 A 
BRANCH  14  19
ATOM     19  C   UNL     1       9.813  48.241  55.437  1.00  0.00     0.032 C 
ATOM     20  C   UNL     1      10.963  47.448  56.040  1.00  0.00     0.009 C 
ENDBRANCH  14  19
ENDBRANCH  11  13
ENDBRANCH   1  11
BRANCH   3  21
ATOM     21  N   UNL     1       3.067  43.806  53.432  1.00  0.00    -0.352 N 
ATOM     22  H   UNL     1       3.510  43.488  54.291  1.00  0.00     0.163 HD
BRANCH  21  23
ATOM     23  C   UNL     1       2.443  45.117  53.531  1.00  0.00     0.147 C 
BRANCH  23  24
ATOM     24  C   UNL     1       2.537  45.614  54.987  1.00  0.00     0.130 C 
ATOM     25  C   UNL     1       3.881  46.269  55.269  1.00  0.00     0.040 C 
BRANCH  24  26
ATOM     26  O   UNL     1       2.359  44.514  55.891  1.00  0.00    -0.392 OA
ATOM     27  H   UNL     1       2.423  44.861  56.798  1.00  0.00     0.211 HD
ENDBRANCH  24  26
ENDBRANCH  23  24
ENDBRANCH  21  23
ENDBRANCH   3  21
TORSDOF 7
ENDMDL
MODEL 2
REMARK VINA RESULT:    -8.805      2.551      4.451
REMARK INTER + INTRA:         -12.637
REMARK INTER:                 -12.013
REMARK INTRA:                  -0.624
REMARK UNBOUND:                -0.486
REMARK SMILES CCc1ccc(Nc2nc(NC[C@H](C)O)nc3c2cnn3C)cc1
REMARK SMILES IDX 8 1 9 2 10 3 16 4 17 5 18 6 19 7 20 8 21 9 22 10 7 11 6 13
REMARK SMILES IDX 3 14 4 15 24 16 5 17 23 18 2 19 1 20 11 21 12 23 13 24 14 25
REMARK SMILES IDX 15 26
REMARK H PARENT 7 12 11 22 15 27
ROOT
ATOM      1  C   UNL     1       3.554  44.750  52.238  1.00  0.00     0.147 A 
ATOM      2  N   UNL     1       4.168  43.592  51.883  1.00  0.00    -0.195 NA
ATOM      3  C   UNL     1       3.460  42.534  51.443  1.00  0.00     0.226 A 
ATOM      4  N   UNL     1       2.131  42.495  51.293  1.00  0.00    -0.193 NA
ATOM      5  C   UNL     1       1.537  43.643  51.646  1.00  0.00     0.165 A 
ATOM      6  C   UNL     1       2.159  44.785  52.111  1.00  0.00     0.082 A 
ATOM      7  C   UNL     1       1.102  45.694  52.327  1.00  0.00     0.149 A 
ATOM      8  N   UNL     1      -0.096  45.184  52.024  1.00  0.00    -0.179 NA
ATOM      9  N   UNL     1       0.199  43.926  51.618  1.00  0.00    -0.250 N 
ATOM     10  C   UNL     1      -0.866  43.043  51.212  1.00  0.00     0.176 C 
ENDROOT
BRANCH   1  11
ATOM     11  N   UNL     1       4.277  45.870  52.675  1.00  0.00    -0.339 N 
ATOM     12  H   UNL     1       3.700  46.612  53.041  1.00  0.00     0.168 HD
BRANCH  11  13
ATOM     13  C   UNL     1       5.657  46.116  52.782  1.00  0.00     0.040 A 
ATOM     14  C   UNL     1       8.413  46.708  53.120  1.00  0.00    -0.048 A 
ATOM     15  C   UNL     1       7.910  46.332  51.872  1.00  0.00     0.006 A 
ATOM     16  C   UNL     1       7.530  46.803  54.198  1.00  0.00     0.006 A 
ATOM     17  C   UNL     1       6.548  46.043  51.709  1.00  0.00     0.026 A 
ATOM     18  C   UNL     1       6.171  46.511  54.027  1.00  0.00     0.026 A 
BRANCH  14  19
ATOM     19  C   UNL     1       9.873  47.037  53.292  1.00  0.00     0.032 C 
ATOM     20  C   UNL     1      10.233  47.275  54.751  1.00  0.00     0.009 C 
ENDBRANCH  14  19
ENDBRANCH  11  13
ENDBRANCH   1  11
BRANCH   3  21
ATOM     21  N   UNL     1       4.129  41.369  51.093  1.00  0.00    -0.352 N 
ATOM     22  H   UNL     1       3.458  40.606  51.147  1.00  0.00     0.163 HD
BRANCH  21  23
ATOM     23  C   UNL     1       4.855  41.439  49.833  1.00  0.00     0.147 C 
BRANCH  23  24
ATOM     24  C   UNL     1       6.304  41.884  50.107  1.00  0.00     0.130 C 
ATOM     25  C   UNL     1       6.732  43.006  49.174  1.00  0.00     0.040 C 
BRANCH  24  26
ATOM     26  O   UNL     1       7.197  40.774  49.936  1.00  0.00    -0.392 OA
ATOM     27  H   UNL     1       6.716  39.965  50.182  1.00  0.00     0.211 HD
ENDBRANCH  24  26
ENDBRANCH  23  24
ENDBRANCH  21  23
ENDBRANCH   3  21
TORSDOF 7
ENDMDL
MODEL 3
REMARK VINA RESULT:    -8.799      2.549      4.601
REMARK INTER + INTRA:         -12.629
REMARK INTER:                 -11.992
REMARK INTRA:                  -0.637
REMARK UNBOUND:                -0.486
REMARK SMILES CCc1ccc(Nc2nc(NC[C@H](C)O)nc3c2cnn3C)cc1
REMARK SMILES IDX 8 1 9 2 10 3 16 4 17 5 18 6 19 7 20 8 21 9 22 10 7 11 6 13
REMARK SMILES IDX 3 14 4 15 24 16 5 17 23 18 2 19 1 20 11 21 12 23 13 24 14 25
REMARK SMILES IDX 15 26
REMARK H PARENT 7 12 11 22 15 27
ROOT
ATOM      1  C   UNL     1       3.606  44.595  52.451  1.00  0.00     0.147 A 
ATOM      2  N   UNL     1       4.178  43.444  52.013  1.00  0.00    -0.195 NA
ATOM      3  C   UNL     1       3.457  42.513  51.360  1.00  0.00     0.226 A 
ATOM      4  N   UNL     1       2.156  42.604  51.062  1.00  0.00    -0.193 NA
ATOM      5  C   UNL     1       1.604  43.743  51.498  1.00  0.00     0.165 A 
ATOM      6  C   UNL     1       2.242  44.763  52.178  1.00  0.00     0.082 A 
ATOM      7  C   UNL     1       1.232  45.722  52.397  1.00  0.00     0.149 A 
ATOM      8  N   UNL     1       0.046  45.355  51.899  1.00  0.00    -0.179 NA
ATOM      9  N   UNL     1       0.301  44.138  51.363  1.00  0.00    -0.250 N 
ATOM     10  C   UNL     1      -0.766  43.405  50.728  1.00  0.00     0.176 C 
ENDROOT
BRANCH   1  11
ATOM     11  N   UNL     1       4.347  45.588  53.110  1.00  0.00    -0.339 N 
ATOM     12  H   UNL     1       3.816  46.111  53.790  1.00  0.00     0.168 HD
BRANCH  11  13
ATOM     13  C   UNL     1       5.711  45.929  53.068  1.00  0.00     0.040 A 
ATOM     14  C   UNL     1       8.473  46.544  52.844  1.00  0.00    -0.048 A 
ATOM     15  C   UNL     1       7.864  46.434  54.096  1.00  0.00     0.006 A 
ATOM     16  C   UNL     1       7.699  46.330  51.701  1.00  0.00     0.006 A 
ATOM     17  C   UNL     1       6.500  46.128  54.202  1.00  0.00     0.026 A 
ATOM     18  C   UNL     1       6.337  46.026  51.815  1.00  0.00     0.026 A 
BRANCH  14  19
ATOM     19  C   UNL     1       9.943  46.855  52.729  1.00  0.00     0.032 C 
ATOM     20  C   UNL     1      10.615  46.025  51.646  1.00  0.00     0.009 C 
ENDBRANCH  14  19
ENDBRANCH  11  13
ENDBRANCH   1  11
BRANCH   3  21
ATOM     21  N   UNL     1       4.082  41.349  50.932  1.00  0.00    -0.352 N 
ATOM     22  H   UNL     1       3.367  40.630  50.859  1.00  0.00     0.163 HD
BRANCH  21  23
ATOM     23  C   UNL     1       4.900  41.501  49.737  1.00  0.00     0.147 C 
BRANCH  23  24
ATOM     24  C   UNL     1       6.324  41.923  50.149  1.00  0.00     0.130 C 
ATOM     25  C   UNL     1       6.854  43.042  49.265  1.00  0.00     0.040 C 
BRANCH  24  26
ATOM     26  O   UNL     1       7.212  40.800  50.056  1.00  0.00    -0.392 OA
ATOM     27  H   UNL     1       8.028  41.025  50.535  1.00  0.00     0.211 HD
ENDBRANCH  24  26
ENDBRANCH  23  24
ENDBRANCH  21  23
ENDBRANCH   3  21
TORSDOF 7
ENDMDL
MODEL 4
REMARK VINA RESULT:    -8.675      1.186      1.280
REMARK INTER + INTRA:         -12.458
REMARK INTER:                 -11.890
REMARK INTRA:                  -0.568
REMARK UNBOUND:                -0.486
REMARK SMILES CCc1ccc(Nc2nc(NC[C@H](C)O)nc3c2cnn3C)cc1
REMARK SMILES IDX 8 1 9 2 10 3 16 4 17 5 18 6 19 7 20 8 21 9 22 10 7 11 6 13
REMARK SMILES IDX 3 14 4 15 24 16 5 17 23 18 2 19 1 20 11 21 12 23 13 24 14 25
REMARK SMILES IDX 15 26
REMARK H PARENT 7 12 11 22 15 27
ROOT
ATOM      1  C   UNL     1       5.985  44.813  51.219  1.00  0.00     0.147 A 
ATOM      2  N   UNL     1       4.878  45.262  51.865  1.00  0.00    -0.195 NA
ATOM      3  C   UNL     1       3.735  44.551  51.865  1.00  0.00     0.226 A 
ATOM      4  N   UNL     1       3.556  43.365  51.271  1.00  0.00    -0.193 NA
ATOM      5  C   UNL     1       4.654  42.933  50.637  1.00  0.00     0.165 A 
ATOM      6  C   UNL     1       5.874  43.577  50.568  1.00  0.00     0.082 A 
ATOM      7  C   UNL     1       6.682  42.711  49.801  1.00  0.00     0.149 A 
ATOM      8  N   UNL     1       6.040  41.605  49.413  1.00  0.00    -0.179 NA
ATOM      9  N   UNL     1       4.799  41.771  49.930  1.00  0.00    -0.250 N 
ATOM     10  C   UNL     1       3.796  40.761  49.706  1.00  0.00     0.176 C 
ENDROOT
BRANCH   1  11
ATOM     11  N   UNL     1       7.192  45.528  51.229  1.00  0.00    -0.339 N 
ATOM     12  H   UNL     1       7.585  45.682  50.312  1.00  0.00     0.168 HD
BRANCH  11  13
ATOM     13  C   UNL     1       7.910  46.148  52.267  1.00  0.00     0.040 A 
ATOM     14  C   UNL     1       9.226  47.467  54.410  1.00  0.00    -0.048 A 
ATOM     15  C   UNL     1       9.921  47.116  53.250  1.00  0.00     0.006 A 
ATOM     16  C   UNL     1       7.863  47.169  54.489  1.00  0.00     0.006 A 
ATOM     17  C   UNL     1       9.268  46.467  52.193  1.00  0.00     0.026 A 
ATOM     18  C   UNL     1       7.217  46.519  53.430  1.00  0.00     0.026 A 
BRANCH  14  19
ATOM     19  C   UNL     1       9.923  48.180  55.538  1.00  0.00     0.032 C 
ATOM     20  C   UNL     1      11.081  47.365  56.094  1.00  0.00     0.009 C 
ENDBRANCH  14  19
ENDBRANCH  11  13
ENDBRANCH   1  11
BRANCH   3  21
ATOM     21  N   UNL     1       2.627  45.048  52.538  1.00  0.00    -0.352 N 
ATOM     22  H   UNL     1       2.567  46.042  52.329  1.00  0.00     0.163 HD
BRANCH  21  23
ATOM     23  C   UNL     1       1.393  44.313  52.307  1.00  0.00     0.147 C 
BRANCH  23  24
ATOM     24  C   UNL     1       1.014  43.544  53.587  1.00  0.00     0.130 C 
ATOM     25  C   UNL     1       1.362  44.335  54.840  1.00  0.00     0.040 C 
BRANCH  24  26
ATOM     26  O   UNL     1       1.706  42.288  53.626  1.00  0.00    -0.392 OA
ATOM     27  H   UNL     1       1.897  42.025  52.709  1.00  0.00     0.211 HD
ENDBRANCH  24  26
ENDBRANCH  23  24
ENDBRANCH  21  23
ENDBRANCH   3  21
TORSDOF 7
ENDMDL
MODEL 5
REMARK VINA RESULT:    -8.604      2.260      4.501
REMARK INTER + INTRA:         -12.360
REMARK INTER:                 -12.070
REMARK INTRA:                  -0.290
REMARK UNBOUND:                -0.486
REMARK SMILES CCc1ccc(Nc2nc(NC[C@H](C)O)nc3c2cnn3C)cc1
REMARK SMILES IDX 8 1 9 2 10 3 16 4 17 5 18 6 19 7 20 8 21 9 22 10 7 11 6 13
REMARK SMILES IDX 3 14 4 15 24 16 5 17 23 18 2 19 1 20 11 21 12 23 13 24 14 25
REMARK SMILES IDX 15 26
REMARK H PARENT 7 12 11 22 15 27
ROOT
ATOM      1  C   UNL     1       4.181  44.772  52.047  1.00  0.00     0.147 A 
ATOM      2  N   UNL     1       4.556  43.602  51.469  1.00  0.00    -0.195 NA
ATOM      3  C   UNL     1       3.789  42.499  51.568  1.00  0.00     0.226 A 
ATOM      4  N   UNL     1       2.614  42.422  52.204  1.00  0.00    -0.193 NA
ATOM      5  C   UNL     1       2.255  43.583  52.769  1.00  0.00     0.165 A 
ATOM      6  C   UNL     1       2.961  44.770  52.735  1.00  0.00     0.082 A 
ATOM      7  C   UNL     1       2.159  45.673  53.465  1.00  0.00     0.149 A 
ATOM      8  N   UNL     1       1.034  45.117  53.926  1.00  0.00    -0.179 NA
ATOM      9  N   UNL     1       1.123  43.837  53.494  1.00  0.00    -0.250 N 
ATOM     10  C   UNL     1       0.072  42.904  53.814  1.00  0.00     0.176 C 
ENDROOT
BRANCH   1  11
ATOM     11  N   UNL     1       4.954  45.937  51.933  1.00  0.00    -0.339 N 
ATOM     12  H   UNL     1       4.488  46.694  51.456  1.00  0.00     0.168 HD
BRANCH  11  13
ATOM     13  C   UNL     1       6.222  46.279  52.438  1.00  0.00     0.040 A 
ATOM     14  C   UNL     1       8.844  46.880  53.345  1.00  0.00    -0.048 A 
ATOM     15  C   UNL     1       7.759  46.906  54.224  1.00  0.00     0.006 A 
ATOM     16  C   UNL     1       8.616  46.536  52.010  1.00  0.00     0.006 A 
ATOM     17  C   UNL     1       6.467  46.606  53.774  1.00  0.00     0.026 A 
ATOM     18  C   UNL     1       7.321  46.240  51.566  1.00  0.00     0.026 A 
BRANCH  14  19
ATOM     19  C   UNL     1      10.237  47.184  53.832  1.00  0.00     0.032 C 
ATOM     20  C   UNL     1      10.259  47.504  55.319  1.00  0.00     0.009 C 
ENDBRANCH  14  19
ENDBRANCH  11  13
ENDBRANCH   1  11
BRANCH   3  21
ATOM     21  N   UNL     1       4.211  41.324  50.963  1.00  0.00    -0.352 N 
ATOM     22  H   UNL     1       3.400  40.716  50.881  1.00  0.00     0.163 HD
BRANCH  21  23
ATOM     23  C   UNL     1       4.948  41.508  49.721  1.00  0.00     0.147 C 
BRANCH  23  24
ATOM     24  C   UNL     1       6.406  41.882  50.047  1.00  0.00     0.130 C 
ATOM     25  C   UNL     1       6.946  42.927  49.082  1.00  0.00     0.040 C 
BRANCH  24  26
ATOM     26  O   UNL     1       7.238  40.715  49.978  1.00  0.00    -0.392 OA
ATOM     27  H   UNL     1       6.712  39.956  50.285  1.00  0.00     0.211 HD
ENDBRANCH  24  26
ENDBRANCH  23  24
ENDBRANCH  21  23
ENDBRANCH   3  21
TORSDOF 7
ENDMDL
MODEL 6
REMARK VINA RESULT:    -8.562      2.431      4.754
REMARK INTER + INTRA:         -12.301
REMARK INTER:                 -11.548
REMARK INTRA:                  -0.754
REMARK UNBOUND:                -0.486
REMARK SMILES CCc1ccc(Nc2nc(NC[C@H](C)O)nc3c2cnn3C)cc1
REMARK SMILES IDX 8 1 9 2 10 3 16 4 17 5 18 6 19 7 20 8 21 9 22 10 7 11 6 13
REMARK SMILES IDX 3 14 4 15 24 16 5 17 23 18 2 19 1 20 11 21 12 23 13 24 14 25
REMARK SMILES IDX 15 26
REMARK H PARENT 7 12 11 22 15 27
ROOT
ATOM      1  C   UNL     1       4.159  44.927  52.002  1.00  0.00     0.147 A 
ATOM      2  N   UNL     1       4.383  43.709  51.443  1.00  0.00    -0.195 NA
ATOM      3  C   UNL     1       3.527  42.687  51.635  1.00  0.00     0.226 A 
ATOM      4  N   UNL     1       2.398  42.740  52.351  1.00  0.00    -0.193 NA
ATOM      5  C   UNL     1       2.189  43.946  52.897  1.00  0.00     0.165 A 
ATOM      6  C   UNL     1       2.996  45.060  52.771  1.00  0.00     0.082 A 
ATOM      7  C   UNL     1       2.334  46.055  53.520  1.00  0.00     0.149 A 
ATOM      8  N   UNL     1       1.198  45.622  54.077  1.00  0.00    -0.179 NA
ATOM      9  N   UNL     1       1.139  44.327  53.687  1.00  0.00    -0.250 N 
ATOM     10  C   UNL     1       0.032  43.507  54.112  1.00  0.00     0.176 C 
ENDROOT
BRANCH   1  11
ATOM     11  N   UNL     1       5.026  46.010  51.793  1.00  0.00    -0.339 N 
ATOM     12  H   UNL     1       4.646  46.729  51.197  1.00  0.00     0.168 HD
BRANCH  11  13
ATOM     13  C   UNL     1       6.287  46.324  52.332  1.00  0.00     0.040 A 
ATOM     14  C   UNL     1       8.897  46.866  53.307  1.00  0.00    -0.048 A 
ATOM     15  C   UNL     1       7.789  46.925  54.156  1.00  0.00     0.006 A 
ATOM     16  C   UNL     1       8.698  46.518  51.969  1.00  0.00     0.006 A 
ATOM     17  C   UNL     1       6.503  46.654  53.671  1.00  0.00     0.026 A 
ATOM     18  C   UNL     1       7.409  46.251  51.491  1.00  0.00     0.026 A 
BRANCH  14  19
ATOM     19  C   UNL     1      10.283  47.139  53.831  1.00  0.00     0.032 C 
ATOM     20  C   UNL     1      10.271  47.481  55.314  1.00  0.00     0.009 C 
ENDBRANCH  14  19
ENDBRANCH  11  13
ENDBRANCH   1  11
BRANCH   3  21
ATOM     21  N   UNL     1       3.796  41.459  51.045  1.00  0.00    -0.352 N 
ATOM     22  H   UNL     1       2.988  41.212  50.479  1.00  0.00     0.163 HD
BRANCH  21  23
ATOM     23  C   UNL     1       5.066  41.387  50.338  1.00  0.00     0.147 C 
BRANCH  23  24
ATOM     24  C   UNL     1       4.801  41.371  48.821  1.00  0.00     0.130 C 
ATOM     25  C   UNL     1       3.771  40.317  48.443  1.00  0.00     0.040 C 
BRANCH  24  26
ATOM     26  O   UNL     1       6.021  41.100  48.114  1.00  0.00    -0.392 OA
ATOM     27  H   UNL     1       6.149  41.808  47.460  1.00  0.00     0.211 HD
ENDBRANCH  24  26
ENDBRANCH  23  24
ENDBRANCH  21  23
ENDBRANCH   3  21
TORSDOF 7
ENDMDL
MODEL 7
REMARK VINA RESULT:    -8.367      2.601      4.582
REMARK INTER + INTRA:         -12.032
REMARK INTER:                 -11.442
REMARK INTRA:                  -0.590
REMARK UNBOUND:                -0.486
REMARK SMILES CCc1ccc(Nc2nc(NC[C@H](C)O)nc3c2cnn3C)cc1
REMARK SMILES IDX 8 1 9 2 10 3 16 4 17 5 18 6 19 7 20 8 21 9 22 10 7 11 6 13
REMARK SMILES IDX 3 14 4 15 24 16 5 17 23 18 2 19 1 20 11 21 12 23 13 24 14 25
REMARK SMILES IDX 15 26
REMARK H PARENT 7 12 11 22 15 27
ROOT
ATOM      1  C   UNL     1       6.693  45.112  51.096  1.00  0.00     0.147 A 
ATOM      2  N   UNL     1       6.987  44.191  50.143  1.00  0.00    -0.195 NA
ATOM      3  C   UNL     1       6.184  43.133  49.926  1.00  0.00     0.226 A 
ATOM      4  N   UNL     1       5.045  42.873  50.577  1.00  0.00    -0.193 NA
ATOM      5  C   UNL     1       4.765  43.789  51.515  1.00  0.00     0.165 A 
ATOM      6  C   UNL     1       5.515  44.907  51.826  1.00  0.00     0.082 A 
ATOM      7  C   UNL     1       4.792  45.533  52.863  1.00  0.00     0.149 A 
ATOM      8  N   UNL     1       3.674  44.878  53.190  1.00  0.00    -0.179 NA
ATOM      9  N   UNL     1       3.687  43.811  52.356  1.00  0.00    -0.250 N 
ATOM     10  C   UNL     1       2.619  42.845  52.423  1.00  0.00     0.176 C 
ENDROOT
BRANCH   1  11
ATOM     11  N   UNL     1       7.505  46.235  51.320  1.00  0.00    -0.339 N 
ATOM     12  H   UNL     1       7.519  46.890  50.553  1.00  0.00     0.168 HD
BRANCH  11  13
ATOM     13  C   UNL     1       8.231  46.662  52.446  1.00  0.00     0.040 A 
ATOM     14  C   UNL     1       9.599  47.650  54.729  1.00  0.00    -0.048 A 
ATOM     15  C   UNL     1      10.257  46.852  53.790  1.00  0.00     0.006 A 
ATOM     16  C   UNL     1       8.255  47.967  54.515  1.00  0.00     0.006 A 
ATOM     17  C   UNL     1       9.579  46.368  52.663  1.00  0.00     0.026 A 
ATOM     18  C   UNL     1       7.584  47.479  53.388  1.00  0.00     0.026 A 
BRANCH  14  19
ATOM     19  C   UNL     1      10.332  48.185  55.931  1.00  0.00     0.032 C 
ATOM     20  C   UNL     1      11.403  47.221  56.418  1.00  0.00     0.009 C 
ENDBRANCH  14  19
ENDBRANCH  11  13
ENDBRANCH   1  11
BRANCH   3  21
ATOM     21  N   UNL     1       6.524  42.215  48.941  1.00  0.00    -0.352 N 
ATOM     22  H   UNL     1       7.461  41.879  49.150  1.00  0.00     0.163 HD
BRANCH  21  23
ATOM     23  C   UNL     1       5.545  41.159  48.728  1.00  0.00     0.147 C 
BRANCH  23  24
ATOM     24  C   UNL     1       4.900  41.340  47.340  1.00  0.00     0.130 C 
ATOM     25  C   UNL     1       3.752  40.364  47.124  1.00  0.00     0.040 C 
BRANCH  24  26
ATOM     26  O   UNL     1       5.882  41.133  46.314  1.00  0.00    -0.392 OA
ATOM     27  H   UNL     1       5.842  41.892  45.707  1.00  0.00     0.211 HD
ENDBRANCH  24  26
ENDBRANCH  23  24
ENDBRANCH  21  23
ENDBRANCH   3  21
TORSDOF 7
ENDMDL
MODEL 8
REMARK VINA RESULT:    -8.346      2.110      6.303
REMARK INTER + INTRA:         -12.003
REMARK INTER:                 -11.419
REMARK INTRA:                  -0.584
REMARK UNBOUND:                -0.486
REMARK SMILES CCc1ccc(Nc2nc(NC[C@H](C)O)nc3c2cnn3C)cc1
REMARK SMILES IDX 8 1 9 2 10 3 16 4 17 5 18 6 19 7 20 8 21 9 22 10 7 11 6 13
REMARK SMILES IDX 3 14 4 15 24 16 5 17 23 18 2 19 1 20 11 21 12 23 13 24 14 25
REMARK SMILES IDX 15 26
REMARK H PARENT 7 12 11 22 15 27
ROOT
ATOM      1  C   UNL     1       7.230  46.256  52.242  1.00  0.00     0.147 A 
ATOM      2  N   UNL     1       6.117  46.498  52.981  1.00  0.00    -0.195 NA
ATOM      3  C   UNL     1       6.204  46.997  54.229  1.00  0.00     0.226 A 
ATOM      4  N   UNL     1       7.339  47.315  54.863  1.00  0.00    -0.193 NA
ATOM      5  C   UNL     1       8.430  47.071  54.124  1.00  0.00     0.165 A 
ATOM      6  C   UNL     1       8.460  46.560  52.840  1.00  0.00     0.082 A 
ATOM      7  C   UNL     1       9.832  46.505  52.519  1.00  0.00     0.149 A 
ATOM      8  N   UNL     1      10.618  46.945  53.508  1.00  0.00    -0.179 NA
ATOM      9  N   UNL     1       9.735  47.276  54.479  1.00  0.00    -0.250 N 
ATOM     10  C   UNL     1      10.221  47.791  55.734  1.00  0.00     0.176 C 
ENDROOT
BRANCH   1  11
ATOM     11  N   UNL     1       7.157  45.760  50.932  1.00  0.00    -0.339 N 
ATOM     12  H   UNL     1       7.625  46.336  50.249  1.00  0.00     0.168 HD
BRANCH  11  13
ATOM     13  C   UNL     1       6.633  44.566  50.405  1.00  0.00     0.040 A 
ATOM     14  C   UNL     1       5.506  42.130  49.480  1.00  0.00    -0.048 A 
ATOM     15  C   UNL     1       6.693  42.622  48.933  1.00  0.00     0.006 A 
ATOM     16  C   UNL     1       4.890  42.853  50.505  1.00  0.00     0.006 A 
ATOM     17  C   UNL     1       7.248  43.824  49.394  1.00  0.00     0.026 A 
ATOM     18  C   UNL     1       5.449  44.053  50.959  1.00  0.00     0.026 A 
BRANCH  14  19
ATOM     19  C   UNL     1       4.918  40.829  48.998  1.00  0.00     0.032 C 
ATOM     20  C   UNL     1       3.520  40.599  49.550  1.00  0.00     0.009 C 
ENDBRANCH  14  19
ENDBRANCH  11  13
ENDBRANCH   1  11
BRANCH   3  21
ATOM     21  N   UNL     1       5.041  47.229  54.949  1.00  0.00    -0.352 N 
ATOM     22  H   UNL     1       5.035  48.212  55.209  1.00  0.00     0.163 HD
BRANCH  21  23
ATOM     23  C   UNL     1       3.820  46.776  54.298  1.00  0.00     0.147 C 
BRANCH  23  24
ATOM     24  C   UNL     1       3.219  45.609  55.103  1.00  0.00     0.130 C 
ATOM     25  C   UNL     1       1.925  45.106  54.480  1.00  0.00     0.040 C 
BRANCH  24  26
ATOM     26  O   UNL     1       2.951  46.030  56.449  1.00  0.00    -0.392 OA
ATOM     27  H   UNL     1       2.608  45.262  56.938  1.00  0.00     0.211 HD
ENDBRANCH  24  26
ENDBRANCH  23  24
ENDBRANCH  21  23
ENDBRANCH   3  21
TORSDOF 7
ENDMDL
MODEL 9
REMARK VINA RESULT:    -8.298      1.698      2.190
REMARK INTER + INTRA:         -11.937
REMARK INTER:                 -10.998
REMARK INTRA:                  -0.939
REMARK UNBOUND:                -0.486
REMARK SMILES CCc1ccc(Nc2nc(NC[C@H](C)O)nc3c2cnn3C)cc1
REMARK SMILES IDX 8 1 9 2 10 3 16 4 17 5 18 6 19 7 20 8 21 9 22 10 7 11 6 13
REMARK SMILES IDX 3 14 4 15 24 16 5 17 23 18 2 19 1 20 11 21 12 23 13 24 14 25
REMARK SMILES IDX 15 26
REMARK H PARENT 7 12 11 22 15 27
ROOT
ATOM      1  C   UNL     1       6.826  45.721  51.409  1.00  0.00     0.147 A 
ATOM      2  N   UNL     1       5.665  45.585  52.102  1.00  0.00    -0.195 NA
ATOM      3  C   UNL     1       4.826  44.560  51.861  1.00  0.00     0.226 A 
ATOM      4  N   UNL     1       5.025  43.586  50.965  1.00  0.00    -0.193 NA
ATOM      5  C   UNL     1       6.172  43.730  50.289  1.00  0.00     0.165 A 
ATOM      6  C   UNL     1       7.103  44.739  50.449  1.00  0.00     0.082 A 
ATOM      7  C   UNL     1       8.115  44.430  49.517  1.00  0.00     0.149 A 
ATOM      8  N   UNL     1       7.861  43.318  48.820  1.00  0.00    -0.179 NA
ATOM      9  N   UNL     1       6.663  42.916  49.306  1.00  0.00    -0.250 N 
ATOM     10  C   UNL     1       6.045  41.727  48.776  1.00  0.00     0.176 C 
ENDROOT
BRANCH   1  11
ATOM     11  N   UNL     1       7.724  46.768  51.664  1.00  0.00    -0.339 N 
ATOM     12  H   UNL     1       7.831  47.413  50.895  1.00  0.00     0.168 HD
BRANCH  11  13
ATOM     13  C   UNL     1       8.433  47.140  52.820  1.00  0.00     0.040 A 
ATOM     14  C   UNL     1       9.921  47.744  55.162  1.00  0.00    -0.048 A 
ATOM     15  C   UNL     1       8.754  48.447  54.854  1.00  0.00     0.006 A 
ATOM     16  C   UNL     1      10.335  46.725  54.301  1.00  0.00     0.006 A 
ATOM     17  C   UNL     1       8.021  48.145  53.699  1.00  0.00     0.026 A 
ATOM     18  C   UNL     1       9.598  46.429  53.147  1.00  0.00     0.026 A 
BRANCH  14  19
ATOM     19  C   UNL     1      10.700  48.057  56.413  1.00  0.00     0.032 C 
ATOM     20  C   UNL     1      11.754  47.000  56.703  1.00  0.00     0.009 C 
ENDBRANCH  14  19
ENDBRANCH  11  13
ENDBRANCH   1  11
BRANCH   3  21
ATOM     21  N   UNL     1       3.650  44.461  52.591  1.00  0.00    -0.352 N 
ATOM     22  H   UNL     1       3.581  43.503  52.926  1.00  0.00     0.163 HD
BRANCH  21  23
ATOM     23  C   UNL     1       3.490  45.469  53.628  1.00  0.00     0.147 C 
BRANCH  23  24
ATOM     24  C   UNL     1       2.384  46.457  53.209  1.00  0.00     0.130 C 
ATOM     25  C   UNL     1       1.334  45.784  52.337  1.00  0.00     0.040 C 
BRANCH  24  26
ATOM     26  O   UNL     1       2.957  47.552  52.481  1.00  0.00    -0.392 OA
ATOM     27  H   UNL     1       3.293  48.196  53.128  1.00  0.00     0.211 HD
ENDBRANCH  24  26
ENDBRANCH  23  24
ENDBRANCH  21  23
ENDBRANCH   3  21
TORSDOF 7
ENDMDL
MODEL 10
REMARK VINA RESULT:    -8.254      2.959      5.929
REMARK INTER + INTRA:         -11.877
REMARK INTER:                 -11.278
REMARK INTRA:                  -0.599
REMARK UNBOUND:                -0.486
REMARK SMILES CCc1ccc(Nc2nc(NC[C@H](C)O)nc3c2cnn3C)cc1
REMARK SMILES IDX 8 1 9 2 10 3 16 4 17 5 18 6 19 7 20 8 21 9 22 10 7 11 6 13
REMARK SMILES IDX 3 14 4 15 24 16 5 17 23 18 2 19 1 20 11 21 12 23 13 24 14 25
REMARK SMILES IDX 15 26
REMARK H PARENT 7 12 11 22 15 27
ROOT
ATOM      1  C   UNL     1       2.217  43.204  53.099  1.00  0.00     0.147 A 
ATOM      2  N   UNL     1       2.872  44.101  53.880  1.00  0.00    -0.195 NA
ATOM      3  C   UNL     1       2.209  44.867  54.767  1.00  0.00     0.226 A 
ATOM      4  N   UNL     1       0.890  44.834  54.992  1.00  0.00    -0.193 NA
ATOM      5  C   UNL     1       0.256  43.945  54.216  1.00  0.00     0.165 A 
ATOM      6  C   UNL     1       0.830  43.113  53.274  1.00  0.00     0.082 A 
ATOM      7  C   UNL     1      -0.255  42.380  52.749  1.00  0.00     0.149 A 
ATOM      8  N   UNL     1      -1.425  42.709  53.305  1.00  0.00    -0.179 NA
ATOM      9  N   UNL     1      -1.085  43.673  54.192  1.00  0.00    -0.250 N 
ATOM     10  C   UNL     1      -2.109  44.294  54.993  1.00  0.00     0.176 C 
ENDROOT
BRANCH   1  11
ATOM     11  N   UNL     1       2.895  42.380  52.188  1.00  0.00    -0.339 N 
ATOM     12  H   UNL     1       2.449  41.489  52.031  1.00  0.00     0.168 HD
BRANCH  11  13
ATOM     13  C   UNL     1       4.028  42.598  51.383  1.00  0.00     0.040 A 
ATOM     14  C   UNL     1       6.355  42.888  49.784  1.00  0.00    -0.048 A 
ATOM     15  C   UNL     1       5.806  43.984  50.454  1.00  0.00     0.006 A 
ATOM     16  C   UNL     1       5.744  41.640  49.928  1.00  0.00     0.006 A 
ATOM     17  C   UNL     1       4.659  43.836  51.245  1.00  0.00     0.026 A 
ATOM     18  C   UNL     1       4.597  41.500  50.718  1.00  0.00     0.026 A 
BRANCH  14  19
ATOM     19  C   UNL     1       7.599  43.042  48.948  1.00  0.00     0.032 C 
ATOM     20  C   UNL     1       8.389  44.284  49.332  1.00  0.00     0.009 C 
ENDBRANCH  14  19
ENDBRANCH  11  13
ENDBRANCH   1  11
BRANCH   3  21
ATOM     21  N   UNL     1       2.918  45.772  55.545  1.00  0.00    -0.352 N 
ATOM     22  H   UNL     1       2.746  45.536  56.519  1.00  0.00     0.163 HD
BRANCH  21  23
ATOM     23  C   UNL     1       4.327  45.898  55.201  1.00  0.00     0.147 C 
BRANCH  23  24
ATOM     24  C   UNL     1       4.504  47.059  54.204  1.00  0.00     0.130 C 
ATOM     25  C   UNL     1       5.741  46.871  53.338  1.00  0.00     0.040 C 
BRANCH  24  26
ATOM     26  O   UNL     1       4.621  48.300  54.915  1.00  0.00    -0.392 OA
ATOM     27  H   UNL     1       5.567  48.465  55.071  1.00  0.00     0.211 HD
ENDBRANCH  24  26
ENDBRANCH  23  24
ENDBRANCH  21  23
ENDBRANCH   3  21
TORSDOF 7
ENDMDL
MODEL 11
REMARK VINA RESULT:    -8.252      2.594      5.270
REMARK INTER + INTRA:         -11.874
REMARK INTER:                 -11.412
REMARK INTRA:                  -0.462
REMARK UNBOUND:                -0.486
REMARK SMILES CCc1ccc(Nc2nc(NC[C@H](C)O)nc3c2cnn3C)cc1
REMARK SMILES IDX 8 1 9 2 10 3 16 4 17 5 18 6 19 7 20 8 21 9 22 10 7 11 6 13
REMARK SMILES IDX 3 14 4 15 24 16 5 17 23 18 2 19 1 20 11 21 12 23 13 24 14 25
REMARK SMILES IDX 15 26
REMARK H PARENT 7 12 11 22 15 27
ROOT
ATOM      1  C   UNL     1       3.248  44.905  54.160  1.00  0.00     0.147 A 
ATOM      2  N   UNL     1       3.334  44.004  53.147  1.00  0.00    -0.195 NA
ATOM      3  C   UNL     1       2.286  43.225  52.818  1.00  0.00     0.226 A 
ATOM      4  N   UNL     1       1.084  43.246  53.405  1.00  0.00    -0.193 NA
ATOM      5  C   UNL     1       1.012  44.138  54.402  1.00  0.00     0.165 A 
ATOM      6  C   UNL     1       2.018  44.984  54.827  1.00  0.00     0.082 A 
ATOM      7  C   UNL     1       1.436  45.714  55.884  1.00  0.00     0.149 A 
ATOM      8  N   UNL     1       0.165  45.372  56.117  1.00  0.00    -0.179 NA
ATOM      9  N   UNL     1      -0.066  44.401  55.203  1.00  0.00    -0.250 N 
ATOM     10  C   UNL     1      -1.358  43.764  55.153  1.00  0.00     0.176 C 
ENDROOT
BRANCH   1  11
ATOM     11  N   UNL     1       4.320  45.742  54.501  1.00  0.00    -0.339 N 
ATOM     12  H   UNL     1       4.250  46.142  55.425  1.00  0.00     0.168 HD
BRANCH  11  13
ATOM     13  C   UNL     1       5.517  46.058  53.834  1.00  0.00     0.040 A 
ATOM     14  C   UNL     1       7.971  46.790  52.608  1.00  0.00    -0.048 A 
ATOM     15  C   UNL     1       6.876  46.394  51.837  1.00  0.00     0.006 A 
ATOM     16  C   UNL     1       7.831  46.834  53.998  1.00  0.00     0.006 A 
ATOM     17  C   UNL     1       5.665  46.036  52.446  1.00  0.00     0.026 A 
ATOM     18  C   UNL     1       6.619  46.473  54.599  1.00  0.00     0.026 A 
BRANCH  14  19
ATOM     19  C   UNL     1       9.267  47.192  51.954  1.00  0.00     0.032 C 
ATOM     20  C   UNL     1      10.273  46.051  51.939  1.00  0.00     0.009 C 
ENDBRANCH  14  19
ENDBRANCH  11  13
ENDBRANCH   1  11
BRANCH   3  21
ATOM     21  N   UNL     1       2.419  42.316  51.776  1.00  0.00    -0.352 N 
ATOM     22  H   UNL     1       1.516  42.253  51.312  1.00  0.00     0.163 HD
BRANCH  21  23
ATOM     23  C   UNL     1       3.535  42.577  50.878  1.00  0.00     0.147 C 
BRANCH  23  24
ATOM     24  C   UNL     1       4.321  41.271  50.656  1.00  0.00     0.130 C 
ATOM     25  C   UNL     1       5.518  41.487  49.742  1.00  0.00     0.040 C 
BRANCH  24  26
ATOM     26  O   UNL     1       3.465  40.279  50.071  1.00  0.00    -0.392 OA
ATOM     27  H   UNL     1       2.574  40.399  50.441  1.00  0.00     0.211 HD
ENDBRANCH  24  26
ENDBRANCH  23  24
ENDBRANCH  21  23
ENDBRANCH   3  21
TORSDOF 7
ENDMDL
MODEL 12
REMARK VINA RESULT:    -8.236      2.450      3.921
REMARK INTER + INTRA:         -11.852
REMARK INTER:                 -10.871
REMARK INTRA:                  -0.981
REMARK UNBOUND:                -0.486
REMARK SMILES CCc1ccc(Nc2nc(NC[C@H](C)O)nc3c2cnn3C)cc1
REMARK SMILES IDX 8 1 9 2 10 3 16 4 17 5 18 6 19 7 20 8 21 9 22 10 7 11 6 13
REMARK SMILES IDX 3 14 4 15 24 16 5 17 23 18 2 19 1 20 11 21 12 23 13 24 14 25
REMARK SMILES IDX 15 26
REMARK H PARENT 7 12 11 22 15 27
ROOT
ATOM      1  C   UNL     1       2.857  44.226  53.478  1.00  0.00     0.147 A 
ATOM      2  N   UNL     1       2.159  44.870  54.449  1.00  0.00    -0.195 NA
ATOM      3  C   UNL     1       0.830  45.062  54.341  1.00  0.00     0.226 A 
ATOM      4  N   UNL     1       0.065  44.652  53.323  1.00  0.00    -0.193 NA
ATOM      5  C   UNL     1       0.765  44.018  52.372  1.00  0.00     0.165 A 
ATOM      6  C   UNL     1       2.124  43.768  52.376  1.00  0.00     0.082 A 
ATOM      7  C   UNL     1       2.354  43.076  51.168  1.00  0.00     0.149 A 
ATOM      8  N   UNL     1       1.241  42.893  50.451  1.00  0.00    -0.179 NA
ATOM      9  N   UNL     1       0.286  43.486  51.207  1.00  0.00    -0.250 N 
ATOM     10  C   UNL     1      -1.079  43.501  50.743  1.00  0.00     0.176 C 
ENDROOT
BRANCH   1  11
ATOM     11  N   UNL     1       4.237  43.995  53.586  1.00  0.00    -0.339 N 
ATOM     12  H   UNL     1       4.473  43.106  54.001  1.00  0.00     0.168 HD
BRANCH  11  13
ATOM     13  C   UNL     1       5.351  44.729  53.141  1.00  0.00     0.040 A 
ATOM     14  C   UNL     1       7.596  46.291  52.379  1.00  0.00    -0.048 A 
ATOM     15  C   UNL     1       6.755  45.729  51.416  1.00  0.00     0.006 A 
ATOM     16  C   UNL     1       7.302  46.082  53.729  1.00  0.00     0.006 A 
ATOM     17  C   UNL     1       5.646  44.961  51.796  1.00  0.00     0.026 A 
ATOM     18  C   UNL     1       6.194  45.311  54.101  1.00  0.00     0.026 A 
BRANCH  14  19
ATOM     19  C   UNL     1       8.778  47.132  51.972  1.00  0.00     0.032 C 
ATOM     20  C   UNL     1       9.937  46.991  52.947  1.00  0.00     0.009 C 
ENDBRANCH  14  19
ENDBRANCH  11  13
ENDBRANCH   1  11
BRANCH   3  21
ATOM     21  N   UNL     1       0.157  45.727  55.356  1.00  0.00    -0.352 N 
ATOM     22  H   UNL     1      -0.762  45.975  54.999  1.00  0.00     0.163 HD
BRANCH  21  23
ATOM     23  C   UNL     1       0.132  45.026  56.632  1.00  0.00     0.147 C 
BRANCH  23  24
ATOM     24  C   UNL     1       0.759  45.923  57.716  1.00  0.00     0.130 C 
ATOM     25  C   UNL     1      -0.118  47.128  58.022  1.00  0.00     0.040 C 
BRANCH  24  26
ATOM     26  O   UNL     1       2.046  46.386  57.282  1.00  0.00    -0.392 OA
ATOM     27  H   UNL     1       2.218  46.008  56.403  1.00  0.00     0.211 HD
ENDBRANCH  24  26
ENDBRANCH  23  24
ENDBRANCH  21  23
ENDBRANCH   3  21
TORSDOF 7
ENDMDL
MODEL 13
REMARK VINA RESULT:    -8.182      2.752      3.961
REMARK INTER + INTRA:         -11.778
REMARK INTER:                 -11.053
REMARK INTRA:                  -0.725
REMARK UNBOUND:                -0.486
REMARK SMILES CCc1ccc(Nc2nc(NC[C@H](C)O)nc3c2cnn3C)cc1
REMARK SMILES IDX 8 1 9 2 10 3 16 4 17 5 18 6 19 7 20 8 21 9 22 10 7 11 6 13
REMARK SMILES IDX 3 14 4 15 24 16 5 17 23 18 2 19 1 20 11 21 12 23 13 24 14 25
REMARK SMILES IDX 15 26
REMARK H PARENT 7 12 11 22 15 27
ROOT
ATOM      1  C   UNL     1       2.974  45.723  53.004  1.00  0.00     0.147 A 
ATOM      2  N   UNL     1       2.827  45.965  54.333  1.00  0.00    -0.195 NA
ATOM      3  C   UNL     1       1.993  45.224  55.087  1.00  0.00     0.226 A 
ATOM      4  N   UNL     1       1.252  44.199  54.651  1.00  0.00    -0.193 NA
ATOM      5  C   UNL     1       1.406  43.970  53.340  1.00  0.00     0.165 A 
ATOM      6  C   UNL     1       2.227  44.665  52.472  1.00  0.00     0.082 A 
ATOM      7  C   UNL     1       2.031  44.032  51.227  1.00  0.00     0.149 A 
ATOM      8  N   UNL     1       1.163  43.017  51.287  1.00  0.00    -0.179 NA
ATOM      9  N   UNL     1       0.790  43.007  52.589  1.00  0.00    -0.250 N 
ATOM     10  C   UNL     1      -0.169  42.033  53.045  1.00  0.00     0.176 C 
ENDROOT
BRANCH   1  11
ATOM     11  N   UNL     1       3.857  46.468  52.208  1.00  0.00    -0.339 N 
ATOM     12  H   UNL     1       3.411  47.202  51.679  1.00  0.00     0.168 HD
BRANCH  11  13
ATOM     13  C   UNL     1       5.257  46.442  52.077  1.00  0.00     0.040 A 
ATOM     14  C   UNL     1       8.088  46.533  51.880  1.00  0.00    -0.048 A 
ATOM     15  C   UNL     1       7.331  45.781  50.978  1.00  0.00     0.006 A 
ATOM     16  C   UNL     1       7.422  47.254  52.875  1.00  0.00     0.006 A 
ATOM     17  C   UNL     1       5.934  45.741  51.077  1.00  0.00     0.026 A 
ATOM     18  C   UNL     1       6.026  47.207  52.968  1.00  0.00     0.026 A 
BRANCH  14  19
ATOM     19  C   UNL     1       9.589  46.591  51.764  1.00  0.00     0.032 C 
ATOM     20  C   UNL     1      10.254  46.816  53.113  1.00  0.00     0.009 C 
ENDBRANCH  14  19
ENDBRANCH  11  13
ENDBRANCH   1  11
BRANCH   3  21
ATOM     21  N   UNL     1       1.872  45.508  56.441  1.00  0.00    -0.352 N 
ATOM     22  H   UNL     1       2.190  46.463  56.580  1.00  0.00     0.163 HD
BRANCH  21  23
ATOM     23  C   UNL     1       0.562  45.225  57.008  1.00  0.00     0.147 C 
BRANCH  23  24
ATOM     24  C   UNL     1      -0.033  46.526  57.580  1.00  0.00     0.130 C 
ATOM     25  C   UNL     1       0.811  47.074  58.722  1.00  0.00     0.040 C 
BRANCH  24  26
ATOM     26  O   UNL     1      -1.363  46.285  58.062  1.00  0.00    -0.392 OA
ATOM     27  H   UNL     1      -1.697  45.483  57.625  1.00  0.00     0.211 HD
ENDBRANCH  24  26
ENDBRANCH  23  24
ENDBRANCH  21  23
ENDBRANCH   3  21
TORSDOF 7
ENDMDL
MODEL 14
REMARK VINA RESULT:    -8.178      2.650      6.331
REMARK INTER + INTRA:         -11.772
REMARK INTER:                 -10.995
REMARK INTRA:                  -0.776
REMARK UNBOUND:                -0.486
REMARK SMILES CCc1ccc(Nc2nc(NC[C@H](C)O)nc3c2cnn3C)cc1
REMARK SMILES IDX 8 1 9 2 10 3 16 4 17 5 18 6 19 7 20 8 21 9 22 10 7 11 6 13
REMARK SMILES IDX 3 14 4 15 24 16 5 17 23 18 2 19 1 20 11 21 12 23 13 24 14 25
REMARK SMILES IDX 15 26
REMARK H PARENT 7 12 11 22 15 27
ROOT
ATOM      1  C   UNL     1       5.914  46.850  52.539  1.00  0.00     0.147 A 
ATOM      2  N   UNL     1       7.081  47.369  53.001  1.00  0.00    -0.195 NA
ATOM      3  C   UNL     1       8.267  46.959  52.513  1.00  0.00     0.226 A 
ATOM      4  N   UNL     1       8.438  46.046  51.550  1.00  0.00    -0.193 NA
ATOM      5  C   UNL     1       7.281  45.542  51.103  1.00  0.00     0.165 A 
ATOM      6  C   UNL     1       6.012  45.883  51.530  1.00  0.00     0.082 A 
ATOM      7  C   UNL     1       5.154  45.082  50.748  1.00  0.00     0.149 A 
ATOM      8  N   UNL     1       5.811  44.296  49.890  1.00  0.00    -0.179 NA
ATOM      9  N   UNL     1       7.110  44.591  50.134  1.00  0.00    -0.250 N 
ATOM     10  C   UNL     1       8.143  43.916  49.390  1.00  0.00     0.176 C 
ENDROOT
BRANCH   1  11
ATOM     11  N   UNL     1       4.668  47.283  53.018  1.00  0.00    -0.339 N 
ATOM     12  H   UNL     1       4.485  48.262  52.859  1.00  0.00     0.168 HD
BRANCH  11  13
ATOM     13  C   UNL     1       3.589  46.590  53.597  1.00  0.00     0.040 A 
ATOM     14  C   UNL     1       1.316  45.269  54.668  1.00  0.00    -0.048 A 
ATOM     15  C   UNL     1       2.466  45.453  55.439  1.00  0.00     0.006 A 
ATOM     16  C   UNL     1       1.300  45.763  53.361  1.00  0.00     0.006 A 
ATOM     17  C   UNL     1       3.585  46.108  54.908  1.00  0.00     0.026 A 
ATOM     18  C   UNL     1       2.423  46.414  52.836  1.00  0.00     0.026 A 
BRANCH  14  19
ATOM     19  C   UNL     1       0.106  44.582  55.245  1.00  0.00     0.032 C 
ATOM     20  C   UNL     1      -0.258  45.130  56.616  1.00  0.00     0.009 C 
ENDBRANCH  14  19
ENDBRANCH  11  13
ENDBRANCH   1  11
BRANCH   3  21
ATOM     21  N   UNL     1       9.435  47.515  53.015  1.00  0.00    -0.352 N 
ATOM     22  H   UNL     1       9.294  48.521  53.068  1.00  0.00     0.163 HD
BRANCH  21  23
ATOM     23  C   UNL     1       9.914  46.914  54.251  1.00  0.00     0.147 C 
BRANCH  23  24
ATOM     24  C   UNL     1      10.261  48.029  55.256  1.00  0.00     0.130 C 
ATOM     25  C   UNL     1      11.062  47.494  56.434  1.00  0.00     0.040 C 
BRANCH  24  26
ATOM     26  O   UNL     1       9.057  48.633  55.751  1.00  0.00    -0.392 OA
ATOM     27  H   UNL     1       8.706  48.062  56.456  1.00  0.00     0.211 HD
ENDBRANCH  24  26
ENDBRANCH  23  24
ENDBRANCH  21  23
ENDBRANCH   3  21
TORSDOF 7
ENDMDL
MODEL 15
REMARK VINA RESULT:    -8.003      2.575      7.606
REMARK INTER + INTRA:         -11.530
REMARK INTER:                 -10.610
REMARK INTRA:                  -0.920
REMARK UNBOUND:                -0.486
REMARK SMILES CCc1ccc(Nc2nc(NC[C@H](C)O)nc3c2cnn3C)cc1
REMARK SMILES IDX 8 1 9 2 10 3 16 4 17 5 18 6 19 7 20 8 21 9 22 10 7 11 6 13
REMARK SMILES IDX 3 14 4 15 24 16 5 17 23 18 2 19 1 20 11 21 12 23 13 24 14 25
REMARK SMILES IDX 15 26
REMARK H PARENT 7 12 11 22 15 27
ROOT
ATOM      1  C   UNL     1       6.059  43.051  50.052  1.00  0.00     0.147 A 
ATOM      2  N   UNL     1       6.911  44.109  50.030  1.00  0.00    -0.195 NA
ATOM      3  C   UNL     1       6.767  45.137  50.887  1.00  0.00     0.226 A 
ATOM      4  N   UNL     1       5.824  45.237  51.831  1.00  0.00    -0.193 NA
ATOM      5  C   UNL     1       4.990  44.189  51.843  1.00  0.00     0.165 A 
ATOM      6  C   UNL     1       5.040  43.086  51.013  1.00  0.00     0.082 A 
ATOM      7  C   UNL     1       3.959  42.283  51.435  1.00  0.00     0.149 A 
ATOM      8  N   UNL     1       3.275  42.820  52.450  1.00  0.00    -0.179 NA
ATOM      9  N   UNL     1       3.921  43.989  52.673  1.00  0.00    -0.250 N 
ATOM     10  C   UNL     1       3.454  44.871  53.713  1.00  0.00     0.176 C 
ENDROOT
BRANCH   1  11
ATOM     11  N   UNL     1       6.208  41.960  49.183  1.00  0.00    -0.339 N 
ATOM     12  H   UNL     1       6.967  41.342  49.428  1.00  0.00     0.168 HD
BRANCH  11  13
ATOM     13  C   UNL     1       5.444  41.516  48.089  1.00  0.00     0.040 A 
ATOM     14  C   UNL     1       3.946  40.750  45.802  1.00  0.00    -0.048 A 
ATOM     15  C   UNL     1       3.571  40.325  47.079  1.00  0.00     0.006 A 
ATOM     16  C   UNL     1       5.067  41.574  45.673  1.00  0.00     0.006 A 
ATOM     17  C   UNL     1       4.311  40.708  48.205  1.00  0.00     0.026 A 
ATOM     18  C   UNL     1       5.803  41.950  46.803  1.00  0.00     0.026 A 
BRANCH  14  19
ATOM     19  C   UNL     1       3.140  40.354  44.592  1.00  0.00     0.032 C 
ATOM     20  C   UNL     1       1.808  41.085  44.535  1.00  0.00     0.009 C 
ENDBRANCH  14  19
ENDBRANCH  11  13
ENDBRANCH   1  11
BRANCH   3  21
ATOM     21  N   UNL     1       7.660  46.198  50.829  1.00  0.00    -0.352 N 
ATOM     22  H   UNL     1       7.112  47.052  50.760  1.00  0.00     0.163 HD
BRANCH  21  23
ATOM     23  C   UNL     1       8.659  46.213  51.887  1.00  0.00     0.147 C 
BRANCH  23  24
ATOM     24  C   UNL     1       8.605  47.570  52.615  1.00  0.00     0.130 C 
ATOM     25  C   UNL     1       9.437  47.556  53.889  1.00  0.00     0.040 C 
BRANCH  24  26
ATOM     26  O   UNL     1       7.248  47.891  52.952  1.00  0.00    -0.392 OA
ATOM     27  H   UNL     1       6.901  47.170  53.506  1.00  0.00     0.211 HD
ENDBRANCH  24  26
ENDBRANCH  23  24
ENDBRANCH  21  23
ENDBRANCH   3  21
TORSDOF 7
ENDMDL
MODEL 16
REMARK VINA RESULT:    -7.853      2.161      6.001
REMARK INTER + INTRA:         -11.323
REMARK INTER:                 -10.941
REMARK INTRA:                  -0.383
REMARK UNBOUND:                -0.486
REMARK SMILES CCc1ccc(Nc2nc(NC[C@H](C)O)nc3c2cnn3C)cc1
REMARK SMILES IDX 8 1 9 2 10 3 16 4 17 5 18 6 19 7 20 8 21 9 22 10 7 11 6 13
REMARK SMILES IDX 3 14 4 15 24 16 5 17 23 18 2 19 1 20 11 21 12 23 13 24 14 25
REMARK SMILES IDX 15 26
REMARK H PARENT 7 12 11 22 15 27
ROOT
ATOM      1  C   UNL     1       4.670  44.450  52.110  1.00  0.00     0.147 A 
ATOM      2  N   UNL     1       5.099  45.637  52.611  1.00  0.00    -0.195 NA
ATOM      3  C   UNL     1       6.227  46.217  52.160  1.00  0.00     0.226 A 
ATOM      4  N   UNL     1       7.022  45.730  51.199  1.00  0.00    -0.193 NA
ATOM      5  C   UNL     1       6.589  44.559  50.713  1.00  0.00     0.165 A 
ATOM      6  C   UNL     1       5.453  43.874  51.101  1.00  0.00     0.082 A 
ATOM      7  C   UNL     1       5.448  42.721  50.289  1.00  0.00     0.149 A 
ATOM      8  N   UNL     1       6.487  42.669  49.449  1.00  0.00    -0.179 NA
ATOM      9  N   UNL     1       7.172  43.801  49.736  1.00  0.00    -0.250 N 
ATOM     10  C   UNL     1       8.390  44.093  49.023  1.00  0.00     0.176 C 
ENDROOT
BRANCH   1  11
ATOM     11  N   UNL     1       3.484  43.843  52.551  1.00  0.00    -0.339 N 
ATOM     12  H   UNL     1       3.310  42.938  52.141  1.00  0.00     0.168 HD
BRANCH  11  13
ATOM     13  C   UNL     1       2.540  44.219  53.523  1.00  0.00     0.040 A 
ATOM     14  C   UNL     1       0.749  44.978  55.591  1.00  0.00    -0.048 A 
ATOM     15  C   UNL     1       0.297  44.261  54.481  1.00  0.00     0.006 A 
ATOM     16  C   UNL     1       2.106  45.301  55.672  1.00  0.00     0.006 A 
ATOM     17  C   UNL     1       1.185  43.885  53.463  1.00  0.00     0.026 A 
ATOM     18  C   UNL     1       2.986  44.925  54.651  1.00  0.00     0.026 A 
BRANCH  14  19
ATOM     19  C   UNL     1      -0.201  45.365  56.694  1.00  0.00     0.032 C 
ATOM     20  C   UNL     1       0.431  46.349  57.667  1.00  0.00     0.009 C 
ENDBRANCH  14  19
ENDBRANCH  11  13
ENDBRANCH   1  11
BRANCH   3  21
ATOM     21  N   UNL     1       6.629  47.430  52.701  1.00  0.00    -0.352 N 
ATOM     22  H   UNL     1       6.467  47.383  53.704  1.00  0.00     0.163 HD
BRANCH  21  23
ATOM     23  C   UNL     1       7.975  47.846  52.333  1.00  0.00     0.147 C 
BRANCH  23  24
ATOM     24  C   UNL     1       8.873  47.823  53.585  1.00  0.00     0.130 C 
ATOM     25  C   UNL     1       9.921  46.723  53.502  1.00  0.00     0.040 C 
BRANCH  24  26
ATOM     26  O   UNL     1       8.072  47.611  54.757  1.00  0.00    -0.392 OA
ATOM     27  H   UNL     1       7.383  46.962  54.533  1.00  0.00     0.211 HD
ENDBRANCH  24  26
ENDBRANCH  23  24
ENDBRANCH  21  23
ENDBRANCH   3  21
TORSDOF 7
ENDMDL
MODEL 17
REMARK VINA RESULT:    -7.844      2.880      5.774
REMARK INTER + INTRA:         -11.311
REMARK INTER:                 -10.567
REMARK INTRA:                  -0.743
REMARK UNBOUND:                -0.486
REMARK SMILES CCc1ccc(Nc2nc(NC[C@H](C)O)nc3c2cnn3C)cc1
REMARK SMILES IDX 8 1 9 2 10 3 16 4 17 5 18 6 19 7 20 8 21 9 22 10 7 11 6 13
REMARK SMILES IDX 3 14 4 15 24 16 5 17 23 18 2 19 1 20 11 21 12 23 13 24 14 25
REMARK SMILES IDX 15 26
REMARK H PARENT 7 12 11 22 15 27
ROOT
ATOM      1  C   UNL     1       2.299  44.952  55.053  1.00  0.00     0.147 A 
ATOM      2  N   UNL     1       2.311  44.137  53.967  1.00  0.00    -0.195 NA
ATOM      3  C   UNL     1       1.221  43.429  53.615  1.00  0.00     0.226 A 
ATOM      4  N   UNL     1       0.042  43.448  54.249  1.00  0.00    -0.193 NA
ATOM      5  C   UNL     1       0.043  44.256  55.318  1.00  0.00     0.165 A 
ATOM      6  C   UNL     1       1.098  45.023  55.772  1.00  0.00     0.082 A 
ATOM      7  C   UNL     1       0.585  45.684  56.907  1.00  0.00     0.149 A 
ATOM      8  N   UNL     1      -0.691  45.373  57.161  1.00  0.00    -0.179 NA
ATOM      9  N   UNL     1      -0.994  44.492  56.179  1.00  0.00    -0.250 N 
ATOM     10  C   UNL     1      -2.313  43.913  56.127  1.00  0.00     0.176 C 
ENDROOT
BRANCH   1  11
ATOM     11  N   UNL     1       3.417  45.716  55.420  1.00  0.00    -0.339 N 
ATOM     12  H   UNL     1       3.408  46.018  56.383  1.00  0.00     0.168 HD
BRANCH  11  13
ATOM     13  C   UNL     1       4.589  46.063  54.725  1.00  0.00     0.040 A 
ATOM     14  C   UNL     1       6.866  46.826  53.210  1.00  0.00    -0.048 A 
ATOM     15  C   UNL     1       6.920  45.738  54.085  1.00  0.00     0.006 A 
ATOM     16  C   UNL     1       5.662  47.524  53.083  1.00  0.00     0.006 A 
ATOM     17  C   UNL     1       5.793  45.363  54.829  1.00  0.00     0.026 A 
ATOM     18  C   UNL     1       4.541  47.144  53.832  1.00  0.00     0.026 A 
BRANCH  14  19
ATOM     19  C   UNL     1       8.071  47.218  52.396  1.00  0.00     0.032 C 
ATOM     20  C   UNL     1       9.371  46.835  53.087  1.00  0.00     0.009 C 
ENDBRANCH  14  19
ENDBRANCH  11  13
ENDBRANCH   1  11
BRANCH   3  21
ATOM     21  N   UNL     1       1.278  42.607  52.498  1.00  0.00    -0.352 N 
ATOM     22  H   UNL     1       0.323  42.461  52.180  1.00  0.00     0.163 HD
BRANCH  21  23
ATOM     23  C   UNL     1       2.193  43.055  51.459  1.00  0.00     0.147 C 
BRANCH  23  24
ATOM     24  C   UNL     1       3.519  42.280  51.583  1.00  0.00     0.130 C 
ATOM     25  C   UNL     1       4.715  43.158  51.244  1.00  0.00     0.040 C 
BRANCH  24  26
ATOM     26  O   UNL     1       3.510  41.149  50.700  1.00  0.00    -0.392 OA
ATOM     27  H   UNL     1       2.583  40.946  50.487  1.00  0.00     0.211 HD
ENDBRANCH  24  26
ENDBRANCH  23  24
ENDBRANCH  21  23
ENDBRANCH   3  21
TORSDOF 7
ENDMDL
MODEL 18
REMARK VINA RESULT:    -7.805      2.754      7.259
REMARK INTER + INTRA:         -11.256
REMARK INTER:                 -10.669
REMARK INTRA:                  -0.587
REMARK UNBOUND:                -0.486
REMARK SMILES CCc1ccc(Nc2nc(NC[C@H](C)O)nc3c2cnn3C)cc1
REMARK SMILES IDX 8 1 9 2 10 3 16 4 17 5 18 6 19 7 20 8 21 9 22 10 7 11 6 13
REMARK SMILES IDX 3 14 4 15 24 16 5 17 23 18 2 19 1 20 11 21 12 23 13 24 14 25
REMARK SMILES IDX 15 26
REMARK H PARENT 7 12 11 22 15 27
ROOT
ATOM      1  C   UNL     1       4.829  44.913  53.537  1.00  0.00     0.147 A 
ATOM      2  N   UNL     1       4.743  44.282  52.337  1.00  0.00    -0.195 NA
ATOM      3  C   UNL     1       5.608  44.555  51.342  1.00  0.00     0.226 A 
ATOM      4  N   UNL     1       6.621  45.427  51.409  1.00  0.00    -0.193 NA
ATOM      5  C   UNL     1       6.696  46.043  52.596  1.00  0.00     0.165 A 
ATOM      6  C   UNL     1       5.865  45.845  53.682  1.00  0.00     0.082 A 
ATOM      7  C   UNL     1       6.368  46.718  54.669  1.00  0.00     0.149 A 
ATOM      8  N   UNL     1       7.432  47.415  54.257  1.00  0.00    -0.179 NA
ATOM      9  N   UNL     1       7.605  46.988  52.984  1.00  0.00    -0.250 N 
ATOM     10  C   UNL     1       8.677  47.536  52.191  1.00  0.00     0.176 C 
ENDROOT
BRANCH   1  11
ATOM     11  N   UNL     1       3.952  44.623  54.592  1.00  0.00    -0.339 N 
ATOM     12  H   UNL     1       4.415  44.427  55.467  1.00  0.00     0.168 HD
BRANCH  11  13
ATOM     13  C   UNL     1       2.549  44.644  54.683  1.00  0.00     0.040 A 
ATOM     14  C   UNL     1      -0.269  44.705  55.021  1.00  0.00    -0.048 A 
ATOM     15  C   UNL     1       0.309  44.015  53.953  1.00  0.00     0.006 A 
ATOM     16  C   UNL     1       0.569  45.353  55.932  1.00  0.00     0.006 A 
ATOM     17  C   UNL     1       1.700  43.985  53.791  1.00  0.00     0.026 A 
ATOM     18  C   UNL     1       1.958  45.320  55.762  1.00  0.00     0.026 A 
BRANCH  14  19
ATOM     19  C   UNL     1      -1.764  44.722  55.207  1.00  0.00     0.032 C 
ATOM     20  C   UNL     1      -2.158  44.491  56.658  1.00  0.00     0.009 C 
ENDBRANCH  14  19
ENDBRANCH  11  13
ENDBRANCH   1  11
BRANCH   3  21
ATOM     21  N   UNL     1       5.482  43.887  50.132  1.00  0.00    -0.352 N 
ATOM     22  H   UNL     1       5.160  44.564  49.444  1.00  0.00     0.163 HD
BRANCH  21  23
ATOM     23  C   UNL     1       6.660  43.136  49.724  1.00  0.00     0.147 C 
BRANCH  23  24
ATOM     24  C   UNL     1       6.266  41.665  49.488  1.00  0.00     0.130 C 
ATOM     25  C   UNL     1       4.905  41.346  50.090  1.00  0.00     0.040 C 
BRANCH  24  26
ATOM     26  O   UNL     1       7.246  40.796  50.073  1.00  0.00    -0.392 OA
ATOM     27  H   UNL     1       6.837  39.922  50.190  1.00  0.00     0.211 HD
ENDBRANCH  24  26
ENDBRANCH  23  24
ENDBRANCH  21  23
ENDBRANCH   3  21
TORSDOF 7
ENDMDL
