MODEL 1
REMARK VINA RESULT:    -8.136      0.000      0.000
REMARK INTER + INTRA:         -14.029
REMARK INTER:                 -12.179
REMARK INTRA:                  -1.850
REMARK UNBOUND:                -1.850
REMARK SMILES Cc1cccc(Nc2nc(NCCCCCO)nc3c2cnn3C)c1
REMARK SMILES IDX 12 1 11 2 10 4 8 5 9 6 20 7 19 8 21 9 18 10 23 11 22 12
REMARK SMILES IDX 24 13 7 14 6 16 2 17 3 18 25 19 4 20 5 21 1 22 13 23 14 24
REMARK SMILES IDX 15 25 16 26 17 27
REMARK H PARENT 11 3 7 15 17 28
ROOT
ATOM      1  C   UNL     1       4.054  45.849  55.333  1.00  0.00     0.116 C 
ENDROOT
BRANCH   1   2
ATOM      2  N   UNL     1       4.779  47.058  54.980  1.00  0.00    -0.354 N 
ATOM      3  H   UNL     1       4.234  47.793  54.544  1.00  0.00     0.163 HD
BRANCH   2   4
ATOM      4  C   UNL     1       5.929  46.909  54.220  1.00  0.00     0.226 A 
ATOM      5  C   UNL     1       6.761  46.275  52.124  1.00  0.00     0.147 A 
ATOM      6  N   UNL     1       5.718  46.448  52.975  1.00  0.00    -0.195 NA
ATOM      7  C   UNL     1       8.043  46.548  52.602  1.00  0.00     0.082 A 
ATOM      8  C   UNL     1       8.138  47.012  53.899  1.00  0.00     0.165 A 
ATOM      9  C   UNL     1       9.380  46.478  52.156  1.00  0.00     0.149 A 
ATOM     10  N   UNL     1       7.122  47.218  54.749  1.00  0.00    -0.193 NA
ATOM     11  N   UNL     1       9.471  47.210  54.132  1.00  0.00    -0.250 N 
ATOM     12  N   UNL     1      10.258  46.889  53.079  1.00  0.00    -0.179 NA
ATOM     13  C   UNL     1      10.075  47.699  55.345  1.00  0.00     0.176 C 
BRANCH   5  14
ATOM     14  N   UNL     1       6.464  45.775  50.846  1.00  0.00    -0.339 N 
ATOM     15  H   UNL     1       7.033  46.299  50.184  1.00  0.00     0.168 HD
BRANCH  14  16
ATOM     16  C   UNL     1       6.341  44.429  50.446  1.00  0.00     0.040 A 
ATOM     17  C   UNL     1       5.206  42.266  50.431  1.00  0.00    -0.049 A 
ATOM     18  C   UNL     1       6.230  41.738  49.638  1.00  0.00     0.003 A 
ATOM     19  C   UNL     1       5.269  43.611  50.825  1.00  0.00     0.029 A 
ATOM     20  C   UNL     1       7.315  42.533  49.275  1.00  0.00     0.002 A 
ATOM     21  C   UNL     1       7.374  43.866  49.686  1.00  0.00     0.026 A 
ATOM     22  C   UNL     1       4.025  41.422  50.811  1.00  0.00     0.044 C 
ENDBRANCH  14  16
ENDBRANCH   5  14
ENDBRANCH   2   4
ENDBRANCH   1   2
BRANCH   1  23
ATOM     23  C   UNL     1       2.714  45.720  54.602  1.00  0.00     0.021 C 
BRANCH  23  24
ATOM     24  C   UNL     1       2.668  44.521  53.650  1.00  0.00     0.004 C 
BRANCH  24  25
ATOM     25  C   UNL     1       2.151  44.932  52.266  1.00  0.00     0.028 C 
BRANCH  25  26
ATOM     26  C   UNL     1       2.377  46.411  51.980  1.00  0.00     0.156 C 
BRANCH  26  27
ATOM     27  O   UNL     1       3.382  46.566  50.989  1.00  0.00    -0.396 OA
ATOM     28  H   UNL     1       3.061  47.232  50.358  1.00  0.00     0.210 HD
ENDBRANCH  26  27
ENDBRANCH  25  26
ENDBRANCH  24  25
ENDBRANCH  23  24
ENDBRANCH   1  23
TORSDOF 9
ENDMDL
MODEL 2
REMARK VINA RESULT:    -8.106      2.253      5.304
REMARK INTER + INTRA:         -13.984
REMARK INTER:                 -12.518
REMARK INTRA:                  -1.466
REMARK UNBOUND:                -1.850
REMARK SMILES Cc1cccc(Nc2nc(NCCCCCO)nc3c2cnn3C)c1
REMARK SMILES IDX 12 1 11 2 10 4 8 5 9 6 20 7 19 8 21 9 18 10 23 11 22 12
REMARK SMILES IDX 24 13 7 14 6 16 2 17 3 18 25 19 4 20 5 21 1 22 13 23 14 24
REMARK SMILES IDX 15 25 16 26 17 27
REMARK H PARENT 11 3 7 15 17 28
ROOT
ATOM      1  C   UNL     1       1.785  45.596  54.097  1.00  0.00     0.116 C 
ENDROOT
BRANCH   1   2
ATOM      2  N   UNL     1       2.752  44.520  54.223  1.00  0.00    -0.354 N 
ATOM      3  H   UNL     1       3.263  44.479  55.098  1.00  0.00     0.163 HD
BRANCH   2   4
ATOM      4  C   UNL     1       3.687  44.384  53.209  1.00  0.00     0.226 A 
ATOM      5  C   UNL     1       5.516  45.398  52.153  1.00  0.00     0.147 A 
ATOM      6  N   UNL     1       4.541  45.417  53.097  1.00  0.00    -0.195 NA
ATOM      7  C   UNL     1       5.566  44.303  51.290  1.00  0.00     0.082 A 
ATOM      8  C   UNL     1       4.635  43.304  51.497  1.00  0.00     0.165 A 
ATOM      9  C   UNL     1       6.309  43.864  50.174  1.00  0.00     0.149 A 
ATOM     10  N   UNL     1       3.681  43.286  52.439  1.00  0.00    -0.193 NA
ATOM     11  N   UNL     1       4.885  42.353  50.548  1.00  0.00    -0.250 N 
ATOM     12  N   UNL     1       5.908  42.671  49.719  1.00  0.00    -0.179 NA
ATOM     13  C   UNL     1       4.181  41.110  50.361  1.00  0.00     0.176 C 
BRANCH   5  14
ATOM     14  N   UNL     1       6.359  46.518  52.087  1.00  0.00    -0.339 N 
ATOM     15  H   UNL     1       5.841  47.303  52.477  1.00  0.00     0.168 HD
BRANCH  14  16
ATOM     16  C   UNL     1       7.725  46.601  52.427  1.00  0.00     0.040 A 
ATOM     17  C   UNL     1       9.551  47.139  53.958  1.00  0.00    -0.049 A 
ATOM     18  C   UNL     1      10.477  46.783  52.974  1.00  0.00     0.003 A 
ATOM     19  C   UNL     1       8.179  47.041  53.677  1.00  0.00     0.029 A 
ATOM     20  C   UNL     1      10.039  46.367  51.718  1.00  0.00     0.002 A 
ATOM     21  C   UNL     1       8.674  46.287  51.445  1.00  0.00     0.026 A 
ATOM     22  C   UNL     1      10.013  47.571  55.320  1.00  0.00     0.044 C 
ENDBRANCH  14  16
ENDBRANCH   5  14
ENDBRANCH   2   4
ENDBRANCH   1   2
BRANCH   1  23
ATOM     23  C   UNL     1       1.085  45.615  52.734  1.00  0.00     0.021 C 
BRANCH  23  24
ATOM     24  C   UNL     1      -0.197  44.777  52.712  1.00  0.00     0.004 C 
BRANCH  24  25
ATOM     25  C   UNL     1       0.064  43.380  52.137  1.00  0.00     0.028 C 
BRANCH  25  26
ATOM     26  C   UNL     1      -0.003  42.294  53.204  1.00  0.00     0.156 C 
BRANCH  26  27
ATOM     27  O   UNL     1       1.306  41.968  53.647  1.00  0.00    -0.396 OA
ATOM     28  H   UNL     1       1.481  42.504  54.439  1.00  0.00     0.210 HD
ENDBRANCH  26  27
ENDBRANCH  25  26
ENDBRANCH  24  25
ENDBRANCH  23  24
ENDBRANCH   1  23
TORSDOF 9
ENDMDL
MODEL 3
REMARK VINA RESULT:    -7.947      2.194      5.734
REMARK INTER + INTRA:         -13.746
REMARK INTER:                 -12.654
REMARK INTRA:                  -1.091
REMARK UNBOUND:                -1.850
REMARK SMILES Cc1cccc(Nc2nc(NCCCCCO)nc3c2cnn3C)c1
REMARK SMILES IDX 12 1 11 2 10 4 8 5 9 6 20 7 19 8 21 9 18 10 23 11 22 12
REMARK SMILES IDX 24 13 7 14 6 16 2 17 3 18 25 19 4 20 5 21 1 22 13 23 14 24
REMARK SMILES IDX 15 25 16 26 17 27
REMARK H PARENT 11 3 7 15 17 28
ROOT
ATOM      1  C   UNL     1       3.943  41.798  51.038  1.00  0.00     0.116 C 
ENDROOT
BRANCH   1   2
ATOM      2  N   UNL     1       3.342  43.110  50.875  1.00  0.00    -0.354 N 
ATOM      3  H   UNL     1       3.455  43.543  49.966  1.00  0.00     0.163 HD
BRANCH   2   4
ATOM      4  C   UNL     1       3.661  44.075  51.819  1.00  0.00     0.226 A 
ATOM      5  C   UNL     1       5.057  45.898  52.284  1.00  0.00     0.147 A 
ATOM      6  N   UNL     1       4.661  44.899  51.456  1.00  0.00    -0.195 NA
ATOM      7  C   UNL     1       4.425  46.005  53.524  1.00  0.00     0.082 A 
ATOM      8  C   UNL     1       3.416  45.101  53.788  1.00  0.00     0.165 A 
ATOM      9  C   UNL     1       4.508  46.790  54.693  1.00  0.00     0.149 A 
ATOM     10  N   UNL     1       2.987  44.124  52.977  1.00  0.00    -0.193 NA
ATOM     11  N   UNL     1       2.955  45.406  55.039  1.00  0.00    -0.250 N 
ATOM     12  N   UNL     1       3.609  46.439  55.620  1.00  0.00    -0.179 NA
ATOM     13  C   UNL     1       1.893  44.747  55.755  1.00  0.00     0.176 C 
BRANCH   5  14
ATOM     14  N   UNL     1       6.116  46.707  51.845  1.00  0.00    -0.339 N 
ATOM     15  H   UNL     1       5.808  47.673  51.934  1.00  0.00     0.168 HD
BRANCH  14  16
ATOM     16  C   UNL     1       7.488  46.588  52.152  1.00  0.00     0.040 A 
ATOM     17  C   UNL     1       9.427  46.949  53.592  1.00  0.00    -0.049 A 
ATOM     18  C   UNL     1      10.248  46.350  52.631  1.00  0.00     0.003 A 
ATOM     19  C   UNL     1       8.050  47.059  53.345  1.00  0.00     0.029 A 
ATOM     20  C   UNL     1       9.705  45.899  51.430  1.00  0.00     0.002 A 
ATOM     21  C   UNL     1       8.337  46.028  51.189  1.00  0.00     0.026 A 
ATOM     22  C   UNL     1      10.000  47.421  54.896  1.00  0.00     0.044 C 
ENDBRANCH  14  16
ENDBRANCH   5  14
ENDBRANCH   2   4
ENDBRANCH   1   2
BRANCH   1  23
ATOM     23  C   UNL     1       4.001  41.001  49.730  1.00  0.00     0.021 C 
BRANCH  23  24
ATOM     24  C   UNL     1       5.329  41.173  48.987  1.00  0.00     0.004 C 
BRANCH  24  25
ATOM     25  C   UNL     1       6.391  41.814  49.888  1.00  0.00     0.028 C 
BRANCH  25  26
ATOM     26  C   UNL     1       6.937  43.112  49.304  1.00  0.00     0.156 C 
BRANCH  26  27
ATOM     27  O   UNL     1       8.346  43.022  49.155  1.00  0.00    -0.396 OA
ATOM     28  H   UNL     1       8.567  43.413  48.293  1.00  0.00     0.210 HD
ENDBRANCH  26  27
ENDBRANCH  25  26
ENDBRANCH  24  25
ENDBRANCH  23  24
ENDBRANCH   1  23
TORSDOF 9
ENDMDL
MODEL 4
REMARK VINA RESULT:    -7.839      2.736      5.636
REMARK INTER + INTRA:         -13.584
REMARK INTER:                 -13.149
REMARK INTRA:                  -0.435
REMARK UNBOUND:                -1.850
REMARK SMILES Cc1cccc(Nc2nc(NCCCCCO)nc3c2cnn3C)c1
REMARK SMILES IDX 12 1 11 2 10 4 8 5 9 6 20 7 19 8 21 9 18 10 23 11 22 12
REMARK SMILES IDX 24 13 7 14 6 16 2 17 3 18 25 19 4 20 5 21 1 22 13 23 14 24
REMARK SMILES IDX 15 25 16 26 17 27
REMARK H PARENT 11 3 7 15 17 28
ROOT
ATOM      1  C   UNL     1       1.517  45.511  54.626  1.00  0.00     0.116 C 
ENDROOT
BRANCH   1   2
ATOM      2  N   UNL     1       2.592  44.539  54.719  1.00  0.00    -0.354 N 
ATOM      3  H   UNL     1       3.139  44.559  55.573  1.00  0.00     0.163 HD
BRANCH   2   4
ATOM      4  C   UNL     1       3.496  44.488  53.668  1.00  0.00     0.226 A 
ATOM      5  C   UNL     1       5.287  45.593  52.639  1.00  0.00     0.147 A 
ATOM      6  N   UNL     1       4.342  45.532  53.611  1.00  0.00    -0.195 NA
ATOM      7  C   UNL     1       5.313  44.568  51.692  1.00  0.00     0.082 A 
ATOM      8  C   UNL     1       4.393  43.551  51.849  1.00  0.00     0.165 A 
ATOM      9  C   UNL     1       6.022  44.222  50.522  1.00  0.00     0.149 A 
ATOM     10  N   UNL     1       3.469  43.454  52.816  1.00  0.00    -0.193 NA
ATOM     11  N   UNL     1       4.616  42.678  50.821  1.00  0.00    -0.250 N 
ATOM     12  N   UNL     1       5.611  43.066  49.988  1.00  0.00    -0.179 NA
ATOM     13  C   UNL     1       3.911  41.450  50.559  1.00  0.00     0.176 C 
BRANCH   5  14
ATOM     14  N   UNL     1       6.124  46.719  52.634  1.00  0.00    -0.339 N 
ATOM     15  H   UNL     1       5.680  47.421  53.223  1.00  0.00     0.168 HD
BRANCH  14  16
ATOM     16  C   UNL     1       7.527  46.762  52.774  1.00  0.00     0.040 A 
ATOM     17  C   UNL     1       9.567  47.151  54.059  1.00  0.00    -0.049 A 
ATOM     18  C   UNL     1      10.332  46.877  52.922  1.00  0.00     0.003 A 
ATOM     19  C   UNL     1       8.167  47.087  53.977  1.00  0.00     0.029 A 
ATOM     20  C   UNL     1       9.706  46.577  51.713  1.00  0.00     0.002 A 
ATOM     21  C   UNL     1       8.314  46.531  51.640  1.00  0.00     0.026 A 
ATOM     22  C   UNL     1      10.232  47.457  55.369  1.00  0.00     0.044 C 
ENDBRANCH  14  16
ENDBRANCH   5  14
ENDBRANCH   2   4
ENDBRANCH   1   2
BRANCH   1  23
ATOM     23  C   UNL     1       0.211  45.020  55.257  1.00  0.00     0.021 C 
BRANCH  23  24
ATOM     24  C   UNL     1      -0.075  45.667  56.616  1.00  0.00     0.004 C 
BRANCH  24  25
ATOM     25  C   UNL     1       1.224  46.061  57.327  1.00  0.00     0.028 C 
BRANCH  25  26
ATOM     26  C   UNL     1       0.968  46.876  58.589  1.00  0.00     0.156 C 
BRANCH  26  27
ATOM     27  O   UNL     1       2.099  46.813  59.445  1.00  0.00    -0.396 OA
ATOM     28  H   UNL     1       1.803  46.412  60.280  1.00  0.00     0.210 HD
ENDBRANCH  26  27
ENDBRANCH  25  26
ENDBRANCH  24  25
ENDBRANCH  23  24
ENDBRANCH   1  23
TORSDOF 9
ENDMDL
MODEL 5
REMARK VINA RESULT:    -7.749      2.201      5.413
REMARK INTER + INTRA:         -13.450
REMARK INTER:                 -12.579
REMARK INTRA:                  -0.871
REMARK UNBOUND:                -1.850
REMARK SMILES Cc1cccc(Nc2nc(NCCCCCO)nc3c2cnn3C)c1
REMARK SMILES IDX 12 1 11 2 10 4 8 5 9 6 20 7 19 8 21 9 18 10 23 11 22 12
REMARK SMILES IDX 24 13 7 14 6 16 2 17 3 18 25 19 4 20 5 21 1 22 13 23 14 24
REMARK SMILES IDX 15 25 16 26 17 27
REMARK H PARENT 11 3 7 15 17 28
ROOT
ATOM      1  C   UNL     1       1.607  43.299  52.827  1.00  0.00     0.116 C 
ENDROOT
BRANCH   1   2
ATOM      2  N   UNL     1       2.942  42.834  53.161  1.00  0.00    -0.354 N 
ATOM      3  H   UNL     1       3.260  43.031  54.103  1.00  0.00     0.163 HD
BRANCH   2   4
ATOM      4  C   UNL     1       3.973  43.198  52.308  1.00  0.00     0.226 A 
ATOM      5  C   UNL     1       5.597  44.828  51.869  1.00  0.00     0.147 A 
ATOM      6  N   UNL     1       4.562  44.368  52.616  1.00  0.00    -0.195 NA
ATOM      7  C   UNL     1       5.987  44.074  50.761  1.00  0.00     0.082 A 
ATOM      8  C   UNL     1       5.306  42.893  50.542  1.00  0.00     0.165 A 
ATOM      9  C   UNL     1       6.913  44.147  49.700  1.00  0.00     0.149 A 
ATOM     10  N   UNL     1       4.300  42.403  51.280  1.00  0.00    -0.193 NA
ATOM     11  N   UNL     1       5.863  42.339  49.422  1.00  0.00    -0.250 N 
ATOM     12  N   UNL     1       6.853  43.089  48.883  1.00  0.00    -0.179 NA
ATOM     13  C   UNL     1       5.496  41.094  48.798  1.00  0.00     0.176 C 
BRANCH   5  14
ATOM     14  N   UNL     1       6.152  46.063  52.241  1.00  0.00    -0.339 N 
ATOM     15  H   UNL     1       5.537  46.462  52.948  1.00  0.00     0.168 HD
BRANCH  14  16
ATOM     16  C   UNL     1       7.501  46.361  52.522  1.00  0.00     0.040 A 
ATOM     17  C   UNL     1       9.277  47.223  53.961  1.00  0.00    -0.049 A 
ATOM     18  C   UNL     1      10.211  46.974  52.951  1.00  0.00     0.003 A 
ATOM     19  C   UNL     1       7.927  46.910  53.739  1.00  0.00     0.029 A 
ATOM     20  C   UNL     1       9.797  46.452  51.727  1.00  0.00     0.002 A 
ATOM     21  C   UNL     1       8.450  46.159  51.513  1.00  0.00     0.026 A 
ATOM     22  C   UNL     1       9.717  47.767  55.288  1.00  0.00     0.044 C 
ENDBRANCH  14  16
ENDBRANCH   5  14
ENDBRANCH   2   4
ENDBRANCH   1   2
BRANCH   1  23
ATOM     23  C   UNL     1       0.840  43.836  54.040  1.00  0.00     0.021 C 
BRANCH  23  24
ATOM     24  C   UNL     1       1.156  45.304  54.343  1.00  0.00     0.004 C 
BRANCH  24  25
ATOM     25  C   UNL     1       1.807  45.458  55.722  1.00  0.00     0.028 C 
BRANCH  25  26
ATOM     26  C   UNL     1       3.281  45.834  55.627  1.00  0.00     0.156 C 
BRANCH  26  27
ATOM     27  O   UNL     1       4.075  44.663  55.515  1.00  0.00    -0.396 OA
ATOM     28  H   UNL     1       4.921  44.929  55.116  1.00  0.00     0.210 HD
ENDBRANCH  26  27
ENDBRANCH  25  26
ENDBRANCH  24  25
ENDBRANCH  23  24
ENDBRANCH   1  23
TORSDOF 9
ENDMDL
MODEL 6
REMARK VINA RESULT:    -7.736      2.400      5.345
REMARK INTER + INTRA:         -13.430
REMARK INTER:                 -12.003
REMARK INTRA:                  -1.428
REMARK UNBOUND:                -1.850
REMARK SMILES Cc1cccc(Nc2nc(NCCCCCO)nc3c2cnn3C)c1
REMARK SMILES IDX 12 1 11 2 10 4 8 5 9 6 20 7 19 8 21 9 18 10 23 11 22 12
REMARK SMILES IDX 24 13 7 14 6 16 2 17 3 18 25 19 4 20 5 21 1 22 13 23 14 24
REMARK SMILES IDX 15 25 16 26 17 27
REMARK H PARENT 11 3 7 15 17 28
ROOT
ATOM      1  C   UNL     1       1.640  45.619  54.544  1.00  0.00     0.116 C 
ENDROOT
BRANCH   1   2
ATOM      2  N   UNL     1       2.596  44.526  54.569  1.00  0.00    -0.354 N 
ATOM      3  H   UNL     1       3.118  44.409  55.430  1.00  0.00     0.163 HD
BRANCH   2   4
ATOM      4  C   UNL     1       3.516  44.464  53.534  1.00  0.00     0.226 A 
ATOM      5  C   UNL     1       5.292  45.582  52.492  1.00  0.00     0.147 A 
ATOM      6  N   UNL     1       4.334  45.529  53.452  1.00  0.00    -0.195 NA
ATOM      7  C   UNL     1       5.361  44.526  51.582  1.00  0.00     0.082 A 
ATOM      8  C   UNL     1       4.467  43.490  51.761  1.00  0.00     0.165 A 
ATOM      9  C   UNL     1       6.096  44.159  50.435  1.00  0.00     0.149 A 
ATOM     10  N   UNL     1       3.531  43.400  52.718  1.00  0.00    -0.193 NA
ATOM     11  N   UNL     1       4.729  42.588  50.768  1.00  0.00    -0.250 N 
ATOM     12  N   UNL     1       5.726  42.974  49.936  1.00  0.00    -0.179 NA
ATOM     13  C   UNL     1       4.062  41.332  50.539  1.00  0.00     0.176 C 
BRANCH   5  14
ATOM     14  N   UNL     1       6.098  46.730  52.459  1.00  0.00    -0.339 N 
ATOM     15  H   UNL     1       5.548  47.489  52.858  1.00  0.00     0.168 HD
BRANCH  14  16
ATOM     16  C   UNL     1       7.456  46.851  52.819  1.00  0.00     0.040 A 
ATOM     17  C   UNL     1       9.840  46.475  52.447  1.00  0.00    -0.049 A 
ATOM     18  C   UNL     1      10.125  47.094  53.668  1.00  0.00     0.003 A 
ATOM     19  C   UNL     1       8.505  46.362  52.030  1.00  0.00     0.029 A 
ATOM     20  C   UNL     1       9.089  47.562  54.474  1.00  0.00     0.002 A 
ATOM     21  C   UNL     1       7.765  47.431  54.056  1.00  0.00     0.026 A 
ATOM     22  C   UNL     1      10.950  45.984  51.564  1.00  0.00     0.044 C 
ENDBRANCH  14  16
ENDBRANCH   5  14
ENDBRANCH   2   4
ENDBRANCH   1   2
BRANCH   1  23
ATOM     23  C   UNL     1       0.211  45.171  54.872  1.00  0.00     0.021 C 
BRANCH  23  24
ATOM     24  C   UNL     1      -0.549  44.660  53.644  1.00  0.00     0.004 C 
BRANCH  24  25
ATOM     25  C   UNL     1      -0.874  43.168  53.775  1.00  0.00     0.028 C 
BRANCH  25  26
ATOM     26  C   UNL     1       0.051  42.300  52.931  1.00  0.00     0.156 C 
BRANCH  26  27
ATOM     27  O   UNL     1       1.205  41.948  53.680  1.00  0.00    -0.396 OA
ATOM     28  H   UNL     1       1.026  42.181  54.607  1.00  0.00     0.210 HD
ENDBRANCH  26  27
ENDBRANCH  25  26
ENDBRANCH  24  25
ENDBRANCH  23  24
ENDBRANCH   1  23
TORSDOF 9
ENDMDL
MODEL 7
REMARK VINA RESULT:    -7.676      2.210      5.464
REMARK INTER + INTRA:         -13.340
REMARK INTER:                 -12.082
REMARK INTRA:                  -1.258
REMARK UNBOUND:                -1.850
REMARK SMILES Cc1cccc(Nc2nc(NCCCCCO)nc3c2cnn3C)c1
REMARK SMILES IDX 12 1 11 2 10 4 8 5 9 6 20 7 19 8 21 9 18 10 23 11 22 12
REMARK SMILES IDX 24 13 7 14 6 16 2 17 3 18 25 19 4 20 5 21 1 22 13 23 14 24
REMARK SMILES IDX 15 25 16 26 17 27
REMARK H PARENT 11 3 7 15 17 28
ROOT
ATOM      1  C   UNL     1       3.144  47.099  52.255  1.00  0.00     0.116 C 
ENDROOT
BRANCH   1   2
ATOM      2  N   UNL     1       3.031  45.653  52.324  1.00  0.00    -0.354 N 
ATOM      3  H   UNL     1       2.978  45.253  53.254  1.00  0.00     0.163 HD
BRANCH   2   4
ATOM      4  C   UNL     1       3.968  44.909  51.623  1.00  0.00     0.226 A 
ATOM      5  C   UNL     1       6.120  44.937  50.697  1.00  0.00     0.147 A 
ATOM      6  N   UNL     1       5.115  45.562  51.362  1.00  0.00    -0.195 NA
ATOM      7  C   UNL     1       5.900  43.629  50.264  1.00  0.00     0.082 A 
ATOM      8  C   UNL     1       4.683  43.063  50.586  1.00  0.00     0.165 A 
ATOM      9  C   UNL     1       6.568  42.628  49.528  1.00  0.00     0.149 A 
ATOM     10  N   UNL     1       3.686  43.648  51.266  1.00  0.00    -0.193 NA
ATOM     11  N   UNL     1       4.706  41.798  50.068  1.00  0.00    -0.250 N 
ATOM     12  N   UNL     1       5.852  41.504  49.410  1.00  0.00    -0.179 NA
ATOM     13  C   UNL     1       3.662  40.808  50.151  1.00  0.00     0.176 C 
BRANCH   5  14
ATOM     14  N   UNL     1       7.280  45.687  50.448  1.00  0.00    -0.339 N 
ATOM     15  H   UNL     1       7.003  46.475  49.866  1.00  0.00     0.168 HD
BRANCH  14  16
ATOM     16  C   UNL     1       8.284  46.067  51.362  1.00  0.00     0.040 A 
ATOM     17  C   UNL     1       9.074  47.248  53.349  1.00  0.00    -0.049 A 
ATOM     18  C   UNL     1      10.376  46.814  53.085  1.00  0.00     0.003 A 
ATOM     19  C   UNL     1       8.036  46.866  52.485  1.00  0.00     0.029 A 
ATOM     20  C   UNL     1      10.641  46.039  51.958  1.00  0.00     0.002 A 
ATOM     21  C   UNL     1       9.603  45.679  51.098  1.00  0.00     0.026 A 
ATOM     22  C   UNL     1       8.776  48.067  54.571  1.00  0.00     0.044 C 
ENDBRANCH  14  16
ENDBRANCH   5  14
ENDBRANCH   2   4
ENDBRANCH   1   2
BRANCH   1  23
ATOM     23  C   UNL     1       3.936  47.693  53.425  1.00  0.00     0.021 C 
BRANCH  23  24
ATOM     24  C   UNL     1       3.999  46.760  54.637  1.00  0.00     0.004 C 
BRANCH  24  25
ATOM     25  C   UNL     1       5.443  46.345  54.943  1.00  0.00     0.028 C 
BRANCH  25  26
ATOM     26  C   UNL     1       5.569  44.852  55.222  1.00  0.00     0.156 C 
BRANCH  26  27
ATOM     27  O   UNL     1       4.743  44.120  54.328  1.00  0.00    -0.396 OA
ATOM     28  H   UNL     1       3.840  44.150  54.685  1.00  0.00     0.210 HD
ENDBRANCH  26  27
ENDBRANCH  25  26
ENDBRANCH  24  25
ENDBRANCH  23  24
ENDBRANCH   1  23
TORSDOF 9
ENDMDL
MODEL 8
REMARK VINA RESULT:    -7.611      2.389      5.636
REMARK INTER + INTRA:         -13.243
REMARK INTER:                 -12.565
REMARK INTRA:                  -0.678
REMARK UNBOUND:                -1.850
REMARK SMILES Cc1cccc(Nc2nc(NCCCCCO)nc3c2cnn3C)c1
REMARK SMILES IDX 12 1 11 2 10 4 8 5 9 6 20 7 19 8 21 9 18 10 23 11 22 12
REMARK SMILES IDX 24 13 7 14 6 16 2 17 3 18 25 19 4 20 5 21 1 22 13 23 14 24
REMARK SMILES IDX 15 25 16 26 17 27
REMARK H PARENT 11 3 7 15 17 28
ROOT
ATOM      1  C   UNL     1       6.974  46.285  53.880  1.00  0.00     0.116 C 
ENDROOT
BRANCH   1   2
ATOM      2  N   UNL     1       5.796  46.791  54.564  1.00  0.00    -0.354 N 
ATOM      3  H   UNL     1       5.892  46.942  55.562  1.00  0.00     0.163 HD
BRANCH   2   4
ATOM      4  C   UNL     1       4.608  46.101  54.377  1.00  0.00     0.226 A 
ATOM      5  C   UNL     1       3.425  44.701  52.917  1.00  0.00     0.147 A 
ATOM      6  N   UNL     1       4.531  45.431  53.213  1.00  0.00    -0.195 NA
ATOM      7  C   UNL     1       2.374  44.712  53.834  1.00  0.00     0.082 A 
ATOM      8  C   UNL     1       2.565  45.439  54.992  1.00  0.00     0.165 A 
ATOM      9  C   UNL     1       1.067  44.193  53.957  1.00  0.00     0.149 A 
ATOM     10  N   UNL     1       3.657  46.144  55.321  1.00  0.00    -0.193 NA
ATOM     11  N   UNL     1       1.418  45.294  55.722  1.00  0.00    -0.250 N 
ATOM     12  N   UNL     1       0.479  44.534  55.110  1.00  0.00    -0.179 NA
ATOM     13  C   UNL     1       1.137  45.861  57.017  1.00  0.00     0.176 C 
BRANCH   5  14
ATOM     14  N   UNL     1       3.410  44.042  51.678  1.00  0.00    -0.339 N 
ATOM     15  H   UNL     1       2.951  44.666  51.017  1.00  0.00     0.168 HD
BRANCH  14  16
ATOM     16  C   UNL     1       4.460  43.336  51.055  1.00  0.00     0.040 A 
ATOM     17  C   UNL     1       6.600  43.220  49.883  1.00  0.00    -0.049 A 
ATOM     18  C   UNL     1       6.464  41.833  49.779  1.00  0.00     0.003 A 
ATOM     19  C   UNL     1       5.596  43.962  50.525  1.00  0.00     0.029 A 
ATOM     20  C   UNL     1       5.327  41.201  50.279  1.00  0.00     0.002 A 
ATOM     21  C   UNL     1       4.329  41.951  50.903  1.00  0.00     0.026 A 
ATOM     22  C   UNL     1       7.829  43.907  49.363  1.00  0.00     0.044 C 
ENDBRANCH  14  16
ENDBRANCH   5  14
ENDBRANCH   2   4
ENDBRANCH   1   2
BRANCH   1  23
ATOM     23  C   UNL     1       7.451  47.205  52.752  1.00  0.00     0.021 C 
BRANCH  23  24
ATOM     24  C   UNL     1       8.802  47.863  53.051  1.00  0.00     0.004 C 
BRANCH  24  25
ATOM     25  C   UNL     1       9.714  46.921  53.845  1.00  0.00     0.028 C 
BRANCH  25  26
ATOM     26  C   UNL     1      10.167  47.532  55.165  1.00  0.00     0.156 C 
BRANCH  26  27
ATOM     27  O   UNL     1       9.224  48.500  55.602  1.00  0.00    -0.396 OA
ATOM     28  H   UNL     1       9.645  49.371  55.508  1.00  0.00     0.210 HD
ENDBRANCH  26  27
ENDBRANCH  25  26
ENDBRANCH  24  25
ENDBRANCH  23  24
ENDBRANCH   1  23
TORSDOF 9
ENDMDL
MODEL 9
REMARK VINA RESULT:    -7.581      2.381      5.573
REMARK INTER + INTRA:         -13.198
REMARK INTER:                 -12.493
REMARK INTRA:                  -0.705
REMARK UNBOUND:                -1.850
REMARK SMILES Cc1cccc(Nc2nc(NCCCCCO)nc3c2cnn3C)c1
REMARK SMILES IDX 12 1 11 2 10 4 8 5 9 6 20 7 19 8 21 9 18 10 23 11 22 12
REMARK SMILES IDX 24 13 7 14 6 16 2 17 3 18 25 19 4 20 5 21 1 22 13 23 14 24
REMARK SMILES IDX 15 25 16 26 17 27
REMARK H PARENT 11 3 7 15 17 28
ROOT
ATOM      1  C   UNL     1       6.973  46.364  54.166  1.00  0.00     0.116 C 
ENDROOT
BRANCH   1   2
ATOM      2  N   UNL     1       5.753  46.813  54.815  1.00  0.00    -0.354 N 
ATOM      3  H   UNL     1       5.792  46.904  55.824  1.00  0.00     0.163 HD
BRANCH   2   4
ATOM      4  C   UNL     1       4.587  46.122  54.522  1.00  0.00     0.226 A 
ATOM      5  C   UNL     1       3.485  44.845  52.895  1.00  0.00     0.147 A 
ATOM      6  N   UNL     1       4.563  45.565  53.298  1.00  0.00    -0.195 NA
ATOM      7  C   UNL     1       2.403  44.749  53.772  1.00  0.00     0.082 A 
ATOM      8  C   UNL     1       2.540  45.365  55.000  1.00  0.00     0.165 A 
ATOM      9  C   UNL     1       1.105  44.196  53.800  1.00  0.00     0.149 A 
ATOM     10  N   UNL     1       3.604  46.056  55.431  1.00  0.00    -0.193 NA
ATOM     11  N   UNL     1       1.373  45.130  55.672  1.00  0.00    -0.250 N 
ATOM     12  N   UNL     1       0.472  44.414  54.958  1.00  0.00    -0.179 NA
ATOM     13  C   UNL     1       1.037  45.565  57.004  1.00  0.00     0.176 C 
BRANCH   5  14
ATOM     14  N   UNL     1       3.525  44.308  51.600  1.00  0.00    -0.339 N 
ATOM     15  H   UNL     1       3.244  45.050  50.962  1.00  0.00     0.168 HD
BRANCH  14  16
ATOM     16  C   UNL     1       4.530  43.504  51.022  1.00  0.00     0.040 A 
ATOM     17  C   UNL     1       6.650  43.191  49.850  1.00  0.00    -0.049 A 
ATOM     18  C   UNL     1       6.438  41.809  49.844  1.00  0.00     0.003 A 
ATOM     19  C   UNL     1       5.693  44.028  50.444  1.00  0.00     0.029 A 
ATOM     20  C   UNL     1       5.274  41.276  50.393  1.00  0.00     0.002 A 
ATOM     21  C   UNL     1       4.323  42.120  50.968  1.00  0.00     0.026 A 
ATOM     22  C   UNL     1       7.910  43.771  49.277  1.00  0.00     0.044 C 
ENDBRANCH  14  16
ENDBRANCH   5  14
ENDBRANCH   2   4
ENDBRANCH   1   2
BRANCH   1  23
ATOM     23  C   UNL     1       7.386  47.254  52.989  1.00  0.00     0.021 C 
BRANCH  23  24
ATOM     24  C   UNL     1       8.800  47.822  53.139  1.00  0.00     0.004 C 
BRANCH  24  25
ATOM     25  C   UNL     1       9.858  46.723  52.987  1.00  0.00     0.028 C 
BRANCH  25  26
ATOM     26  C   UNL     1       9.888  46.140  51.580  1.00  0.00     0.156 C 
BRANCH  26  27
ATOM     27  O   UNL     1      10.943  45.197  51.467  1.00  0.00    -0.396 OA
ATOM     28  H   UNL     1      11.729  45.682  51.163  1.00  0.00     0.210 HD
ENDBRANCH  26  27
ENDBRANCH  25  26
ENDBRANCH  24  25
ENDBRANCH  23  24
ENDBRANCH   1  23
TORSDOF 9
ENDMDL
MODEL 10
REMARK VINA RESULT:    -7.562      3.187      6.068
REMARK INTER + INTRA:         -13.169
REMARK INTER:                 -12.394
REMARK INTRA:                  -0.775
REMARK UNBOUND:                -1.850
REMARK SMILES Cc1cccc(Nc2nc(NCCCCCO)nc3c2cnn3C)c1
REMARK SMILES IDX 12 1 11 2 10 4 8 5 9 6 20 7 19 8 21 9 18 10 23 11 22 12
REMARK SMILES IDX 24 13 7 14 6 16 2 17 3 18 25 19 4 20 5 21 1 22 13 23 14 24
REMARK SMILES IDX 15 25 16 26 17 27
REMARK H PARENT 11 3 7 15 17 28
ROOT
ATOM      1  C   UNL     1       8.057  46.412  51.774  1.00  0.00     0.116 C 
ENDROOT
BRANCH   1   2
ATOM      2  N   UNL     1       7.569  45.705  50.603  1.00  0.00    -0.354 N 
ATOM      3  H   UNL     1       7.253  46.283  49.833  1.00  0.00     0.163 HD
BRANCH   2   4
ATOM      4  C   UNL     1       6.594  44.740  50.804  1.00  0.00     0.226 A 
ATOM      5  C   UNL     1       5.816  42.642  50.110  1.00  0.00     0.147 A 
ATOM      6  N   UNL     1       6.700  43.666  50.001  1.00  0.00    -0.195 NA
ATOM      7  C   UNL     1       4.785  42.768  51.042  1.00  0.00     0.082 A 
ATOM      8  C   UNL     1       4.775  43.916  51.808  1.00  0.00     0.165 A 
ATOM      9  C   UNL     1       3.650  42.050  51.473  1.00  0.00     0.149 A 
ATOM     10  N   UNL     1       5.652  44.929  51.739  1.00  0.00    -0.193 NA
ATOM     11  N   UNL     1       3.694  43.808  52.637  1.00  0.00    -0.250 N 
ATOM     12  N   UNL     1       2.982  42.671  52.452  1.00  0.00    -0.179 NA
ATOM     13  C   UNL     1       3.266  44.758  53.632  1.00  0.00     0.176 C 
BRANCH   5  14
ATOM     14  N   UNL     1       5.981  41.562  49.228  1.00  0.00    -0.339 N 
ATOM     15  H   UNL     1       6.027  40.720  49.797  1.00  0.00     0.168 HD
BRANCH  14  16
ATOM     16  C   UNL     1       5.297  41.315  48.020  1.00  0.00     0.040 A 
ATOM     17  C   UNL     1       4.906  41.676  45.636  1.00  0.00    -0.049 A 
ATOM     18  C   UNL     1       3.823  40.792  45.683  1.00  0.00     0.003 A 
ATOM     19  C   UNL     1       5.637  41.927  46.807  1.00  0.00     0.029 A 
ATOM     20  C   UNL     1       3.459  40.195  46.889  1.00  0.00     0.002 A 
ATOM     21  C   UNL     1       4.185  40.464  48.049  1.00  0.00     0.026 A 
ATOM     22  C   UNL     1       5.317  42.309  44.339  1.00  0.00     0.044 C 
ENDBRANCH  14  16
ENDBRANCH   5  14
ENDBRANCH   2   4
ENDBRANCH   1   2
BRANCH   1  23
ATOM     23  C   UNL     1       9.586  46.423  51.873  1.00  0.00     0.021 C 
BRANCH  23  24
ATOM     24  C   UNL     1      10.090  46.792  53.272  1.00  0.00     0.004 C 
BRANCH  24  25
ATOM     25  C   UNL     1       9.005  47.513  54.080  1.00  0.00     0.028 C 
BRANCH  25  26
ATOM     26  C   UNL     1       9.554  48.134  55.359  1.00  0.00     0.156 C 
BRANCH  26  27
ATOM     27  O   UNL     1      10.620  47.343  55.864  1.00  0.00    -0.396 OA
ATOM     28  H   UNL     1      10.325  46.417  55.839  1.00  0.00     0.210 HD
ENDBRANCH  26  27
ENDBRANCH  25  26
ENDBRANCH  24  25
ENDBRANCH  23  24
ENDBRANCH   1  23
TORSDOF 9
ENDMDL
MODEL 11
REMARK VINA RESULT:    -7.479      2.761      6.660
REMARK INTER + INTRA:         -13.045
REMARK INTER:                 -11.912
REMARK INTRA:                  -1.133
REMARK UNBOUND:                -1.850
REMARK SMILES Cc1cccc(Nc2nc(NCCCCCO)nc3c2cnn3C)c1
REMARK SMILES IDX 12 1 11 2 10 4 8 5 9 6 20 7 19 8 21 9 18 10 23 11 22 12
REMARK SMILES IDX 24 13 7 14 6 16 2 17 3 18 25 19 4 20 5 21 1 22 13 23 14 24
REMARK SMILES IDX 15 25 16 26 17 27
REMARK H PARENT 11 3 7 15 17 28
ROOT
ATOM      1  C   UNL     1       4.200  41.165  49.652  1.00  0.00     0.116 C 
ENDROOT
BRANCH   1   2
ATOM      2  N   UNL     1       4.003  41.270  51.088  1.00  0.00    -0.354 N 
ATOM      3  H   UNL     1       3.404  40.568  51.508  1.00  0.00     0.163 HD
BRANCH   2   4
ATOM      4  C   UNL     1       3.590  42.496  51.584  1.00  0.00     0.226 A 
ATOM      5  C   UNL     1       4.254  44.379  52.811  1.00  0.00     0.147 A 
ATOM      6  N   UNL     1       4.528  43.157  52.286  1.00  0.00    -0.195 NA
ATOM      7  C   UNL     1       2.968  44.890  52.634  1.00  0.00     0.082 A 
ATOM      8  C   UNL     1       2.088  44.121  51.899  1.00  0.00     0.165 A 
ATOM      9  C   UNL     1       2.214  46.021  53.011  1.00  0.00     0.149 A 
ATOM     10  N   UNL     1       2.342  42.925  51.347  1.00  0.00    -0.193 NA
ATOM     11  N   UNL     1       0.915  44.823  51.860  1.00  0.00    -0.250 N 
ATOM     12  N   UNL     1       0.963  45.995  52.535  1.00  0.00    -0.179 NA
ATOM     13  C   UNL     1      -0.305  44.434  51.200  1.00  0.00     0.176 C 
BRANCH   5  14
ATOM     14  N   UNL     1       5.277  45.000  53.544  1.00  0.00    -0.339 N 
ATOM     15  H   UNL     1       5.556  44.349  54.274  1.00  0.00     0.168 HD
BRANCH  14  16
ATOM     16  C   UNL     1       6.392  45.710  53.052  1.00  0.00     0.040 A 
ATOM     17  C   UNL     1       8.439  47.010  53.348  1.00  0.00    -0.049 A 
ATOM     18  C   UNL     1       8.542  47.157  51.961  1.00  0.00     0.003 A 
ATOM     19  C   UNL     1       7.364  46.282  53.882  1.00  0.00     0.029 A 
ATOM     20  C   UNL     1       7.568  46.614  51.125  1.00  0.00     0.002 A 
ATOM     21  C   UNL     1       6.497  45.906  51.669  1.00  0.00     0.026 A 
ATOM     22  C   UNL     1       9.492  47.576  54.255  1.00  0.00     0.044 C 
ENDBRANCH  14  16
ENDBRANCH   5  14
ENDBRANCH   2   4
ENDBRANCH   1   2
BRANCH   1  23
ATOM     23  C   UNL     1       5.674  41.251  49.243  1.00  0.00     0.021 C 
BRANCH  23  24
ATOM     24  C   UNL     1       6.167  42.693  49.088  1.00  0.00     0.004 C 
BRANCH  24  25
ATOM     25  C   UNL     1       7.564  42.870  49.694  1.00  0.00     0.028 C 
BRANCH  25  26
ATOM     26  C   UNL     1       8.384  43.921  48.957  1.00  0.00     0.156 C 
BRANCH  26  27
ATOM     27  O   UNL     1       9.614  44.138  49.632  1.00  0.00    -0.396 OA
ATOM     28  H   UNL     1       9.423  44.124  50.585  1.00  0.00     0.210 HD
ENDBRANCH  26  27
ENDBRANCH  25  26
ENDBRANCH  24  25
ENDBRANCH  23  24
ENDBRANCH   1  23
TORSDOF 9
ENDMDL
MODEL 12
REMARK VINA RESULT:    -7.476      1.281      1.669
REMARK INTER + INTRA:         -13.041
REMARK INTER:                 -12.253
REMARK INTRA:                  -0.788
REMARK UNBOUND:                -1.850
REMARK SMILES Cc1cccc(Nc2nc(NCCCCCO)nc3c2cnn3C)c1
REMARK SMILES IDX 12 1 11 2 10 4 8 5 9 6 20 7 19 8 21 9 18 10 23 11 22 12
REMARK SMILES IDX 24 13 7 14 6 16 2 17 3 18 25 19 4 20 5 21 1 22 13 23 14 24
REMARK SMILES IDX 15 25 16 26 17 27
REMARK H PARENT 11 3 7 15 17 28
ROOT
ATOM      1  C   UNL     1       3.505  47.568  52.708  1.00  0.00     0.116 C 
ENDROOT
BRANCH   1   2
ATOM      2  N   UNL     1       4.487  47.314  53.747  1.00  0.00    -0.354 N 
ATOM      3  H   UNL     1       4.537  48.001  54.491  1.00  0.00     0.163 HD
BRANCH   2   4
ATOM      4  C   UNL     1       5.790  47.068  53.343  1.00  0.00     0.226 A 
ATOM      5  C   UNL     1       7.118  46.063  51.695  1.00  0.00     0.147 A 
ATOM      6  N   UNL     1       5.896  46.356  52.207  1.00  0.00    -0.195 NA
ATOM      7  C   UNL     1       8.240  46.485  52.408  1.00  0.00     0.082 A 
ATOM      8  C   UNL     1       8.010  47.205  53.563  1.00  0.00     0.165 A 
ATOM      9  C   UNL     1       9.646  46.387  52.331  1.00  0.00     0.149 A 
ATOM     10  N   UNL     1       6.814  47.532  54.074  1.00  0.00    -0.193 NA
ATOM     11  N   UNL     1       9.242  47.506  54.072  1.00  0.00    -0.250 N 
ATOM     12  N   UNL     1      10.267  47.016  53.336  1.00  0.00    -0.179 NA
ATOM     13  C   UNL     1       9.525  48.257  55.269  1.00  0.00     0.176 C 
BRANCH   5  14
ATOM     14  N   UNL     1       7.149  45.303  50.515  1.00  0.00    -0.339 N 
ATOM     15  H   UNL     1       8.119  45.271  50.209  1.00  0.00     0.168 HD
BRANCH  14  16
ATOM     16  C   UNL     1       6.499  44.079  50.252  1.00  0.00     0.040 A 
ATOM     17  C   UNL     1       4.733  42.435  50.631  1.00  0.00    -0.049 A 
ATOM     18  C   UNL     1       5.325  41.587  49.690  1.00  0.00     0.003 A 
ATOM     19  C   UNL     1       5.325  43.678  50.902  1.00  0.00     0.029 A 
ATOM     20  C   UNL     1       6.507  41.962  49.055  1.00  0.00     0.002 A 
ATOM     21  C   UNL     1       7.094  43.195  49.343  1.00  0.00     0.026 A 
ATOM     22  C   UNL     1       3.451  42.047  51.307  1.00  0.00     0.044 C 
ENDBRANCH  14  16
ENDBRANCH   5  14
ENDBRANCH   2   4
ENDBRANCH   1   2
BRANCH   1  23
ATOM     23  C   UNL     1       2.828  46.292  52.199  1.00  0.00     0.021 C 
BRANCH  23  24
ATOM     24  C   UNL     1       1.632  45.868  53.058  1.00  0.00     0.004 C 
BRANCH  24  25
ATOM     25  C   UNL     1       1.956  44.615  53.879  1.00  0.00     0.028 C 
BRANCH  25  26
ATOM     26  C   UNL     1       2.252  44.940  55.338  1.00  0.00     0.156 C 
BRANCH  26  27
ATOM     27  O   UNL     1       3.653  44.902  55.569  1.00  0.00    -0.396 OA
ATOM     28  H   UNL     1       3.925  45.800  55.823  1.00  0.00     0.210 HD
ENDBRANCH  26  27
ENDBRANCH  25  26
ENDBRANCH  24  25
ENDBRANCH  23  24
ENDBRANCH   1  23
TORSDOF 9
ENDMDL
MODEL 13
REMARK VINA RESULT:    -7.387      2.551      6.693
REMARK INTER + INTRA:         -12.907
REMARK INTER:                 -11.960
REMARK INTRA:                  -0.947
REMARK UNBOUND:                -1.850
REMARK SMILES Cc1cccc(Nc2nc(NCCCCCO)nc3c2cnn3C)c1
REMARK SMILES IDX 12 1 11 2 10 4 8 5 9 6 20 7 19 8 21 9 18 10 23 11 22 12
REMARK SMILES IDX 24 13 7 14 6 16 2 17 3 18 25 19 4 20 5 21 1 22 13 23 14 24
REMARK SMILES IDX 15 25 16 26 17 27
REMARK H PARENT 11 3 7 15 17 28
ROOT
ATOM      1  C   UNL     1       5.878  43.814  50.142  1.00  0.00     0.116 C 
ENDROOT
BRANCH   1   2
ATOM      2  N   UNL     1       5.127  42.998  51.080  1.00  0.00    -0.354 N 
ATOM      3  H   UNL     1       4.478  42.334  50.673  1.00  0.00     0.163 HD
BRANCH   2   4
ATOM      4  C   UNL     1       4.441  43.658  52.088  1.00  0.00     0.226 A 
ATOM      5  C   UNL     1       4.541  45.432  53.616  1.00  0.00     0.147 A 
ATOM      6  N   UNL     1       5.110  44.692  52.631  1.00  0.00    -0.195 NA
ATOM      7  C   UNL     1       3.275  45.054  54.066  1.00  0.00     0.082 A 
ATOM      8  C   UNL     1       2.688  43.974  53.437  1.00  0.00     0.165 A 
ATOM      9  C   UNL     1       2.338  45.440  55.047  1.00  0.00     0.149 A 
ATOM     10  N   UNL     1       3.217  43.245  52.443  1.00  0.00    -0.193 NA
ATOM     11  N   UNL     1       1.472  43.803  54.037  1.00  0.00    -0.250 N 
ATOM     12  N   UNL     1       1.229  44.689  55.032  1.00  0.00    -0.179 NA
ATOM     13  C   UNL     1       0.482  42.805  53.721  1.00  0.00     0.176 C 
BRANCH   5  14
ATOM     14  N   UNL     1       5.304  46.484  54.144  1.00  0.00    -0.339 N 
ATOM     15  H   UNL     1       5.260  46.402  55.158  1.00  0.00     0.168 HD
BRANCH  14  16
ATOM     16  C   UNL     1       6.579  46.927  53.732  1.00  0.00     0.040 A 
ATOM     17  C   UNL     1       8.965  47.302  54.091  1.00  0.00    -0.049 A 
ATOM     18  C   UNL     1       9.057  47.901  52.831  1.00  0.00     0.003 A 
ATOM     19  C   UNL     1       7.724  46.816  54.530  1.00  0.00     0.029 A 
ATOM     20  C   UNL     1       7.920  48.040  52.037  1.00  0.00     0.002 A 
ATOM     21  C   UNL     1       6.689  47.566  52.491  1.00  0.00     0.026 A 
ATOM     22  C   UNL     1      10.188  47.132  54.945  1.00  0.00     0.044 C 
ENDBRANCH  14  16
ENDBRANCH   5  14
ENDBRANCH   2   4
ENDBRANCH   1   2
BRANCH   1  23
ATOM     23  C   UNL     1       6.877  43.003  49.310  1.00  0.00     0.021 C 
BRANCH  23  24
ATOM     24  C   UNL     1       8.196  43.745  49.073  1.00  0.00     0.004 C 
BRANCH  24  25
ATOM     25  C   UNL     1       8.304  44.984  49.969  1.00  0.00     0.028 C 
BRANCH  25  26
ATOM     26  C   UNL     1       9.632  45.047  50.712  1.00  0.00     0.156 C 
BRANCH  26  27
ATOM     27  O   UNL     1      10.512  44.046  50.220  1.00  0.00    -0.396 OA
ATOM     28  H   UNL     1      11.106  44.477  49.582  1.00  0.00     0.210 HD
ENDBRANCH  26  27
ENDBRANCH  25  26
ENDBRANCH  24  25
ENDBRANCH  23  24
ENDBRANCH   1  23
TORSDOF 9
ENDMDL
MODEL 14
REMARK VINA RESULT:    -7.340      2.798      6.850
REMARK INTER + INTRA:         -12.836
REMARK INTER:                 -12.278
REMARK INTRA:                  -0.559
REMARK UNBOUND:                -1.850
REMARK SMILES Cc1cccc(Nc2nc(NCCCCCO)nc3c2cnn3C)c1
REMARK SMILES IDX 12 1 11 2 10 4 8 5 9 6 20 7 19 8 21 9 18 10 23 11 22 12
REMARK SMILES IDX 24 13 7 14 6 16 2 17 3 18 25 19 4 20 5 21 1 22 13 23 14 24
REMARK SMILES IDX 15 25 16 26 17 27
REMARK H PARENT 11 3 7 15 17 28
ROOT
ATOM      1  C   UNL     1       8.432  46.111  51.394  1.00  0.00     0.116 C 
ENDROOT
BRANCH   1   2
ATOM      2  N   UNL     1       7.006  46.318  51.209  1.00  0.00    -0.354 N 
ATOM      3  H   UNL     1       6.595  47.085  51.730  1.00  0.00     0.163 HD
BRANCH   2   4
ATOM      4  C   UNL     1       6.176  45.223  51.392  1.00  0.00     0.226 A 
ATOM      5  C   UNL     1       4.507  44.302  52.754  1.00  0.00     0.147 A 
ATOM      6  N   UNL     1       5.379  45.302  52.473  1.00  0.00    -0.195 NA
ATOM      7  C   UNL     1       4.504  43.186  51.916  1.00  0.00     0.082 A 
ATOM      8  C   UNL     1       5.369  43.214  50.840  1.00  0.00     0.165 A 
ATOM      9  C   UNL     1       3.864  41.933  51.819  1.00  0.00     0.149 A 
ATOM     10  N   UNL     1       6.219  44.202  50.524  1.00  0.00    -0.193 NA
ATOM     11  N   UNL     1       5.181  42.034  50.175  1.00  0.00    -0.250 N 
ATOM     12  N   UNL     1       4.263  41.226  50.755  1.00  0.00    -0.179 NA
ATOM     13  C   UNL     1       5.852  41.599  48.976  1.00  0.00     0.176 C 
BRANCH   5  14
ATOM     14  N   UNL     1       3.720  44.448  53.907  1.00  0.00    -0.339 N 
ATOM     15  H   UNL     1       4.208  45.100  54.517  1.00  0.00     0.168 HD
BRANCH  14  16
ATOM     16  C   UNL     1       2.324  44.632  53.990  1.00  0.00     0.040 A 
ATOM     17  C   UNL     1       0.233  44.835  55.236  1.00  0.00    -0.049 A 
ATOM     18  C   UNL     1      -0.470  44.940  54.032  1.00  0.00     0.003 A 
ATOM     19  C   UNL     1       1.628  44.685  55.204  1.00  0.00     0.029 A 
ATOM     20  C   UNL     1       0.207  44.863  52.817  1.00  0.00     0.002 A 
ATOM     21  C   UNL     1       1.592  44.699  52.798  1.00  0.00     0.026 A 
ATOM     22  C   UNL     1      -0.485  44.935  56.550  1.00  0.00     0.044 C 
ENDBRANCH  14  16
ENDBRANCH   5  14
ENDBRANCH   2   4
ENDBRANCH   1   2
BRANCH   1  23
ATOM     23  C   UNL     1       9.106  47.247  52.170  1.00  0.00     0.021 C 
BRANCH  23  24
ATOM     24  C   UNL     1       9.877  46.755  53.398  1.00  0.00     0.004 C 
BRANCH  24  25
ATOM     25  C   UNL     1       9.619  47.654  54.612  1.00  0.00     0.028 C 
BRANCH  25  26
ATOM     26  C   UNL     1      10.687  47.494  55.687  1.00  0.00     0.156 C 
BRANCH  26  27
ATOM     27  O   UNL     1      10.334  48.247  56.838  1.00  0.00    -0.396 OA
ATOM     28  H   UNL     1      11.161  48.459  57.305  1.00  0.00     0.210 HD
ENDBRANCH  26  27
ENDBRANCH  25  26
ENDBRANCH  24  25
ENDBRANCH  23  24
ENDBRANCH   1  23
TORSDOF 9
ENDMDL
MODEL 15
REMARK VINA RESULT:    -7.336      2.040      6.135
REMARK INTER + INTRA:         -12.831
REMARK INTER:                 -12.320
REMARK INTRA:                  -0.511
REMARK UNBOUND:                -1.850
REMARK SMILES Cc1cccc(Nc2nc(NCCCCCO)nc3c2cnn3C)c1
REMARK SMILES IDX 12 1 11 2 10 4 8 5 9 6 20 7 19 8 21 9 18 10 23 11 22 12
REMARK SMILES IDX 24 13 7 14 6 16 2 17 3 18 25 19 4 20 5 21 1 22 13 23 14 24
REMARK SMILES IDX 15 25 16 26 17 27
REMARK H PARENT 11 3 7 15 17 28
ROOT
ATOM      1  C   UNL     1       6.161  44.150  50.276  1.00  0.00     0.116 C 
ENDROOT
BRANCH   1   2
ATOM      2  N   UNL     1       4.877  43.759  50.831  1.00  0.00    -0.354 N 
ATOM      3  H   UNL     1       4.084  43.815  50.203  1.00  0.00     0.163 HD
BRANCH   2   4
ATOM      4  C   UNL     1       4.490  44.361  52.019  1.00  0.00     0.226 A 
ATOM      5  C   UNL     1       5.113  45.906  53.666  1.00  0.00     0.147 A 
ATOM      6  N   UNL     1       5.382  45.236  52.517  1.00  0.00    -0.195 NA
ATOM      7  C   UNL     1       3.915  45.619  54.321  1.00  0.00     0.082 A 
ATOM      8  C   UNL     1       3.080  44.700  53.719  1.00  0.00     0.165 A 
ATOM      9  C   UNL     1       3.240  45.983  55.506  1.00  0.00     0.149 A 
ATOM     10  N   UNL     1       3.309  44.047  52.570  1.00  0.00    -0.193 NA
ATOM     11  N   UNL     1       1.986  44.594  54.532  1.00  0.00    -0.250 N 
ATOM     12  N   UNL     1       2.058  45.370  55.639  1.00  0.00    -0.179 NA
ATOM     13  C   UNL     1       0.829  43.761  54.324  1.00  0.00     0.176 C 
BRANCH   5  14
ATOM     14  N   UNL     1       6.098  46.791  54.132  1.00  0.00    -0.339 N 
ATOM     15  H   UNL     1       5.969  46.873  55.138  1.00  0.00     0.168 HD
BRANCH  14  16
ATOM     16  C   UNL     1       7.468  46.823  53.797  1.00  0.00     0.040 A 
ATOM     17  C   UNL     1       9.374  46.206  52.401  1.00  0.00    -0.049 A 
ATOM     18  C   UNL     1      10.226  46.903  53.262  1.00  0.00     0.003 A 
ATOM     19  C   UNL     1       7.998  46.175  52.674  1.00  0.00     0.029 A 
ATOM     20  C   UNL     1       9.715  47.531  54.397  1.00  0.00     0.002 A 
ATOM     21  C   UNL     1       8.347  47.480  54.666  1.00  0.00     0.026 A 
ATOM     22  C   UNL     1       9.913  45.542  51.167  1.00  0.00     0.044 C 
ENDBRANCH  14  16
ENDBRANCH   5  14
ENDBRANCH   2   4
ENDBRANCH   1   2
BRANCH   1  23
ATOM     23  C   UNL     1       6.823  43.037  49.457  1.00  0.00     0.021 C 
BRANCH  23  24
ATOM     24  C   UNL     1       6.266  41.647  49.781  1.00  0.00     0.004 C 
BRANCH  24  25
ATOM     25  C   UNL     1       5.344  41.146  48.664  1.00  0.00     0.028 C 
BRANCH  25  26
ATOM     26  C   UNL     1       3.968  40.749  49.186  1.00  0.00     0.156 C 
BRANCH  26  27
ATOM     27  O   UNL     1       3.955  40.794  50.605  1.00  0.00    -0.396 OA
ATOM     28  H   UNL     1       3.167  41.300  50.867  1.00  0.00     0.210 HD
ENDBRANCH  26  27
ENDBRANCH  25  26
ENDBRANCH  24  25
ENDBRANCH  23  24
ENDBRANCH   1  23
TORSDOF 9
ENDMDL
MODEL 16
REMARK VINA RESULT:    -7.288      2.888      6.459
REMARK INTER + INTRA:         -12.759
REMARK INTER:                 -11.948
REMARK INTRA:                  -0.812
REMARK UNBOUND:                -1.850
REMARK SMILES Cc1cccc(Nc2nc(NCCCCCO)nc3c2cnn3C)c1
REMARK SMILES IDX 12 1 11 2 10 4 8 5 9 6 20 7 19 8 21 9 18 10 23 11 22 12
REMARK SMILES IDX 24 13 7 14 6 16 2 17 3 18 25 19 4 20 5 21 1 22 13 23 14 24
REMARK SMILES IDX 15 25 16 26 17 27
REMARK H PARENT 11 3 7 15 17 28
ROOT
ATOM      1  C   UNL     1       5.831  41.583  49.212  1.00  0.00     0.116 C 
ENDROOT
BRANCH   1   2
ATOM      2  N   UNL     1       4.936  41.591  50.356  1.00  0.00    -0.354 N 
ATOM      3  H   UNL     1       4.013  41.202  50.203  1.00  0.00     0.163 HD
BRANCH   2   4
ATOM      4  C   UNL     1       4.756  42.799  51.013  1.00  0.00     0.226 A 
ATOM      5  C   UNL     1       5.600  44.968  51.279  1.00  0.00     0.147 A 
ATOM      6  N   UNL     1       5.675  43.736  50.716  1.00  0.00    -0.195 NA
ATOM      7  C   UNL     1       4.577  45.203  52.198  1.00  0.00     0.082 A 
ATOM      8  C   UNL     1       3.696  44.165  52.427  1.00  0.00     0.165 A 
ATOM      9  C   UNL     1       4.130  46.236  53.048  1.00  0.00     0.149 A 
ATOM     10  N   UNL     1       3.731  42.949  51.863  1.00  0.00    -0.193 NA
ATOM     11  N   UNL     1       2.795  44.631  53.344  1.00  0.00    -0.250 N 
ATOM     12  N   UNL     1       3.037  45.901  53.745  1.00  0.00    -0.179 NA
ATOM     13  C   UNL     1       1.672  43.916  53.896  1.00  0.00     0.176 C 
BRANCH   5  14
ATOM     14  N   UNL     1       6.602  45.888  50.933  1.00  0.00    -0.339 N 
ATOM     15  H   UNL     1       6.134  46.760  50.694  1.00  0.00     0.168 HD
BRANCH  14  16
ATOM     16  C   UNL     1       7.820  46.139  51.598  1.00  0.00     0.040 A 
ATOM     17  C   UNL     1       9.146  47.128  53.395  1.00  0.00    -0.049 A 
ATOM     18  C   UNL     1      10.311  46.631  52.804  1.00  0.00     0.003 A 
ATOM     19  C   UNL     1       7.907  46.874  52.787  1.00  0.00     0.029 A 
ATOM     20  C   UNL     1      10.241  45.920  51.607  1.00  0.00     0.002 A 
ATOM     21  C   UNL     1       9.005  45.686  51.005  1.00  0.00     0.026 A 
ATOM     22  C   UNL     1       9.210  47.879  54.692  1.00  0.00     0.044 C 
ENDBRANCH  14  16
ENDBRANCH   5  14
ENDBRANCH   2   4
ENDBRANCH   1   2
BRANCH   1  23
ATOM     23  C   UNL     1       5.117  41.251  47.897  1.00  0.00     0.021 C 
BRANCH  23  24
ATOM     24  C   UNL     1       5.767  41.917  46.681  1.00  0.00     0.004 C 
BRANCH  24  25
ATOM     25  C   UNL     1       5.086  41.481  45.379  1.00  0.00     0.028 C 
BRANCH  25  26
ATOM     26  C   UNL     1       3.617  41.132  45.584  1.00  0.00     0.156 C 
BRANCH  26  27
ATOM     27  O   UNL     1       2.857  41.552  44.461  1.00  0.00    -0.396 OA
ATOM     28  H   UNL     1       2.148  42.128  44.795  1.00  0.00     0.210 HD
ENDBRANCH  26  27
ENDBRANCH  25  26
ENDBRANCH  24  25
ENDBRANCH  23  24
ENDBRANCH   1  23
TORSDOF 9
ENDMDL
MODEL 17
REMARK VINA RESULT:    -7.224      3.166      6.284
REMARK INTER + INTRA:         -12.663
REMARK INTER:                 -12.213
REMARK INTRA:                  -0.450
REMARK UNBOUND:                -1.850
REMARK SMILES Cc1cccc(Nc2nc(NCCCCCO)nc3c2cnn3C)c1
REMARK SMILES IDX 12 1 11 2 10 4 8 5 9 6 20 7 19 8 21 9 18 10 23 11 22 12
REMARK SMILES IDX 24 13 7 14 6 16 2 17 3 18 25 19 4 20 5 21 1 22 13 23 14 24
REMARK SMILES IDX 15 25 16 26 17 27
REMARK H PARENT 11 3 7 15 17 28
ROOT
ATOM      1  C   UNL     1       4.982  45.884  54.723  1.00  0.00     0.116 C 
ENDROOT
BRANCH   1   2
ATOM      2  N   UNL     1       3.577  46.210  54.555  1.00  0.00    -0.354 N 
ATOM      3  H   UNL     1       3.136  46.697  55.327  1.00  0.00     0.163 HD
BRANCH   2   4
ATOM      4  C   UNL     1       2.724  45.177  54.197  1.00  0.00     0.226 A 
ATOM      5  C   UNL     1       2.532  43.215  52.931  1.00  0.00     0.147 A 
ATOM      6  N   UNL     1       3.258  44.284  53.344  1.00  0.00    -0.195 NA
ATOM      7  C   UNL     1       1.216  43.108  53.383  1.00  0.00     0.082 A 
ATOM      8  C   UNL     1       0.775  44.086  54.252  1.00  0.00     0.165 A 
ATOM      9  C   UNL     1       0.099  42.265  53.208  1.00  0.00     0.149 A 
ATOM     10  N   UNL     1       1.481  45.135  54.698  1.00  0.00    -0.193 NA
ATOM     11  N   UNL     1      -0.520  43.766  54.554  1.00  0.00    -0.250 N 
ATOM     12  N   UNL     1      -0.963  42.651  53.926  1.00  0.00    -0.179 NA
ATOM     13  C   UNL     1      -1.407  44.484  55.433  1.00  0.00     0.176 C 
BRANCH   5  14
ATOM     14  N   UNL     1       3.150  42.336  52.029  1.00  0.00    -0.339 N 
ATOM     15  H   UNL     1       2.413  41.938  51.450  1.00  0.00     0.168 HD
BRANCH  14  16
ATOM     16  C   UNL     1       4.322  42.546  51.273  1.00  0.00     0.040 A 
ATOM     17  C   UNL     1       6.125  43.952  50.413  1.00  0.00    -0.049 A 
ATOM     18  C   UNL     1       6.619  42.867  49.684  1.00  0.00     0.003 A 
ATOM     19  C   UNL     1       4.980  43.781  51.206  1.00  0.00     0.029 A 
ATOM     20  C   UNL     1       5.960  41.639  49.721  1.00  0.00     0.002 A 
ATOM     21  C   UNL     1       4.814  41.486  50.502  1.00  0.00     0.026 A 
ATOM     22  C   UNL     1       6.838  45.272  50.392  1.00  0.00     0.044 C 
ENDBRANCH  14  16
ENDBRANCH   5  14
ENDBRANCH   2   4
ENDBRANCH   1   2
BRANCH   1  23
ATOM     23  C   UNL     1       5.900  46.713  53.819  1.00  0.00     0.021 C 
BRANCH  23  24
ATOM     24  C   UNL     1       7.368  46.281  53.903  1.00  0.00     0.004 C 
BRANCH  24  25
ATOM     25  C   UNL     1       8.295  47.349  53.313  1.00  0.00     0.028 C 
BRANCH  25  26
ATOM     26  C   UNL     1       9.482  47.649  54.220  1.00  0.00     0.156 C 
BRANCH  26  27
ATOM     27  O   UNL     1       9.060  48.423  55.332  1.00  0.00    -0.396 OA
ATOM     28  H   UNL     1       9.602  48.150  56.092  1.00  0.00     0.210 HD
ENDBRANCH  26  27
ENDBRANCH  25  26
ENDBRANCH  24  25
ENDBRANCH  23  24
ENDBRANCH   1  23
TORSDOF 9
ENDMDL
MODEL 18
REMARK VINA RESULT:    -7.139      2.349      5.719
REMARK INTER + INTRA:         -12.536
REMARK INTER:                 -11.061
REMARK INTRA:                  -1.475
REMARK UNBOUND:                -1.850
REMARK SMILES Cc1cccc(Nc2nc(NCCCCCO)nc3c2cnn3C)c1
REMARK SMILES IDX 12 1 11 2 10 4 8 5 9 6 20 7 19 8 21 9 18 10 23 11 22 12
REMARK SMILES IDX 24 13 7 14 6 16 2 17 3 18 25 19 4 20 5 21 1 22 13 23 14 24
REMARK SMILES IDX 15 25 16 26 17 27
REMARK H PARENT 11 3 7 15 17 28
ROOT
ATOM      1  C   UNL     1       6.150  47.015  53.996  1.00  0.00     0.116 C 
ENDROOT
BRANCH   1   2
ATOM      2  N   UNL     1       6.102  46.939  52.546  1.00  0.00    -0.354 N 
ATOM      3  H   UNL     1       5.463  47.577  52.087  1.00  0.00     0.163 HD
BRANCH   2   4
ATOM      4  C   UNL     1       5.892  45.689  51.983  1.00  0.00     0.226 A 
ATOM      5  C   UNL     1       4.582  43.749  52.083  1.00  0.00     0.147 A 
ATOM      6  N   UNL     1       4.900  44.982  52.554  1.00  0.00    -0.195 NA
ATOM      7  C   UNL     1       5.342  43.238  51.031  1.00  0.00     0.082 A 
ATOM      8  C   UNL     1       6.337  44.053  50.528  1.00  0.00     0.165 A 
ATOM      9  C   UNL     1       5.441  42.054  50.269  1.00  0.00     0.149 A 
ATOM     10  N   UNL     1       6.652  45.284  50.956  1.00  0.00    -0.193 NA
ATOM     11  N   UNL     1       6.929  43.347  49.518  1.00  0.00    -0.250 N 
ATOM     12  N   UNL     1       6.399  42.114  49.337  1.00  0.00    -0.179 NA
ATOM     13  C   UNL     1       8.018  43.780  48.680  1.00  0.00     0.176 C 
BRANCH   5  14
ATOM     14  N   UNL     1       3.547  43.065  52.739  1.00  0.00    -0.339 N 
ATOM     15  H   UNL     1       3.798  43.023  53.724  1.00  0.00     0.168 HD
BRANCH  14  16
ATOM     16  C   UNL     1       2.155  43.234  52.582  1.00  0.00     0.040 A 
ATOM     17  C   UNL     1      -0.107  43.521  53.458  1.00  0.00    -0.049 A 
ATOM     18  C   UNL     1      -0.610  43.503  52.154  1.00  0.00     0.003 A 
ATOM     19  C   UNL     1       1.276  43.390  53.661  1.00  0.00     0.029 A 
ATOM     20  C   UNL     1       0.251  43.324  51.073  1.00  0.00     0.002 A 
ATOM     21  C   UNL     1       1.622  43.180  51.289  1.00  0.00     0.026 A 
ATOM     22  C   UNL     1      -1.025  43.731  54.626  1.00  0.00     0.044 C 
ENDBRANCH  14  16
ENDBRANCH   5  14
ENDBRANCH   2   4
ENDBRANCH   1   2
BRANCH   1  23
ATOM     23  C   UNL     1       7.553  46.771  54.561  1.00  0.00     0.021 C 
BRANCH  23  24
ATOM     24  C   UNL     1       8.571  47.821  54.105  1.00  0.00     0.004 C 
BRANCH  24  25
ATOM     25  C   UNL     1       9.892  47.167  53.684  1.00  0.00     0.028 C 
BRANCH  25  26
ATOM     26  C   UNL     1       9.777  46.444  52.347  1.00  0.00     0.156 C 
BRANCH  26  27
ATOM     27  O   UNL     1       9.040  47.236  51.428  1.00  0.00    -0.396 OA
ATOM     28  H   UNL     1       8.574  46.623  50.834  1.00  0.00     0.210 HD
ENDBRANCH  26  27
ENDBRANCH  25  26
ENDBRANCH  24  25
ENDBRANCH  23  24
ENDBRANCH   1  23
TORSDOF 9
ENDMDL
