MODEL 1
REMARK VINA RESULT:    -9.480      0.000      0.000
REMARK INTER + INTRA:         -13.584
REMARK INTER:                 -12.806
REMARK INTRA:                  -0.779
REMARK UNBOUND:                -0.779
REMARK SMILES COc1ccc(CNc2nc(Nc3ccccc3)c3cnn(C)c3n2)cc1
REMARK SMILES IDX 7 1 6 2 3 3 4 4 27 5 5 6 26 7 2 8 1 9 8 10 9 12 10 13 25 14
REMARK SMILES IDX 11 15 24 16 19 17 22 18 20 19 21 20 23 21 12 22 13 24 14 25
REMARK SMILES IDX 18 26 15 27 17 28 16 29
REMARK H PARENT 8 11 12 23
ROOT
ATOM      1  C   UNL     1       1.684  43.735  52.883  1.00  0.00     0.152 C 
ENDROOT
BRANCH   1   2
ATOM      2  C   UNL     1       1.177  44.324  54.179  1.00  0.00    -0.029 A 
ATOM      3  C   UNL     1       0.209  45.438  56.581  1.00  0.00     0.118 A 
ATOM      4  C   UNL     1       1.570  45.484  56.274  1.00  0.00     0.047 A 
ATOM      5  C   UNL     1      -0.672  44.837  55.681  1.00  0.00     0.047 A 
ATOM      6  C   UNL     1       2.054  44.936  55.082  1.00  0.00     0.009 A 
ATOM      7  C   UNL     1      -0.190  44.286  54.489  1.00  0.00     0.009 A 
BRANCH   3   8
ATOM      8  O   UNL     1      -0.127  46.011  57.776  1.00  0.00    -0.497 OA
ATOM      9  C   UNL     1       0.859  46.826  58.397  1.00  0.00     0.278 C 
ENDBRANCH   3   8
ENDBRANCH   1   2
BRANCH   1  10
ATOM     10  N   UNL     1       2.899  42.992  53.145  1.00  0.00    -0.350 N 
ATOM     11  H   UNL     1       2.798  41.986  53.073  1.00  0.00     0.164 HD
BRANCH  10  12
ATOM     12  C   UNL     1       3.954  43.328  52.306  1.00  0.00     0.227 A 
ATOM     13  N   UNL     1       4.533  44.510  52.581  1.00  0.00    -0.195 NA
ATOM     14  N   UNL     1       4.315  42.492  51.323  1.00  0.00    -0.193 NA
ATOM     15  C   UNL     1       5.571  44.975  51.836  1.00  0.00     0.147 A 
ATOM     16  C   UNL     1       5.339  42.960  50.597  1.00  0.00     0.165 A 
ATOM     17  C   UNL     1       6.004  44.156  50.786  1.00  0.00     0.082 A 
ATOM     18  N   UNL     1       5.938  42.359  49.524  1.00  0.00    -0.250 N 
ATOM     19  C   UNL     1       6.988  44.170  49.775  1.00  0.00     0.149 A 
ATOM     20  N   UNL     1       6.960  43.078  49.002  1.00  0.00    -0.179 NA
ATOM     21  C   UNL     1       5.590  41.091  48.934  1.00  0.00     0.176 C 
BRANCH  15  22
ATOM     22  N   UNL     1       6.199  46.197  52.116  1.00  0.00    -0.339 N 
ATOM     23  H   UNL     1       5.610  47.003  51.962  1.00  0.00     0.168 HD
BRANCH  22  24
ATOM     24  C   UNL     1       7.465  46.514  52.639  1.00  0.00     0.040 A 
ATOM     25  C   UNL     1       8.654  46.445  51.905  1.00  0.00     0.026 A 
ATOM     26  C   UNL     1       7.546  46.973  53.965  1.00  0.00     0.026 A 
ATOM     27  C   UNL     1       9.882  46.801  52.477  1.00  0.00     0.002 A 
ATOM     28  C   UNL     1       8.769  47.331  54.541  1.00  0.00     0.002 A 
ATOM     29  C   UNL     1       9.939  47.244  53.795  1.00  0.00     0.000 A 
ENDBRANCH  22  24
ENDBRANCH  15  22
ENDBRANCH  10  12
ENDBRANCH   1  10
TORSDOF 6
ENDMDL
MODEL 2
REMARK VINA RESULT:    -9.457      0.446      1.026
REMARK INTER + INTRA:         -13.553
REMARK INTER:                 -12.791
REMARK INTRA:                  -0.762
REMARK UNBOUND:                -0.779
REMARK SMILES COc1ccc(CNc2nc(Nc3ccccc3)c3cnn(C)c3n2)cc1
REMARK SMILES IDX 7 1 6 2 3 3 4 4 27 5 5 6 26 7 2 8 1 9 8 10 9 12 10 13 25 14
REMARK SMILES IDX 11 15 24 16 19 17 22 18 20 19 21 20 23 21 12 22 13 24 14 25
REMARK SMILES IDX 18 26 15 27 17 28 16 29
REMARK H PARENT 8 11 12 23
ROOT
ATOM      1  C   UNL     1       1.792  43.745  52.814  1.00  0.00     0.152 C 
ENDROOT
BRANCH   1   2
ATOM      2  C   UNL     1       1.155  44.252  54.088  1.00  0.00    -0.029 A 
ATOM      3  C   UNL     1      -0.056  45.210  56.447  1.00  0.00     0.118 A 
ATOM      4  C   UNL     1       1.319  45.349  56.246  1.00  0.00     0.047 A 
ATOM      5  C   UNL     1      -0.829  44.594  55.461  1.00  0.00     0.047 A 
ATOM      6  C   UNL     1       1.923  44.878  55.076  1.00  0.00     0.009 A 
ATOM      7  C   UNL     1      -0.227  44.121  54.290  1.00  0.00     0.009 A 
BRANCH   3   8
ATOM      8  O   UNL     1      -0.515  45.715  57.631  1.00  0.00    -0.497 OA
ATOM      9  C   UNL     1      -1.022  47.043  57.609  1.00  0.00     0.278 C 
ENDBRANCH   3   8
ENDBRANCH   1   2
BRANCH   1  10
ATOM     10  N   UNL     1       3.043  43.094  53.138  1.00  0.00    -0.350 N 
ATOM     11  H   UNL     1       3.000  42.081  53.137  1.00  0.00     0.164 HD
BRANCH  10  12
ATOM     12  C   UNL     1       4.088  43.431  52.288  1.00  0.00     0.227 A 
ATOM     13  N   UNL     1       4.662  44.618  52.550  1.00  0.00    -0.195 NA
ATOM     14  N   UNL     1       4.445  42.591  51.307  1.00  0.00    -0.193 NA
ATOM     15  C   UNL     1       5.691  45.085  51.793  1.00  0.00     0.147 A 
ATOM     16  C   UNL     1       5.460  43.061  50.569  1.00  0.00     0.165 A 
ATOM     17  C   UNL     1       6.119  44.262  50.744  1.00  0.00     0.082 A 
ATOM     18  N   UNL     1       6.053  42.456  49.494  1.00  0.00    -0.250 N 
ATOM     19  C   UNL     1       7.094  44.275  49.723  1.00  0.00     0.149 A 
ATOM     20  N   UNL     1       7.065  43.178  48.958  1.00  0.00    -0.179 NA
ATOM     21  C   UNL     1       5.707  41.182  48.916  1.00  0.00     0.176 C 
BRANCH  15  22
ATOM     22  N   UNL     1       6.314  46.313  52.059  1.00  0.00    -0.339 N 
ATOM     23  H   UNL     1       5.752  47.116  51.817  1.00  0.00     0.168 HD
BRANCH  22  24
ATOM     24  C   UNL     1       7.540  46.642  52.665  1.00  0.00     0.040 A 
ATOM     25  C   UNL     1       7.673  47.028  54.002  1.00  0.00     0.026 A 
ATOM     26  C   UNL     1       8.714  46.535  51.899  1.00  0.00     0.026 A 
ATOM     27  C   UNL     1       8.927  47.316  54.553  1.00  0.00     0.002 A 
ATOM     28  C   UNL     1       9.970  46.820  52.444  1.00  0.00     0.002 A 
ATOM     29  C   UNL     1      10.076  47.213  53.774  1.00  0.00     0.000 A 
ENDBRANCH  22  24
ENDBRANCH  15  22
ENDBRANCH  10  12
ENDBRANCH   1  10
TORSDOF 6
ENDMDL
MODEL 3
REMARK VINA RESULT:    -9.409      2.896      6.975
REMARK INTER + INTRA:         -13.488
REMARK INTER:                 -12.620
REMARK INTRA:                  -0.868
REMARK UNBOUND:                -0.779
REMARK SMILES COc1ccc(CNc2nc(Nc3ccccc3)c3cnn(C)c3n2)cc1
REMARK SMILES IDX 7 1 6 2 3 3 4 4 27 5 5 6 26 7 2 8 1 9 8 10 9 12 10 13 25 14
REMARK SMILES IDX 11 15 24 16 19 17 22 18 20 19 21 20 23 21 12 22 13 24 14 25
REMARK SMILES IDX 18 26 15 27 17 28 16 29
REMARK H PARENT 8 11 12 23
ROOT
ATOM      1  C   UNL     1       4.097  47.082  53.488  1.00  0.00     0.152 C 
ENDROOT
BRANCH   1   2
ATOM      2  C   UNL     1       5.588  46.890  53.330  1.00  0.00    -0.029 A 
ATOM      3  C   UNL     1       8.364  46.508  53.016  1.00  0.00     0.118 A 
ATOM      4  C   UNL     1       7.806  46.656  54.287  1.00  0.00     0.047 A 
ATOM      5  C   UNL     1       7.529  46.546  51.898  1.00  0.00     0.047 A 
ATOM      6  C   UNL     1       6.430  46.843  54.448  1.00  0.00     0.009 A 
ATOM      7  C   UNL     1       6.152  46.733  52.056  1.00  0.00     0.009 A 
BRANCH   3   8
ATOM      8  O   UNL     1       9.720  46.332  53.003  1.00  0.00    -0.497 OA
ATOM      9  C   UNL     1      10.335  46.182  51.730  1.00  0.00     0.278 C 
ENDBRANCH   3   8
ENDBRANCH   1   2
BRANCH   1  10
ATOM     10  N   UNL     1       3.631  46.266  54.590  1.00  0.00    -0.350 N 
ATOM     11  H   UNL     1       3.121  46.778  55.302  1.00  0.00     0.164 HD
BRANCH  10  12
ATOM     12  C   UNL     1       2.799  45.223  54.203  1.00  0.00     0.227 A 
ATOM     13  N   UNL     1       3.367  44.336  53.368  1.00  0.00    -0.195 NA
ATOM     14  N   UNL     1       1.543  45.166  54.667  1.00  0.00    -0.193 NA
ATOM     15  C   UNL     1       2.670  43.268  52.896  1.00  0.00     0.147 A 
ATOM     16  C   UNL     1       0.867  44.109  54.196  1.00  0.00     0.165 A 
ATOM     17  C   UNL     1       1.346  43.142  53.335  1.00  0.00     0.082 A 
ATOM     18  N   UNL     1      -0.430  43.768  54.466  1.00  0.00    -0.250 N 
ATOM     19  C   UNL     1       0.256  42.263  53.158  1.00  0.00     0.149 A 
ATOM     20  N   UNL     1      -0.831  42.633  53.847  1.00  0.00    -0.179 NA
ATOM     21  C   UNL     1      -1.356  44.479  55.312  1.00  0.00     0.176 C 
BRANCH  15  22
ATOM     22  N   UNL     1       3.248  42.322  52.037  1.00  0.00    -0.339 N 
ATOM     23  H   UNL     1       2.803  41.416  52.070  1.00  0.00     0.168 HD
BRANCH  22  24
ATOM     24  C   UNL     1       4.281  42.410  51.087  1.00  0.00     0.040 A 
ATOM     25  C   UNL     1       5.141  43.507  50.966  1.00  0.00     0.026 A 
ATOM     26  C   UNL     1       4.499  41.316  50.233  1.00  0.00     0.026 A 
ATOM     27  C   UNL     1       6.169  43.521  50.016  1.00  0.00     0.002 A 
ATOM     28  C   UNL     1       5.525  41.324  49.282  1.00  0.00     0.002 A 
ATOM     29  C   UNL     1       6.361  42.430  49.174  1.00  0.00     0.000 A 
ENDBRANCH  22  24
ENDBRANCH  15  22
ENDBRANCH  10  12
ENDBRANCH   1  10
TORSDOF 6
ENDMDL
MODEL 4
REMARK VINA RESULT:    -9.397      0.536      1.064
REMARK INTER + INTRA:         -13.471
REMARK INTER:                 -12.644
REMARK INTRA:                  -0.827
REMARK UNBOUND:                -0.779
REMARK SMILES COc1ccc(CNc2nc(Nc3ccccc3)c3cnn(C)c3n2)cc1
REMARK SMILES IDX 7 1 6 2 3 3 4 4 27 5 5 6 26 7 2 8 1 9 8 10 9 12 10 13 25 14
REMARK SMILES IDX 11 15 24 16 19 17 22 18 20 19 21 20 23 21 12 22 13 24 14 25
REMARK SMILES IDX 18 26 15 27 17 28 16 29
REMARK H PARENT 8 11 12 23
ROOT
ATOM      1  C   UNL     1       1.803  44.144  52.836  1.00  0.00     0.152 C 
ENDROOT
BRANCH   1   2
ATOM      2  C   UNL     1       1.117  44.569  54.113  1.00  0.00    -0.029 A 
ATOM      3  C   UNL     1      -0.144  45.345  56.513  1.00  0.00     0.118 A 
ATOM      4  C   UNL     1      -0.899  44.919  55.418  1.00  0.00     0.047 A 
ATOM      5  C   UNL     1       1.247  45.379  56.408  1.00  0.00     0.047 A 
ATOM      6  C   UNL     1      -0.278  44.530  54.228  1.00  0.00     0.009 A 
ATOM      7  C   UNL     1       1.871  44.992  55.217  1.00  0.00     0.009 A 
BRANCH   3   8
ATOM      8  O   UNL     1      -0.877  45.695  57.612  1.00  0.00    -0.497 OA
ATOM      9  C   UNL     1      -1.262  47.059  57.720  1.00  0.00     0.278 C 
ENDBRANCH   3   8
ENDBRANCH   1   2
BRANCH   1  10
ATOM     10  N   UNL     1       3.001  43.401  53.169  1.00  0.00    -0.350 N 
ATOM     11  H   UNL     1       2.878  42.395  53.186  1.00  0.00     0.164 HD
BRANCH  10  12
ATOM     12  C   UNL     1       4.066  43.639  52.309  1.00  0.00     0.227 A 
ATOM     13  N   UNL     1       4.721  44.791  52.535  1.00  0.00    -0.195 NA
ATOM     14  N   UNL     1       4.363  42.746  51.355  1.00  0.00    -0.193 NA
ATOM     15  C   UNL     1       5.778  45.162  51.765  1.00  0.00     0.147 A 
ATOM     16  C   UNL     1       5.407  43.123  50.603  1.00  0.00     0.165 A 
ATOM     17  C   UNL     1       6.147  44.280  50.742  1.00  0.00     0.082 A 
ATOM     18  N   UNL     1       5.955  42.446  49.548  1.00  0.00    -0.250 N 
ATOM     19  C   UNL     1       7.119  44.195  49.723  1.00  0.00     0.149 A 
ATOM     20  N   UNL     1       7.014  43.079  48.991  1.00  0.00    -0.179 NA
ATOM     21  C   UNL     1       5.521  41.182  49.008  1.00  0.00     0.176 C 
BRANCH  15  22
ATOM     22  N   UNL     1       6.485  46.352  51.995  1.00  0.00    -0.339 N 
ATOM     23  H   UNL     1       5.993  47.182  51.698  1.00  0.00     0.168 HD
BRANCH  22  24
ATOM     24  C   UNL     1       7.714  46.617  52.623  1.00  0.00     0.040 A 
ATOM     25  C   UNL     1       8.959  46.477  52.000  1.00  0.00     0.026 A 
ATOM     26  C   UNL     1       7.700  47.096  53.945  1.00  0.00     0.026 A 
ATOM     27  C   UNL     1      10.147  46.785  52.673  1.00  0.00     0.002 A 
ATOM     28  C   UNL     1       8.884  47.406  54.622  1.00  0.00     0.002 A 
ATOM     29  C   UNL     1      10.109  47.249  53.984  1.00  0.00     0.000 A 
ENDBRANCH  22  24
ENDBRANCH  15  22
ENDBRANCH  10  12
ENDBRANCH   1  10
TORSDOF 6
ENDMDL
MODEL 5
REMARK VINA RESULT:    -9.385      3.520      6.963
REMARK INTER + INTRA:         -13.456
REMARK INTER:                 -12.576
REMARK INTRA:                  -0.880
REMARK UNBOUND:                -0.779
REMARK SMILES COc1ccc(CNc2nc(Nc3ccccc3)c3cnn(C)c3n2)cc1
REMARK SMILES IDX 7 1 6 2 3 3 4 4 27 5 5 6 26 7 2 8 1 9 8 10 9 12 10 13 25 14
REMARK SMILES IDX 11 15 24 16 19 17 22 18 20 19 21 20 23 21 12 22 13 24 14 25
REMARK SMILES IDX 18 26 15 27 17 28 16 29
REMARK H PARENT 8 11 12 23
ROOT
ATOM      1  C   UNL     1       5.621  41.570  50.068  1.00  0.00     0.152 C 
ENDROOT
BRANCH   1   2
ATOM      2  C   UNL     1       5.143  41.346  48.651  1.00  0.00    -0.029 A 
ATOM      3  C   UNL     1       4.247  40.897  46.016  1.00  0.00     0.118 A 
ATOM      4  C   UNL     1       5.389  41.663  46.259  1.00  0.00     0.047 A 
ATOM      5  C   UNL     1       3.554  40.348  47.096  1.00  0.00     0.047 A 
ATOM      6  C   UNL     1       5.838  41.886  47.564  1.00  0.00     0.009 A 
ATOM      7  C   UNL     1       4.000  40.570  48.403  1.00  0.00     0.009 A 
BRANCH   3   8
ATOM      8  O   UNL     1       3.921  40.758  44.696  1.00  0.00    -0.497 OA
ATOM      9  C   UNL     1       4.895  40.154  43.854  1.00  0.00     0.278 C 
ENDBRANCH   3   8
ENDBRANCH   1   2
BRANCH   1  10
ATOM     10  N   UNL     1       4.482  41.879  50.907  1.00  0.00    -0.350 N 
ATOM     11  H   UNL     1       4.464  41.378  51.789  1.00  0.00     0.164 HD
BRANCH  10  12
ATOM     12  C   UNL     1       4.373  43.225  51.232  1.00  0.00     0.227 A 
ATOM     13  N   UNL     1       5.485  43.946  51.009  1.00  0.00    -0.195 NA
ATOM     14  N   UNL     1       3.219  43.700  51.721  1.00  0.00    -0.193 NA
ATOM     15  C   UNL     1       5.530  45.276  51.291  1.00  0.00     0.147 A 
ATOM     16  C   UNL     1       3.275  45.011  51.994  1.00  0.00     0.165 A 
ATOM     17  C   UNL     1       4.360  45.845  51.809  1.00  0.00     0.082 A 
ATOM     18  N   UNL     1       2.278  45.793  52.508  1.00  0.00    -0.250 N 
ATOM     19  C   UNL     1       3.904  47.109  52.240  1.00  0.00     0.149 A 
ATOM     20  N   UNL     1       2.635  47.090  52.664  1.00  0.00    -0.179 NA
ATOM     21  C   UNL     1       0.949  45.374  52.878  1.00  0.00     0.176 C 
BRANCH  15  22
ATOM     22  N   UNL     1       6.675  46.049  51.050  1.00  0.00    -0.339 N 
ATOM     23  H   UNL     1       6.680  46.498  50.146  1.00  0.00     0.168 HD
BRANCH  22  24
ATOM     24  C   UNL     1       7.781  46.379  51.852  1.00  0.00     0.040 A 
ATOM     25  C   UNL     1       9.104  46.061  51.529  1.00  0.00     0.026 A 
ATOM     26  C   UNL     1       7.558  47.113  53.030  1.00  0.00     0.026 A 
ATOM     27  C   UNL     1      10.166  46.443  52.358  1.00  0.00     0.002 A 
ATOM     28  C   UNL     1       8.615  47.498  53.862  1.00  0.00     0.002 A 
ATOM     29  C   UNL     1       9.921  47.161  53.525  1.00  0.00     0.000 A 
ENDBRANCH  22  24
ENDBRANCH  15  22
ENDBRANCH  10  12
ENDBRANCH   1  10
TORSDOF 6
ENDMDL
MODEL 6
REMARK VINA RESULT:    -9.360      3.544      7.080
REMARK INTER + INTRA:         -13.422
REMARK INTER:                 -12.506
REMARK INTRA:                  -0.916
REMARK UNBOUND:                -0.779
REMARK SMILES COc1ccc(CNc2nc(Nc3ccccc3)c3cnn(C)c3n2)cc1
REMARK SMILES IDX 7 1 6 2 3 3 4 4 27 5 5 6 26 7 2 8 1 9 8 10 9 12 10 13 25 14
REMARK SMILES IDX 11 15 24 16 19 17 22 18 20 19 21 20 23 21 12 22 13 24 14 25
REMARK SMILES IDX 18 26 15 27 17 28 16 29
REMARK H PARENT 8 11 12 23
ROOT
ATOM      1  C   UNL     1       5.746  41.572  49.901  1.00  0.00     0.152 C 
ENDROOT
BRANCH   1   2
ATOM      2  C   UNL     1       5.199  41.338  48.511  1.00  0.00    -0.029 A 
ATOM      3  C   UNL     1       4.182  40.932  45.913  1.00  0.00     0.118 A 
ATOM      4  C   UNL     1       3.533  40.388  47.024  1.00  0.00     0.047 A 
ATOM      5  C   UNL     1       5.341  41.685  46.103  1.00  0.00     0.047 A 
ATOM      6  C   UNL     1       4.032  40.590  48.314  1.00  0.00     0.009 A 
ATOM      7  C   UNL     1       5.843  41.887  47.393  1.00  0.00     0.009 A 
BRANCH   3   8
ATOM      8  O   UNL     1       3.587  40.659  44.713  1.00  0.00    -0.497 OA
ATOM      9  C   UNL     1       4.323  39.857  43.799  1.00  0.00     0.278 C 
ENDBRANCH   3   8
ENDBRANCH   1   2
BRANCH   1  10
ATOM     10  N   UNL     1       4.645  41.836  50.803  1.00  0.00    -0.350 N 
ATOM     11  H   UNL     1       4.701  41.343  51.687  1.00  0.00     0.164 HD
BRANCH  10  12
ATOM     12  C   UNL     1       4.493  43.179  51.125  1.00  0.00     0.227 A 
ATOM     13  N   UNL     1       5.591  43.929  50.928  1.00  0.00    -0.195 NA
ATOM     14  N   UNL     1       3.317  43.623  51.589  1.00  0.00    -0.193 NA
ATOM     15  C   UNL     1       5.595  45.259  51.211  1.00  0.00     0.147 A 
ATOM     16  C   UNL     1       3.333  44.935  51.863  1.00  0.00     0.165 A 
ATOM     17  C   UNL     1       4.399  45.797  51.703  1.00  0.00     0.082 A 
ATOM     18  N   UNL     1       2.304  45.691  52.355  1.00  0.00    -0.250 N 
ATOM     19  C   UNL     1       3.901  47.049  52.123  1.00  0.00     0.149 A 
ATOM     20  N   UNL     1       2.624  46.997  52.519  1.00  0.00    -0.179 NA
ATOM     21  C   UNL     1       0.979  45.237  52.695  1.00  0.00     0.176 C 
BRANCH  15  22
ATOM     22  N   UNL     1       6.724  46.062  50.996  1.00  0.00    -0.339 N 
ATOM     23  H   UNL     1       6.764  46.471  50.074  1.00  0.00     0.168 HD
BRANCH  22  24
ATOM     24  C   UNL     1       7.774  46.467  51.840  1.00  0.00     0.040 A 
ATOM     25  C   UNL     1       7.594  47.209  53.012  1.00  0.00     0.026 A 
ATOM     26  C   UNL     1       9.083  46.068  51.517  1.00  0.00     0.026 A 
ATOM     27  C   UNL     1       8.680  47.557  53.824  1.00  0.00     0.002 A 
ATOM     28  C   UNL     1      10.171  46.412  52.326  1.00  0.00     0.002 A 
ATOM     29  C   UNL     1       9.968  47.159  53.481  1.00  0.00     0.000 A 
ENDBRANCH  22  24
ENDBRANCH  15  22
ENDBRANCH  10  12
ENDBRANCH   1  10
TORSDOF 6
ENDMDL
MODEL 7
REMARK VINA RESULT:    -9.282      3.137      7.765
REMARK INTER + INTRA:         -13.317
REMARK INTER:                 -12.521
REMARK INTRA:                  -0.796
REMARK UNBOUND:                -0.779
REMARK SMILES COc1ccc(CNc2nc(Nc3ccccc3)c3cnn(C)c3n2)cc1
REMARK SMILES IDX 7 1 6 2 3 3 4 4 27 5 5 6 26 7 2 8 1 9 8 10 9 12 10 13 25 14
REMARK SMILES IDX 11 15 24 16 19 17 22 18 20 19 21 20 23 21 12 22 13 24 14 25
REMARK SMILES IDX 18 26 15 27 17 28 16 29
REMARK H PARENT 8 11 12 23
ROOT
ATOM      1  C   UNL     1       7.779  46.403  50.591  1.00  0.00     0.152 C 
ENDROOT
BRANCH   1   2
ATOM      2  C   UNL     1       8.336  46.783  51.944  1.00  0.00    -0.029 A 
ATOM      3  C   UNL     1       9.393  47.467  54.467  1.00  0.00     0.118 A 
ATOM      4  C   UNL     1       8.019  47.537  54.228  1.00  0.00     0.047 A 
ATOM      5  C   UNL     1      10.241  47.048  53.441  1.00  0.00     0.047 A 
ATOM      6  C   UNL     1       7.490  47.197  52.980  1.00  0.00     0.009 A 
ATOM      7  C   UNL     1       9.715  46.707  52.190  1.00  0.00     0.009 A 
BRANCH   3   8
ATOM      8  O   UNL     1       9.774  47.827  55.729  1.00  0.00    -0.497 OA
ATOM      9  C   UNL     1      11.067  47.414  56.152  1.00  0.00     0.278 C 
ENDBRANCH   3   8
ENDBRANCH   1   2
BRANCH   1  10
ATOM     10  N   UNL     1       8.074  45.009  50.335  1.00  0.00    -0.350 N 
ATOM     11  H   UNL     1       8.771  44.608  50.952  1.00  0.00     0.164 HD
BRANCH  10  12
ATOM     12  C   UNL     1       6.966  44.176  50.421  1.00  0.00     0.227 A 
ATOM     13  N   UNL     1       6.920  43.208  49.488  1.00  0.00    -0.195 NA
ATOM     14  N   UNL     1       6.056  44.376  51.384  1.00  0.00    -0.193 NA
ATOM     15  C   UNL     1       5.888  42.324  49.442  1.00  0.00     0.147 A 
ATOM     16  C   UNL     1       5.045  43.498  51.328  1.00  0.00     0.165 A 
ATOM     17  C   UNL     1       4.893  42.472  50.417  1.00  0.00     0.082 A 
ATOM     18  N   UNL     1       3.957  43.434  52.156  1.00  0.00    -0.250 N 
ATOM     19  C   UNL     1       3.683  41.850  50.792  1.00  0.00     0.149 A 
ATOM     20  N   UNL     1       3.106  42.425  51.853  1.00  0.00    -0.179 NA
ATOM     21  C   UNL     1       3.658  44.305  53.264  1.00  0.00     0.176 C 
BRANCH  15  22
ATOM     22  N   UNL     1       5.829  41.298  48.488  1.00  0.00    -0.339 N 
ATOM     23  H   UNL     1       6.410  40.502  48.710  1.00  0.00     0.168 HD
BRANCH  22  24
ATOM     24  C   UNL     1       5.064  41.131  47.320  1.00  0.00     0.040 A 
ATOM     25  C   UNL     1       3.869  40.406  47.264  1.00  0.00     0.026 A 
ATOM     26  C   UNL     1       5.494  41.767  46.143  1.00  0.00     0.026 A 
ATOM     27  C   UNL     1       3.139  40.301  46.075  1.00  0.00     0.002 A 
ATOM     28  C   UNL     1       4.767  41.667  44.951  1.00  0.00     0.002 A 
ATOM     29  C   UNL     1       3.588  40.931  44.918  1.00  0.00     0.000 A 
ENDBRANCH  22  24
ENDBRANCH  15  22
ENDBRANCH  10  12
ENDBRANCH   1  10
TORSDOF 6
ENDMDL
MODEL 8
REMARK VINA RESULT:    -9.191      2.289      5.295
REMARK INTER + INTRA:         -13.193
REMARK INTER:                 -12.269
REMARK INTRA:                  -0.924
REMARK UNBOUND:                -0.779
REMARK SMILES COc1ccc(CNc2nc(Nc3ccccc3)c3cnn(C)c3n2)cc1
REMARK SMILES IDX 7 1 6 2 3 3 4 4 27 5 5 6 26 7 2 8 1 9 8 10 9 12 10 13 25 14
REMARK SMILES IDX 11 15 24 16 19 17 22 18 20 19 21 20 23 21 12 22 13 24 14 25
REMARK SMILES IDX 18 26 15 27 17 28 16 29
REMARK H PARENT 8 11 12 23
ROOT
ATOM      1  C   UNL     1       3.256  47.441  52.688  1.00  0.00     0.152 C 
ENDROOT
BRANCH   1   2
ATOM      2  C   UNL     1       2.544  46.135  52.959  1.00  0.00    -0.029 A 
ATOM      3  C   UNL     1       1.238  43.693  53.486  1.00  0.00     0.118 A 
ATOM      4  C   UNL     1       1.452  44.116  52.173  1.00  0.00     0.047 A 
ATOM      5  C   UNL     1       1.683  44.492  54.539  1.00  0.00     0.047 A 
ATOM      6  C   UNL     1       2.102  45.325  51.907  1.00  0.00     0.009 A 
ATOM      7  C   UNL     1       2.332  45.703  54.276  1.00  0.00     0.009 A 
BRANCH   3   8
ATOM      8  O   UNL     1       0.593  42.493  53.602  1.00  0.00    -0.497 OA
ATOM      9  C   UNL     1      -0.411  42.208  52.637  1.00  0.00     0.278 C 
ENDBRANCH   3   8
ENDBRANCH   1   2
BRANCH   1  10
ATOM     10  N   UNL     1       4.303  47.620  53.672  1.00  0.00    -0.350 N 
ATOM     11  H   UNL     1       4.138  47.140  54.550  1.00  0.00     0.164 HD
BRANCH  10  12
ATOM     12  C   UNL     1       5.556  47.204  53.240  1.00  0.00     0.227 A 
ATOM     13  N   UNL     1       5.540  46.420  52.148  1.00  0.00    -0.195 NA
ATOM     14  N   UNL     1       6.652  47.594  53.906  1.00  0.00    -0.193 NA
ATOM     15  C   UNL     1       6.691  45.928  51.619  1.00  0.00     0.147 A 
ATOM     16  C   UNL     1       7.780  47.104  53.373  1.00  0.00     0.165 A 
ATOM     17  C   UNL     1       7.881  46.290  52.263  1.00  0.00     0.082 A 
ATOM     18  N   UNL     1       9.059  47.303  53.815  1.00  0.00    -0.250 N 
ATOM     19  C   UNL     1       9.267  46.065  52.121  1.00  0.00     0.149 A 
ATOM     20  N   UNL     1       9.995  46.681  53.059  1.00  0.00    -0.179 NA
ATOM     21  C   UNL     1       9.472  48.079  54.957  1.00  0.00     0.176 C 
BRANCH  15  22
ATOM     22  N   UNL     1       6.697  45.122  50.471  1.00  0.00    -0.339 N 
ATOM     23  H   UNL     1       7.220  45.514  49.701  1.00  0.00     0.168 HD
BRANCH  22  24
ATOM     24  C   UNL     1       6.178  43.842  50.209  1.00  0.00     0.040 A 
ATOM     25  C   UNL     1       6.707  42.962  49.258  1.00  0.00     0.026 A 
ATOM     26  C   UNL     1       5.088  43.392  50.975  1.00  0.00     0.026 A 
ATOM     27  C   UNL     1       6.160  41.688  49.065  1.00  0.00     0.002 A 
ATOM     28  C   UNL     1       4.538  42.120  50.786  1.00  0.00     0.002 A 
ATOM     29  C   UNL     1       5.075  41.267  49.828  1.00  0.00     0.000 A 
ENDBRANCH  22  24
ENDBRANCH  15  22
ENDBRANCH  10  12
ENDBRANCH   1  10
TORSDOF 6
ENDMDL
MODEL 9
REMARK VINA RESULT:    -9.073      2.373      6.767
REMARK INTER + INTRA:         -13.034
REMARK INTER:                 -12.206
REMARK INTRA:                  -0.827
REMARK UNBOUND:                -0.779
REMARK SMILES COc1ccc(CNc2nc(Nc3ccccc3)c3cnn(C)c3n2)cc1
REMARK SMILES IDX 7 1 6 2 3 3 4 4 27 5 5 6 26 7 2 8 1 9 8 10 9 12 10 13 25 14
REMARK SMILES IDX 11 15 24 16 19 17 22 18 20 19 21 20 23 21 12 22 13 24 14 25
REMARK SMILES IDX 18 26 15 27 17 28 16 29
REMARK H PARENT 8 11 12 23
ROOT
ATOM      1  C   UNL     1       7.962  46.082  51.038  1.00  0.00     0.152 C 
ENDROOT
BRANCH   1   2
ATOM      2  C   UNL     1       8.474  46.621  52.354  1.00  0.00    -0.029 A 
ATOM      3  C   UNL     1       9.411  47.651  54.805  1.00  0.00     0.118 A 
ATOM      4  C   UNL     1      10.302  47.125  53.868  1.00  0.00     0.047 A 
ATOM      5  C   UNL     1       8.046  47.667  54.512  1.00  0.00     0.047 A 
ATOM      6  C   UNL     1       9.842  46.615  52.650  1.00  0.00     0.009 A 
ATOM      7  C   UNL     1       7.583  47.157  53.295  1.00  0.00     0.009 A 
BRANCH   3   8
ATOM      8  O   UNL     1       9.994  48.116  55.951  1.00  0.00    -0.497 OA
ATOM      9  C   UNL     1      11.199  47.481  56.360  1.00  0.00     0.278 C 
ENDBRANCH   3   8
ENDBRANCH   1   2
BRANCH   1  10
ATOM     10  N   UNL     1       6.552  46.389  50.918  1.00  0.00    -0.350 N 
ATOM     11  H   UNL     1       6.300  46.868  50.060  1.00  0.00     0.164 HD
BRANCH  10  12
ATOM     12  C   UNL     1       5.726  45.275  50.989  1.00  0.00     0.227 A 
ATOM     13  N   UNL     1       4.509  45.514  51.506  1.00  0.00    -0.195 NA
ATOM     14  N   UNL     1       6.172  44.088  50.556  1.00  0.00    -0.193 NA
ATOM     15  C   UNL     1       3.597  44.515  51.649  1.00  0.00     0.147 A 
ATOM     16  C   UNL     1       5.264  43.112  50.700  1.00  0.00     0.165 A 
ATOM     17  C   UNL     1       3.991  43.241  51.219  1.00  0.00     0.082 A 
ATOM     18  N   UNL     1       5.406  41.793  50.366  1.00  0.00    -0.250 N 
ATOM     19  C   UNL     1       3.452  41.940  51.146  1.00  0.00     0.149 A 
ATOM     20  N   UNL     1       4.304  41.050  50.624  1.00  0.00    -0.179 NA
ATOM     21  C   UNL     1       6.569  41.163  49.794  1.00  0.00     0.176 C 
BRANCH  15  22
ATOM     22  N   UNL     1       2.315  44.746  52.170  1.00  0.00    -0.339 N 
ATOM     23  H   UNL     1       1.594  44.804  51.467  1.00  0.00     0.168 HD
BRANCH  22  24
ATOM     24  C   UNL     1       1.831  44.840  53.487  1.00  0.00     0.040 A 
ATOM     25  C   UNL     1       2.587  45.303  54.568  1.00  0.00     0.026 A 
ATOM     26  C   UNL     1       0.492  44.490  53.733  1.00  0.00     0.026 A 
ATOM     27  C   UNL     1       2.036  45.399  55.852  1.00  0.00     0.002 A 
ATOM     28  C   UNL     1      -0.064  44.585  55.013  1.00  0.00     0.002 A 
ATOM     29  C   UNL     1       0.711  45.039  56.074  1.00  0.00     0.000 A 
ENDBRANCH  22  24
ENDBRANCH  15  22
ENDBRANCH  10  12
ENDBRANCH   1  10
TORSDOF 6
ENDMDL
MODEL 10
REMARK VINA RESULT:    -9.059      2.549      7.084
REMARK INTER + INTRA:         -13.015
REMARK INTER:                 -12.277
REMARK INTRA:                  -0.738
REMARK UNBOUND:                -0.779
REMARK SMILES COc1ccc(CNc2nc(Nc3ccccc3)c3cnn(C)c3n2)cc1
REMARK SMILES IDX 7 1 6 2 3 3 4 4 27 5 5 6 26 7 2 8 1 9 8 10 9 12 10 13 25 14
REMARK SMILES IDX 11 15 24 16 19 17 22 18 20 19 21 20 23 21 12 22 13 24 14 25
REMARK SMILES IDX 18 26 15 27 17 28 16 29
REMARK H PARENT 8 11 12 23
ROOT
ATOM      1  C   UNL     1       7.948  46.048  50.899  1.00  0.00     0.152 C 
ENDROOT
BRANCH   1   2
ATOM      2  C   UNL     1       8.505  46.586  52.198  1.00  0.00    -0.029 A 
ATOM      3  C   UNL     1       9.555  47.560  54.626  1.00  0.00     0.118 A 
ATOM      4  C   UNL     1       8.228  47.813  54.273  1.00  0.00     0.047 A 
ATOM      5  C   UNL     1      10.358  46.813  53.764  1.00  0.00     0.047 A 
ATOM      6  C   UNL     1       7.702  47.329  53.071  1.00  0.00     0.009 A 
ATOM      7  C   UNL     1       9.835  46.328  52.560  1.00  0.00     0.009 A 
BRANCH   3   8
ATOM      8  O   UNL     1       9.938  48.090  55.827  1.00  0.00    -0.497 OA
ATOM      9  C   UNL     1      11.126  47.568  56.409  1.00  0.00     0.278 C 
ENDBRANCH   3   8
ENDBRANCH   1   2
BRANCH   1  10
ATOM     10  N   UNL     1       6.512  46.229  50.890  1.00  0.00    -0.350 N 
ATOM     11  H   UNL     1       6.149  46.657  50.045  1.00  0.00     0.164 HD
BRANCH  10  12
ATOM     12  C   UNL     1       5.797  45.050  51.056  1.00  0.00     0.227 A 
ATOM     13  N   UNL     1       4.990  45.031  52.132  1.00  0.00    -0.195 NA
ATOM     14  N   UNL     1       5.945  44.052  50.174  1.00  0.00    -0.193 NA
ATOM     15  C   UNL     1       4.238  43.938  52.428  1.00  0.00     0.147 A 
ATOM     16  C   UNL     1       5.197  42.982  50.475  1.00  0.00     0.165 A 
ATOM     17  C   UNL     1       4.341  42.851  51.551  1.00  0.00     0.082 A 
ATOM     18  N   UNL     1       5.125  41.801  49.787  1.00  0.00    -0.250 N 
ATOM     19  C   UNL     1       3.801  41.555  51.410  1.00  0.00     0.149 A 
ATOM     20  N   UNL     1       4.268  40.908  50.336  1.00  0.00    -0.179 NA
ATOM     21  C   UNL     1       5.846  41.449  48.590  1.00  0.00     0.176 C 
BRANCH  15  22
ATOM     22  N   UNL     1       3.378  43.905  53.535  1.00  0.00    -0.339 N 
ATOM     23  H   UNL     1       3.856  43.937  54.424  1.00  0.00     0.168 HD
BRANCH  22  24
ATOM     24  C   UNL     1       1.976  43.908  53.648  1.00  0.00     0.040 A 
ATOM     25  C   UNL     1       1.209  45.060  53.851  1.00  0.00     0.026 A 
ATOM     26  C   UNL     1       1.291  42.688  53.504  1.00  0.00     0.026 A 
ATOM     27  C   UNL     1      -0.187  44.999  53.926  1.00  0.00     0.002 A 
ATOM     28  C   UNL     1      -0.104  42.621  53.577  1.00  0.00     0.002 A 
ATOM     29  C   UNL     1      -0.844  43.779  53.790  1.00  0.00     0.000 A 
ENDBRANCH  22  24
ENDBRANCH  15  22
ENDBRANCH  10  12
ENDBRANCH   1  10
TORSDOF 6
ENDMDL
MODEL 11
REMARK VINA RESULT:    -8.902      2.303      3.331
REMARK INTER + INTRA:         -12.804
REMARK INTER:                 -11.887
REMARK INTRA:                  -0.917
REMARK UNBOUND:                -0.779
REMARK SMILES COc1ccc(CNc2nc(Nc3ccccc3)c3cnn(C)c3n2)cc1
REMARK SMILES IDX 7 1 6 2 3 3 4 4 27 5 5 6 26 7 2 8 1 9 8 10 9 12 10 13 25 14
REMARK SMILES IDX 11 15 24 16 19 17 22 18 20 19 21 20 23 21 12 22 13 24 14 25
REMARK SMILES IDX 18 26 15 27 17 28 16 29
REMARK H PARENT 8 11 12 23
ROOT
ATOM      1  C   UNL     1       1.738  45.158  53.907  1.00  0.00     0.152 C 
ENDROOT
BRANCH   1   2
ATOM      2  C   UNL     1       0.699  44.433  53.083  1.00  0.00    -0.029 A 
ATOM      3  C   UNL     1      -1.221  43.055  51.545  1.00  0.00     0.118 A 
ATOM      4  C   UNL     1      -0.864  44.367  51.228  1.00  0.00     0.047 A 
ATOM      5  C   UNL     1      -0.611  42.428  52.632  1.00  0.00     0.047 A 
ATOM      6  C   UNL     1       0.090  45.053  51.986  1.00  0.00     0.009 A 
ATOM      7  C   UNL     1       0.343  43.112  53.393  1.00  0.00     0.009 A 
BRANCH   3   8
ATOM      8  O   UNL     1      -2.163  42.503  50.722  1.00  0.00    -0.497 OA
ATOM      9  C   UNL     1      -3.029  41.534  51.297  1.00  0.00     0.278 C 
ENDBRANCH   3   8
ENDBRANCH   1   2
BRANCH   1  10
ATOM     10  N   UNL     1       2.848  44.263  54.160  1.00  0.00    -0.350 N 
ATOM     11  H   UNL     1       2.578  43.303  54.345  1.00  0.00     0.164 HD
BRANCH  10  12
ATOM     12  C   UNL     1       3.770  44.204  53.123  1.00  0.00     0.227 A 
ATOM     13  N   UNL     1       4.588  45.268  53.041  1.00  0.00    -0.195 NA
ATOM     14  N   UNL     1       3.788  43.141  52.308  1.00  0.00    -0.193 NA
ATOM     15  C   UNL     1       5.534  45.355  52.068  1.00  0.00     0.147 A 
ATOM     16  C   UNL     1       4.725  43.237  51.355  1.00  0.00     0.165 A 
ATOM     17  C   UNL     1       5.613  44.279  51.174  1.00  0.00     0.082 A 
ATOM     18  N   UNL     1       4.997  42.331  50.366  1.00  0.00    -0.250 N 
ATOM     19  C   UNL     1       6.378  43.895  50.052  1.00  0.00     0.149 A 
ATOM     20  N   UNL     1       6.014  42.707  49.554  1.00  0.00    -0.179 NA
ATOM     21  C   UNL     1       4.328  41.077  50.130  1.00  0.00     0.176 C 
BRANCH  15  22
ATOM     22  N   UNL     1       6.408  46.448  51.975  1.00  0.00    -0.339 N 
ATOM     23  H   UNL     1       6.052  47.208  51.414  1.00  0.00     0.168 HD
BRANCH  22  24
ATOM     24  C   UNL     1       7.653  46.719  52.571  1.00  0.00     0.040 A 
ATOM     25  C   UNL     1       7.808  47.211  53.870  1.00  0.00     0.026 A 
ATOM     26  C   UNL     1       8.820  46.439  51.838  1.00  0.00     0.026 A 
ATOM     27  C   UNL     1       9.078  47.434  54.415  1.00  0.00     0.002 A 
ATOM     28  C   UNL     1      10.091  46.659  52.378  1.00  0.00     0.002 A 
ATOM     29  C   UNL     1      10.220  47.158  53.669  1.00  0.00     0.000 A 
ENDBRANCH  22  24
ENDBRANCH  15  22
ENDBRANCH  10  12
ENDBRANCH   1  10
TORSDOF 6
ENDMDL
MODEL 12
REMARK VINA RESULT:    -8.696      2.831      6.225
REMARK INTER + INTRA:         -12.525
REMARK INTER:                 -11.202
REMARK INTRA:                  -1.323
REMARK UNBOUND:                -0.779
REMARK SMILES COc1ccc(CNc2nc(Nc3ccccc3)c3cnn(C)c3n2)cc1
REMARK SMILES IDX 7 1 6 2 3 3 4 4 27 5 5 6 26 7 2 8 1 9 8 10 9 12 10 13 25 14
REMARK SMILES IDX 11 15 24 16 19 17 22 18 20 19 21 20 23 21 12 22 13 24 14 25
REMARK SMILES IDX 18 26 15 27 17 28 16 29
REMARK H PARENT 8 11 12 23
ROOT
ATOM      1  C   UNL     1       2.676  45.915  55.697  1.00  0.00     0.152 C 
ENDROOT
BRANCH   1   2
ATOM      2  C   UNL     1       3.926  46.039  54.857  1.00  0.00    -0.029 A 
ATOM      3  C   UNL     1       6.276  46.273  53.316  1.00  0.00     0.118 A 
ATOM      4  C   UNL     1       5.136  47.012  52.992  1.00  0.00     0.047 A 
ATOM      5  C   UNL     1       6.241  45.417  54.418  1.00  0.00     0.047 A 
ATOM      6  C   UNL     1       3.970  46.901  53.755  1.00  0.00     0.009 A 
ATOM      7  C   UNL     1       5.075  45.303  55.182  1.00  0.00     0.009 A 
BRANCH   3   8
ATOM      8  O   UNL     1       7.345  46.478  52.489  1.00  0.00    -0.497 OA
ATOM      9  C   UNL     1       8.637  46.389  53.075  1.00  0.00     0.278 C 
ENDBRANCH   3   8
ENDBRANCH   1   2
BRANCH   1  10
ATOM     10  N   UNL     1       2.194  44.551  55.626  1.00  0.00    -0.350 N 
ATOM     11  H   UNL     1       1.484  44.323  56.314  1.00  0.00     0.164 HD
BRANCH  10  12
ATOM     12  C   UNL     1       1.652  44.210  54.394  1.00  0.00     0.227 A 
ATOM     13  N   UNL     1       2.446  43.443  53.627  1.00  0.00    -0.195 NA
ATOM     14  N   UNL     1       0.429  44.644  54.062  1.00  0.00    -0.193 NA
ATOM     15  C   UNL     1       2.053  43.041  52.389  1.00  0.00     0.147 A 
ATOM     16  C   UNL     1       0.052  44.240  52.840  1.00  0.00     0.165 A 
ATOM     17  C   UNL     1       0.784  43.458  51.969  1.00  0.00     0.082 A 
ATOM     18  N   UNL     1      -1.127  44.516  52.203  1.00  0.00    -0.250 N 
ATOM     19  C   UNL     1      -0.052  43.319  50.841  1.00  0.00     0.149 A 
ATOM     20  N   UNL     1      -1.221  43.956  50.974  1.00  0.00    -0.179 NA
ATOM     21  C   UNL     1      -2.219  45.311  52.706  1.00  0.00     0.176 C 
BRANCH  15  22
ATOM     22  N   UNL     1       2.859  42.226  51.580  1.00  0.00    -0.339 N 
ATOM     23  H   UNL     1       2.437  41.340  51.345  1.00  0.00     0.168 HD
BRANCH  22  24
ATOM     24  C   UNL     1       4.111  42.435  50.974  1.00  0.00     0.040 A 
ATOM     25  C   UNL     1       4.826  43.634  51.048  1.00  0.00     0.026 A 
ATOM     26  C   UNL     1       4.708  41.363  50.288  1.00  0.00     0.026 A 
ATOM     27  C   UNL     1       6.082  43.769  50.445  1.00  0.00     0.002 A 
ATOM     28  C   UNL     1       5.964  41.491  49.685  1.00  0.00     0.002 A 
ATOM     29  C   UNL     1       6.651  42.697  49.763  1.00  0.00     0.000 A 
ENDBRANCH  22  24
ENDBRANCH  15  22
ENDBRANCH  10  12
ENDBRANCH   1  10
TORSDOF 6
ENDMDL
MODEL 13
REMARK VINA RESULT:    -8.644      2.947      7.444
REMARK INTER + INTRA:         -12.455
REMARK INTER:                 -11.372
REMARK INTRA:                  -1.083
REMARK UNBOUND:                -0.779
REMARK SMILES COc1ccc(CNc2nc(Nc3ccccc3)c3cnn(C)c3n2)cc1
REMARK SMILES IDX 7 1 6 2 3 3 4 4 27 5 5 6 26 7 2 8 1 9 8 10 9 12 10 13 25 14
REMARK SMILES IDX 11 15 24 16 19 17 22 18 20 19 21 20 23 21 12 22 13 24 14 25
REMARK SMILES IDX 18 26 15 27 17 28 16 29
REMARK H PARENT 8 11 12 23
ROOT
ATOM      1  C   UNL     1       7.992  43.657  49.509  1.00  0.00     0.152 C 
ENDROOT
BRANCH   1   2
ATOM      2  C   UNL     1       6.798  42.758  49.284  1.00  0.00    -0.029 A 
ATOM      3  C   UNL     1       4.581  41.062  48.887  1.00  0.00     0.118 A 
ATOM      4  C   UNL     1       5.318  41.536  47.800  1.00  0.00     0.047 A 
ATOM      5  C   UNL     1       4.958  41.434  50.178  1.00  0.00     0.047 A 
ATOM      6  C   UNL     1       6.420  42.375  47.992  1.00  0.00     0.009 A 
ATOM      7  C   UNL     1       6.059  42.274  50.374  1.00  0.00     0.009 A 
BRANCH   3   8
ATOM      8  O   UNL     1       3.532  40.250  48.557  1.00  0.00    -0.497 OA
ATOM      9  C   UNL     1       3.345  39.973  47.175  1.00  0.00     0.278 C 
ENDBRANCH   3   8
ENDBRANCH   1   2
BRANCH   1  10
ATOM     10  N   UNL     1       7.558  45.038  49.468  1.00  0.00    -0.350 N 
ATOM     11  H   UNL     1       6.748  45.204  48.881  1.00  0.00     0.164 HD
BRANCH  10  12
ATOM     12  C   UNL     1       7.238  45.563  50.713  1.00  0.00     0.227 A 
ATOM     13  N   UNL     1       5.920  45.645  50.965  1.00  0.00    -0.195 NA
ATOM     14  N   UNL     1       8.217  45.936  51.549  1.00  0.00    -0.193 NA
ATOM     15  C   UNL     1       5.457  46.150  52.139  1.00  0.00     0.147 A 
ATOM     16  C   UNL     1       7.748  46.431  52.704  1.00  0.00     0.165 A 
ATOM     17  C   UNL     1       6.423  46.564  53.065  1.00  0.00     0.082 A 
ATOM     18  N   UNL     1       8.479  46.905  53.759  1.00  0.00    -0.250 N 
ATOM     19  C   UNL     1       6.470  47.124  54.360  1.00  0.00     0.149 A 
ATOM     20  N   UNL     1       7.718  47.332  54.794  1.00  0.00    -0.179 NA
ATOM     21  C   UNL     1       9.915  46.983  53.854  1.00  0.00     0.176 C 
BRANCH  15  22
ATOM     22  N   UNL     1       4.087  46.228  52.427  1.00  0.00    -0.339 N 
ATOM     23  H   UNL     1       3.667  47.111  52.176  1.00  0.00     0.168 HD
BRANCH  22  24
ATOM     24  C   UNL     1       3.169  45.290  52.932  1.00  0.00     0.040 A 
ATOM     25  C   UNL     1       2.356  45.512  54.048  1.00  0.00     0.026 A 
ATOM     26  C   UNL     1       3.021  44.067  52.253  1.00  0.00     0.026 A 
ATOM     27  C   UNL     1       1.441  44.546  54.484  1.00  0.00     0.002 A 
ATOM     28  C   UNL     1       2.108  43.099  52.683  1.00  0.00     0.002 A 
ATOM     29  C   UNL     1       1.318  43.339  53.802  1.00  0.00     0.000 A 
ENDBRANCH  22  24
ENDBRANCH  15  22
ENDBRANCH  10  12
ENDBRANCH   1  10
TORSDOF 6
ENDMDL
MODEL 14
REMARK VINA RESULT:    -8.616      3.329      6.751
REMARK INTER + INTRA:         -12.417
REMARK INTER:                 -11.019
REMARK INTRA:                  -1.398
REMARK UNBOUND:                -0.779
REMARK SMILES COc1ccc(CNc2nc(Nc3ccccc3)c3cnn(C)c3n2)cc1
REMARK SMILES IDX 7 1 6 2 3 3 4 4 27 5 5 6 26 7 2 8 1 9 8 10 9 12 10 13 25 14
REMARK SMILES IDX 11 15 24 16 19 17 22 18 20 19 21 20 23 21 12 22 13 24 14 25
REMARK SMILES IDX 18 26 15 27 17 28 16 29
REMARK H PARENT 8 11 12 23
ROOT
ATOM      1  C   UNL     1       0.912  43.698  51.572  1.00  0.00     0.152 C 
ENDROOT
BRANCH   1   2
ATOM      2  C   UNL     1       2.387  43.925  51.331  1.00  0.00    -0.029 A 
ATOM      3  C   UNL     1       5.131  44.366  50.857  1.00  0.00     0.118 A 
ATOM      4  C   UNL     1       4.647  43.076  51.085  1.00  0.00     0.047 A 
ATOM      5  C   UNL     1       4.237  45.439  50.861  1.00  0.00     0.047 A 
ATOM      6  C   UNL     1       3.286  42.853  51.318  1.00  0.00     0.009 A 
ATOM      7  C   UNL     1       2.876  45.218  51.095  1.00  0.00     0.009 A 
BRANCH   3   8
ATOM      8  O   UNL     1       6.479  44.442  50.643  1.00  0.00    -0.497 OA
ATOM      9  C   UNL     1       7.023  43.565  49.664  1.00  0.00     0.278 C 
ENDBRANCH   3   8
ENDBRANCH   1   2
BRANCH   1  10
ATOM     10  N   UNL     1       0.745  42.932  52.789  1.00  0.00    -0.350 N 
ATOM     11  H   UNL     1       1.467  42.238  52.949  1.00  0.00     0.164 HD
BRANCH  10  12
ATOM     12  C   UNL     1       0.703  43.708  53.940  1.00  0.00     0.227 A 
ATOM     13  N   UNL     1       1.877  44.268  54.281  1.00  0.00    -0.195 NA
ATOM     14  N   UNL     1      -0.451  43.847  54.607  1.00  0.00    -0.193 NA
ATOM     15  C   UNL     1       1.990  45.045  55.391  1.00  0.00     0.147 A 
ATOM     16  C   UNL     1      -0.327  44.615  55.699  1.00  0.00     0.165 A 
ATOM     17  C   UNL     1       0.824  45.234  56.144  1.00  0.00     0.082 A 
ATOM     18  N   UNL     1      -1.307  44.945  56.595  1.00  0.00    -0.250 N 
ATOM     19  C   UNL     1       0.423  45.916  57.312  1.00  0.00     0.149 A 
ATOM     20  N   UNL     1      -0.875  45.750  57.594  1.00  0.00    -0.179 NA
ATOM     21  C   UNL     1      -2.686  44.530  56.565  1.00  0.00     0.176 C 
BRANCH  15  22
ATOM     22  N   UNL     1       3.201  45.651  55.754  1.00  0.00    -0.339 N 
ATOM     23  H   UNL     1       3.259  45.891  56.734  1.00  0.00     0.168 HD
BRANCH  22  24
ATOM     24  C   UNL     1       4.378  45.925  55.035  1.00  0.00     0.040 A 
ATOM     25  C   UNL     1       5.459  45.042  54.937  1.00  0.00     0.026 A 
ATOM     26  C   UNL     1       4.464  47.138  54.330  1.00  0.00     0.026 A 
ATOM     27  C   UNL     1       6.592  45.363  54.181  1.00  0.00     0.002 A 
ATOM     28  C   UNL     1       5.593  47.464  53.572  1.00  0.00     0.002 A 
ATOM     29  C   UNL     1       6.659  46.574  53.499  1.00  0.00     0.000 A 
ENDBRANCH  22  24
ENDBRANCH  15  22
ENDBRANCH  10  12
ENDBRANCH   1  10
TORSDOF 6
ENDMDL
MODEL 15
REMARK VINA RESULT:    -8.559      3.754      7.140
REMARK INTER + INTRA:         -12.340
REMARK INTER:                 -11.458
REMARK INTRA:                  -0.882
REMARK UNBOUND:                -0.779
REMARK SMILES COc1ccc(CNc2nc(Nc3ccccc3)c3cnn(C)c3n2)cc1
REMARK SMILES IDX 7 1 6 2 3 3 4 4 27 5 5 6 26 7 2 8 1 9 8 10 9 12 10 13 25 14
REMARK SMILES IDX 11 15 24 16 19 17 22 18 20 19 21 20 23 21 12 22 13 24 14 25
REMARK SMILES IDX 18 26 15 27 17 28 16 29
REMARK H PARENT 8 11 12 23
ROOT
ATOM      1  C   UNL     1       5.343  41.377  50.033  1.00  0.00     0.152 C 
ENDROOT
BRANCH   1   2
ATOM      2  C   UNL     1       4.959  41.215  48.580  1.00  0.00    -0.029 A 
ATOM      3  C   UNL     1       4.250  40.944  45.865  1.00  0.00     0.118 A 
ATOM      4  C   UNL     1       3.469  40.362  46.866  1.00  0.00     0.047 A 
ATOM      5  C   UNL     1       5.387  41.669  46.224  1.00  0.00     0.047 A 
ATOM      6  C   UNL     1       3.816  40.497  48.214  1.00  0.00     0.009 A 
ATOM      7  C   UNL     1       5.737  41.804  47.572  1.00  0.00     0.009 A 
BRANCH   3   8
ATOM      8  O   UNL     1       3.796  40.736  44.592  1.00  0.00    -0.497 OA
ATOM      9  C   UNL     1       4.393  39.670  43.864  1.00  0.00     0.278 C 
ENDBRANCH   3   8
ENDBRANCH   1   2
BRANCH   1  10
ATOM     10  N   UNL     1       4.153  41.266  50.850  1.00  0.00    -0.350 N 
ATOM     11  H   UNL     1       4.251  40.650  51.650  1.00  0.00     0.164 HD
BRANCH  10  12
ATOM     12  C   UNL     1       3.704  42.478  51.357  1.00  0.00     0.227 A 
ATOM     13  N   UNL     1       4.637  43.190  52.014  1.00  0.00    -0.195 NA
ATOM     14  N   UNL     1       2.430  42.848  51.168  1.00  0.00    -0.193 NA
ATOM     15  C   UNL     1       4.339  44.392  52.574  1.00  0.00     0.147 A 
ATOM     16  C   UNL     1       2.149  44.035  51.723  1.00  0.00     0.165 A 
ATOM     17  C   UNL     1       3.023  44.846  52.420  1.00  0.00     0.082 A 
ATOM     18  N   UNL     1       0.947  44.689  51.719  1.00  0.00    -0.250 N 
ATOM     19  C   UNL     1       2.245  45.965  52.785  1.00  0.00     0.149 A 
ATOM     20  N   UNL     1       0.979  45.882  52.359  1.00  0.00    -0.179 NA
ATOM     21  C   UNL     1      -0.283  44.237  51.120  1.00  0.00     0.176 C 
BRANCH  15  22
ATOM     22  N   UNL     1       5.302  45.158  53.249  1.00  0.00    -0.339 N 
ATOM     23  H   UNL     1       5.107  45.284  54.231  1.00  0.00     0.168 HD
BRANCH  22  24
ATOM     24  C   UNL     1       6.522  45.722  52.837  1.00  0.00     0.040 A 
ATOM     25  C   UNL     1       6.933  45.813  51.503  1.00  0.00     0.026 A 
ATOM     26  C   UNL     1       7.369  46.272  53.816  1.00  0.00     0.026 A 
ATOM     27  C   UNL     1       8.149  46.412  51.157  1.00  0.00     0.002 A 
ATOM     28  C   UNL     1       8.585  46.873  53.476  1.00  0.00     0.002 A 
ATOM     29  C   UNL     1       8.975  46.942  52.143  1.00  0.00     0.000 A 
ENDBRANCH  22  24
ENDBRANCH  15  22
ENDBRANCH  10  12
ENDBRANCH   1  10
TORSDOF 6
ENDMDL
MODEL 16
REMARK VINA RESULT:    -8.555      1.729      5.191
REMARK INTER + INTRA:         -12.334
REMARK INTER:                 -11.531
REMARK INTRA:                  -0.803
REMARK UNBOUND:                -0.779
REMARK SMILES COc1ccc(CNc2nc(Nc3ccccc3)c3cnn(C)c3n2)cc1
REMARK SMILES IDX 7 1 6 2 3 3 4 4 27 5 5 6 26 7 2 8 1 9 8 10 9 12 10 13 25 14
REMARK SMILES IDX 11 15 24 16 19 17 22 18 20 19 21 20 23 21 12 22 13 24 14 25
REMARK SMILES IDX 18 26 15 27 17 28 16 29
REMARK H PARENT 8 11 12 23
ROOT
ATOM      1  C   UNL     1       1.340  43.190  52.768  1.00  0.00     0.152 C 
ENDROOT
BRANCH   1   2
ATOM      2  C   UNL     1       0.848  43.843  54.039  1.00  0.00    -0.029 A 
ATOM      3  C   UNL     1      -0.093  45.075  56.394  1.00  0.00     0.118 A 
ATOM      4  C   UNL     1       1.259  45.135  56.052  1.00  0.00     0.047 A 
ATOM      5  C   UNL     1      -0.979  44.401  55.552  1.00  0.00     0.047 A 
ATOM      6  C   UNL     1       1.730  44.528  54.884  1.00  0.00     0.009 A 
ATOM      7  C   UNL     1      -0.511  43.792  54.383  1.00  0.00     0.009 A 
BRANCH   3   8
ATOM      8  O   UNL     1      -0.417  45.711  57.560  1.00  0.00    -0.497 OA
ATOM      9  C   UNL     1      -1.445  46.691  57.493  1.00  0.00     0.278 C 
ENDBRANCH   3   8
ENDBRANCH   1   2
BRANCH   1  10
ATOM     10  N   UNL     1       2.561  42.466  53.051  1.00  0.00    -0.350 N 
ATOM     11  H   UNL     1       2.483  41.460  52.954  1.00  0.00     0.164 HD
BRANCH  10  12
ATOM     12  C   UNL     1       3.635  42.843  52.255  1.00  0.00     0.227 A 
ATOM     13  N   UNL     1       3.969  41.950  51.307  1.00  0.00    -0.195 NA
ATOM     14  N   UNL     1       4.242  44.019  52.468  1.00  0.00    -0.193 NA
ATOM     15  C   UNL     1       5.007  42.178  50.460  1.00  0.00     0.147 A 
ATOM     16  C   UNL     1       5.263  44.233  51.626  1.00  0.00     0.165 A 
ATOM     17  C   UNL     1       5.694  43.388  50.623  1.00  0.00     0.082 A 
ATOM     18  N   UNL     1       6.087  45.324  51.584  1.00  0.00    -0.250 N 
ATOM     19  C   UNL     1       6.780  44.072  50.035  1.00  0.00     0.149 A 
ATOM     20  N   UNL     1       7.025  45.254  50.611  1.00  0.00    -0.179 NA
ATOM     21  C   UNL     1       6.041  46.479  52.444  1.00  0.00     0.176 C 
BRANCH  15  22
ATOM     22  N   UNL     1       5.361  41.267  49.453  1.00  0.00    -0.339 N 
ATOM     23  H   UNL     1       6.013  40.559  49.756  1.00  0.00     0.168 HD
BRANCH  22  24
ATOM     24  C   UNL     1       4.928  41.106  48.125  1.00  0.00     0.040 A 
ATOM     25  C   UNL     1       3.800  40.368  47.754  1.00  0.00     0.026 A 
ATOM     26  C   UNL     1       5.641  41.761  47.106  1.00  0.00     0.026 A 
ATOM     27  C   UNL     1       3.405  40.270  46.414  1.00  0.00     0.002 A 
ATOM     28  C   UNL     1       5.251  41.667  45.766  1.00  0.00     0.002 A 
ATOM     29  C   UNL     1       4.131  40.919  45.420  1.00  0.00     0.000 A 
ENDBRANCH  22  24
ENDBRANCH  15  22
ENDBRANCH  10  12
ENDBRANCH   1  10
TORSDOF 6
ENDMDL
MODEL 17
REMARK VINA RESULT:    -8.450      3.310      6.849
REMARK INTER + INTRA:         -12.192
REMARK INTER:                 -11.024
REMARK INTRA:                  -1.168
REMARK UNBOUND:                -0.779
REMARK SMILES COc1ccc(CNc2nc(Nc3ccccc3)c3cnn(C)c3n2)cc1
REMARK SMILES IDX 7 1 6 2 3 3 4 4 27 5 5 6 26 7 2 8 1 9 8 10 9 12 10 13 25 14
REMARK SMILES IDX 11 15 24 16 19 17 22 18 20 19 21 20 23 21 12 22 13 24 14 25
REMARK SMILES IDX 18 26 15 27 17 28 16 29
REMARK H PARENT 8 11 12 23
ROOT
ATOM      1  C   UNL     1       1.512  43.294  51.509  1.00  0.00     0.152 C 
ENDROOT
BRANCH   1   2
ATOM      2  C   UNL     1       2.937  43.000  51.099  1.00  0.00    -0.029 A 
ATOM      3  C   UNL     1       5.592  42.423  50.348  1.00  0.00     0.118 A 
ATOM      4  C   UNL     1       5.253  43.679  50.855  1.00  0.00     0.047 A 
ATOM      5  C   UNL     1       4.600  41.450  50.222  1.00  0.00     0.047 A 
ATOM      6  C   UNL     1       3.938  43.969  51.231  1.00  0.00     0.009 A 
ATOM      7  C   UNL     1       3.283  41.737  50.596  1.00  0.00     0.009 A 
BRANCH   3   8
ATOM      8  O   UNL     1       6.911  42.274  50.022  1.00  0.00    -0.497 OA
ATOM      9  C   UNL     1       7.513  43.332  49.286  1.00  0.00     0.278 C 
ENDBRANCH   3   8
ENDBRANCH   1   2
BRANCH   1  10
ATOM     10  N   UNL     1       1.219  42.588  52.739  1.00  0.00    -0.350 N 
ATOM     11  H   UNL     1       1.911  41.892  52.996  1.00  0.00     0.164 HD
BRANCH  10  12
ATOM     12  C   UNL     1       1.086  43.417  53.845  1.00  0.00     0.227 A 
ATOM     13  N   UNL     1       2.185  44.130  54.146  1.00  0.00    -0.195 NA
ATOM     14  N   UNL     1      -0.077  43.456  54.511  1.00  0.00    -0.193 NA
ATOM     15  C   UNL     1       2.206  44.976  55.210  1.00  0.00     0.147 A 
ATOM     16  C   UNL     1      -0.044  44.294  55.556  1.00  0.00     0.165 A 
ATOM     17  C   UNL     1       1.025  45.069  55.958  1.00  0.00     0.082 A 
ATOM     18  N   UNL     1      -1.056  44.556  56.439  1.00  0.00    -0.250 N 
ATOM     19  C   UNL     1       0.546  45.763  57.090  1.00  0.00     0.149 A 
ATOM     20  N   UNL     1      -0.722  45.462  57.389  1.00  0.00    -0.179 NA
ATOM     21  C   UNL     1      -2.377  43.980  56.441  1.00  0.00     0.176 C 
BRANCH  15  22
ATOM     22  N   UNL     1       3.337  45.741  55.531  1.00  0.00    -0.339 N 
ATOM     23  H   UNL     1       3.352  46.063  56.488  1.00  0.00     0.168 HD
BRANCH  22  24
ATOM     24  C   UNL     1       4.488  46.084  54.800  1.00  0.00     0.040 A 
ATOM     25  C   UNL     1       4.549  47.143  53.888  1.00  0.00     0.026 A 
ATOM     26  C   UNL     1       5.666  45.351  55.025  1.00  0.00     0.026 A 
ATOM     27  C   UNL     1       5.736  47.450  53.212  1.00  0.00     0.002 A 
ATOM     28  C   UNL     1       6.855  45.655  54.353  1.00  0.00     0.002 A 
ATOM     29  C   UNL     1       6.888  46.706  53.444  1.00  0.00     0.000 A 
ENDBRANCH  22  24
ENDBRANCH  15  22
ENDBRANCH  10  12
ENDBRANCH   1  10
TORSDOF 6
ENDMDL
MODEL 18
REMARK VINA RESULT:    -8.439      1.529      5.260
REMARK INTER + INTRA:         -12.177
REMARK INTER:                 -11.367
REMARK INTRA:                  -0.810
REMARK UNBOUND:                -0.779
REMARK SMILES COc1ccc(CNc2nc(Nc3ccccc3)c3cnn(C)c3n2)cc1
REMARK SMILES IDX 7 1 6 2 3 3 4 4 27 5 5 6 26 7 2 8 1 9 8 10 9 12 10 13 25 14
REMARK SMILES IDX 11 15 24 16 19 17 22 18 20 19 21 20 23 21 12 22 13 24 14 25
REMARK SMILES IDX 18 26 15 27 17 28 16 29
REMARK H PARENT 8 11 12 23
ROOT
ATOM      1  C   UNL     1       1.598  43.516  52.732  1.00  0.00     0.152 C 
ENDROOT
BRANCH   1   2
ATOM      2  C   UNL     1       1.203  44.158  54.043  1.00  0.00    -0.029 A 
ATOM      3  C   UNL     1       0.494  45.344  56.500  1.00  0.00     0.118 A 
ATOM      4  C   UNL     1      -0.444  44.617  55.764  1.00  0.00     0.047 A 
ATOM      5  C   UNL     1       1.793  45.474  56.007  1.00  0.00     0.047 A 
ATOM      6  C   UNL     1      -0.095  44.024  54.547  1.00  0.00     0.009 A 
ATOM      7  C   UNL     1       2.144  44.883  54.788  1.00  0.00     0.009 A 
BRANCH   3   8
ATOM      8  O   UNL     1       0.022  45.868  57.671  1.00  0.00    -0.497 OA
ATOM      9  C   UNL     1       0.884  46.755  58.372  1.00  0.00     0.278 C 
ENDBRANCH   3   8
ENDBRANCH   1   2
BRANCH   1  10
ATOM     10  N   UNL     1       2.766  42.687  52.945  1.00  0.00    -0.350 N 
ATOM     11  H   UNL     1       2.603  41.694  52.818  1.00  0.00     0.164 HD
BRANCH  10  12
ATOM     12  C   UNL     1       3.837  43.005  52.121  1.00  0.00     0.227 A 
ATOM     13  N   UNL     1       4.110  42.086  51.178  1.00  0.00    -0.195 NA
ATOM     14  N   UNL     1       4.501  44.155  52.306  1.00  0.00    -0.193 NA
ATOM     15  C   UNL     1       5.139  42.256  50.307  1.00  0.00     0.147 A 
ATOM     16  C   UNL     1       5.512  44.312  51.440  1.00  0.00     0.165 A 
ATOM     17  C   UNL     1       5.883  43.436  50.439  1.00  0.00     0.082 A 
ATOM     18  N   UNL     1       6.383  45.364  51.366  1.00  0.00    -0.250 N 
ATOM     19  C   UNL     1       6.985  44.062  49.819  1.00  0.00     0.149 A 
ATOM     20  N   UNL     1       7.296  45.240  50.373  1.00  0.00    -0.179 NA
ATOM     21  C   UNL     1       6.408  46.531  52.211  1.00  0.00     0.176 C 
BRANCH  15  22
ATOM     22  N   UNL     1       5.430  41.318  49.305  1.00  0.00    -0.339 N 
ATOM     23  H   UNL     1       6.061  40.588  49.602  1.00  0.00     0.168 HD
BRANCH  22  24
ATOM     24  C   UNL     1       4.955  41.156  47.991  1.00  0.00     0.040 A 
ATOM     25  C   UNL     1       3.807  40.432  47.657  1.00  0.00     0.026 A 
ATOM     26  C   UNL     1       5.647  41.795  46.948  1.00  0.00     0.026 A 
ATOM     27  C   UNL     1       3.371  40.332  46.331  1.00  0.00     0.002 A 
ATOM     28  C   UNL     1       5.216  41.700  45.620  1.00  0.00     0.002 A 
ATOM     29  C   UNL     1       4.077  40.965  45.312  1.00  0.00     0.000 A 
ENDBRANCH  22  24
ENDBRANCH  15  22
ENDBRANCH  10  12
ENDBRANCH   1  10
TORSDOF 6
ENDMDL
MODEL 19
REMARK VINA RESULT:    -8.261      3.405      7.900
REMARK INTER + INTRA:         -11.938
REMARK INTER:                 -11.088
REMARK INTRA:                  -0.849
REMARK UNBOUND:                -0.779
REMARK SMILES COc1ccc(CNc2nc(Nc3ccccc3)c3cnn(C)c3n2)cc1
REMARK SMILES IDX 7 1 6 2 3 3 4 4 27 5 5 6 26 7 2 8 1 9 8 10 9 12 10 13 25 14
REMARK SMILES IDX 11 15 24 16 19 17 22 18 20 19 21 20 23 21 12 22 13 24 14 25
REMARK SMILES IDX 18 26 15 27 17 28 16 29
REMARK H PARENT 8 11 12 23
ROOT
ATOM      1  C   UNL     1       3.513  46.309  51.201  1.00  0.00     0.152 C 
ENDROOT
BRANCH   1   2
ATOM      2  C   UNL     1       4.994  46.247  51.492  1.00  0.00    -0.029 A 
ATOM      3  C   UNL     1       7.759  46.161  52.041  1.00  0.00     0.118 A 
ATOM      4  C   UNL     1       7.238  45.533  50.907  1.00  0.00     0.047 A 
ATOM      5  C   UNL     1       6.893  46.838  52.901  1.00  0.00     0.047 A 
ATOM      6  C   UNL     1       5.869  45.576  50.629  1.00  0.00     0.009 A 
ATOM      7  C   UNL     1       5.522  46.881  52.626  1.00  0.00     0.009 A 
BRANCH   3   8
ATOM      8  O   UNL     1       9.112  46.042  52.190  1.00  0.00    -0.497 OA
ATOM      9  C   UNL     1       9.769  47.065  52.928  1.00  0.00     0.278 C 
ENDBRANCH   3   8
ENDBRANCH   1   2
BRANCH   1  10
ATOM     10  N   UNL     1       2.834  46.905  52.333  1.00  0.00    -0.350 N 
ATOM     11  H   UNL     1       2.325  47.755  52.116  1.00  0.00     0.164 HD
BRANCH  10  12
ATOM     12  C   UNL     1       1.919  46.060  52.948  1.00  0.00     0.227 A 
ATOM     13  N   UNL     1       1.955  46.079  54.292  1.00  0.00    -0.195 NA
ATOM     14  N   UNL     1       1.094  45.315  52.199  1.00  0.00    -0.193 NA
ATOM     15  C   UNL     1       1.124  45.294  55.028  1.00  0.00     0.147 A 
ATOM     16  C   UNL     1       0.280  44.547  52.936  1.00  0.00     0.165 A 
ATOM     17  C   UNL     1       0.232  44.484  54.315  1.00  0.00     0.082 A 
ATOM     18  N   UNL     1      -0.668  43.671  52.483  1.00  0.00    -0.250 N 
ATOM     19  C   UNL     1      -0.784  43.542  54.585  1.00  0.00     0.149 A 
ATOM     20  N   UNL     1      -1.342  43.044  53.476  1.00  0.00    -0.179 NA
ATOM     21  C   UNL     1      -0.992  43.377  51.110  1.00  0.00     0.176 C 
BRANCH  15  22
ATOM     22  N   UNL     1       1.134  45.312  56.431  1.00  0.00    -0.339 N 
ATOM     23  H   UNL     1       1.712  44.593  56.843  1.00  0.00     0.168 HD
BRANCH  22  24
ATOM     24  C   UNL     1       0.553  46.180  57.372  1.00  0.00     0.040 A 
ATOM     25  C   UNL     1       1.237  46.720  58.466  1.00  0.00     0.026 A 
ATOM     26  C   UNL     1      -0.785  46.569  57.186  1.00  0.00     0.026 A 
ATOM     27  C   UNL     1       0.608  47.602  59.352  1.00  0.00     0.002 A 
ATOM     28  C   UNL     1      -1.418  47.451  58.068  1.00  0.00     0.002 A 
ATOM     29  C   UNL     1      -0.720  47.967  59.154  1.00  0.00     0.000 A 
ENDBRANCH  22  24
ENDBRANCH  15  22
ENDBRANCH  10  12
ENDBRANCH   1  10
TORSDOF 6
ENDMDL
