MODEL 1
REMARK VINA RESULT:    -8.548      0.000      0.000
REMARK INTER + INTRA:         -13.072
REMARK INTER:                 -12.046
REMARK INTRA:                  -1.027
REMARK UNBOUND:                -1.027
REMARK SMILES COCCCNc1nc(Nc2cc(F)ccc2F)c2cnn(C)c2n1
REMARK SMILES IDX 5 1 4 2 3 3 2 4 1 5 6 6 7 8 8 9 25 10 9 11 24 12 19 13 22 14
REMARK SMILES IDX 20 15 21 16 23 17 10 18 11 20 12 21 17 22 13 23 16 24 15 25
REMARK SMILES IDX 18 26 14 27
REMARK H PARENT 6 7 10 19
ROOT
ATOM      1  C   UNL     1       1.648  43.425  52.607  1.00  0.00     0.118 C 
ENDROOT
BRANCH   1   2
ATOM      2  C   UNL     1       0.858  43.986  53.791  1.00  0.00     0.050 C 
BRANCH   2   3
ATOM      3  C   UNL     1       1.495  45.255  54.347  1.00  0.00     0.161 C 
BRANCH   3   4
ATOM      4  O   UNL     1       2.538  44.974  55.278  1.00  0.00    -0.385 OA
ATOM      5  C   UNL     1       3.467  46.041  55.420  1.00  0.00     0.194 C 
ENDBRANCH   3   4
ENDBRANCH   2   3
ENDBRANCH   1   2
BRANCH   1   6
ATOM      6  N   UNL     1       2.954  42.985  53.077  1.00  0.00    -0.354 N 
ATOM      7  H   UNL     1       3.069  41.980  53.147  1.00  0.00     0.163 HD
BRANCH   6   8
ATOM      8  C   UNL     1       4.023  43.422  52.299  1.00  0.00     0.226 A 
ATOM      9  N   UNL     1       4.612  44.600  52.580  1.00  0.00    -0.195 NA
ATOM     10  N   UNL     1       4.367  42.590  51.307  1.00  0.00    -0.193 NA
ATOM     11  C   UNL     1       5.671  45.024  51.845  1.00  0.00     0.147 A 
ATOM     12  C   UNL     1       5.398  43.047  50.579  1.00  0.00     0.165 A 
ATOM     13  C   UNL     1       6.083  44.229  50.776  1.00  0.00     0.082 A 
ATOM     14  N   UNL     1       5.983  42.450  49.496  1.00  0.00    -0.250 N 
ATOM     15  C   UNL     1       7.040  44.257  49.741  1.00  0.00     0.149 A 
ATOM     16  N   UNL     1       6.987  43.176  48.952  1.00  0.00    -0.179 NA
ATOM     17  C   UNL     1       5.627  41.182  48.909  1.00  0.00     0.176 C 
BRANCH  11  18
ATOM     18  N   UNL     1       6.220  46.271  52.192  1.00  0.00    -0.337 N 
ATOM     19  H   UNL     1       5.491  46.741  52.730  1.00  0.00     0.168 HD
BRANCH  18  20
ATOM     20  C   UNL     1       7.489  46.509  52.770  1.00  0.00     0.079 A 
ATOM     21  C   UNL     1       8.618  46.388  51.951  1.00  0.00     0.068 A 
ATOM     22  C   UNL     1       7.678  46.972  54.085  1.00  0.00     0.146 A 
ATOM     23  C   UNL     1       9.887  46.664  52.455  1.00  0.00     0.125 A 
ATOM     24  C   UNL     1       8.951  47.247  54.587  1.00  0.00     0.044 A 
ATOM     25  C   UNL     1      10.065  47.087  53.767  1.00  0.00     0.042 A 
ATOM     26  F   UNL     1       6.629  47.180  54.892  1.00  0.00    -0.205 F 
ATOM     27  F   UNL     1      10.955  46.525  51.660  1.00  0.00    -0.207 F 
ENDBRANCH  18  20
ENDBRANCH  11  18
ENDBRANCH   6   8
ENDBRANCH   1   6
TORSDOF 7
ENDMDL
MODEL 2
REMARK VINA RESULT:    -8.501      1.156      1.682
REMARK INTER + INTRA:         -13.006
REMARK INTER:                 -11.783
REMARK INTRA:                  -1.223
REMARK UNBOUND:                -1.027
REMARK SMILES COCCCNc1nc(Nc2cc(F)ccc2F)c2cnn(C)c2n1
REMARK SMILES IDX 5 1 4 2 3 3 2 4 1 5 6 6 7 8 8 9 25 10 9 11 24 12 19 13 22 14
REMARK SMILES IDX 20 15 21 16 23 17 10 18 11 20 12 21 17 22 13 23 16 24 15 25
REMARK SMILES IDX 18 26 14 27
REMARK H PARENT 6 7 10 19
ROOT
ATOM      1  C   UNL     1       2.287  45.304  54.730  1.00  0.00     0.118 C 
ENDROOT
BRANCH   1   2
ATOM      2  C   UNL     1       0.790  45.319  55.045  1.00  0.00     0.050 C 
BRANCH   2   3
ATOM      3  C   UNL     1      -0.036  44.745  53.898  1.00  0.00     0.161 C 
BRANCH   3   4
ATOM      4  O   UNL     1       0.266  45.368  52.651  1.00  0.00    -0.385 OA
ATOM      5  C   UNL     1      -0.005  44.538  51.529  1.00  0.00     0.194 C 
ENDBRANCH   3   4
ENDBRANCH   2   3
ENDBRANCH   1   2
BRANCH   1   6
ATOM      6  N   UNL     1       2.614  44.058  54.053  1.00  0.00    -0.354 N 
ATOM      7  H   UNL     1       1.843  43.621  53.560  1.00  0.00     0.163 HD
BRANCH   6   8
ATOM      8  C   UNL     1       3.636  44.165  53.113  1.00  0.00     0.226 A 
ATOM      9  N   UNL     1       4.431  45.252  53.115  1.00  0.00    -0.195 NA
ATOM     10  N   UNL     1       3.722  43.132  52.264  1.00  0.00    -0.193 NA
ATOM     11  C   UNL     1       5.445  45.356  52.220  1.00  0.00     0.147 A 
ATOM     12  C   UNL     1       4.716  43.273  51.373  1.00  0.00     0.165 A 
ATOM     13  C   UNL     1       5.596  44.333  51.283  1.00  0.00     0.082 A 
ATOM     14  N   UNL     1       5.064  42.411  50.370  1.00  0.00    -0.250 N 
ATOM     15  C   UNL     1       6.412  44.020  50.177  1.00  0.00     0.149 A 
ATOM     16  N   UNL     1       6.095  42.849  49.611  1.00  0.00    -0.179 NA
ATOM     17  C   UNL     1       4.447  41.145  50.063  1.00  0.00     0.176 C 
BRANCH  11  18
ATOM     18  N   UNL     1       6.221  46.527  52.279  1.00  0.00    -0.337 N 
ATOM     19  H   UNL     1       5.602  47.234  52.677  1.00  0.00     0.168 HD
BRANCH  18  20
ATOM     20  C   UNL     1       7.524  46.658  52.812  1.00  0.00     0.079 A 
ATOM     21  C   UNL     1       8.610  46.468  51.948  1.00  0.00     0.068 A 
ATOM     22  C   UNL     1       7.796  47.080  54.126  1.00  0.00     0.146 A 
ATOM     23  C   UNL     1       9.914  46.638  52.407  1.00  0.00     0.125 A 
ATOM     24  C   UNL     1       9.104  47.249  54.583  1.00  0.00     0.044 A 
ATOM     25  C   UNL     1      10.172  47.021  53.719  1.00  0.00     0.042 A 
ATOM     26  F   UNL     1       6.796  47.351  54.976  1.00  0.00    -0.205 F 
ATOM     27  F   UNL     1      10.938  46.435  51.570  1.00  0.00    -0.207 F 
ENDBRANCH  18  20
ENDBRANCH  11  18
ENDBRANCH   6   8
ENDBRANCH   1   6
TORSDOF 7
ENDMDL
MODEL 3
REMARK VINA RESULT:    -8.496      2.566      5.553
REMARK INTER + INTRA:         -12.999
REMARK INTER:                 -11.971
REMARK INTRA:                  -1.029
REMARK UNBOUND:                -1.027
REMARK SMILES COCCCNc1nc(Nc2cc(F)ccc2F)c2cnn(C)c2n1
REMARK SMILES IDX 5 1 4 2 3 3 2 4 1 5 6 6 7 8 8 9 25 10 9 11 24 12 19 13 22 14
REMARK SMILES IDX 20 15 21 16 23 17 10 18 11 20 12 21 17 22 13 23 16 24 15 25
REMARK SMILES IDX 18 26 14 27
REMARK H PARENT 6 7 10 19
ROOT
ATOM      1  C   UNL     1       4.212  45.828  55.456  1.00  0.00     0.118 C 
ENDROOT
BRANCH   1   2
ATOM      2  C   UNL     1       2.692  45.935  55.322  1.00  0.00     0.050 C 
BRANCH   2   3
ATOM      3  C   UNL     1       2.229  45.663  53.894  1.00  0.00     0.161 C 
BRANCH   3   4
ATOM      4  O   UNL     1       2.382  46.803  53.050  1.00  0.00    -0.385 OA
ATOM      5  C   UNL     1       2.630  46.467  51.691  1.00  0.00     0.194 C 
ENDBRANCH   3   4
ENDBRANCH   2   3
ENDBRANCH   1   2
BRANCH   1   6
ATOM      6  N   UNL     1       4.818  47.042  54.928  1.00  0.00    -0.354 N 
ATOM      7  H   UNL     1       5.134  47.705  55.628  1.00  0.00     0.163 HD
BRANCH   6   8
ATOM      8  C   UNL     1       5.922  46.825  54.107  1.00  0.00     0.226 A 
ATOM      9  N   UNL     1       5.744  46.306  52.877  1.00  0.00    -0.195 NA
ATOM     10  N   UNL     1       7.097  47.166  54.651  1.00  0.00    -0.193 NA
ATOM     11  C   UNL     1       6.808  46.114  52.059  1.00  0.00     0.147 A 
ATOM     12  C   UNL     1       8.135  46.940  53.832  1.00  0.00     0.165 A 
ATOM     13  C   UNL     1       8.076  46.422  52.553  1.00  0.00     0.082 A 
ATOM     14  N   UNL     1       9.461  47.165  54.083  1.00  0.00    -0.250 N 
ATOM     15  C   UNL     1       9.421  46.353  52.139  1.00  0.00     0.149 A 
ATOM     16  N   UNL     1      10.276  46.802  53.066  1.00  0.00    -0.179 NA
ATOM     17  C   UNL     1      10.032  47.717  55.286  1.00  0.00     0.176 C 
BRANCH  11  18
ATOM     18  N   UNL     1       6.541  45.555  50.796  1.00  0.00    -0.337 N 
ATOM     19  H   UNL     1       7.309  45.866  50.201  1.00  0.00     0.168 HD
BRANCH  18  20
ATOM     20  C   UNL     1       6.216  44.207  50.515  1.00  0.00     0.079 A 
ATOM     21  C   UNL     1       5.051  43.679  51.085  1.00  0.00     0.068 A 
ATOM     22  C   UNL     1       6.927  43.401  49.608  1.00  0.00     0.146 A 
ATOM     23  C   UNL     1       4.655  42.374  50.798  1.00  0.00     0.125 A 
ATOM     24  C   UNL     1       6.528  42.095  49.323  1.00  0.00     0.044 A 
ATOM     25  C   UNL     1       5.386  41.575  49.927  1.00  0.00     0.042 A 
ATOM     26  F   UNL     1       8.007  43.878  48.973  1.00  0.00    -0.205 F 
ATOM     27  F   UNL     1       3.547  41.883  51.367  1.00  0.00    -0.207 F 
ENDBRANCH  18  20
ENDBRANCH  11  18
ENDBRANCH   6   8
ENDBRANCH   1   6
TORSDOF 7
ENDMDL
MODEL 4
REMARK VINA RESULT:    -8.486      1.143      1.255
REMARK INTER + INTRA:         -12.986
REMARK INTER:                 -11.907
REMARK INTRA:                  -1.079
REMARK UNBOUND:                -1.027
REMARK SMILES COCCCNc1nc(Nc2cc(F)ccc2F)c2cnn(C)c2n1
REMARK SMILES IDX 5 1 4 2 3 3 2 4 1 5 6 6 7 8 8 9 25 10 9 11 24 12 19 13 22 14
REMARK SMILES IDX 20 15 21 16 23 17 10 18 11 20 12 21 17 22 13 23 16 24 15 25
REMARK SMILES IDX 18 26 14 27
REMARK H PARENT 6 7 10 19
ROOT
ATOM      1  C   UNL     1       1.342  43.460  53.767  1.00  0.00     0.118 C 
ENDROOT
BRANCH   1   2
ATOM      2  C   UNL     1       0.107  44.142  54.360  1.00  0.00     0.050 C 
BRANCH   2   3
ATOM      3  C   UNL     1       0.483  45.337  55.230  1.00  0.00     0.161 C 
BRANCH   3   4
ATOM      4  O   UNL     1       0.861  44.947  56.549  1.00  0.00    -0.385 OA
ATOM      5  C   UNL     1       0.833  46.020  57.482  1.00  0.00     0.194 C 
ENDBRANCH   3   4
ENDBRANCH   2   3
ENDBRANCH   1   2
BRANCH   1   6
ATOM      6  N   UNL     1       2.531  44.183  54.194  1.00  0.00    -0.354 N 
ATOM      7  H   UNL     1       2.982  43.816  55.025  1.00  0.00     0.163 HD
BRANCH   6   8
ATOM      8  C   UNL     1       3.537  44.256  53.234  1.00  0.00     0.226 A 
ATOM      9  N   UNL     1       4.346  45.331  53.197  1.00  0.00    -0.195 NA
ATOM     10  N   UNL     1       3.595  43.203  52.407  1.00  0.00    -0.193 NA
ATOM     11  C   UNL     1       5.345  45.401  52.283  1.00  0.00     0.147 A 
ATOM     12  C   UNL     1       4.573  43.310  51.495  1.00  0.00     0.165 A 
ATOM     13  C   UNL     1       5.465  44.356  51.366  1.00  0.00     0.082 A 
ATOM     14  N   UNL     1       4.892  42.421  50.506  1.00  0.00    -0.250 N 
ATOM     15  C   UNL     1       6.257  44.008  50.253  1.00  0.00     0.149 A 
ATOM     16  N   UNL     1       5.915  42.829  49.719  1.00  0.00    -0.179 NA
ATOM     17  C   UNL     1       4.253  41.157  50.238  1.00  0.00     0.176 C 
BRANCH  11  18
ATOM     18  N   UNL     1       6.137  46.563  52.301  1.00  0.00    -0.337 N 
ATOM     19  H   UNL     1       5.525  47.295  52.664  1.00  0.00     0.168 HD
BRANCH  18  20
ATOM     20  C   UNL     1       7.437  46.698  52.841  1.00  0.00     0.079 A 
ATOM     21  C   UNL     1       8.528  46.490  51.987  1.00  0.00     0.068 A 
ATOM     22  C   UNL     1       7.702  47.139  54.150  1.00  0.00     0.146 A 
ATOM     23  C   UNL     1       9.830  46.662  52.453  1.00  0.00     0.125 A 
ATOM     24  C   UNL     1       9.007  47.310  54.614  1.00  0.00     0.044 A 
ATOM     25  C   UNL     1      10.080  47.065  53.760  1.00  0.00     0.042 A 
ATOM     26  F   UNL     1       6.697  47.427  54.989  1.00  0.00    -0.205 F 
ATOM     27  F   UNL     1      10.859  46.442  51.626  1.00  0.00    -0.207 F 
ENDBRANCH  18  20
ENDBRANCH  11  18
ENDBRANCH   6   8
ENDBRANCH   1   6
TORSDOF 7
ENDMDL
MODEL 5
REMARK VINA RESULT:    -8.406      1.443      2.423
REMARK INTER + INTRA:         -12.872
REMARK INTER:                 -11.699
REMARK INTRA:                  -1.173
REMARK UNBOUND:                -1.027
REMARK SMILES COCCCNc1nc(Nc2cc(F)ccc2F)c2cnn(C)c2n1
REMARK SMILES IDX 5 1 4 2 3 3 2 4 1 5 6 6 7 8 8 9 25 10 9 11 24 12 19 13 22 14
REMARK SMILES IDX 20 15 21 16 23 17 10 18 11 20 12 21 17 22 13 23 16 24 15 25
REMARK SMILES IDX 18 26 14 27
REMARK H PARENT 6 7 10 19
ROOT
ATOM      1  C   UNL     1       1.920  45.583  54.242  1.00  0.00     0.118 C 
ENDROOT
BRANCH   1   2
ATOM      2  C   UNL     1       0.776  45.254  55.205  1.00  0.00     0.050 C 
BRANCH   2   3
ATOM      3  C   UNL     1      -0.195  44.242  54.605  1.00  0.00     0.161 C 
BRANCH   3   4
ATOM      4  O   UNL     1       0.275  43.709  53.369  1.00  0.00    -0.385 OA
ATOM      5  C   UNL     1       0.131  42.297  53.275  1.00  0.00     0.194 C 
ENDBRANCH   3   4
ENDBRANCH   2   3
ENDBRANCH   1   2
BRANCH   1   6
ATOM      6  N   UNL     1       2.952  44.565  54.370  1.00  0.00    -0.354 N 
ATOM      7  H   UNL     1       2.611  43.616  54.478  1.00  0.00     0.163 HD
BRANCH   6   8
ATOM      8  C   UNL     1       3.845  44.514  53.303  1.00  0.00     0.226 A 
ATOM      9  N   UNL     1       4.676  45.549  53.080  1.00  0.00    -0.195 NA
ATOM     10  N   UNL     1       3.779  43.391  52.575  1.00  0.00    -0.193 NA
ATOM     11  C   UNL     1       5.568  45.499  52.058  1.00  0.00     0.147 A 
ATOM     12  C   UNL     1       4.651  43.379  51.556  1.00  0.00     0.165 A 
ATOM     13  C   UNL     1       5.553  44.374  51.234  1.00  0.00     0.082 A 
ATOM     14  N   UNL     1       4.831  42.395  50.623  1.00  0.00    -0.250 N 
ATOM     15  C   UNL     1       6.204  43.898  50.078  1.00  0.00     0.149 A 
ATOM     16  N   UNL     1       5.770  42.691  49.695  1.00  0.00    -0.179 NA
ATOM     17  C   UNL     1       4.129  41.138  50.544  1.00  0.00     0.176 C 
BRANCH  11  18
ATOM     18  N   UNL     1       6.390  46.627  51.883  1.00  0.00    -0.337 N 
ATOM     19  H   UNL     1       5.803  47.423  52.134  1.00  0.00     0.168 HD
BRANCH  18  20
ATOM     20  C   UNL     1       7.702  46.807  52.378  1.00  0.00     0.079 A 
ATOM     21  C   UNL     1       7.859  47.479  53.596  1.00  0.00     0.068 A 
ATOM     22  C   UNL     1       8.849  46.253  51.781  1.00  0.00     0.146 A 
ATOM     23  C   UNL     1       9.125  47.637  54.156  1.00  0.00     0.125 A 
ATOM     24  C   UNL     1      10.116  46.413  52.344  1.00  0.00     0.044 A 
ATOM     25  C   UNL     1      10.256  47.115  53.539  1.00  0.00     0.042 A 
ATOM     26  F   UNL     1       8.752  45.534  50.654  1.00  0.00    -0.205 F 
ATOM     27  F   UNL     1       9.255  48.298  55.313  1.00  0.00    -0.207 F 
ENDBRANCH  18  20
ENDBRANCH  11  18
ENDBRANCH   6   8
ENDBRANCH   1   6
TORSDOF 7
ENDMDL
MODEL 6
REMARK VINA RESULT:    -8.332      1.485      2.192
REMARK INTER + INTRA:         -12.768
REMARK INTER:                 -11.763
REMARK INTRA:                  -1.004
REMARK UNBOUND:                -1.027
REMARK SMILES COCCCNc1nc(Nc2cc(F)ccc2F)c2cnn(C)c2n1
REMARK SMILES IDX 5 1 4 2 3 3 2 4 1 5 6 6 7 8 8 9 25 10 9 11 24 12 19 13 22 14
REMARK SMILES IDX 20 15 21 16 23 17 10 18 11 20 12 21 17 22 13 23 16 24 15 25
REMARK SMILES IDX 18 26 14 27
REMARK H PARENT 6 7 10 19
ROOT
ATOM      1  C   UNL     1       1.822  45.625  54.065  1.00  0.00     0.118 C 
ENDROOT
BRANCH   1   2
ATOM      2  C   UNL     1       0.477  44.990  54.426  1.00  0.00     0.050 C 
BRANCH   2   3
ATOM      3  C   UNL     1       0.190  45.085  55.921  1.00  0.00     0.161 C 
BRANCH   3   4
ATOM      4  O   UNL     1       1.285  45.638  56.647  1.00  0.00    -0.385 OA
ATOM      5  C   UNL     1       0.884  46.353  57.810  1.00  0.00     0.194 C 
ENDBRANCH   3   4
ENDBRANCH   2   3
ENDBRANCH   1   2
BRANCH   1   6
ATOM      6  N   UNL     1       2.876  44.639  54.257  1.00  0.00    -0.354 N 
ATOM      7  H   UNL     1       2.556  43.685  54.379  1.00  0.00     0.163 HD
BRANCH   6   8
ATOM      8  C   UNL     1       3.806  44.583  53.222  1.00  0.00     0.226 A 
ATOM      9  N   UNL     1       4.644  45.618  53.023  1.00  0.00    -0.195 NA
ATOM     10  N   UNL     1       3.767  43.456  52.499  1.00  0.00    -0.193 NA
ATOM     11  C   UNL     1       5.572  45.563  52.035  1.00  0.00     0.147 A 
ATOM     12  C   UNL     1       4.676  43.440  51.511  1.00  0.00     0.165 A 
ATOM     13  C   UNL     1       5.588  44.433  51.217  1.00  0.00     0.082 A 
ATOM     14  N   UNL     1       4.889  42.450  50.591  1.00  0.00    -0.250 N 
ATOM     15  C   UNL     1       6.280  43.952  50.087  1.00  0.00     0.149 A 
ATOM     16  N   UNL     1       5.861  42.742  49.695  1.00  0.00    -0.179 NA
ATOM     17  C   UNL     1       4.192  41.192  50.494  1.00  0.00     0.176 C 
BRANCH  11  18
ATOM     18  N   UNL     1       6.399  46.690  51.883  1.00  0.00    -0.337 N 
ATOM     19  H   UNL     1       5.807  47.487  52.120  1.00  0.00     0.168 HD
BRANCH  18  20
ATOM     20  C   UNL     1       7.698  46.869  52.412  1.00  0.00     0.079 A 
ATOM     21  C   UNL     1       7.824  47.545  53.632  1.00  0.00     0.068 A 
ATOM     22  C   UNL     1       8.859  46.310  51.848  1.00  0.00     0.146 A 
ATOM     23  C   UNL     1       9.075  47.701  54.226  1.00  0.00     0.125 A 
ATOM     24  C   UNL     1      10.111  46.468  52.445  1.00  0.00     0.044 A 
ATOM     25  C   UNL     1      10.220  47.174  53.640  1.00  0.00     0.042 A 
ATOM     26  F   UNL     1       8.790  45.587  50.722  1.00  0.00    -0.205 F 
ATOM     27  F   UNL     1       9.175  48.366  55.383  1.00  0.00    -0.207 F 
ENDBRANCH  18  20
ENDBRANCH  11  18
ENDBRANCH   6   8
ENDBRANCH   1   6
TORSDOF 7
ENDMDL
MODEL 7
REMARK VINA RESULT:    -8.125      2.029      4.395
REMARK INTER + INTRA:         -12.476
REMARK INTER:                 -11.246
REMARK INTRA:                  -1.230
REMARK UNBOUND:                -1.027
REMARK SMILES COCCCNc1nc(Nc2cc(F)ccc2F)c2cnn(C)c2n1
REMARK SMILES IDX 5 1 4 2 3 3 2 4 1 5 6 6 7 8 8 9 25 10 9 11 24 12 19 13 22 14
REMARK SMILES IDX 20 15 21 16 23 17 10 18 11 20 12 21 17 22 13 23 16 24 15 25
REMARK SMILES IDX 18 26 14 27
REMARK H PARENT 6 7 10 19
ROOT
ATOM      1  C   UNL     1       3.943  41.430  50.132  1.00  0.00     0.118 C 
ENDROOT
BRANCH   1   2
ATOM      2  C   UNL     1       4.783  41.162  48.882  1.00  0.00     0.050 C 
BRANCH   2   3
ATOM      3  C   UNL     1       6.244  41.552  49.087  1.00  0.00     0.161 C 
BRANCH   3   4
ATOM      4  O   UNL     1       6.517  42.878  48.641  1.00  0.00    -0.385 OA
ATOM      5  C   UNL     1       7.694  43.432  49.216  1.00  0.00     0.194 C 
ENDBRANCH   3   4
ENDBRANCH   2   3
ENDBRANCH   1   2
BRANCH   1   6
ATOM      6  N   UNL     1       4.824  41.849  51.212  1.00  0.00    -0.354 N 
ATOM      7  H   UNL     1       5.806  41.915  50.966  1.00  0.00     0.163 HD
BRANCH   6   8
ATOM      8  C   UNL     1       4.504  43.084  51.770  1.00  0.00     0.226 A 
ATOM      9  N   UNL     1       5.327  44.133  51.582  1.00  0.00    -0.195 NA
ATOM     10  N   UNL     1       3.361  43.100  52.469  1.00  0.00    -0.193 NA
ATOM     11  C   UNL     1       5.013  45.347  52.099  1.00  0.00     0.147 A 
ATOM     12  C   UNL     1       3.088  44.305  52.992  1.00  0.00     0.165 A 
ATOM     13  C   UNL     1       3.849  45.450  52.862  1.00  0.00     0.082 A 
ATOM     14  N   UNL     1       2.013  44.656  53.762  1.00  0.00    -0.250 N 
ATOM     15  C   UNL     1       3.156  46.420  53.613  1.00  0.00     0.149 A 
ATOM     16  N   UNL     1       2.034  45.946  54.169  1.00  0.00    -0.179 NA
ATOM     17  C   UNL     1       0.923  43.804  54.166  1.00  0.00     0.176 C 
BRANCH  11  18
ATOM     18  N   UNL     1       5.931  46.387  51.872  1.00  0.00    -0.337 N 
ATOM     19  H   UNL     1       5.394  47.246  51.993  1.00  0.00     0.168 HD
BRANCH  18  20
ATOM     20  C   UNL     1       7.217  46.526  52.444  1.00  0.00     0.079 A 
ATOM     21  C   UNL     1       8.329  46.378  51.607  1.00  0.00     0.068 A 
ATOM     22  C   UNL     1       7.445  46.918  53.776  1.00  0.00     0.146 A 
ATOM     23  C   UNL     1       9.617  46.558  52.107  1.00  0.00     0.125 A 
ATOM     24  C   UNL     1       8.736  47.097  54.274  1.00  0.00     0.044 A 
ATOM     25  C   UNL     1       9.831  46.910  53.435  1.00  0.00     0.042 A 
ATOM     26  F   UNL     1       6.417  47.149  54.604  1.00  0.00    -0.205 F 
ATOM     27  F   UNL     1      10.668  46.394  51.294  1.00  0.00    -0.207 F 
ENDBRANCH  18  20
ENDBRANCH  11  18
ENDBRANCH   6   8
ENDBRANCH   1   6
TORSDOF 7
ENDMDL
MODEL 8
REMARK VINA RESULT:    -8.109      2.443      4.595
REMARK INTER + INTRA:         -12.453
REMARK INTER:                 -11.553
REMARK INTRA:                  -0.901
REMARK UNBOUND:                -1.027
REMARK SMILES COCCCNc1nc(Nc2cc(F)ccc2F)c2cnn(C)c2n1
REMARK SMILES IDX 5 1 4 2 3 3 2 4 1 5 6 6 7 8 8 9 25 10 9 11 24 12 19 13 22 14
REMARK SMILES IDX 20 15 21 16 23 17 10 18 11 20 12 21 17 22 13 23 16 24 15 25
REMARK SMILES IDX 18 26 14 27
REMARK H PARENT 6 7 10 19
ROOT
ATOM      1  C   UNL     1       5.729  41.724  50.078  1.00  0.00     0.118 C 
ENDROOT
BRANCH   1   2
ATOM      2  C   UNL     1       5.148  41.142  48.787  1.00  0.00     0.050 C 
BRANCH   2   3
ATOM      3  C   UNL     1       3.758  40.553  49.007  1.00  0.00     0.161 C 
BRANCH   3   4
ATOM      4  O   UNL     1       3.232  39.954  47.825  1.00  0.00    -0.385 OA
ATOM      5  C   UNL     1       3.684  40.578  46.629  1.00  0.00     0.194 C 
ENDBRANCH   3   4
ENDBRANCH   2   3
ENDBRANCH   1   2
BRANCH   1   6
ATOM      6  N   UNL     1       4.639  42.008  51.000  1.00  0.00    -0.354 N 
ATOM      7  H   UNL     1       4.723  41.575  51.913  1.00  0.00     0.163 HD
BRANCH   6   8
ATOM      8  C   UNL     1       4.440  43.363  51.255  1.00  0.00     0.226 A 
ATOM      9  N   UNL     1       5.460  44.227  51.098  1.00  0.00    -0.195 NA
ATOM     10  N   UNL     1       3.200  43.678  51.652  1.00  0.00    -0.193 NA
ATOM     11  C   UNL     1       5.272  45.552  51.319  1.00  0.00     0.147 A 
ATOM     12  C   UNL     1       3.048  44.990  51.891  1.00  0.00     0.165 A 
ATOM     13  C   UNL     1       4.014  45.967  51.757  1.00  0.00     0.082 A 
ATOM     14  N   UNL     1       1.919  45.635  52.317  1.00  0.00    -0.250 N 
ATOM     15  C   UNL     1       3.369  47.156  52.154  1.00  0.00     0.149 A 
ATOM     16  N   UNL     1       2.090  46.965  52.500  1.00  0.00    -0.179 NA
ATOM     17  C   UNL     1       0.633  45.043  52.587  1.00  0.00     0.176 C 
BRANCH  11  18
ATOM     18  N   UNL     1       6.391  46.386  51.146  1.00  0.00    -0.337 N 
ATOM     19  H   UNL     1       6.004  47.305  50.931  1.00  0.00     0.168 HD
BRANCH  18  20
ATOM     20  C   UNL     1       7.501  46.509  52.014  1.00  0.00     0.079 A 
ATOM     21  C   UNL     1       8.775  46.255  51.491  1.00  0.00     0.068 A 
ATOM     22  C   UNL     1       7.415  46.982  53.336  1.00  0.00     0.146 A 
ATOM     23  C   UNL     1       9.907  46.414  52.287  1.00  0.00     0.125 A 
ATOM     24  C   UNL     1       8.551  47.140  54.131  1.00  0.00     0.044 A 
ATOM     25  C   UNL     1       9.807  46.848  53.604  1.00  0.00     0.042 A 
ATOM     26  F   UNL     1       6.230  47.314  53.866  1.00  0.00    -0.205 F 
ATOM     27  F   UNL     1      11.115  46.150  51.773  1.00  0.00    -0.207 F 
ENDBRANCH  18  20
ENDBRANCH  11  18
ENDBRANCH   6   8
ENDBRANCH   1   6
TORSDOF 7
ENDMDL
MODEL 9
REMARK VINA RESULT:    -7.983      2.257      4.678
REMARK INTER + INTRA:         -12.276
REMARK INTER:                 -11.114
REMARK INTRA:                  -1.162
REMARK UNBOUND:                -1.027
REMARK SMILES COCCCNc1nc(Nc2cc(F)ccc2F)c2cnn(C)c2n1
REMARK SMILES IDX 5 1 4 2 3 3 2 4 1 5 6 6 7 8 8 9 25 10 9 11 24 12 19 13 22 14
REMARK SMILES IDX 20 15 21 16 23 17 10 18 11 20 12 21 17 22 13 23 16 24 15 25
REMARK SMILES IDX 18 26 14 27
REMARK H PARENT 6 7 10 19
ROOT
ATOM      1  C   UNL     1       3.289  41.939  50.450  1.00  0.00     0.118 C 
ENDROOT
BRANCH   1   2
ATOM      2  C   UNL     1       3.784  40.803  49.553  1.00  0.00     0.050 C 
BRANCH   2   3
ATOM      3  C   UNL     1       5.043  41.194  48.786  1.00  0.00     0.161 C 
BRANCH   3   4
ATOM      4  O   UNL     1       6.145  41.454  49.653  1.00  0.00    -0.385 OA
ATOM      5  C   UNL     1       6.940  42.557  49.236  1.00  0.00     0.194 C 
ENDBRANCH   3   4
ENDBRANCH   2   3
ENDBRANCH   1   2
BRANCH   1   6
ATOM      6  N   UNL     1       4.183  42.062  51.593  1.00  0.00    -0.354 N 
ATOM      7  H   UNL     1       5.144  41.786  51.419  1.00  0.00     0.163 HD
BRANCH   6   8
ATOM      8  C   UNL     1       4.261  43.345  52.128  1.00  0.00     0.226 A 
ATOM      9  N   UNL     1       5.144  44.225  51.618  1.00  0.00    -0.195 NA
ATOM     10  N   UNL     1       3.416  43.580  53.140  1.00  0.00    -0.193 NA
ATOM     11  C   UNL     1       5.211  45.486  52.113  1.00  0.00     0.147 A 
ATOM     12  C   UNL     1       3.523  44.825  53.629  1.00  0.00     0.165 A 
ATOM     13  C   UNL     1       4.380  45.812  53.186  1.00  0.00     0.082 A 
ATOM     14  N   UNL     1       2.818  45.377  54.663  1.00  0.00    -0.250 N 
ATOM     15  C   UNL     1       4.129  46.905  54.038  1.00  0.00     0.149 A 
ATOM     16  N   UNL     1       3.178  46.651  54.946  1.00  0.00    -0.179 NA
ATOM     17  C   UNL     1       1.787  44.743  55.445  1.00  0.00     0.176 C 
BRANCH  11  18
ATOM     18  N   UNL     1       6.169  46.340  51.537  1.00  0.00    -0.337 N 
ATOM     19  H   UNL     1       5.684  47.228  51.404  1.00  0.00     0.168 HD
BRANCH  18  20
ATOM     20  C   UNL     1       7.490  46.564  51.989  1.00  0.00     0.079 A 
ATOM     21  C   UNL     1       7.667  47.325  53.151  1.00  0.00     0.068 A 
ATOM     22  C   UNL     1       8.628  45.974  51.410  1.00  0.00     0.146 A 
ATOM     23  C   UNL     1       8.944  47.530  53.671  1.00  0.00     0.125 A 
ATOM     24  C   UNL     1       9.905  46.182  51.932  1.00  0.00     0.044 A 
ATOM     25  C   UNL     1      10.065  46.971  53.068  1.00  0.00     0.042 A 
ATOM     26  F   UNL     1       8.512  45.174  50.341  1.00  0.00    -0.205 F 
ATOM     27  F   UNL     1       9.093  48.275  54.773  1.00  0.00    -0.207 F 
ENDBRANCH  18  20
ENDBRANCH  11  18
ENDBRANCH   6   8
ENDBRANCH   1   6
TORSDOF 7
ENDMDL
MODEL 10
REMARK VINA RESULT:    -7.975      2.414      4.922
REMARK INTER + INTRA:         -12.265
REMARK INTER:                 -11.141
REMARK INTRA:                  -1.124
REMARK UNBOUND:                -1.027
REMARK SMILES COCCCNc1nc(Nc2cc(F)ccc2F)c2cnn(C)c2n1
REMARK SMILES IDX 5 1 4 2 3 3 2 4 1 5 6 6 7 8 8 9 25 10 9 11 24 12 19 13 22 14
REMARK SMILES IDX 20 15 21 16 23 17 10 18 11 20 12 21 17 22 13 23 16 24 15 25
REMARK SMILES IDX 18 26 14 27
REMARK H PARENT 6 7 10 19
ROOT
ATOM      1  C   UNL     1       4.530  41.672  51.081  1.00  0.00     0.118 C 
ENDROOT
BRANCH   1   2
ATOM      2  C   UNL     1       5.698  41.606  50.095  1.00  0.00     0.050 C 
BRANCH   2   3
ATOM      3  C   UNL     1       5.240  41.189  48.701  1.00  0.00     0.161 C 
BRANCH   3   4
ATOM      4  O   UNL     1       3.897  40.710  48.695  1.00  0.00    -0.385 OA
ATOM      5  C   UNL     1       3.538  40.057  47.483  1.00  0.00     0.194 C 
ENDBRANCH   3   4
ENDBRANCH   2   3
ENDBRANCH   1   2
BRANCH   1   6
ATOM      6  N   UNL     1       3.740  42.862  50.798  1.00  0.00    -0.354 N 
ATOM      7  H   UNL     1       2.735  42.726  50.818  1.00  0.00     0.163 HD
BRANCH   6   8
ATOM      8  C   UNL     1       3.982  43.931  51.656  1.00  0.00     0.226 A 
ATOM      9  N   UNL     1       4.910  44.851  51.329  1.00  0.00    -0.195 NA
ATOM     10  N   UNL     1       3.236  43.932  52.769  1.00  0.00    -0.193 NA
ATOM     11  C   UNL     1       5.136  45.911  52.145  1.00  0.00     0.147 A 
ATOM     12  C   UNL     1       3.499  44.975  53.571  1.00  0.00     0.165 A 
ATOM     13  C   UNL     1       4.417  45.980  53.339  1.00  0.00     0.082 A 
ATOM     14  N   UNL     1       2.925  45.263  54.779  1.00  0.00    -0.250 N 
ATOM     15  C   UNL     1       4.334  46.803  54.480  1.00  0.00     0.149 A 
ATOM     16  N   UNL     1       3.427  46.374  55.367  1.00  0.00    -0.179 NA
ATOM     17  C   UNL     1       1.892  44.513  55.448  1.00  0.00     0.176 C 
BRANCH  11  18
ATOM     18  N   UNL     1       6.130  46.818  51.740  1.00  0.00    -0.337 N 
ATOM     19  H   UNL     1       5.771  47.737  52.000  1.00  0.00     0.168 HD
BRANCH  18  20
ATOM     20  C   UNL     1       7.516  46.737  52.010  1.00  0.00     0.079 A 
ATOM     21  C   UNL     1       7.995  47.346  53.177  1.00  0.00     0.068 A 
ATOM     22  C   UNL     1       8.423  45.985  51.242  1.00  0.00     0.146 A 
ATOM     23  C   UNL     1       9.342  47.250  53.520  1.00  0.00     0.125 A 
ATOM     24  C   UNL     1       9.772  45.892  51.587  1.00  0.00     0.044 A 
ATOM     25  C   UNL     1      10.237  46.534  52.732  1.00  0.00     0.042 A 
ATOM     26  F   UNL     1       8.008  45.318  50.156  1.00  0.00    -0.205 F 
ATOM     27  F   UNL     1       9.783  47.854  54.630  1.00  0.00    -0.207 F 
ENDBRANCH  18  20
ENDBRANCH  11  18
ENDBRANCH   6   8
ENDBRANCH   1   6
TORSDOF 7
ENDMDL
MODEL 11
REMARK VINA RESULT:    -7.959      3.625      7.203
REMARK INTER + INTRA:         -12.243
REMARK INTER:                 -11.419
REMARK INTRA:                  -0.824
REMARK UNBOUND:                -1.027
REMARK SMILES COCCCNc1nc(Nc2cc(F)ccc2F)c2cnn(C)c2n1
REMARK SMILES IDX 5 1 4 2 3 3 2 4 1 5 6 6 7 8 8 9 25 10 9 11 24 12 19 13 22 14
REMARK SMILES IDX 20 15 21 16 23 17 10 18 11 20 12 21 17 22 13 23 16 24 15 25
REMARK SMILES IDX 18 26 14 27
REMARK H PARENT 6 7 10 19
ROOT
ATOM      1  C   UNL     1       7.984  46.778  51.628  1.00  0.00     0.118 C 
ENDROOT
BRANCH   1   2
ATOM      2  C   UNL     1       9.454  46.921  52.029  1.00  0.00     0.050 C 
BRANCH   2   3
ATOM      3  C   UNL     1       9.755  46.206  53.342  1.00  0.00     0.161 C 
BRANCH   3   4
ATOM      4  O   UNL     1      10.253  47.095  54.339  1.00  0.00    -0.385 OA
ATOM      5  C   UNL     1       9.260  47.971  54.858  1.00  0.00     0.194 C 
ENDBRANCH   3   4
ENDBRANCH   2   3
ENDBRANCH   1   2
BRANCH   1   6
ATOM      6  N   UNL     1       7.892  45.883  50.483  1.00  0.00    -0.354 N 
ATOM      7  H   UNL     1       8.753  45.406  50.240  1.00  0.00     0.163 HD
BRANCH   6   8
ATOM      8  C   UNL     1       6.940  44.876  50.615  1.00  0.00     0.226 A 
ATOM      9  N   UNL     1       6.984  43.808  49.796  1.00  0.00    -0.195 NA
ATOM     10  N   UNL     1       6.037  45.085  51.582  1.00  0.00    -0.193 NA
ATOM     11  C   UNL     1       6.077  42.808  49.932  1.00  0.00     0.147 A 
ATOM     12  C   UNL     1       5.136  44.095  51.676  1.00  0.00     0.165 A 
ATOM     13  C   UNL     1       5.086  42.953  50.902  1.00  0.00     0.082 A 
ATOM     14  N   UNL     1       4.083  44.006  52.545  1.00  0.00    -0.250 N 
ATOM     15  C   UNL     1       3.950  42.261  51.369  1.00  0.00     0.149 A 
ATOM     16  N   UNL     1       3.329  42.896  52.371  1.00  0.00    -0.179 NA
ATOM     17  C   UNL     1       3.722  44.955  53.568  1.00  0.00     0.176 C 
BRANCH  11  18
ATOM     18  N   UNL     1       6.183  41.734  49.029  1.00  0.00    -0.337 N 
ATOM     19  H   UNL     1       6.252  40.902  49.616  1.00  0.00     0.168 HD
BRANCH  18  20
ATOM     20  C   UNL     1       5.355  41.480  47.911  1.00  0.00     0.079 A 
ATOM     21  C   UNL     1       5.777  41.950  46.661  1.00  0.00     0.068 A 
ATOM     22  C   UNL     1       4.195  40.687  47.957  1.00  0.00     0.146 A 
ATOM     23  C   UNL     1       5.028  41.681  45.517  1.00  0.00     0.125 A 
ATOM     24  C   UNL     1       3.446  40.419  46.810  1.00  0.00     0.044 A 
ATOM     25  C   UNL     1       3.863  40.925  45.581  1.00  0.00     0.042 A 
ATOM     26  F   UNL     1       3.783  40.146  49.112  1.00  0.00    -0.205 F 
ATOM     27  F   UNL     1       5.440  42.153  44.335  1.00  0.00    -0.207 F 
ENDBRANCH  18  20
ENDBRANCH  11  18
ENDBRANCH   6   8
ENDBRANCH   1   6
TORSDOF 7
ENDMDL
MODEL 12
REMARK VINA RESULT:    -7.959      2.508      5.294
REMARK INTER + INTRA:         -12.243
REMARK INTER:                 -11.391
REMARK INTRA:                  -0.852
REMARK UNBOUND:                -1.027
REMARK SMILES COCCCNc1nc(Nc2cc(F)ccc2F)c2cnn(C)c2n1
REMARK SMILES IDX 5 1 4 2 3 3 2 4 1 5 6 6 7 8 8 9 25 10 9 11 24 12 19 13 22 14
REMARK SMILES IDX 20 15 21 16 23 17 10 18 11 20 12 21 17 22 13 23 16 24 15 25
REMARK SMILES IDX 18 26 14 27
REMARK H PARENT 6 7 10 19
ROOT
ATOM      1  C   UNL     1       3.840  46.062  55.411  1.00  0.00     0.118 C 
ENDROOT
BRANCH   1   2
ATOM      2  C   UNL     1       2.554  45.917  54.594  1.00  0.00     0.050 C 
BRANCH   2   3
ATOM      3  C   UNL     1       1.935  44.533  54.755  1.00  0.00     0.161 C 
BRANCH   3   4
ATOM      4  O   UNL     1       1.128  44.169  53.637  1.00  0.00    -0.385 OA
ATOM      5  C   UNL     1       0.949  42.764  53.506  1.00  0.00     0.194 C 
ENDBRANCH   3   4
ENDBRANCH   2   3
ENDBRANCH   1   2
BRANCH   1   6
ATOM      6  N   UNL     1       4.580  47.218  54.925  1.00  0.00    -0.354 N 
ATOM      7  H   UNL     1       5.009  47.788  55.646  1.00  0.00     0.163 HD
BRANCH   6   8
ATOM      8  C   UNL     1       5.610  46.912  54.040  1.00  0.00     0.226 A 
ATOM      9  N   UNL     1       5.324  46.316  52.866  1.00  0.00    -0.195 NA
ATOM     10  N   UNL     1       6.833  47.254  54.467  1.00  0.00    -0.193 NA
ATOM     11  C   UNL     1       6.316  46.036  51.985  1.00  0.00     0.147 A 
ATOM     12  C   UNL     1       7.798  46.941  53.589  1.00  0.00     0.165 A 
ATOM     13  C   UNL     1       7.626  46.339  52.358  1.00  0.00     0.082 A 
ATOM     14  N   UNL     1       9.144  47.143  53.722  1.00  0.00    -0.250 N 
ATOM     15  C   UNL     1       8.933  46.201  51.849  1.00  0.00     0.149 A 
ATOM     16  N   UNL     1       9.868  46.687  52.674  1.00  0.00    -0.179 NA
ATOM     17  C   UNL     1       9.821  47.758  54.837  1.00  0.00     0.176 C 
BRANCH  11  18
ATOM     18  N   UNL     1       5.937  45.401  50.789  1.00  0.00    -0.337 N 
ATOM     19  H   UNL     1       6.688  45.607  50.130  1.00  0.00     0.168 HD
BRANCH  18  20
ATOM     20  C   UNL     1       5.504  44.062  50.638  1.00  0.00     0.079 A 
ATOM     21  C   UNL     1       6.448  43.108  50.237  1.00  0.00     0.068 A 
ATOM     22  C   UNL     1       4.216  43.611  50.975  1.00  0.00     0.146 A 
ATOM     23  C   UNL     1       6.089  41.766  50.125  1.00  0.00     0.125 A 
ATOM     24  C   UNL     1       3.859  42.267  50.861  1.00  0.00     0.044 A 
ATOM     25  C   UNL     1       4.801  41.338  50.427  1.00  0.00     0.042 A 
ATOM     26  F   UNL     1       3.293  44.467  51.436  1.00  0.00    -0.205 F 
ATOM     27  F   UNL     1       7.001  40.873  49.725  1.00  0.00    -0.207 F 
ENDBRANCH  18  20
ENDBRANCH  11  18
ENDBRANCH   6   8
ENDBRANCH   1   6
TORSDOF 7
ENDMDL
MODEL 13
REMARK VINA RESULT:    -7.893      2.718      5.192
REMARK INTER + INTRA:         -12.149
REMARK INTER:                 -11.274
REMARK INTRA:                  -0.875
REMARK UNBOUND:                -1.027
REMARK SMILES COCCCNc1nc(Nc2cc(F)ccc2F)c2cnn(C)c2n1
REMARK SMILES IDX 5 1 4 2 3 3 2 4 1 5 6 6 7 8 8 9 25 10 9 11 24 12 19 13 22 14
REMARK SMILES IDX 20 15 21 16 23 17 10 18 11 20 12 21 17 22 13 23 16 24 15 25
REMARK SMILES IDX 18 26 14 27
REMARK H PARENT 6 7 10 19
ROOT
ATOM      1  C   UNL     1       5.929  41.491  49.531  1.00  0.00     0.118 C 
ENDROOT
BRANCH   1   2
ATOM      2  C   UNL     1       5.189  41.210  48.221  1.00  0.00     0.050 C 
BRANCH   2   3
ATOM      3  C   UNL     1       5.836  41.929  47.041  1.00  0.00     0.161 C 
BRANCH   3   4
ATOM      4  O   UNL     1       5.443  41.373  45.788  1.00  0.00    -0.385 OA
ATOM      5  C   UNL     1       5.007  42.350  44.852  1.00  0.00     0.194 C 
ENDBRANCH   3   4
ENDBRANCH   2   3
ENDBRANCH   1   2
BRANCH   1   6
ATOM      6  N   UNL     1       4.953  41.641  50.601  1.00  0.00    -0.354 N 
ATOM      7  H   UNL     1       5.108  41.049  51.410  1.00  0.00     0.163 HD
BRANCH   6   8
ATOM      8  C   UNL     1       4.848  42.934  51.107  1.00  0.00     0.226 A 
ATOM      9  N   UNL     1       5.748  43.866  50.741  1.00  0.00    -0.195 NA
ATOM     10  N   UNL     1       3.820  43.122  51.945  1.00  0.00    -0.193 NA
ATOM     11  C   UNL     1       5.641  45.136  51.208  1.00  0.00     0.147 A 
ATOM     12  C   UNL     1       3.754  44.378  52.413  1.00  0.00     0.165 A 
ATOM     13  C   UNL     1       4.610  45.417  52.105  1.00  0.00     0.082 A 
ATOM     14  N   UNL     1       2.839  44.894  53.289  1.00  0.00    -0.250 N 
ATOM     15  C   UNL     1       4.137  46.502  52.870  1.00  0.00     0.149 A 
ATOM     16  N   UNL     1       3.057  46.194  53.598  1.00  0.00    -0.179 NA
ATOM     17  C   UNL     1       1.728  44.200  53.890  1.00  0.00     0.176 C 
BRANCH  11  18
ATOM     18  N   UNL     1       6.628  46.046  50.790  1.00  0.00    -0.337 N 
ATOM     19  H   UNL     1       6.122  46.908  50.583  1.00  0.00     0.168 HD
BRANCH  18  20
ATOM     20  C   UNL     1       7.847  46.338  51.445  1.00  0.00     0.079 A 
ATOM     21  C   UNL     1       7.820  47.246  52.511  1.00  0.00     0.068 A 
ATOM     22  C   UNL     1       9.063  45.687  51.168  1.00  0.00     0.146 A 
ATOM     23  C   UNL     1       8.982  47.528  53.226  1.00  0.00     0.125 A 
ATOM     24  C   UNL     1      10.225  45.973  51.885  1.00  0.00     0.044 A 
ATOM     25  C   UNL     1      10.186  46.905  52.919  1.00  0.00     0.042 A 
ATOM     26  F   UNL     1       9.133  44.754  50.209  1.00  0.00    -0.205 F 
ATOM     27  F   UNL     1       8.938  48.412  54.231  1.00  0.00    -0.207 F 
ENDBRANCH  18  20
ENDBRANCH  11  18
ENDBRANCH   6   8
ENDBRANCH   1   6
TORSDOF 7
ENDMDL
MODEL 14
REMARK VINA RESULT:    -7.837      1.282      2.060
REMARK INTER + INTRA:         -12.071
REMARK INTER:                 -11.124
REMARK INTRA:                  -0.947
REMARK UNBOUND:                -1.027
REMARK SMILES COCCCNc1nc(Nc2cc(F)ccc2F)c2cnn(C)c2n1
REMARK SMILES IDX 5 1 4 2 3 3 2 4 1 5 6 6 7 8 8 9 25 10 9 11 24 12 19 13 22 14
REMARK SMILES IDX 20 15 21 16 23 17 10 18 11 20 12 21 17 22 13 23 16 24 15 25
REMARK SMILES IDX 18 26 14 27
REMARK H PARENT 6 7 10 19
ROOT
ATOM      1  C   UNL     1       2.271  44.306  53.036  1.00  0.00     0.118 C 
ENDROOT
BRANCH   1   2
ATOM      2  C   UNL     1       2.202  45.665  53.735  1.00  0.00     0.050 C 
BRANCH   2   3
ATOM      3  C   UNL     1       2.379  46.817  52.752  1.00  0.00     0.161 C 
BRANCH   3   4
ATOM      4  O   UNL     1       3.476  47.660  53.099  1.00  0.00    -0.385 OA
ATOM      5  C   UNL     1       4.024  47.370  54.379  1.00  0.00     0.194 C 
ENDBRANCH   3   4
ENDBRANCH   2   3
ENDBRANCH   1   2
BRANCH   1   6
ATOM      6  N   UNL     1       3.561  43.694  53.320  1.00  0.00    -0.354 N 
ATOM      7  H   UNL     1       3.539  42.691  53.468  1.00  0.00     0.163 HD
BRANCH   6   8
ATOM      8  C   UNL     1       4.524  43.896  52.334  1.00  0.00     0.226 A 
ATOM      9  N   UNL     1       5.259  45.024  52.343  1.00  0.00    -0.195 NA
ATOM     10  N   UNL     1       4.620  42.905  51.438  1.00  0.00    -0.193 NA
ATOM     11  C   UNL     1       6.217  45.220  51.403  1.00  0.00     0.147 A 
ATOM     12  C   UNL     1       5.555  43.137  50.504  1.00  0.00     0.165 A 
ATOM     13  C   UNL     1       6.371  44.247  50.415  1.00  0.00     0.082 A 
ATOM     14  N   UNL     1       5.895  42.337  49.448  1.00  0.00    -0.250 N 
ATOM     15  C   UNL     1       7.142  44.025  49.257  1.00  0.00     0.149 A 
ATOM     16  N   UNL     1       6.859  42.862  48.656  1.00  0.00    -0.179 NA
ATOM     17  C   UNL     1       5.330  41.052  49.118  1.00  0.00     0.176 C 
BRANCH  11  18
ATOM     18  N   UNL     1       6.931  46.430  51.472  1.00  0.00    -0.337 N 
ATOM     19  H   UNL     1       6.219  47.150  51.598  1.00  0.00     0.168 HD
BRANCH  18  20
ATOM     20  C   UNL     1       8.059  46.706  52.280  1.00  0.00     0.079 A 
ATOM     21  C   UNL     1       7.857  47.418  53.469  1.00  0.00     0.068 A 
ATOM     22  C   UNL     1       9.350  46.212  52.021  1.00  0.00     0.146 A 
ATOM     23  C   UNL     1       8.924  47.671  54.328  1.00  0.00     0.125 A 
ATOM     24  C   UNL     1      10.416  46.467  52.884  1.00  0.00     0.044 A 
ATOM     25  C   UNL     1      10.203  47.207  54.044  1.00  0.00     0.042 A 
ATOM     26  F   UNL     1       9.587  45.460  50.938  1.00  0.00    -0.205 F 
ATOM     27  F   UNL     1       8.713  48.368  55.451  1.00  0.00    -0.207 F 
ENDBRANCH  18  20
ENDBRANCH  11  18
ENDBRANCH   6   8
ENDBRANCH   1   6
TORSDOF 7
ENDMDL
MODEL 15
REMARK VINA RESULT:    -7.697      2.389      5.641
REMARK INTER + INTRA:         -11.873
REMARK INTER:                 -10.400
REMARK INTRA:                  -1.473
REMARK UNBOUND:                -1.027
REMARK SMILES COCCCNc1nc(Nc2cc(F)ccc2F)c2cnn(C)c2n1
REMARK SMILES IDX 5 1 4 2 3 3 2 4 1 5 6 6 7 8 8 9 25 10 9 11 24 12 19 13 22 14
REMARK SMILES IDX 20 15 21 16 23 17 10 18 11 20 12 21 17 22 13 23 16 24 15 25
REMARK SMILES IDX 18 26 14 27
REMARK H PARENT 6 7 10 19
ROOT
ATOM      1  C   UNL     1       6.554  42.495  50.017  1.00  0.00     0.118 C 
ENDROOT
BRANCH   1   2
ATOM      2  C   UNL     1       5.475  41.505  49.575  1.00  0.00     0.050 C 
BRANCH   2   3
ATOM      3  C   UNL     1       4.402  41.323  50.644  1.00  0.00     0.161 C 
BRANCH   3   4
ATOM      4  O   UNL     1       3.697  42.533  50.913  1.00  0.00    -0.385 OA
ATOM      5  C   UNL     1       3.431  42.732  52.296  1.00  0.00     0.194 C 
ENDBRANCH   3   4
ENDBRANCH   2   3
ENDBRANCH   1   2
BRANCH   1   6
ATOM      6  N   UNL     1       6.176  43.832  49.580  1.00  0.00    -0.354 N 
ATOM      7  H   UNL     1       5.195  43.947  49.349  1.00  0.00     0.163 HD
BRANCH   6   8
ATOM      8  C   UNL     1       6.456  44.838  50.500  1.00  0.00     0.226 A 
ATOM      9  N   UNL     1       5.443  45.485  51.108  1.00  0.00    -0.195 NA
ATOM     10  N   UNL     1       7.761  45.072  50.691  1.00  0.00    -0.193 NA
ATOM     11  C   UNL     1       5.704  46.450  52.026  1.00  0.00     0.147 A 
ATOM     12  C   UNL     1       7.991  46.049  51.581  1.00  0.00     0.165 A 
ATOM     13  C   UNL     1       7.039  46.774  52.270  1.00  0.00     0.082 A 
ATOM     14  N   UNL     1       9.201  46.537  51.991  1.00  0.00    -0.250 N 
ATOM     15  C   UNL     1       7.783  47.687  53.044  1.00  0.00     0.149 A 
ATOM     16  N   UNL     1       9.105  47.552  52.880  1.00  0.00    -0.179 NA
ATOM     17  C   UNL     1      10.504  46.090  51.564  1.00  0.00     0.176 C 
BRANCH  11  18
ATOM     18  N   UNL     1       4.592  47.087  52.604  1.00  0.00    -0.337 N 
ATOM     19  H   UNL     1       4.197  47.660  51.858  1.00  0.00     0.168 HD
BRANCH  18  20
ATOM     20  C   UNL     1       3.560  46.478  53.356  1.00  0.00     0.079 A 
ATOM     21  C   UNL     1       2.324  46.274  52.730  1.00  0.00     0.068 A 
ATOM     22  C   UNL     1       3.732  45.962  54.653  1.00  0.00     0.146 A 
ATOM     23  C   UNL     1       1.289  45.631  53.406  1.00  0.00     0.125 A 
ATOM     24  C   UNL     1       2.694  45.319  55.327  1.00  0.00     0.044 A 
ATOM     25  C   UNL     1       1.461  45.156  54.701  1.00  0.00     0.042 A 
ATOM     26  F   UNL     1       4.916  46.061  55.274  1.00  0.00    -0.205 F 
ATOM     27  F   UNL     1       0.110  45.461  52.795  1.00  0.00    -0.207 F 
ENDBRANCH  18  20
ENDBRANCH  11  18
ENDBRANCH   6   8
ENDBRANCH   1   6
TORSDOF 7
ENDMDL
MODEL 16
REMARK VINA RESULT:    -7.656      2.835      6.346
REMARK INTER + INTRA:         -11.816
REMARK INTER:                 -10.901
REMARK INTRA:                  -0.915
REMARK UNBOUND:                -1.027
REMARK SMILES COCCCNc1nc(Nc2cc(F)ccc2F)c2cnn(C)c2n1
REMARK SMILES IDX 5 1 4 2 3 3 2 4 1 5 6 6 7 8 8 9 25 10 9 11 24 12 19 13 22 14
REMARK SMILES IDX 20 15 21 16 23 17 10 18 11 20 12 21 17 22 13 23 16 24 15 25
REMARK SMILES IDX 18 26 14 27
REMARK H PARENT 6 7 10 19
ROOT
ATOM      1  C   UNL     1       7.503  46.500  54.222  1.00  0.00     0.118 C 
ENDROOT
BRANCH   1   2
ATOM      2  C   UNL     1       8.535  47.593  54.506  1.00  0.00     0.050 C 
BRANCH   2   3
ATOM      3  C   UNL     1       9.908  47.235  53.946  1.00  0.00     0.161 C 
BRANCH   3   4
ATOM      4  O   UNL     1       9.876  46.050  53.153  1.00  0.00    -0.385 OA
ATOM      5  C   UNL     1      10.288  46.262  51.809  1.00  0.00     0.194 C 
ENDBRANCH   3   4
ENDBRANCH   2   3
ENDBRANCH   1   2
BRANCH   1   6
ATOM      6  N   UNL     1       6.256  46.844  54.889  1.00  0.00    -0.354 N 
ATOM      7  H   UNL     1       6.032  47.833  54.899  1.00  0.00     0.163 HD
BRANCH   6   8
ATOM      8  C   UNL     1       5.129  46.219  54.360  1.00  0.00     0.226 A 
ATOM      9  N   UNL     1       5.146  45.783  53.086  1.00  0.00    -0.195 NA
ATOM     10  N   UNL     1       4.099  46.115  55.211  1.00  0.00    -0.193 NA
ATOM     11  C   UNL     1       4.064  45.150  52.569  1.00  0.00     0.147 A 
ATOM     12  C   UNL     1       3.033  45.511  54.665  1.00  0.00     0.165 A 
ATOM     13  C   UNL     1       2.936  45.018  53.379  1.00  0.00     0.082 A 
ATOM     14  N   UNL     1       1.824  45.260  55.254  1.00  0.00    -0.250 N 
ATOM     15  C   UNL     1       1.621  44.517  53.292  1.00  0.00     0.149 A 
ATOM     16  N   UNL     1       0.932  44.661  54.431  1.00  0.00    -0.179 NA
ATOM     17  C   UNL     1       1.438  45.576  56.607  1.00  0.00     0.176 C 
BRANCH  11  18
ATOM     18  N   UNL     1       4.156  44.738  51.227  1.00  0.00    -0.337 N 
ATOM     19  H   UNL     1       4.327  45.595  50.699  1.00  0.00     0.168 HD
BRANCH  18  20
ATOM     20  C   UNL     1       4.941  43.680  50.715  1.00  0.00     0.079 A 
ATOM     21  C   UNL     1       6.156  44.002  50.097  1.00  0.00     0.068 A 
ATOM     22  C   UNL     1       4.634  42.318  50.890  1.00  0.00     0.146 A 
ATOM     23  C   UNL     1       6.994  42.995  49.623  1.00  0.00     0.125 A 
ATOM     24  C   UNL     1       5.475  41.312  50.413  1.00  0.00     0.044 A 
ATOM     25  C   UNL     1       6.662  41.653  49.770  1.00  0.00     0.042 A 
ATOM     26  F   UNL     1       3.522  41.948  51.541  1.00  0.00    -0.205 F 
ATOM     27  F   UNL     1       8.143  43.325  49.020  1.00  0.00    -0.207 F 
ENDBRANCH  18  20
ENDBRANCH  11  18
ENDBRANCH   6   8
ENDBRANCH   1   6
TORSDOF 7
ENDMDL
MODEL 17
REMARK VINA RESULT:    -7.587      2.591      5.301
REMARK INTER + INTRA:         -11.719
REMARK INTER:                 -11.258
REMARK INTRA:                  -0.461
REMARK UNBOUND:                -1.027
REMARK SMILES COCCCNc1nc(Nc2cc(F)ccc2F)c2cnn(C)c2n1
REMARK SMILES IDX 5 1 4 2 3 3 2 4 1 5 6 6 7 8 8 9 25 10 9 11 24 12 19 13 22 14
REMARK SMILES IDX 20 15 21 16 23 17 10 18 11 20 12 21 17 22 13 23 16 24 15 25
REMARK SMILES IDX 18 26 14 27
REMARK H PARENT 6 7 10 19
ROOT
ATOM      1  C   UNL     1       5.448  45.145  55.119  1.00  0.00     0.118 C 
ENDROOT
BRANCH   1   2
ATOM      2  C   UNL     1       5.831  46.579  54.745  1.00  0.00     0.050 C 
BRANCH   2   3
ATOM      3  C   UNL     1       7.242  46.657  54.173  1.00  0.00     0.161 C 
BRANCH   3   4
ATOM      4  O   UNL     1       8.074  47.552  54.908  1.00  0.00    -0.385 OA
ATOM      5  C   UNL     1       9.432  47.534  54.484  1.00  0.00     0.194 C 
ENDBRANCH   3   4
ENDBRANCH   2   3
ENDBRANCH   1   2
BRANCH   1   6
ATOM      6  N   UNL     1       3.997  45.047  55.189  1.00  0.00    -0.354 N 
ATOM      7  H   UNL     1       3.515  45.920  55.378  1.00  0.00     0.163 HD
BRANCH   6   8
ATOM      8  C   UNL     1       3.399  44.540  54.039  1.00  0.00     0.226 A 
ATOM      9  N   UNL     1       4.159  43.945  53.100  1.00  0.00    -0.195 NA
ATOM     10  N   UNL     1       2.071  44.708  53.981  1.00  0.00    -0.193 NA
ATOM     11  C   UNL     1       3.584  43.425  51.987  1.00  0.00     0.147 A 
ATOM     12  C   UNL     1       1.531  44.209  52.858  1.00  0.00     0.165 A 
ATOM     13  C   UNL     1       2.205  43.574  51.834  1.00  0.00     0.082 A 
ATOM     14  N   UNL     1       0.215  44.226  52.487  1.00  0.00    -0.250 N 
ATOM     15  C   UNL     1       1.204  43.275  50.887  1.00  0.00     0.149 A 
ATOM     16  N   UNL     1      -0.015  43.671  51.275  1.00  0.00    -0.179 NA
ATOM     17  C   UNL     1      -0.890  44.771  53.237  1.00  0.00     0.176 C 
BRANCH  11  18
ATOM     18  N   UNL     1       4.447  42.833  51.048  1.00  0.00    -0.337 N 
ATOM     19  H   UNL     1       3.839  42.514  50.293  1.00  0.00     0.168 HD
BRANCH  18  20
ATOM     20  C   UNL     1       5.637  43.387  50.520  1.00  0.00     0.079 A 
ATOM     21  C   UNL     1       6.002  44.675  50.933  1.00  0.00     0.068 A 
ATOM     22  C   UNL     1       6.534  42.682  49.698  1.00  0.00     0.146 A 
ATOM     23  C   UNL     1       7.191  45.247  50.486  1.00  0.00     0.125 A 
ATOM     24  C   UNL     1       7.724  43.258  49.252  1.00  0.00     0.044 A 
ATOM     25  C   UNL     1       8.053  44.553  49.645  1.00  0.00     0.042 A 
ATOM     26  F   UNL     1       6.274  41.419  49.332  1.00  0.00    -0.205 F 
ATOM     27  F   UNL     1       7.513  46.486  50.879  1.00  0.00    -0.207 F 
ENDBRANCH  18  20
ENDBRANCH  11  18
ENDBRANCH   6   8
ENDBRANCH   1   6
TORSDOF 7
ENDMDL
MODEL 18
REMARK VINA RESULT:    -7.501      2.867      6.446
REMARK INTER + INTRA:         -11.596
REMARK INTER:                 -10.749
REMARK INTRA:                  -0.848
REMARK UNBOUND:                -1.027
REMARK SMILES COCCCNc1nc(Nc2cc(F)ccc2F)c2cnn(C)c2n1
REMARK SMILES IDX 5 1 4 2 3 3 2 4 1 5 6 6 7 8 8 9 25 10 9 11 24 12 19 13 22 14
REMARK SMILES IDX 20 15 21 16 23 17 10 18 11 20 12 21 17 22 13 23 16 24 15 25
REMARK SMILES IDX 18 26 14 27
REMARK H PARENT 6 7 10 19
ROOT
ATOM      1  C   UNL     1       8.674  47.344  52.001  1.00  0.00     0.118 C 
ENDROOT
BRANCH   1   2
ATOM      2  C   UNL     1       9.438  47.062  53.296  1.00  0.00     0.050 C 
BRANCH   2   3
ATOM      3  C   UNL     1       8.656  47.516  54.525  1.00  0.00     0.161 C 
BRANCH   3   4
ATOM      4  O   UNL     1       9.483  48.182  55.476  1.00  0.00    -0.385 OA
ATOM      5  C   UNL     1      10.679  47.472  55.775  1.00  0.00     0.194 C 
ENDBRANCH   3   4
ENDBRANCH   2   3
ENDBRANCH   1   2
BRANCH   1   6
ATOM      6  N   UNL     1       7.248  47.384  52.292  1.00  0.00    -0.354 N 
ATOM      7  H   UNL     1       6.729  48.104  51.802  1.00  0.00     0.163 HD
BRANCH   6   8
ATOM      8  C   UNL     1       6.573  46.197  52.021  1.00  0.00     0.226 A 
ATOM      9  N   UNL     1       5.527  45.836  52.789  1.00  0.00    -0.195 NA
ATOM     10  N   UNL     1       7.056  45.505  50.981  1.00  0.00    -0.193 NA
ATOM     11  C   UNL     1       4.845  44.695  52.519  1.00  0.00     0.147 A 
ATOM     12  C   UNL     1       6.381  44.368  50.752  1.00  0.00     0.165 A 
ATOM     13  C   UNL     1       5.294  43.900  51.464  1.00  0.00     0.082 A 
ATOM     14  N   UNL     1       6.623  43.436  49.781  1.00  0.00    -0.250 N 
ATOM     15  C   UNL     1       4.979  42.669  50.855  1.00  0.00     0.149 A 
ATOM     16  N   UNL     1       5.785  42.374  49.828  1.00  0.00    -0.179 NA
ATOM     17  C   UNL     1       7.652  43.482  48.773  1.00  0.00     0.176 C 
BRANCH  11  18
ATOM     18  N   UNL     1       3.775  44.381  53.376  1.00  0.00    -0.337 N 
ATOM     19  H   UNL     1       3.905  44.981  54.191  1.00  0.00     0.168 HD
BRANCH  18  20
ATOM     20  C   UNL     1       2.405  44.307  53.034  1.00  0.00     0.079 A 
ATOM     21  C   UNL     1       1.768  43.064  53.138  1.00  0.00     0.068 A 
ATOM     22  C   UNL     1       1.616  45.425  52.706  1.00  0.00     0.146 A 
ATOM     23  C   UNL     1       0.407  42.946  52.865  1.00  0.00     0.125 A 
ATOM     24  C   UNL     1       0.253  45.302  52.433  1.00  0.00     0.044 A 
ATOM     25  C   UNL     1      -0.355  44.052  52.508  1.00  0.00     0.042 A 
ATOM     26  F   UNL     1       2.155  46.651  52.665  1.00  0.00    -0.205 F 
ATOM     27  F   UNL     1      -0.179  41.745  52.954  1.00  0.00    -0.207 F 
ENDBRANCH  18  20
ENDBRANCH  11  18
ENDBRANCH   6   8
ENDBRANCH   1   6
TORSDOF 7
ENDMDL
MODEL 19
REMARK VINA RESULT:    -7.491      2.468      6.008
REMARK INTER + INTRA:         -11.583
REMARK INTER:                 -10.373
REMARK INTRA:                  -1.210
REMARK UNBOUND:                -1.027
REMARK SMILES COCCCNc1nc(Nc2cc(F)ccc2F)c2cnn(C)c2n1
REMARK SMILES IDX 5 1 4 2 3 3 2 4 1 5 6 6 7 8 8 9 25 10 9 11 24 12 19 13 22 14
REMARK SMILES IDX 20 15 21 16 23 17 10 18 11 20 12 21 17 22 13 23 16 24 15 25
REMARK SMILES IDX 18 26 14 27
REMARK H PARENT 6 7 10 19
ROOT
ATOM      1  C   UNL     1       9.084  45.857  51.577  1.00  0.00     0.118 C 
ENDROOT
BRANCH   1   2
ATOM      2  C   UNL     1       9.914  46.945  52.263  1.00  0.00     0.050 C 
BRANCH   2   3
ATOM      3  C   UNL     1       9.480  47.160  53.709  1.00  0.00     0.161 C 
BRANCH   3   4
ATOM      4  O   UNL     1       8.173  47.723  53.803  1.00  0.00    -0.385 OA
ATOM      5  C   UNL     1       7.275  46.933  54.572  1.00  0.00     0.194 C 
ENDBRANCH   3   4
ENDBRANCH   2   3
ENDBRANCH   1   2
BRANCH   1   6
ATOM      6  N   UNL     1       7.927  46.474  50.946  1.00  0.00    -0.354 N 
ATOM      7  H   UNL     1       8.023  46.656  49.952  1.00  0.00     0.163 HD
BRANCH   6   8
ATOM      8  C   UNL     1       6.747  45.747  51.071  1.00  0.00     0.226 A 
ATOM      9  N   UNL     1       5.657  46.332  51.604  1.00  0.00    -0.195 NA
ATOM     10  N   UNL     1       6.822  44.483  50.633  1.00  0.00    -0.193 NA
ATOM     11  C   UNL     1       4.494  45.641  51.708  1.00  0.00     0.147 A 
ATOM     12  C   UNL     1       5.667  43.814  50.773  1.00  0.00     0.165 A 
ATOM     13  C   UNL     1       4.488  44.308  51.295  1.00  0.00     0.082 A 
ATOM     14  N   UNL     1       5.412  42.512  50.438  1.00  0.00    -0.250 N 
ATOM     15  C   UNL     1       3.599  43.215  51.252  1.00  0.00     0.149 A 
ATOM     16  N   UNL     1       4.153  42.113  50.732  1.00  0.00    -0.179 NA
ATOM     17  C   UNL     1       6.330  41.576  49.839  1.00  0.00     0.176 C 
BRANCH  11  18
ATOM     18  N   UNL     1       3.407  46.318  52.288  1.00  0.00    -0.337 N 
ATOM     19  H   UNL     1       2.879  46.694  51.500  1.00  0.00     0.168 HD
BRANCH  18  20
ATOM     20  C   UNL     1       2.528  45.823  53.279  1.00  0.00     0.079 A 
ATOM     21  C   UNL     1       1.222  45.495  52.894  1.00  0.00     0.068 A 
ATOM     22  C   UNL     1       2.916  45.532  54.599  1.00  0.00     0.146 A 
ATOM     23  C   UNL     1       0.331  44.952  53.817  1.00  0.00     0.125 A 
ATOM     24  C   UNL     1       2.021  44.989  55.522  1.00  0.00     0.044 A 
ATOM     25  C   UNL     1       0.716  44.702  55.129  1.00  0.00     0.042 A 
ATOM     26  F   UNL     1       4.175  45.754  55.004  1.00  0.00    -0.205 F 
ATOM     27  F   UNL     1      -0.918  44.661  53.433  1.00  0.00    -0.207 F 
ENDBRANCH  18  20
ENDBRANCH  11  18
ENDBRANCH   6   8
ENDBRANCH   1   6
TORSDOF 7
ENDMDL
MODEL 20
REMARK VINA RESULT:    -7.484      2.796      5.971
REMARK INTER + INTRA:         -11.574
REMARK INTER:                 -10.921
REMARK INTRA:                  -0.653
REMARK UNBOUND:                -1.027
REMARK SMILES COCCCNc1nc(Nc2cc(F)ccc2F)c2cnn(C)c2n1
REMARK SMILES IDX 5 1 4 2 3 3 2 4 1 5 6 6 7 8 8 9 25 10 9 11 24 12 19 13 22 14
REMARK SMILES IDX 20 15 21 16 23 17 10 18 11 20 12 21 17 22 13 23 16 24 15 25
REMARK SMILES IDX 18 26 14 27
REMARK H PARENT 6 7 10 19
ROOT
ATOM      1  C   UNL     1       5.801  45.399  55.042  1.00  0.00     0.118 C 
ENDROOT
BRANCH   1   2
ATOM      2  C   UNL     1       6.089  46.817  54.544  1.00  0.00     0.050 C 
BRANCH   2   3
ATOM      3  C   UNL     1       7.502  46.943  53.982  1.00  0.00     0.161 C 
BRANCH   3   4
ATOM      4  O   UNL     1       8.391  47.584  54.894  1.00  0.00    -0.385 OA
ATOM      5  C   UNL     1       9.762  47.403  54.562  1.00  0.00     0.194 C 
ENDBRANCH   3   4
ENDBRANCH   2   3
ENDBRANCH   1   2
BRANCH   1   6
ATOM      6  N   UNL     1       4.478  45.372  55.648  1.00  0.00    -0.354 N 
ATOM      7  H   UNL     1       4.142  46.266  55.989  1.00  0.00     0.163 HD
BRANCH   6   8
ATOM      8  C   UNL     1       3.471  44.898  54.812  1.00  0.00     0.226 A 
ATOM      9  N   UNL     1       3.778  44.489  53.566  1.00  0.00    -0.195 NA
ATOM     10  N   UNL     1       2.246  44.902  55.356  1.00  0.00    -0.193 NA
ATOM     11  C   UNL     1       2.809  44.002  52.751  1.00  0.00     0.147 A 
ATOM     12  C   UNL     1       1.304  44.442  54.519  1.00  0.00     0.165 A 
ATOM     13  C   UNL     1       1.499  43.990  53.229  1.00  0.00     0.082 A 
ATOM     14  N   UNL     1      -0.038  44.326  54.758  1.00  0.00    -0.250 N 
ATOM     15  C   UNL     1       0.207  43.653  52.775  1.00  0.00     0.149 A 
ATOM     16  N   UNL     1      -0.739  43.856  53.700  1.00  0.00    -0.179 NA
ATOM     17  C   UNL     1      -0.733  44.659  55.976  1.00  0.00     0.176 C 
BRANCH  11  18
ATOM     18  N   UNL     1       3.209  43.610  51.461  1.00  0.00    -0.337 N 
ATOM     19  H   UNL     1       2.619  44.149  50.826  1.00  0.00     0.168 HD
BRANCH  18  20
ATOM     20  C   UNL     1       4.532  43.541  50.965  1.00  0.00     0.079 A 
ATOM     21  C   UNL     1       5.055  42.278  50.663  1.00  0.00     0.068 A 
ATOM     22  C   UNL     1       5.311  44.668  50.648  1.00  0.00     0.146 A 
ATOM     23  C   UNL     1       6.333  42.156  50.121  1.00  0.00     0.125 A 
ATOM     24  C   UNL     1       6.590  44.543  50.106  1.00  0.00     0.044 A 
ATOM     25  C   UNL     1       7.108  43.276  49.845  1.00  0.00     0.042 A 
ATOM     26  F   UNL     1       4.833  45.905  50.844  1.00  0.00    -0.205 F 
ATOM     27  F   UNL     1       6.821  40.938  49.855  1.00  0.00    -0.207 F 
ENDBRANCH  18  20
ENDBRANCH  11  18
ENDBRANCH   6   8
ENDBRANCH   1   6
TORSDOF 7
ENDMDL
