MODEL 1
REMARK VINA RESULT:    -9.252      0.000      0.000
REMARK INTER + INTRA:         -13.383
REMARK INTER:                 -12.497
REMARK INTRA:                  -0.886
REMARK UNBOUND:                -0.886
REMARK SMILES COc1ccc(Nc2nc(NCc3ccccc3)nc3c2cnn3C)cc1
REMARK SMILES IDX 8 1 9 2 10 3 19 4 20 5 21 6 22 7 23 8 24 9 25 10 7 11 6 13
REMARK SMILES IDX 3 14 4 15 27 16 5 17 26 18 2 19 1 20 11 21 12 23 13 24 14 25
REMARK SMILES IDX 18 26 15 27 17 28 16 29
REMARK H PARENT 7 12 11 22
ROOT
ATOM      1  C   UNL     1       5.865  42.534  49.616  1.00  0.00     0.147 A 
ATOM      2  N   UNL     1       6.774  43.526  49.442  1.00  0.00    -0.195 NA
ATOM      3  C   UNL     1       6.781  44.592  50.267  1.00  0.00     0.227 A 
ATOM      4  N   UNL     1       5.948  44.789  51.296  1.00  0.00    -0.193 NA
ATOM      5  C   UNL     1       5.084  43.778  51.469  1.00  0.00     0.165 A 
ATOM      6  C   UNL     1       4.983  42.641  50.693  1.00  0.00     0.082 A 
ATOM      7  C   UNL     1       3.958  41.889  51.304  1.00  0.00     0.149 A 
ATOM      8  N   UNL     1       3.423  42.505  52.365  1.00  0.00    -0.179 NA
ATOM      9  N   UNL     1       4.134  43.654  52.447  1.00  0.00    -0.250 N 
ATOM     10  C   UNL     1       3.853  44.588  53.507  1.00  0.00     0.176 C 
ENDROOT
BRANCH   1  11
ATOM     11  N   UNL     1       5.935  41.449  48.730  1.00  0.00    -0.339 N 
ATOM     12  H   UNL     1       6.919  41.264  48.550  1.00  0.00     0.168 HD
BRANCH  11  13
ATOM     13  C   UNL     1       5.145  41.178  47.597  1.00  0.00     0.040 A 
ATOM     14  C   UNL     1       3.639  40.723  45.249  1.00  0.00     0.119 A 
ATOM     15  C   UNL     1       4.796  41.497  45.201  1.00  0.00     0.048 A 
ATOM     16  C   UNL     1       3.234  40.187  46.472  1.00  0.00     0.048 A 
ATOM     17  C   UNL     1       5.538  41.723  46.368  1.00  0.00     0.030 A 
ATOM     18  C   UNL     1       3.977  40.413  47.635  1.00  0.00     0.030 A 
BRANCH  14  19
ATOM     19  O   UNL     1       2.824  40.424  44.193  1.00  0.00    -0.497 OA
ATOM     20  C   UNL     1       1.425  40.404  44.446  1.00  0.00     0.278 C 
ENDBRANCH  14  19
ENDBRANCH  11  13
ENDBRANCH   1  11
BRANCH   3  21
ATOM     21  N   UNL     1       7.714  45.601  50.070  1.00  0.00    -0.350 N 
ATOM     22  H   UNL     1       7.808  45.723  49.068  1.00  0.00     0.164 HD
BRANCH  21  23
ATOM     23  C   UNL     1       8.964  45.401  50.774  1.00  0.00     0.152 C 
BRANCH  23  24
ATOM     24  C   UNL     1       9.032  46.362  51.939  1.00  0.00    -0.029 A 
ATOM     25  C   UNL     1       9.904  46.113  53.010  1.00  0.00     0.005 A 
ATOM     26  C   UNL     1       8.215  47.500  51.981  1.00  0.00     0.005 A 
ATOM     27  C   UNL     1       9.965  46.991  54.094  1.00  0.00     0.000 A 
ATOM     28  C   UNL     1       8.278  48.377  53.065  1.00  0.00     0.000 A 
ATOM     29  C   UNL     1       9.153  48.123  54.120  1.00  0.00     0.000 A 
ENDBRANCH  23  24
ENDBRANCH  21  23
ENDBRANCH   3  21
TORSDOF 6
ENDMDL
MODEL 2
REMARK VINA RESULT:    -9.188      3.268      8.652
REMARK INTER + INTRA:         -13.297
REMARK INTER:                 -12.534
REMARK INTRA:                  -0.763
REMARK UNBOUND:                -0.886
REMARK SMILES COc1ccc(Nc2nc(NCc3ccccc3)nc3c2cnn3C)cc1
REMARK SMILES IDX 8 1 9 2 10 3 19 4 20 5 21 6 22 7 23 8 24 9 25 10 7 11 6 13
REMARK SMILES IDX 3 14 4 15 27 16 5 17 26 18 2 19 1 20 11 21 12 23 13 24 14 25
REMARK SMILES IDX 18 26 15 27 17 28 16 29
REMARK H PARENT 7 12 11 22
ROOT
ATOM      1  C   UNL     1       6.642  45.244  51.178  1.00  0.00     0.147 A 
ATOM      2  N   UNL     1       6.998  44.342  50.229  1.00  0.00    -0.195 NA
ATOM      3  C   UNL     1       6.233  43.256  50.004  1.00  0.00     0.227 A 
ATOM      4  N   UNL     1       5.098  42.953  50.645  1.00  0.00    -0.193 NA
ATOM      5  C   UNL     1       4.749  43.877  51.552  1.00  0.00     0.165 A 
ATOM      6  C   UNL     1       5.448  45.026  51.867  1.00  0.00     0.082 A 
ATOM      7  C   UNL     1       4.654  45.664  52.842  1.00  0.00     0.149 A 
ATOM      8  N   UNL     1       3.551  44.970  53.151  1.00  0.00    -0.179 NA
ATOM      9  N   UNL     1       3.632  43.887  52.343  1.00  0.00    -0.250 N 
ATOM     10  C   UNL     1       2.584  42.898  52.376  1.00  0.00     0.176 C 
ENDROOT
BRANCH   1  11
ATOM     11  N   UNL     1       7.478  46.358  51.338  1.00  0.00    -0.339 N 
ATOM     12  H   UNL     1       8.071  46.417  50.514  1.00  0.00     0.168 HD
BRANCH  11  13
ATOM     13  C   UNL     1       8.156  46.798  52.491  1.00  0.00     0.040 A 
ATOM     14  C   UNL     1       9.629  47.611  54.762  1.00  0.00     0.119 A 
ATOM     15  C   UNL     1      10.249  46.886  53.747  1.00  0.00     0.048 A 
ATOM     16  C   UNL     1       8.274  47.919  54.643  1.00  0.00     0.048 A 
ATOM     17  C   UNL     1       9.515  46.482  52.624  1.00  0.00     0.030 A 
ATOM     18  C   UNL     1       7.543  47.516  53.520  1.00  0.00     0.030 A 
BRANCH  14  19
ATOM     19  O   UNL     1      10.223  48.065  55.907  1.00  0.00    -0.497 OA
ATOM     20  C   UNL     1      11.313  47.304  56.411  1.00  0.00     0.278 C 
ENDBRANCH  14  19
ENDBRANCH  11  13
ENDBRANCH   1  11
BRANCH   3  21
ATOM     21  N   UNL     1       6.617  42.340  49.033  1.00  0.00    -0.350 N 
ATOM     22  H   UNL     1       6.755  42.862  48.175  1.00  0.00     0.164 HD
BRANCH  21  23
ATOM     23  C   UNL     1       5.737  41.197  48.911  1.00  0.00     0.152 C 
BRANCH  23  24
ATOM     24  C   UNL     1       5.088  41.218  47.546  1.00  0.00    -0.029 A 
ATOM     25  C   UNL     1       3.902  40.504  47.316  1.00  0.00     0.005 A 
ATOM     26  C   UNL     1       5.667  41.930  46.486  1.00  0.00     0.005 A 
ATOM     27  C   UNL     1       3.303  40.511  46.055  1.00  0.00     0.000 A 
ATOM     28  C   UNL     1       5.065  41.937  45.226  1.00  0.00     0.000 A 
ATOM     29  C   UNL     1       3.884  41.229  45.011  1.00  0.00     0.000 A 
ENDBRANCH  23  24
ENDBRANCH  21  23
ENDBRANCH   3  21
TORSDOF 6
ENDMDL
MODEL 3
REMARK VINA RESULT:    -9.115      3.572      5.800
REMARK INTER + INTRA:         -13.198
REMARK INTER:                 -12.522
REMARK INTRA:                  -0.675
REMARK UNBOUND:                -0.886
REMARK SMILES COc1ccc(Nc2nc(NCc3ccccc3)nc3c2cnn3C)cc1
REMARK SMILES IDX 8 1 9 2 10 3 19 4 20 5 21 6 22 7 23 8 24 9 25 10 7 11 6 13
REMARK SMILES IDX 3 14 4 15 27 16 5 17 26 18 2 19 1 20 11 21 12 23 13 24 14 25
REMARK SMILES IDX 18 26 15 27 17 28 16 29
REMARK H PARENT 7 12 11 22
ROOT
ATOM      1  C   UNL     1       3.451  42.852  52.453  1.00  0.00     0.147 A 
ATOM      2  N   UNL     1       3.889  44.035  52.955  1.00  0.00    -0.195 NA
ATOM      3  C   UNL     1       4.948  44.656  52.399  1.00  0.00     0.227 A 
ATOM      4  N   UNL     1       5.652  44.215  51.350  1.00  0.00    -0.193 NA
ATOM      5  C   UNL     1       5.177  43.064  50.851  1.00  0.00     0.165 A 
ATOM      6  C   UNL     1       4.104  42.340  51.331  1.00  0.00     0.082 A 
ATOM      7  C   UNL     1       3.996  41.246  50.449  1.00  0.00     0.149 A 
ATOM      8  N   UNL     1       4.939  41.248  49.498  1.00  0.00    -0.179 NA
ATOM      9  N   UNL     1       5.642  42.374  49.764  1.00  0.00    -0.250 N 
ATOM     10  C   UNL     1       6.751  42.734  48.918  1.00  0.00     0.176 C 
ENDROOT
BRANCH   1  11
ATOM     11  N   UNL     1       2.331  42.279  53.072  1.00  0.00    -0.339 N 
ATOM     12  H   UNL     1       2.302  41.298  52.805  1.00  0.00     0.168 HD
BRANCH  11  13
ATOM     13  C   UNL     1       1.036  42.808  53.226  1.00  0.00     0.040 A 
ATOM     14  C   UNL     1      -1.521  43.935  53.650  1.00  0.00     0.119 A 
ATOM     15  C   UNL     1      -0.452  44.296  54.466  1.00  0.00     0.048 A 
ATOM     16  C   UNL     1      -1.312  43.006  52.631  1.00  0.00     0.048 A 
ATOM     17  C   UNL     1       0.814  43.733  54.255  1.00  0.00     0.030 A 
ATOM     18  C   UNL     1      -0.047  42.445  52.421  1.00  0.00     0.030 A 
BRANCH  14  19
ATOM     19  O   UNL     1      -2.802  44.404  53.746  1.00  0.00    -0.497 OA
ATOM     20  C   UNL     1      -3.798  43.706  53.010  1.00  0.00     0.278 C 
ENDBRANCH  14  19
ENDBRANCH  11  13
ENDBRANCH   1  11
BRANCH   3  21
ATOM     21  N   UNL     1       5.386  45.862  52.930  1.00  0.00    -0.350 N 
ATOM     22  H   UNL     1       4.570  46.333  53.303  1.00  0.00     0.164 HD
BRANCH  21  23
ATOM     23  C   UNL     1       6.181  46.660  52.020  1.00  0.00     0.152 C 
BRANCH  23  24
ATOM     24  C   UNL     1       7.592  46.760  52.556  1.00  0.00    -0.029 A 
ATOM     25  C   UNL     1       8.683  46.434  51.737  1.00  0.00     0.005 A 
ATOM     26  C   UNL     1       7.831  47.159  53.879  1.00  0.00     0.005 A 
ATOM     27  C   UNL     1       9.988  46.516  52.229  1.00  0.00     0.000 A 
ATOM     28  C   UNL     1       9.137  47.241  54.367  1.00  0.00     0.000 A 
ATOM     29  C   UNL     1      10.213  46.921  53.542  1.00  0.00     0.000 A 
ENDBRANCH  23  24
ENDBRANCH  21  23
ENDBRANCH   3  21
TORSDOF 6
ENDMDL
MODEL 4
REMARK VINA RESULT:    -9.114      3.520      5.899
REMARK INTER + INTRA:         -13.197
REMARK INTER:                 -12.459
REMARK INTRA:                  -0.737
REMARK UNBOUND:                -0.886
REMARK SMILES COc1ccc(Nc2nc(NCc3ccccc3)nc3c2cnn3C)cc1
REMARK SMILES IDX 8 1 9 2 10 3 19 4 20 5 21 6 22 7 23 8 24 9 25 10 7 11 6 13
REMARK SMILES IDX 3 14 4 15 27 16 5 17 26 18 2 19 1 20 11 21 12 23 13 24 14 25
REMARK SMILES IDX 18 26 15 27 17 28 16 29
REMARK H PARENT 7 12 11 22
ROOT
ATOM      1  C   UNL     1       3.444  42.857  52.456  1.00  0.00     0.147 A 
ATOM      2  N   UNL     1       3.879  44.041  52.957  1.00  0.00    -0.195 NA
ATOM      3  C   UNL     1       4.935  44.666  52.399  1.00  0.00     0.227 A 
ATOM      4  N   UNL     1       5.637  44.227  51.348  1.00  0.00    -0.193 NA
ATOM      5  C   UNL     1       5.165  43.075  50.849  1.00  0.00     0.165 A 
ATOM      6  C   UNL     1       4.095  42.348  51.332  1.00  0.00     0.082 A 
ATOM      7  C   UNL     1       3.988  41.254  50.449  1.00  0.00     0.149 A 
ATOM      8  N   UNL     1       4.928  41.260  49.495  1.00  0.00    -0.179 NA
ATOM      9  N   UNL     1       5.629  42.387  49.761  1.00  0.00    -0.250 N 
ATOM     10  C   UNL     1       6.734  42.751  48.911  1.00  0.00     0.176 C 
ENDROOT
BRANCH   1  11
ATOM     11  N   UNL     1       2.328  42.280  53.078  1.00  0.00    -0.339 N 
ATOM     12  H   UNL     1       2.296  41.301  52.803  1.00  0.00     0.168 HD
BRANCH  11  13
ATOM     13  C   UNL     1       1.034  42.809  53.243  1.00  0.00     0.040 A 
ATOM     14  C   UNL     1      -1.600  43.812  53.455  1.00  0.00     0.119 A 
ATOM     15  C   UNL     1      -1.265  42.935  52.427  1.00  0.00     0.048 A 
ATOM     16  C   UNL     1      -0.617  44.193  54.368  1.00  0.00     0.048 A 
ATOM     17  C   UNL     1       0.043  42.442  52.323  1.00  0.00     0.030 A 
ATOM     18  C   UNL     1       0.688  43.699  54.263  1.00  0.00     0.030 A 
BRANCH  14  19
ATOM     19  O   UNL     1      -2.831  44.367  53.672  1.00  0.00    -0.497 OA
ATOM     20  C   UNL     1      -2.971  45.190  54.822  1.00  0.00     0.278 C 
ENDBRANCH  14  19
ENDBRANCH  11  13
ENDBRANCH   1  11
BRANCH   3  21
ATOM     21  N   UNL     1       5.371  45.873  52.930  1.00  0.00    -0.350 N 
ATOM     22  H   UNL     1       4.557  46.334  53.320  1.00  0.00     0.164 HD
BRANCH  21  23
ATOM     23  C   UNL     1       6.142  46.684  52.010  1.00  0.00     0.152 C 
BRANCH  23  24
ATOM     24  C   UNL     1       7.566  46.776  52.509  1.00  0.00    -0.029 A 
ATOM     25  C   UNL     1       8.635  46.446  51.662  1.00  0.00     0.005 A 
ATOM     26  C   UNL     1       7.842  47.172  53.826  1.00  0.00     0.005 A 
ATOM     27  C   UNL     1       9.952  46.521  52.120  1.00  0.00     0.000 A 
ATOM     28  C   UNL     1       9.160  47.246  54.281  1.00  0.00     0.000 A 
ATOM     29  C   UNL     1      10.213  46.923  53.428  1.00  0.00     0.000 A 
ENDBRANCH  23  24
ENDBRANCH  21  23
ENDBRANCH   3  21
TORSDOF 6
ENDMDL
MODEL 5
REMARK VINA RESULT:    -8.981      3.425      5.124
REMARK INTER + INTRA:         -13.018
REMARK INTER:                 -12.115
REMARK INTRA:                  -0.903
REMARK UNBOUND:                -0.886
REMARK SMILES COc1ccc(Nc2nc(NCc3ccccc3)nc3c2cnn3C)cc1
REMARK SMILES IDX 8 1 9 2 10 3 19 4 20 5 21 6 22 7 23 8 24 9 25 10 7 11 6 13
REMARK SMILES IDX 3 14 4 15 27 16 5 17 26 18 2 19 1 20 11 21 12 23 13 24 14 25
REMARK SMILES IDX 18 26 15 27 17 28 16 29
REMARK H PARENT 7 12 11 22
ROOT
ATOM      1  C   UNL     1       2.572  43.248  52.850  1.00  0.00     0.147 A 
ATOM      2  N   UNL     1       3.386  44.172  53.421  1.00  0.00    -0.195 NA
ATOM      3  C   UNL     1       2.908  45.006  54.366  1.00  0.00     0.227 A 
ATOM      4  N   UNL     1       1.654  45.023  54.831  1.00  0.00    -0.193 NA
ATOM      5  C   UNL     1       0.879  44.077  54.278  1.00  0.00     0.165 A 
ATOM      6  C   UNL     1       1.256  43.170  53.308  1.00  0.00     0.082 A 
ATOM      7  C   UNL     1       0.104  42.385  53.096  1.00  0.00     0.149 A 
ATOM      8  N   UNL     1      -0.936  42.773  53.845  1.00  0.00    -0.179 NA
ATOM      9  N   UNL     1      -0.432  43.805  54.562  1.00  0.00    -0.250 N 
ATOM     10  C   UNL     1      -1.271  44.480  55.518  1.00  0.00     0.176 C 
ENDROOT
BRANCH   1  11
ATOM     11  N   UNL     1       3.148  42.404  51.891  1.00  0.00    -0.339 N 
ATOM     12  H   UNL     1       3.064  41.449  52.232  1.00  0.00     0.168 HD
BRANCH  11  13
ATOM     13  C   UNL     1       4.332  42.582  51.151  1.00  0.00     0.040 A 
ATOM     14  C   UNL     1       6.718  42.802  49.651  1.00  0.00     0.119 A 
ATOM     15  C   UNL     1       6.099  41.564  49.807  1.00  0.00     0.048 A 
ATOM     16  C   UNL     1       6.148  43.925  50.253  1.00  0.00     0.048 A 
ATOM     17  C   UNL     1       4.919  41.459  50.554  1.00  0.00     0.030 A 
ATOM     18  C   UNL     1       4.968  43.817  50.997  1.00  0.00     0.030 A 
BRANCH  14  19
ATOM     19  O   UNL     1       7.868  43.047  48.953  1.00  0.00    -0.497 OA
ATOM     20  C   UNL     1       8.624  44.187  49.340  1.00  0.00     0.278 C 
ENDBRANCH  14  19
ENDBRANCH  11  13
ENDBRANCH   1  11
BRANCH   3  21
ATOM     21  N   UNL     1       3.754  45.949  54.933  1.00  0.00    -0.350 N 
ATOM     22  H   UNL     1       3.330  46.236  55.808  1.00  0.00     0.164 HD
BRANCH  21  23
ATOM     23  C   UNL     1       4.110  47.039  54.048  1.00  0.00     0.152 C 
BRANCH  23  24
ATOM     24  C   UNL     1       5.564  46.901  53.656  1.00  0.00    -0.029 A 
ATOM     25  C   UNL     1       5.959  47.107  52.326  1.00  0.00     0.005 A 
ATOM     26  C   UNL     1       6.533  46.546  54.604  1.00  0.00     0.005 A 
ATOM     27  C   UNL     1       7.299  46.972  51.955  1.00  0.00     0.000 A 
ATOM     28  C   UNL     1       7.872  46.412  54.232  1.00  0.00     0.000 A 
ATOM     29  C   UNL     1       8.254  46.627  52.909  1.00  0.00     0.000 A 
ENDBRANCH  23  24
ENDBRANCH  21  23
ENDBRANCH   3  21
TORSDOF 6
ENDMDL
MODEL 6
REMARK VINA RESULT:    -8.980      3.285      8.265
REMARK INTER + INTRA:         -13.016
REMARK INTER:                 -12.100
REMARK INTRA:                  -0.917
REMARK UNBOUND:                -0.886
REMARK SMILES COc1ccc(Nc2nc(NCc3ccccc3)nc3c2cnn3C)cc1
REMARK SMILES IDX 8 1 9 2 10 3 19 4 20 5 21 6 22 7 23 8 24 9 25 10 7 11 6 13
REMARK SMILES IDX 3 14 4 15 27 16 5 17 26 18 2 19 1 20 11 21 12 23 13 24 14 25
REMARK SMILES IDX 18 26 15 27 17 28 16 29
REMARK H PARENT 7 12 11 22
ROOT
ATOM      1  C   UNL     1       5.266  45.250  51.356  1.00  0.00     0.147 A 
ATOM      2  N   UNL     1       5.349  43.942  51.002  1.00  0.00    -0.195 NA
ATOM      3  C   UNL     1       4.289  43.126  51.169  1.00  0.00     0.227 A 
ATOM      4  N   UNL     1       3.100  43.482  51.669  1.00  0.00    -0.193 NA
ATOM      5  C   UNL     1       3.032  44.786  51.976  1.00  0.00     0.165 A 
ATOM      6  C   UNL     1       4.045  45.714  51.848  1.00  0.00     0.082 A 
ATOM      7  C   UNL     1       3.464  46.929  52.268  1.00  0.00     0.149 A 
ATOM      8  N   UNL     1       2.192  46.788  52.662  1.00  0.00    -0.179 NA
ATOM      9  N   UNL     1       1.953  45.470  52.467  1.00  0.00    -0.250 N 
ATOM     10  C   UNL     1       0.649  44.935  52.765  1.00  0.00     0.176 C 
ENDROOT
BRANCH   1  11
ATOM     11  N   UNL     1       6.403  46.039  51.132  1.00  0.00    -0.339 N 
ATOM     12  H   UNL     1       6.734  45.840  50.190  1.00  0.00     0.168 HD
BRANCH  11  13
ATOM     13  C   UNL     1       7.473  46.318  52.003  1.00  0.00     0.040 A 
ATOM     14  C   UNL     1       9.528  46.923  53.847  1.00  0.00     0.119 A 
ATOM     15  C   UNL     1       8.192  47.020  54.229  1.00  0.00     0.048 A 
ATOM     16  C   UNL     1       9.832  46.534  52.542  1.00  0.00     0.048 A 
ATOM     17  C   UNL     1       7.176  46.722  53.311  1.00  0.00     0.030 A 
ATOM     18  C   UNL     1       8.816  46.236  51.627  1.00  0.00     0.030 A 
BRANCH  14  19
ATOM     19  O   UNL     1      10.614  47.184  54.636  1.00  0.00    -0.497 OA
ATOM     20  C   UNL     1      10.363  47.803  55.891  1.00  0.00     0.278 C 
ENDBRANCH  14  19
ENDBRANCH  11  13
ENDBRANCH   1  11
BRANCH   3  21
ATOM     21  N   UNL     1       4.395  41.789  50.808  1.00  0.00    -0.350 N 
ATOM     22  H   UNL     1       4.319  41.247  51.661  1.00  0.00     0.164 HD
BRANCH  21  23
ATOM     23  C   UNL     1       5.554  41.482  49.997  1.00  0.00     0.152 C 
BRANCH  23  24
ATOM     24  C   UNL     1       5.117  41.295  48.562  1.00  0.00    -0.029 A 
ATOM     25  C   UNL     1       5.841  41.893  47.519  1.00  0.00     0.005 A 
ATOM     26  C   UNL     1       3.975  40.544  48.251  1.00  0.00     0.005 A 
ATOM     27  C   UNL     1       5.437  41.731  46.192  1.00  0.00     0.000 A 
ATOM     28  C   UNL     1       3.573  40.383  46.923  1.00  0.00     0.000 A 
ATOM     29  C   UNL     1       4.305  40.976  45.895  1.00  0.00     0.000 A 
ENDBRANCH  23  24
ENDBRANCH  21  23
ENDBRANCH   3  21
TORSDOF 6
ENDMDL
MODEL 7
REMARK VINA RESULT:    -8.970      3.925      6.874
REMARK INTER + INTRA:         -13.003
REMARK INTER:                 -12.359
REMARK INTRA:                  -0.644
REMARK UNBOUND:                -0.886
REMARK SMILES COc1ccc(Nc2nc(NCc3ccccc3)nc3c2cnn3C)cc1
REMARK SMILES IDX 8 1 9 2 10 3 19 4 20 5 21 6 22 7 23 8 24 9 25 10 7 11 6 13
REMARK SMILES IDX 3 14 4 15 27 16 5 17 26 18 2 19 1 20 11 21 12 23 13 24 14 25
REMARK SMILES IDX 18 26 15 27 17 28 16 29
REMARK H PARENT 7 12 11 22
ROOT
ATOM      1  C   UNL     1       3.023  44.018  52.004  1.00  0.00     0.147 A 
ATOM      2  N   UNL     1       3.705  45.191  52.034  1.00  0.00    -0.195 NA
ATOM      3  C   UNL     1       4.952  45.262  51.527  1.00  0.00     0.227 A 
ATOM      4  N   UNL     1       5.627  44.252  50.966  1.00  0.00    -0.193 NA
ATOM      5  C   UNL     1       4.917  43.114  50.916  1.00  0.00     0.165 A 
ATOM      6  C   UNL     1       3.638  42.922  51.398  1.00  0.00     0.082 A 
ATOM      7  C   UNL     1       3.339  41.582  51.075  1.00  0.00     0.149 A 
ATOM      8  N   UNL     1       4.352  40.956  50.463  1.00  0.00    -0.179 NA
ATOM      9  N   UNL     1       5.300  41.918  50.374  1.00  0.00    -0.250 N 
ATOM     10  C   UNL     1       6.557  41.616  49.737  1.00  0.00     0.176 C 
ENDROOT
BRANCH   1  11
ATOM     11  N   UNL     1       1.723  44.029  52.532  1.00  0.00    -0.339 N 
ATOM     12  H   UNL     1       1.096  44.344  51.795  1.00  0.00     0.168 HD
BRANCH  11  13
ATOM     13  C   UNL     1       1.285  44.461  53.798  1.00  0.00     0.040 A 
ATOM     14  C   UNL     1       0.274  45.319  56.294  1.00  0.00     0.119 A 
ATOM     15  C   UNL     1      -0.597  44.905  55.289  1.00  0.00     0.048 A 
ATOM     16  C   UNL     1       1.647  45.312  56.045  1.00  0.00     0.048 A 
ATOM     17  C   UNL     1      -0.092  44.483  54.052  1.00  0.00     0.030 A 
ATOM     18  C   UNL     1       2.149  44.889  54.809  1.00  0.00     0.030 A 
BRANCH  14  19
ATOM     19  O   UNL     1      -0.081  45.754  57.541  1.00  0.00    -0.497 OA
ATOM     20  C   UNL     1       0.810  46.655  58.185  1.00  0.00     0.278 C 
ENDBRANCH  14  19
ENDBRANCH  11  13
ENDBRANCH   1  11
BRANCH   3  21
ATOM     21  N   UNL     1       5.638  46.468  51.572  1.00  0.00    -0.350 N 
ATOM     22  H   UNL     1       6.415  46.389  50.926  1.00  0.00     0.164 HD
BRANCH  21  23
ATOM     23  C   UNL     1       6.003  46.896  52.906  1.00  0.00     0.152 C 
BRANCH  23  24
ATOM     24  C   UNL     1       7.510  46.913  53.025  1.00  0.00    -0.029 A 
ATOM     25  C   UNL     1       8.310  46.643  51.904  1.00  0.00     0.005 A 
ATOM     26  C   UNL     1       8.131  47.176  54.254  1.00  0.00     0.005 A 
ATOM     27  C   UNL     1       9.702  46.648  52.009  1.00  0.00     0.000 A 
ATOM     28  C   UNL     1       9.523  47.181  54.356  1.00  0.00     0.000 A 
ATOM     29  C   UNL     1      10.308  46.919  53.235  1.00  0.00     0.000 A 
ENDBRANCH  23  24
ENDBRANCH  21  23
ENDBRANCH   3  21
TORSDOF 6
ENDMDL
MODEL 8
REMARK VINA RESULT:    -8.932      4.591      8.159
REMARK INTER + INTRA:         -12.951
REMARK INTER:                 -11.491
REMARK INTRA:                  -1.460
REMARK UNBOUND:                -0.886
REMARK SMILES COc1ccc(Nc2nc(NCc3ccccc3)nc3c2cnn3C)cc1
REMARK SMILES IDX 8 1 9 2 10 3 19 4 20 5 21 6 22 7 23 8 24 9 25 10 7 11 6 13
REMARK SMILES IDX 3 14 4 15 27 16 5 17 26 18 2 19 1 20 11 21 12 23 13 24 14 25
REMARK SMILES IDX 18 26 15 27 17 28 16 29
REMARK H PARENT 7 12 11 22
ROOT
ATOM      1  C   UNL     1       2.310  45.273  55.343  1.00  0.00     0.147 A 
ATOM      2  N   UNL     1       2.340  44.639  54.144  1.00  0.00    -0.195 NA
ATOM      3  C   UNL     1       1.246  43.995  53.690  1.00  0.00     0.227 A 
ATOM      4  N   UNL     1       0.070  43.911  54.322  1.00  0.00    -0.193 NA
ATOM      5  C   UNL     1       0.055  44.576  55.487  1.00  0.00     0.165 A 
ATOM      6  C   UNL     1       1.107  45.270  56.051  1.00  0.00     0.082 A 
ATOM      7  C   UNL     1       0.575  45.809  57.241  1.00  0.00     0.149 A 
ATOM      8  N   UNL     1      -0.704  45.466  57.440  1.00  0.00    -0.179 NA
ATOM      9  N   UNL     1      -0.997  44.718  56.351  1.00  0.00    -0.250 N 
ATOM     10  C   UNL     1      -2.324  44.179  56.198  1.00  0.00     0.176 C 
ENDROOT
BRANCH   1  11
ATOM     11  N   UNL     1       3.480  45.937  55.737  1.00  0.00    -0.339 N 
ATOM     12  H   UNL     1       3.203  46.756  56.273  1.00  0.00     0.168 HD
BRANCH  11  13
ATOM     13  C   UNL     1       4.652  46.181  54.996  1.00  0.00     0.040 A 
ATOM     14  C   UNL     1       6.941  46.781  53.450  1.00  0.00     0.119 A 
ATOM     15  C   UNL     1       5.849  47.644  53.449  1.00  0.00     0.048 A 
ATOM     16  C   UNL     1       6.883  45.616  54.216  1.00  0.00     0.048 A 
ATOM     17  C   UNL     1       4.714  47.342  54.214  1.00  0.00     0.030 A 
ATOM     18  C   UNL     1       5.750  45.317  54.980  1.00  0.00     0.030 A 
BRANCH  14  19
ATOM     19  O   UNL     1       8.105  46.951  52.753  1.00  0.00    -0.497 OA
ATOM     20  C   UNL     1       9.222  47.449  53.478  1.00  0.00     0.278 C 
ENDBRANCH  14  19
ENDBRANCH  11  13
ENDBRANCH   1  11
BRANCH   3  21
ATOM     21  N   UNL     1       1.298  43.345  52.464  1.00  0.00    -0.350 N 
ATOM     22  H   UNL     1       1.957  42.582  52.563  1.00  0.00     0.164 HD
BRANCH  21  23
ATOM     23  C   UNL     1       1.550  44.219  51.337  1.00  0.00     0.152 C 
BRANCH  23  24
ATOM     24  C   UNL     1       3.042  44.323  51.117  1.00  0.00    -0.029 A 
ATOM     25  C   UNL     1       3.852  43.183  51.216  1.00  0.00     0.005 A 
ATOM     26  C   UNL     1       3.641  45.559  50.834  1.00  0.00     0.005 A 
ATOM     27  C   UNL     1       5.232  43.274  51.023  1.00  0.00     0.000 A 
ATOM     28  C   UNL     1       5.021  45.648  50.640  1.00  0.00     0.000 A 
ATOM     29  C   UNL     1       5.815  44.506  50.734  1.00  0.00     0.000 A 
ENDBRANCH  23  24
ENDBRANCH  21  23
ENDBRANCH   3  21
TORSDOF 6
ENDMDL
MODEL 9
REMARK VINA RESULT:    -8.919      2.580      5.990
REMARK INTER + INTRA:         -12.933
REMARK INTER:                 -12.069
REMARK INTRA:                  -0.864
REMARK UNBOUND:                -0.886
REMARK SMILES COc1ccc(Nc2nc(NCc3ccccc3)nc3c2cnn3C)cc1
REMARK SMILES IDX 8 1 9 2 10 3 19 4 20 5 21 6 22 7 23 8 24 9 25 10 7 11 6 13
REMARK SMILES IDX 3 14 4 15 27 16 5 17 26 18 2 19 1 20 11 21 12 23 13 24 14 25
REMARK SMILES IDX 18 26 15 27 17 28 16 29
REMARK H PARENT 7 12 11 22
ROOT
ATOM      1  C   UNL     1       6.925  45.891  51.823  1.00  0.00     0.147 A 
ATOM      2  N   UNL     1       5.725  46.324  52.286  1.00  0.00    -0.195 NA
ATOM      3  C   UNL     1       5.666  47.122  53.371  1.00  0.00     0.227 A 
ATOM      4  N   UNL     1       6.714  47.560  54.078  1.00  0.00    -0.193 NA
ATOM      5  C   UNL     1       7.889  47.148  53.578  1.00  0.00     0.165 A 
ATOM      6  C   UNL     1       8.075  46.336  52.478  1.00  0.00     0.082 A 
ATOM      7  C   UNL     1       9.475  46.231  52.352  1.00  0.00     0.149 A 
ATOM      8  N   UNL     1      10.135  46.895  53.309  1.00  0.00    -0.179 NA
ATOM      9  N   UNL     1       9.141  47.451  54.040  1.00  0.00    -0.250 N 
ATOM     10  C   UNL     1       9.472  48.280  55.171  1.00  0.00     0.176 C 
ENDROOT
BRANCH   1  11
ATOM     11  N   UNL     1       6.906  45.082  50.678  1.00  0.00    -0.339 N 
ATOM     12  H   UNL     1       6.898  45.697  49.868  1.00  0.00     0.168 HD
BRANCH  11  13
ATOM     13  C   UNL     1       6.171  43.906  50.436  1.00  0.00     0.040 A 
ATOM     14  C   UNL     1       4.614  41.578  50.059  1.00  0.00     0.119 A 
ATOM     15  C   UNL     1       4.234  42.531  51.000  1.00  0.00     0.048 A 
ATOM     16  C   UNL     1       5.777  41.786  49.316  1.00  0.00     0.048 A 
ATOM     17  C   UNL     1       5.010  43.682  51.187  1.00  0.00     0.030 A 
ATOM     18  C   UNL     1       6.550  42.937  49.503  1.00  0.00     0.030 A 
BRANCH  14  19
ATOM     19  O   UNL     1       3.954  40.414  49.777  1.00  0.00    -0.497 OA
ATOM     20  C   UNL     1       3.583  40.198  48.422  1.00  0.00     0.278 C 
ENDBRANCH  14  19
ENDBRANCH  11  13
ENDBRANCH   1  11
BRANCH   3  21
ATOM     21  N   UNL     1       4.429  47.549  53.835  1.00  0.00    -0.350 N 
ATOM     22  H   UNL     1       4.226  47.012  54.671  1.00  0.00     0.164 HD
BRANCH  21  23
ATOM     23  C   UNL     1       3.380  47.532  52.837  1.00  0.00     0.152 C 
BRANCH  23  24
ATOM     24  C   UNL     1       2.560  46.273  53.004  1.00  0.00    -0.029 A 
ATOM     25  C   UNL     1       2.420  45.683  54.269  1.00  0.00     0.005 A 
ATOM     26  C   UNL     1       1.947  45.663  51.899  1.00  0.00     0.005 A 
ATOM     27  C   UNL     1       1.672  44.514  54.427  1.00  0.00     0.000 A 
ATOM     28  C   UNL     1       1.199  44.495  52.061  1.00  0.00     0.000 A 
ATOM     29  C   UNL     1       1.061  43.923  53.324  1.00  0.00     0.000 A 
ENDBRANCH  23  24
ENDBRANCH  21  23
ENDBRANCH   3  21
TORSDOF 6
ENDMDL
MODEL 10
REMARK VINA RESULT:    -8.894      4.092      7.626
REMARK INTER + INTRA:         -12.899
REMARK INTER:                 -11.931
REMARK INTRA:                  -0.968
REMARK UNBOUND:                -0.886
REMARK SMILES COc1ccc(Nc2nc(NCc3ccccc3)nc3c2cnn3C)cc1
REMARK SMILES IDX 8 1 9 2 10 3 19 4 20 5 21 6 22 7 23 8 24 9 25 10 7 11 6 13
REMARK SMILES IDX 3 14 4 15 27 16 5 17 26 18 2 19 1 20 11 21 12 23 13 24 14 25
REMARK SMILES IDX 18 26 15 27 17 28 16 29
REMARK H PARENT 7 12 11 22
ROOT
ATOM      1  C   UNL     1       1.972  43.868  53.719  1.00  0.00     0.147 A 
ATOM      2  N   UNL     1       2.757  43.455  52.691  1.00  0.00    -0.195 NA
ATOM      3  C   UNL     1       2.212  42.819  51.635  1.00  0.00     0.227 A 
ATOM      4  N   UNL     1       0.913  42.538  51.476  1.00  0.00    -0.193 NA
ATOM      5  C   UNL     1       0.155  42.988  52.488  1.00  0.00     0.165 A 
ATOM      6  C   UNL     1       0.597  43.651  53.615  1.00  0.00     0.082 A 
ATOM      7  C   UNL     1      -0.579  43.934  54.340  1.00  0.00     0.149 A 
ATOM      8  N   UNL     1      -1.683  43.466  53.743  1.00  0.00    -0.179 NA
ATOM      9  N   UNL     1      -1.205  42.899  52.611  1.00  0.00    -0.250 N 
ATOM     10  C   UNL     1      -2.123  42.296  51.679  1.00  0.00     0.176 C 
ENDROOT
BRANCH   1  11
ATOM     11  N   UNL     1       2.610  44.540  54.771  1.00  0.00    -0.339 N 
ATOM     12  H   UNL     1       1.894  45.030  55.301  1.00  0.00     0.168 HD
BRANCH  11  13
ATOM     13  C   UNL     1       3.821  45.257  54.759  1.00  0.00     0.040 A 
ATOM     14  C   UNL     1       6.183  46.808  54.690  1.00  0.00     0.119 A 
ATOM     15  C   UNL     1       4.947  47.401  54.444  1.00  0.00     0.048 A 
ATOM     16  C   UNL     1       6.236  45.441  54.960  1.00  0.00     0.048 A 
ATOM     17  C   UNL     1       3.779  46.628  54.476  1.00  0.00     0.030 A 
ATOM     18  C   UNL     1       5.068  44.671  54.992  1.00  0.00     0.030 A 
BRANCH  14  19
ATOM     19  O   UNL     1       7.395  47.441  54.689  1.00  0.00    -0.497 OA
ATOM     20  C   UNL     1       8.436  46.835  53.934  1.00  0.00     0.278 C 
ENDBRANCH  14  19
ENDBRANCH  11  13
ENDBRANCH   1  11
BRANCH   3  21
ATOM     21  N   UNL     1       3.031  42.398  50.596  1.00  0.00    -0.350 N 
ATOM     22  H   UNL     1       2.482  41.764  50.027  1.00  0.00     0.164 HD
BRANCH  21  23
ATOM     23  C   UNL     1       4.311  41.872  51.024  1.00  0.00     0.152 C 
BRANCH  23  24
ATOM     24  C   UNL     1       5.402  42.836  50.615  1.00  0.00    -0.029 A 
ATOM     25  C   UNL     1       6.368  42.452  49.673  1.00  0.00     0.005 A 
ATOM     26  C   UNL     1       5.480  44.115  51.184  1.00  0.00     0.005 A 
ATOM     27  C   UNL     1       7.383  43.334  49.298  1.00  0.00     0.000 A 
ATOM     28  C   UNL     1       6.496  44.996  50.808  1.00  0.00     0.000 A 
ATOM     29  C   UNL     1       7.445  44.606  49.865  1.00  0.00     0.000 A 
ENDBRANCH  23  24
ENDBRANCH  21  23
ENDBRANCH   3  21
TORSDOF 6
ENDMDL
MODEL 11
REMARK VINA RESULT:    -8.879      3.829      8.515
REMARK INTER + INTRA:         -12.879
REMARK INTER:                 -12.569
REMARK INTRA:                  -0.310
REMARK UNBOUND:                -0.886
REMARK SMILES COc1ccc(Nc2nc(NCc3ccccc3)nc3c2cnn3C)cc1
REMARK SMILES IDX 8 1 9 2 10 3 19 4 20 5 21 6 22 7 23 8 24 9 25 10 7 11 6 13
REMARK SMILES IDX 3 14 4 15 27 16 5 17 26 18 2 19 1 20 11 21 12 23 13 24 14 25
REMARK SMILES IDX 18 26 15 27 17 28 16 29
REMARK H PARENT 7 12 11 22
ROOT
ATOM      1  C   UNL     1       6.020  44.761  51.467  1.00  0.00     0.147 A 
ATOM      2  N   UNL     1       5.159  44.856  52.512  1.00  0.00    -0.195 NA
ATOM      3  C   UNL     1       4.156  43.966  52.647  1.00  0.00     0.227 A 
ATOM      4  N   UNL     1       3.903  42.942  51.824  1.00  0.00    -0.193 NA
ATOM      5  C   UNL     1       4.790  42.848  50.821  1.00  0.00     0.165 A 
ATOM      6  C   UNL     1       5.853  43.695  50.582  1.00  0.00     0.082 A 
ATOM      7  C   UNL     1       6.486  43.151  49.445  1.00  0.00     0.149 A 
ATOM      8  N   UNL     1       5.864  42.063  48.974  1.00  0.00    -0.179 NA
ATOM      9  N   UNL     1       4.835  41.897  49.838  1.00  0.00    -0.250 N 
ATOM     10  C   UNL     1       3.935  40.786  49.663  1.00  0.00     0.176 C 
ENDROOT
BRANCH   1  11
ATOM     11  N   UNL     1       7.049  45.711  51.407  1.00  0.00    -0.339 N 
ATOM     12  H   UNL     1       7.683  45.431  50.662  1.00  0.00     0.168 HD
BRANCH  11  13
ATOM     13  C   UNL     1       7.742  46.335  52.462  1.00  0.00     0.040 A 
ATOM     14  C   UNL     1       9.251  47.547  54.522  1.00  0.00     0.119 A 
ATOM     15  C   UNL     1       9.892  46.993  53.416  1.00  0.00     0.048 A 
ATOM     16  C   UNL     1       7.859  47.484  54.600  1.00  0.00     0.048 A 
ATOM     17  C   UNL     1       9.140  46.390  52.399  1.00  0.00     0.030 A 
ATOM     18  C   UNL     1       7.111  46.883  53.582  1.00  0.00     0.030 A 
BRANCH  14  19
ATOM     19  O   UNL     1       9.858  48.161  55.582  1.00  0.00    -0.497 OA
ATOM     20  C   UNL     1      11.004  47.519  56.127  1.00  0.00     0.278 C 
ENDBRANCH  14  19
ENDBRANCH  11  13
ENDBRANCH   1  11
BRANCH   3  21
ATOM     21  N   UNL     1       3.281  44.084  53.719  1.00  0.00    -0.350 N 
ATOM     22  H   UNL     1       3.648  43.502  54.463  1.00  0.00     0.164 HD
BRANCH  21  23
ATOM     23  C   UNL     1       1.894  43.835  53.384  1.00  0.00     0.152 C 
BRANCH  23  24
ATOM     24  C   UNL     1       1.022  44.275  54.538  1.00  0.00    -0.029 A 
ATOM     25  C   UNL     1       1.596  44.863  55.675  1.00  0.00     0.005 A 
ATOM     26  C   UNL     1      -0.367  44.085  54.501  1.00  0.00     0.005 A 
ATOM     27  C   UNL     1       0.797  45.263  56.748  1.00  0.00     0.000 A 
ATOM     28  C   UNL     1      -1.165  44.487  55.575  1.00  0.00     0.000 A 
ATOM     29  C   UNL     1      -0.583  45.076  56.696  1.00  0.00     0.000 A 
ENDBRANCH  23  24
ENDBRANCH  21  23
ENDBRANCH   3  21
TORSDOF 6
ENDMDL
MODEL 12
REMARK VINA RESULT:    -8.856      2.134      3.487
REMARK INTER + INTRA:         -12.848
REMARK INTER:                 -12.169
REMARK INTRA:                  -0.679
REMARK UNBOUND:                -0.886
REMARK SMILES COc1ccc(Nc2nc(NCc3ccccc3)nc3c2cnn3C)cc1
REMARK SMILES IDX 8 1 9 2 10 3 19 4 20 5 21 6 22 7 23 8 24 9 25 10 7 11 6 13
REMARK SMILES IDX 3 14 4 15 27 16 5 17 26 18 2 19 1 20 11 21 12 23 13 24 14 25
REMARK SMILES IDX 18 26 15 27 17 28 16 29
REMARK H PARENT 7 12 11 22
ROOT
ATOM      1  C   UNL     1       3.486  43.001  52.531  1.00  0.00     0.147 A 
ATOM      2  N   UNL     1       4.405  43.986  52.692  1.00  0.00    -0.195 NA
ATOM      3  C   UNL     1       4.083  45.110  53.364  1.00  0.00     0.227 A 
ATOM      4  N   UNL     1       2.897  45.374  53.923  1.00  0.00    -0.193 NA
ATOM      5  C   UNL     1       2.018  44.370  53.781  1.00  0.00     0.165 A 
ATOM      6  C   UNL     1       2.232  43.177  53.119  1.00  0.00     0.082 A 
ATOM      7  C   UNL     1       1.028  42.462  53.285  1.00  0.00     0.149 A 
ATOM      8  N   UNL     1       0.106  43.149  53.971  1.00  0.00    -0.179 NA
ATOM      9  N   UNL     1       0.740  44.308  54.267  1.00  0.00    -0.250 N 
ATOM     10  C   UNL     1       0.055  45.314  55.038  1.00  0.00     0.176 C 
ENDROOT
BRANCH   1  11
ATOM     11  N   UNL     1       3.902  41.855  51.839  1.00  0.00    -0.339 N 
ATOM     12  H   UNL     1       4.437  41.282  52.487  1.00  0.00     0.168 HD
BRANCH  11  13
ATOM     13  C   UNL     1       4.400  41.745  50.526  1.00  0.00     0.040 A 
ATOM     14  C   UNL     1       5.299  41.430  47.865  1.00  0.00     0.119 A 
ATOM     15  C   UNL     1       4.131  40.802  48.290  1.00  0.00     0.048 A 
ATOM     16  C   UNL     1       6.019  42.206  48.774  1.00  0.00     0.048 A 
ATOM     17  C   UNL     1       3.690  40.957  49.611  1.00  0.00     0.030 A 
ATOM     18  C   UNL     1       5.576  42.361  50.092  1.00  0.00     0.030 A 
BRANCH  14  19
ATOM     19  O   UNL     1       5.841  41.363  46.612  1.00  0.00    -0.497 OA
ATOM     20  C   UNL     1       4.953  41.547  45.517  1.00  0.00     0.278 C 
ENDBRANCH  14  19
ENDBRANCH  11  13
ENDBRANCH   1  11
BRANCH   3  21
ATOM     21  N   UNL     1       5.035  46.110  53.513  1.00  0.00    -0.350 N 
ATOM     22  H   UNL     1       4.566  46.901  53.941  1.00  0.00     0.164 HD
BRANCH  21  23
ATOM     23  C   UNL     1       5.764  46.423  52.302  1.00  0.00     0.152 C 
BRANCH  23  24
ATOM     24  C   UNL     1       7.218  46.653  52.647  1.00  0.00    -0.029 A 
ATOM     25  C   UNL     1       8.204  46.559  51.653  1.00  0.00     0.005 A 
ATOM     26  C   UNL     1       7.607  46.943  53.963  1.00  0.00     0.005 A 
ATOM     27  C   UNL     1       9.549  46.762  51.967  1.00  0.00     0.000 A 
ATOM     28  C   UNL     1       8.953  47.146  54.274  1.00  0.00     0.000 A 
ATOM     29  C   UNL     1       9.922  47.057  53.277  1.00  0.00     0.000 A 
ENDBRANCH  23  24
ENDBRANCH  21  23
ENDBRANCH   3  21
TORSDOF 6
ENDMDL
MODEL 13
REMARK VINA RESULT:    -8.816      3.366      4.901
REMARK INTER + INTRA:         -12.794
REMARK INTER:                 -11.911
REMARK INTRA:                  -0.883
REMARK UNBOUND:                -0.886
REMARK SMILES COc1ccc(Nc2nc(NCc3ccccc3)nc3c2cnn3C)cc1
REMARK SMILES IDX 8 1 9 2 10 3 19 4 20 5 21 6 22 7 23 8 24 9 25 10 7 11 6 13
REMARK SMILES IDX 3 14 4 15 27 16 5 17 26 18 2 19 1 20 11 21 12 23 13 24 14 25
REMARK SMILES IDX 18 26 15 27 17 28 16 29
REMARK H PARENT 7 12 11 22
ROOT
ATOM      1  C   UNL     1       3.232  44.119  53.150  1.00  0.00     0.147 A 
ATOM      2  N   UNL     1       4.273  44.853  53.618  1.00  0.00    -0.195 NA
ATOM      3  C   UNL     1       4.117  45.636  54.704  1.00  0.00     0.227 A 
ATOM      4  N   UNL     1       2.990  45.773  55.413  1.00  0.00    -0.193 NA
ATOM      5  C   UNL     1       1.988  45.010  54.951  1.00  0.00     0.165 A 
ATOM      6  C   UNL     1       2.029  44.173  53.855  1.00  0.00     0.082 A 
ATOM      7  C   UNL     1       0.749  43.582  53.816  1.00  0.00     0.149 A 
ATOM      8  N   UNL     1      -0.058  44.024  54.788  1.00  0.00    -0.179 NA
ATOM      9  N   UNL     1       0.727  44.891  55.470  1.00  0.00    -0.250 N 
ATOM     10  C   UNL     1       0.197  45.565  56.628  1.00  0.00     0.176 C 
ENDROOT
BRANCH   1  11
ATOM     11  N   UNL     1       3.480  43.315  52.028  1.00  0.00    -0.339 N 
ATOM     12  H   UNL     1       3.138  42.381  52.239  1.00  0.00     0.168 HD
BRANCH  11  13
ATOM     13  C   UNL     1       4.620  43.270  51.204  1.00  0.00     0.040 A 
ATOM     14  C   UNL     1       6.903  43.041  49.553  1.00  0.00     0.119 A 
ATOM     15  C   UNL     1       6.169  41.909  49.896  1.00  0.00     0.048 A 
ATOM     16  C   UNL     1       6.499  44.284  50.044  1.00  0.00     0.048 A 
ATOM     17  C   UNL     1       5.040  42.026  50.718  1.00  0.00     0.030 A 
ATOM     18  C   UNL     1       5.370  44.398  50.863  1.00  0.00     0.030 A 
BRANCH  14  19
ATOM     19  O   UNL     1       8.019  43.071  48.765  1.00  0.00    -0.497 OA
ATOM     20  C   UNL     1       8.910  44.163  48.952  1.00  0.00     0.278 C 
ENDBRANCH  14  19
ENDBRANCH  11  13
ENDBRANCH   1  11
BRANCH   3  21
ATOM     21  N   UNL     1       5.191  46.385  55.165  1.00  0.00    -0.350 N 
ATOM     22  H   UNL     1       4.992  46.623  56.129  1.00  0.00     0.164 HD
BRANCH  21  23
ATOM     23  C   UNL     1       5.536  47.511  54.322  1.00  0.00     0.152 C 
BRANCH  23  24
ATOM     24  C   UNL     1       6.911  47.286  53.736  1.00  0.00    -0.029 A 
ATOM     25  C   UNL     1       8.029  47.175  54.576  1.00  0.00     0.005 A 
ATOM     26  C   UNL     1       7.096  47.206  52.348  1.00  0.00     0.005 A 
ATOM     27  C   UNL     1       9.303  46.976  54.040  1.00  0.00     0.000 A 
ATOM     28  C   UNL     1       8.370  47.007  51.814  1.00  0.00     0.000 A 
ATOM     29  C   UNL     1       9.472  46.891  52.660  1.00  0.00     0.000 A 
ENDBRANCH  23  24
ENDBRANCH  21  23
ENDBRANCH   3  21
TORSDOF 6
ENDMDL
MODEL 14
REMARK VINA RESULT:    -8.809      2.091      3.323
REMARK INTER + INTRA:         -12.785
REMARK INTER:                 -12.217
REMARK INTRA:                  -0.567
REMARK UNBOUND:                -0.886
REMARK SMILES COc1ccc(Nc2nc(NCc3ccccc3)nc3c2cnn3C)cc1
REMARK SMILES IDX 8 1 9 2 10 3 19 4 20 5 21 6 22 7 23 8 24 9 25 10 7 11 6 13
REMARK SMILES IDX 3 14 4 15 27 16 5 17 26 18 2 19 1 20 11 21 12 23 13 24 14 25
REMARK SMILES IDX 18 26 15 27 17 28 16 29
REMARK H PARENT 7 12 11 22
ROOT
ATOM      1  C   UNL     1       3.504  42.824  52.464  1.00  0.00     0.147 A 
ATOM      2  N   UNL     1       4.464  43.758  52.685  1.00  0.00    -0.195 NA
ATOM      3  C   UNL     1       4.179  44.868  53.394  1.00  0.00     0.227 A 
ATOM      4  N   UNL     1       2.993  45.165  53.937  1.00  0.00    -0.193 NA
ATOM      5  C   UNL     1       2.072  44.210  53.736  1.00  0.00     0.165 A 
ATOM      6  C   UNL     1       2.247  43.036  53.032  1.00  0.00     0.082 A 
ATOM      7  C   UNL     1       1.008  42.372  53.143  1.00  0.00     0.149 A 
ATOM      8  N   UNL     1       0.102  43.074  53.835  1.00  0.00    -0.179 NA
ATOM      9  N   UNL     1       0.782  44.189  54.191  1.00  0.00    -0.250 N 
ATOM     10  C   UNL     1       0.126  45.196  54.986  1.00  0.00     0.176 C 
ENDROOT
BRANCH   1  11
ATOM     11  N   UNL     1       3.884  41.687  51.736  1.00  0.00    -0.339 N 
ATOM     12  H   UNL     1       4.409  41.083  52.362  1.00  0.00     0.168 HD
BRANCH  11  13
ATOM     13  C   UNL     1       4.365  41.602  50.415  1.00  0.00     0.040 A 
ATOM     14  C   UNL     1       5.426  41.525  47.797  1.00  0.00     0.119 A 
ATOM     15  C   UNL     1       6.059  42.271  48.788  1.00  0.00     0.048 A 
ATOM     16  C   UNL     1       4.260  40.828  48.114  1.00  0.00     0.048 A 
ATOM     17  C   UNL     1       5.528  42.309  50.084  1.00  0.00     0.030 A 
ATOM     18  C   UNL     1       3.732  40.866  49.410  1.00  0.00     0.030 A 
BRANCH  14  19
ATOM     19  O   UNL     1       5.833  41.402  46.497  1.00  0.00    -0.497 OA
ATOM     20  C   UNL     1       4.845  41.594  45.493  1.00  0.00     0.278 C 
ENDBRANCH  14  19
ENDBRANCH  11  13
ENDBRANCH   1  11
BRANCH   3  21
ATOM     21  N   UNL     1       5.171  45.816  53.604  1.00  0.00    -0.350 N 
ATOM     22  H   UNL     1       4.756  46.561  54.151  1.00  0.00     0.164 HD
BRANCH  21  23
ATOM     23  C   UNL     1       5.841  46.253  52.397  1.00  0.00     0.152 C 
BRANCH  23  24
ATOM     24  C   UNL     1       7.291  46.540  52.713  1.00  0.00    -0.029 A 
ATOM     25  C   UNL     1       7.663  46.976  53.994  1.00  0.00     0.005 A 
ATOM     26  C   UNL     1       8.282  46.396  51.731  1.00  0.00     0.005 A 
ATOM     27  C   UNL     1       8.999  47.252  54.289  1.00  0.00     0.000 A 
ATOM     28  C   UNL     1       9.618  46.672  52.030  1.00  0.00     0.000 A 
ATOM     29  C   UNL     1       9.976  47.097  53.308  1.00  0.00     0.000 A 
ENDBRANCH  23  24
ENDBRANCH  21  23
ENDBRANCH   3  21
TORSDOF 6
ENDMDL
MODEL 15
REMARK VINA RESULT:    -8.585      4.479      7.523
REMARK INTER + INTRA:         -12.482
REMARK INTER:                 -11.635
REMARK INTRA:                  -0.847
REMARK UNBOUND:                -0.886
REMARK SMILES COc1ccc(Nc2nc(NCc3ccccc3)nc3c2cnn3C)cc1
REMARK SMILES IDX 8 1 9 2 10 3 19 4 20 5 21 6 22 7 23 8 24 9 25 10 7 11 6 13
REMARK SMILES IDX 3 14 4 15 27 16 5 17 26 18 2 19 1 20 11 21 12 23 13 24 14 25
REMARK SMILES IDX 18 26 15 27 17 28 16 29
REMARK H PARENT 7 12 11 22
ROOT
ATOM      1  C   UNL     1       2.327  44.851  53.458  1.00  0.00     0.147 A 
ATOM      2  N   UNL     1       3.408  45.375  54.088  1.00  0.00    -0.195 NA
ATOM      3  C   UNL     1       4.644  44.916  53.809  1.00  0.00     0.227 A 
ATOM      4  N   UNL     1       4.940  43.951  52.930  1.00  0.00    -0.193 NA
ATOM      5  C   UNL     1       3.858  43.476  52.295  1.00  0.00     0.165 A 
ATOM      6  C   UNL     1       2.549  43.867  52.493  1.00  0.00     0.082 A 
ATOM      7  C   UNL     1       1.810  43.101  51.569  1.00  0.00     0.149 A 
ATOM      8  N   UNL     1       2.575  42.264  50.856  1.00  0.00    -0.179 NA
ATOM      9  N   UNL     1       3.822  42.520  51.316  1.00  0.00    -0.250 N 
ATOM     10  C   UNL     1       4.943  41.810  50.755  1.00  0.00     0.176 C 
ENDROOT
BRANCH   1  11
ATOM     11  N   UNL     1       1.077  45.396  53.787  1.00  0.00    -0.339 N 
ATOM     12  H   UNL     1       1.147  46.406  53.686  1.00  0.00     0.168 HD
BRANCH  11  13
ATOM     13  C   UNL     1       0.205  45.043  54.834  1.00  0.00     0.040 A 
ATOM     14  C   UNL     1      -1.632  44.280  56.842  1.00  0.00     0.119 A 
ATOM     15  C   UNL     1      -1.834  43.888  55.521  1.00  0.00     0.048 A 
ATOM     16  C   UNL     1      -0.518  45.061  57.153  1.00  0.00     0.048 A 
ATOM     17  C   UNL     1      -0.922  44.271  54.528  1.00  0.00     0.030 A 
ATOM     18  C   UNL     1       0.391  45.441  56.160  1.00  0.00     0.030 A 
BRANCH  14  19
ATOM     19  O   UNL     1      -2.438  43.980  57.905  1.00  0.00    -0.497 OA
ATOM     20  C   UNL     1      -3.744  44.540  57.900  1.00  0.00     0.278 C 
ENDBRANCH  14  19
ENDBRANCH  11  13
ENDBRANCH   1  11
BRANCH   3  21
ATOM     21  N   UNL     1       5.738  45.459  54.470  1.00  0.00    -0.350 N 
ATOM     22  H   UNL     1       5.554  45.375  55.463  1.00  0.00     0.164 HD
BRANCH  21  23
ATOM     23  C   UNL     1       6.096  46.792  54.032  1.00  0.00     0.152 C 
BRANCH  23  24
ATOM     24  C   UNL     1       7.489  46.763  53.447  1.00  0.00    -0.029 A 
ATOM     25  C   UNL     1       7.694  46.328  52.129  1.00  0.00     0.005 A 
ATOM     26  C   UNL     1       8.599  47.147  54.214  1.00  0.00     0.005 A 
ATOM     27  C   UNL     1       8.979  46.290  51.586  1.00  0.00     0.000 A 
ATOM     28  C   UNL     1       9.883  47.108  53.668  1.00  0.00     0.000 A 
ATOM     29  C   UNL     1      10.073  46.681  52.355  1.00  0.00     0.000 A 
ENDBRANCH  23  24
ENDBRANCH  21  23
ENDBRANCH   3  21
TORSDOF 6
ENDMDL
MODEL 16
REMARK VINA RESULT:    -8.548      5.448      9.040
REMARK INTER + INTRA:         -12.433
REMARK INTER:                 -11.595
REMARK INTRA:                  -0.837
REMARK UNBOUND:                -0.886
REMARK SMILES COc1ccc(Nc2nc(NCc3ccccc3)nc3c2cnn3C)cc1
REMARK SMILES IDX 8 1 9 2 10 3 19 4 20 5 21 6 22 7 23 8 24 9 25 10 7 11 6 13
REMARK SMILES IDX 3 14 4 15 27 16 5 17 26 18 2 19 1 20 11 21 12 23 13 24 14 25
REMARK SMILES IDX 18 26 15 27 17 28 16 29
REMARK H PARENT 7 12 11 22
ROOT
ATOM      1  C   UNL     1       2.203  45.227  55.473  1.00  0.00     0.147 A 
ATOM      2  N   UNL     1       3.250  46.065  55.267  1.00  0.00    -0.195 NA
ATOM      3  C   UNL     1       3.811  46.161  54.045  1.00  0.00     0.227 A 
ATOM      4  N   UNL     1       3.428  45.489  52.954  1.00  0.00    -0.193 NA
ATOM      5  C   UNL     1       2.369  44.695  53.176  1.00  0.00     0.165 A 
ATOM      6  C   UNL     1       1.712  44.517  54.377  1.00  0.00     0.082 A 
ATOM      7  C   UNL     1       0.664  43.623  54.074  1.00  0.00     0.149 A 
ATOM      8  N   UNL     1       0.665  43.235  52.793  1.00  0.00    -0.179 NA
ATOM      9  N   UNL     1       1.713  43.911  52.266  1.00  0.00    -0.250 N 
ATOM     10  C   UNL     1       2.021  43.762  50.866  1.00  0.00     0.176 C 
ENDROOT
BRANCH   1  11
ATOM     11  N   UNL     1       1.660  45.199  56.766  1.00  0.00    -0.339 N 
ATOM     12  H   UNL     1       1.477  44.226  57.000  1.00  0.00     0.168 HD
BRANCH  11  13
ATOM     13  C   UNL     1       0.705  46.055  57.345  1.00  0.00     0.040 A 
ATOM     14  C   UNL     1      -1.122  47.802  58.610  1.00  0.00     0.119 A 
ATOM     15  C   UNL     1       0.178  47.677  59.094  1.00  0.00     0.048 A 
ATOM     16  C   UNL     1      -1.507  47.047  57.502  1.00  0.00     0.048 A 
ATOM     17  C   UNL     1       1.080  46.807  58.466  1.00  0.00     0.030 A 
ATOM     18  C   UNL     1      -0.605  46.180  56.876  1.00  0.00     0.030 A 
BRANCH  14  19
ATOM     19  O   UNL     1      -2.099  48.608  59.124  1.00  0.00    -0.497 OA
ATOM     20  C   UNL     1      -1.719  49.928  59.489  1.00  0.00     0.278 C 
ENDBRANCH  14  19
ENDBRANCH  11  13
ENDBRANCH   1  11
BRANCH   3  21
ATOM     21  N   UNL     1       4.886  47.019  53.855  1.00  0.00    -0.350 N 
ATOM     22  H   UNL     1       5.042  47.078  52.855  1.00  0.00     0.164 HD
BRANCH  21  23
ATOM     23  C   UNL     1       6.061  46.682  54.631  1.00  0.00     0.152 C 
BRANCH  23  24
ATOM     24  C   UNL     1       7.278  46.745  53.737  1.00  0.00    -0.029 A 
ATOM     25  C   UNL     1       8.521  47.131  54.261  1.00  0.00     0.005 A 
ATOM     26  C   UNL     1       7.183  46.443  52.371  1.00  0.00     0.005 A 
ATOM     27  C   UNL     1       9.647  47.200  53.438  1.00  0.00     0.000 A 
ATOM     28  C   UNL     1       8.310  46.513  51.550  1.00  0.00     0.000 A 
ATOM     29  C   UNL     1       9.541  46.890  52.084  1.00  0.00     0.000 A 
ENDBRANCH  23  24
ENDBRANCH  21  23
ENDBRANCH   3  21
TORSDOF 6
ENDMDL
MODEL 17
REMARK VINA RESULT:    -8.543      3.803      5.779
REMARK INTER + INTRA:         -12.425
REMARK INTER:                 -11.271
REMARK INTRA:                  -1.155
REMARK UNBOUND:                -0.886
REMARK SMILES COc1ccc(Nc2nc(NCc3ccccc3)nc3c2cnn3C)cc1
REMARK SMILES IDX 8 1 9 2 10 3 19 4 20 5 21 6 22 7 23 8 24 9 25 10 7 11 6 13
REMARK SMILES IDX 3 14 4 15 27 16 5 17 26 18 2 19 1 20 11 21 12 23 13 24 14 25
REMARK SMILES IDX 18 26 15 27 17 28 16 29
REMARK H PARENT 7 12 11 22
ROOT
ATOM      1  C   UNL     1       1.665  42.994  52.719  1.00  0.00     0.147 A 
ATOM      2  N   UNL     1       2.433  43.559  53.686  1.00  0.00    -0.195 NA
ATOM      3  C   UNL     1       1.857  44.237  54.699  1.00  0.00     0.227 A 
ATOM      4  N   UNL     1       0.543  44.422  54.868  1.00  0.00    -0.193 NA
ATOM      5  C   UNL     1      -0.195  43.823  53.921  1.00  0.00     0.165 A 
ATOM      6  C   UNL     1       0.279  43.104  52.842  1.00  0.00     0.082 A 
ATOM      7  C   UNL     1      -0.883  42.662  52.177  1.00  0.00     0.149 A 
ATOM      8  N   UNL     1      -2.010  43.086  52.761  1.00  0.00    -0.179 NA
ATOM      9  N   UNL     1      -1.560  43.788  53.828  1.00  0.00    -0.250 N 
ATOM     10  C   UNL     1      -2.507  44.392  54.730  1.00  0.00     0.176 C 
ENDROOT
BRANCH   1  11
ATOM     11  N   UNL     1       2.337  42.288  51.711  1.00  0.00    -0.339 N 
ATOM     12  H   UNL     1       2.177  41.296  51.872  1.00  0.00     0.168 HD
BRANCH  11  13
ATOM     13  C   UNL     1       3.614  42.520  51.167  1.00  0.00     0.040 A 
ATOM     14  C   UNL     1       6.157  43.124  50.092  1.00  0.00     0.119 A 
ATOM     15  C   UNL     1       5.373  44.132  50.647  1.00  0.00     0.048 A 
ATOM     16  C   UNL     1       5.664  41.819  50.068  1.00  0.00     0.048 A 
ATOM     17  C   UNL     1       4.111  43.830  51.175  1.00  0.00     0.030 A 
ATOM     18  C   UNL     1       4.404  41.519  50.598  1.00  0.00     0.030 A 
BRANCH  14  19
ATOM     19  O   UNL     1       7.400  43.278  49.543  1.00  0.00    -0.497 OA
ATOM     20  C   UNL     1       8.013  44.552  49.688  1.00  0.00     0.278 C 
ENDBRANCH  14  19
ENDBRANCH  11  13
ENDBRANCH   1  11
BRANCH   3  21
ATOM     21  N   UNL     1       2.659  44.814  55.674  1.00  0.00    -0.350 N 
ATOM     22  H   UNL     1       2.197  44.660  56.563  1.00  0.00     0.164 HD
BRANCH  21  23
ATOM     23  C   UNL     1       3.020  46.191  55.410  1.00  0.00     0.152 C 
BRANCH  23  24
ATOM     24  C   UNL     1       4.317  46.222  54.636  1.00  0.00    -0.029 A 
ATOM     25  C   UNL     1       4.495  47.139  53.589  1.00  0.00     0.005 A 
ATOM     26  C   UNL     1       5.353  45.324  54.933  1.00  0.00     0.005 A 
ATOM     27  C   UNL     1       5.688  47.166  52.864  1.00  0.00     0.000 A 
ATOM     28  C   UNL     1       6.545  45.353  54.207  1.00  0.00     0.000 A 
ATOM     29  C   UNL     1       6.712  46.274  53.175  1.00  0.00     0.000 A 
ENDBRANCH  23  24
ENDBRANCH  21  23
ENDBRANCH   3  21
TORSDOF 6
ENDMDL
MODEL 18
REMARK VINA RESULT:    -8.505      3.862      7.784
REMARK INTER + INTRA:         -12.375
REMARK INTER:                 -11.579
REMARK INTRA:                  -0.795
REMARK UNBOUND:                -0.886
REMARK SMILES COc1ccc(Nc2nc(NCc3ccccc3)nc3c2cnn3C)cc1
REMARK SMILES IDX 8 1 9 2 10 3 19 4 20 5 21 6 22 7 23 8 24 9 25 10 7 11 6 13
REMARK SMILES IDX 3 14 4 15 27 16 5 17 26 18 2 19 1 20 11 21 12 23 13 24 14 25
REMARK SMILES IDX 18 26 15 27 17 28 16 29
REMARK H PARENT 7 12 11 22
ROOT
ATOM      1  C   UNL     1       3.164  45.365  54.563  1.00  0.00     0.147 A 
ATOM      2  N   UNL     1       3.344  44.701  53.394  1.00  0.00    -0.195 NA
ATOM      3  C   UNL     1       2.361  43.925  52.897  1.00  0.00     0.227 A 
ATOM      4  N   UNL     1       1.161  43.728  53.457  1.00  0.00    -0.193 NA
ATOM      5  C   UNL     1       0.996  44.424  54.592  1.00  0.00     0.165 A 
ATOM      6  C   UNL     1       1.925  45.249  55.194  1.00  0.00     0.082 A 
ATOM      7  C   UNL     1       1.258  45.761  56.326  1.00  0.00     0.149 A 
ATOM      8  N   UNL     1       0.015  45.283  56.458  1.00  0.00    -0.179 NA
ATOM      9  N   UNL     1      -0.121  44.474  55.382  1.00  0.00    -0.250 N 
ATOM     10  C   UNL     1      -1.367  43.784  55.167  1.00  0.00     0.176 C 
ENDROOT
BRANCH   1  11
ATOM     11  N   UNL     1       4.226  46.169  55.004  1.00  0.00    -0.339 N 
ATOM     12  H   UNL     1       3.826  46.955  55.511  1.00  0.00     0.168 HD
BRANCH  11  13
ATOM     13  C   UNL     1       5.398  46.542  54.319  1.00  0.00     0.040 A 
ATOM     14  C   UNL     1       7.824  47.242  53.050  1.00  0.00     0.119 A 
ATOM     15  C   UNL     1       7.838  46.515  54.237  1.00  0.00     0.048 A 
ATOM     16  C   UNL     1       6.598  47.626  52.505  1.00  0.00     0.048 A 
ATOM     17  C   UNL     1       6.633  46.173  54.865  1.00  0.00     0.030 A 
ATOM     18  C   UNL     1       5.396  47.282  53.133  1.00  0.00     0.030 A 
BRANCH  14  19
ATOM     19  O   UNL     1       8.920  47.642  52.336  1.00  0.00    -0.497 OA
ATOM     20  C   UNL     1       9.911  46.658  52.075  1.00  0.00     0.278 C 
ENDBRANCH  14  19
ENDBRANCH  11  13
ENDBRANCH   1  11
BRANCH   3  21
ATOM     21  N   UNL     1       2.565  43.247  51.702  1.00  0.00    -0.350 N 
ATOM     22  H   UNL     1       1.652  42.972  51.360  1.00  0.00     0.164 HD
BRANCH  21  23
ATOM     23  C   UNL     1       3.529  42.170  51.786  1.00  0.00     0.152 C 
BRANCH  23  24
ATOM     24  C   UNL     1       4.722  42.506  50.921  1.00  0.00    -0.029 A 
ATOM     25  C   UNL     1       5.266  41.540  50.061  1.00  0.00     0.005 A 
ATOM     26  C   UNL     1       5.316  43.775  50.977  1.00  0.00     0.005 A 
ATOM     27  C   UNL     1       6.373  41.841  49.266  1.00  0.00     0.000 A 
ATOM     28  C   UNL     1       6.423  44.074  50.180  1.00  0.00     0.000 A 
ATOM     29  C   UNL     1       6.950  43.108  49.325  1.00  0.00     0.000 A 
ENDBRANCH  23  24
ENDBRANCH  21  23
ENDBRANCH   3  21
TORSDOF 6
ENDMDL
MODEL 19
REMARK VINA RESULT:    -8.455      3.211      7.823
REMARK INTER + INTRA:         -12.306
REMARK INTER:                 -11.494
REMARK INTRA:                  -0.812
REMARK UNBOUND:                -0.886
REMARK SMILES COc1ccc(Nc2nc(NCc3ccccc3)nc3c2cnn3C)cc1
REMARK SMILES IDX 8 1 9 2 10 3 19 4 20 5 21 6 22 7 23 8 24 9 25 10 7 11 6 13
REMARK SMILES IDX 3 14 4 15 27 16 5 17 26 18 2 19 1 20 11 21 12 23 13 24 14 25
REMARK SMILES IDX 18 26 15 27 17 28 16 29
REMARK H PARENT 7 12 11 22
ROOT
ATOM      1  C   UNL     1       3.577  44.166  52.772  1.00  0.00     0.147 A 
ATOM      2  N   UNL     1       3.955  43.019  52.154  1.00  0.00    -0.195 NA
ATOM      3  C   UNL     1       3.081  42.348  51.377  1.00  0.00     0.227 A 
ATOM      4  N   UNL     1       1.816  42.710  51.132  1.00  0.00    -0.193 NA
ATOM      5  C   UNL     1       1.479  43.865  51.725  1.00  0.00     0.165 A 
ATOM      6  C   UNL     1       2.285  44.637  52.538  1.00  0.00     0.082 A 
ATOM      7  C   UNL     1       1.483  45.748  52.873  1.00  0.00     0.149 A 
ATOM      8  N   UNL     1       0.255  45.681  52.345  1.00  0.00    -0.179 NA
ATOM      9  N   UNL     1       0.283  44.524  51.644  1.00  0.00    -0.250 N 
ATOM     10  C   UNL     1      -0.884  44.116  50.902  1.00  0.00     0.176 C 
ENDROOT
BRANCH   1  11
ATOM     11  N   UNL     1       4.549  44.816  53.547  1.00  0.00    -0.339 N 
ATOM     12  H   UNL     1       4.063  45.410  54.214  1.00  0.00     0.168 HD
BRANCH  11  13
ATOM     13  C   UNL     1       5.767  45.393  53.138  1.00  0.00     0.040 A 
ATOM     14  C   UNL     1       8.231  46.593  52.450  1.00  0.00     0.119 A 
ATOM     15  C   UNL     1       7.831  46.529  53.782  1.00  0.00     0.048 A 
ATOM     16  C   UNL     1       7.395  46.067  51.465  1.00  0.00     0.048 A 
ATOM     17  C   UNL     1       6.607  45.936  54.119  1.00  0.00     0.030 A 
ATOM     18  C   UNL     1       6.173  45.474  51.804  1.00  0.00     0.030 A 
BRANCH  14  19
ATOM     19  O   UNL     1       9.393  47.142  51.982  1.00  0.00    -0.497 OA
ATOM     20  C   UNL     1      10.422  46.238  51.599  1.00  0.00     0.278 C 
ENDBRANCH  14  19
ENDBRANCH  11  13
ENDBRANCH   1  11
BRANCH   3  21
ATOM     21  N   UNL     1       3.483  41.173  50.757  1.00  0.00    -0.350 N 
ATOM     22  H   UNL     1       3.305  40.419  51.412  1.00  0.00     0.164 HD
BRANCH  21  23
ATOM     23  C   UNL     1       4.830  41.209  50.229  1.00  0.00     0.152 C 
BRANCH  23  24
ATOM     24  C   UNL     1       4.768  41.200  48.718  1.00  0.00    -0.029 A 
ATOM     25  C   UNL     1       3.751  40.496  48.056  1.00  0.00     0.005 A 
ATOM     26  C   UNL     1       5.733  41.875  47.956  1.00  0.00     0.005 A 
ATOM     27  C   UNL     1       3.694  40.476  46.661  1.00  0.00     0.000 A 
ATOM     28  C   UNL     1       5.673  41.855  46.561  1.00  0.00     0.000 A 
ATOM     29  C   UNL     1       4.654  41.157  45.915  1.00  0.00     0.000 A 
ENDBRANCH  23  24
ENDBRANCH  21  23
ENDBRANCH   3  21
TORSDOF 6
ENDMDL
