MODEL 1
REMARK VINA RESULT:    -8.717      0.000      0.000
REMARK INTER + INTRA:         -12.860
REMARK INTER:                 -11.774
REMARK INTRA:                  -1.085
REMARK UNBOUND:                -1.085
REMARK SMILES Cc1ccc(Nc2nc(NCCC(C)C)nc3c2cnn3C)cc1
REMARK SMILES IDX 10 1 9 3 7 4 8 5 18 6 17 7 19 8 16 9 21 10 20 11 22 12 6 13
REMARK SMILES IDX 5 15 2 16 3 17 24 18 4 19 23 20 1 21 11 22 12 23 13 24 14 25
REMARK SMILES IDX 15 26
REMARK H PARENT 10 2 6 14
ROOT
ATOM      1  N   UNL     1       2.344  45.724  51.644  1.00  0.00    -0.354 N 
ATOM      2  H   UNL     1       1.584  45.055  51.577  1.00  0.00     0.163 HD
ENDROOT
BRANCH   1   3
ATOM      3  C   UNL     1       3.475  45.018  51.252  1.00  0.00     0.226 A 
ATOM      4  C   UNL     1       5.797  45.194  50.897  1.00  0.00     0.147 A 
ATOM      5  N   UNL     1       4.606  45.747  51.248  1.00  0.00    -0.195 NA
ATOM      6  C   UNL     1       5.778  43.841  50.532  1.00  0.00     0.082 A 
ATOM      7  C   UNL     1       4.559  43.193  50.568  1.00  0.00     0.165 A 
ATOM      8  C   UNL     1       6.686  42.851  50.103  1.00  0.00     0.149 A 
ATOM      9  N   UNL     1       3.381  43.727  50.914  1.00  0.00    -0.193 NA
ATOM     10  N   UNL     1       4.804  41.904  50.181  1.00  0.00    -0.250 N 
ATOM     11  N   UNL     1       6.102  41.667  49.882  1.00  0.00    -0.179 NA
ATOM     12  C   UNL     1       3.843  40.836  50.072  1.00  0.00     0.176 C 
BRANCH   4  13
ATOM     13  N   UNL     1       6.985  45.940  50.869  1.00  0.00    -0.339 N 
ATOM     14  H   UNL     1       7.288  46.190  49.939  1.00  0.00     0.168 HD
BRANCH  13  15
ATOM     15  C   UNL     1       7.880  46.330  51.881  1.00  0.00     0.040 A 
ATOM     16  C   UNL     1       9.578  47.089  54.026  1.00  0.00    -0.051 A 
ATOM     17  C   UNL     1       8.192  47.089  54.185  1.00  0.00     0.005 A 
ATOM     18  C   UNL     1      10.111  46.682  52.800  1.00  0.00     0.005 A 
ATOM     19  C   UNL     1       7.357  46.716  53.126  1.00  0.00     0.026 A 
ATOM     20  C   UNL     1       9.270  46.309  51.743  1.00  0.00     0.026 A 
ATOM     21  C   UNL     1      10.480  47.455  55.167  1.00  0.00     0.044 C 
ENDBRANCH  13  15
ENDBRANCH   4  13
ENDBRANCH   1   3
BRANCH   1  22
ATOM     22  C   UNL     1       2.432  46.426  52.912  1.00  0.00     0.116 C 
BRANCH  22  23
ATOM     23  C   UNL     1       2.719  45.474  54.079  1.00  0.00     0.024 C 
BRANCH  23  24
ATOM     24  C   UNL     1       3.799  45.955  55.068  1.00  0.00    -0.016 C 
ATOM     25  C   UNL     1       4.948  44.956  55.213  1.00  0.00     0.007 C 
ATOM     26  C   UNL     1       4.347  47.311  54.614  1.00  0.00     0.007 C 
ENDBRANCH  23  24
ENDBRANCH  22  23
ENDBRANCH   1  22
TORSDOF 6
ENDMDL
MODEL 2
REMARK VINA RESULT:    -8.716      2.204      5.037
REMARK INTER + INTRA:         -12.859
REMARK INTER:                 -12.287
REMARK INTRA:                  -0.572
REMARK UNBOUND:                -1.085
REMARK SMILES Cc1ccc(Nc2nc(NCCC(C)C)nc3c2cnn3C)cc1
REMARK SMILES IDX 10 1 9 3 7 4 8 5 18 6 17 7 19 8 16 9 21 10 20 11 22 12 6 13
REMARK SMILES IDX 5 15 2 16 3 17 24 18 4 19 23 20 1 21 11 22 12 23 13 24 14 25
REMARK SMILES IDX 15 26
REMARK H PARENT 10 2 6 14
ROOT
ATOM      1  N   UNL     1       6.248  41.597  49.309  1.00  0.00    -0.354 N 
ATOM      2  H   UNL     1       6.482  40.838  49.940  1.00  0.00     0.163 HD
ENDROOT
BRANCH   1   3
ATOM      3  C   UNL     1       5.754  42.604  50.131  1.00  0.00     0.226 A 
ATOM      4  C   UNL     1       6.200  44.756  50.976  1.00  0.00     0.147 A 
ATOM      5  N   UNL     1       6.550  43.685  50.217  1.00  0.00    -0.195 NA
ATOM      6  C   UNL     1       4.983  44.667  51.666  1.00  0.00     0.082 A 
ATOM      7  C   UNL     1       4.250  43.507  51.507  1.00  0.00     0.165 A 
ATOM      8  C   UNL     1       4.207  45.452  52.543  1.00  0.00     0.149 A 
ATOM      9  N   UNL     1       4.585  42.447  50.761  1.00  0.00    -0.193 NA
ATOM     10  N   UNL     1       3.121  43.666  52.264  1.00  0.00    -0.250 N 
ATOM     11  N   UNL     1       3.071  44.850  52.918  1.00  0.00    -0.179 NA
ATOM     12  C   UNL     1       2.040  42.726  52.412  1.00  0.00     0.176 C 
BRANCH   4  13
ATOM     13  N   UNL     1       7.023  45.886  51.094  1.00  0.00    -0.339 N 
ATOM     14  H   UNL     1       7.025  46.476  50.274  1.00  0.00     0.168 HD
BRANCH  13  15
ATOM     15  C   UNL     1       7.914  46.308  52.097  1.00  0.00     0.040 A 
ATOM     16  C   UNL     1       9.603  47.129  54.225  1.00  0.00    -0.051 A 
ATOM     17  C   UNL     1       8.218  47.091  54.394  1.00  0.00     0.005 A 
ATOM     18  C   UNL     1      10.139  46.730  52.999  1.00  0.00     0.005 A 
ATOM     19  C   UNL     1       7.387  46.687  53.342  1.00  0.00     0.026 A 
ATOM     20  C   UNL     1       9.303  46.326  51.950  1.00  0.00     0.026 A 
ATOM     21  C   UNL     1      10.501  47.529  55.358  1.00  0.00     0.044 C 
ENDBRANCH  13  15
ENDBRANCH   4  13
ENDBRANCH   1   3
BRANCH   1  22
ATOM     22  C   UNL     1       5.412  41.221  48.183  1.00  0.00     0.116 C 
BRANCH  22  23
ATOM     23  C   UNL     1       5.789  41.981  46.905  1.00  0.00     0.024 C 
BRANCH  23  24
ATOM     24  C   UNL     1       5.139  41.453  45.611  1.00  0.00    -0.016 C 
ATOM     25  C   UNL     1       3.743  40.876  45.850  1.00  0.00     0.007 C 
ATOM     26  C   UNL     1       5.063  42.578  44.576  1.00  0.00     0.007 C 
ENDBRANCH  23  24
ENDBRANCH  22  23
ENDBRANCH   1  22
TORSDOF 6
ENDMDL
MODEL 3
REMARK VINA RESULT:    -8.682      1.069      1.161
REMARK INTER + INTRA:         -12.812
REMARK INTER:                 -11.647
REMARK INTRA:                  -1.166
REMARK UNBOUND:                -1.085
REMARK SMILES Cc1ccc(Nc2nc(NCCC(C)C)nc3c2cnn3C)cc1
REMARK SMILES IDX 10 1 9 3 7 4 8 5 18 6 17 7 19 8 16 9 21 10 20 11 22 12 6 13
REMARK SMILES IDX 5 15 2 16 3 17 24 18 4 19 23 20 1 21 11 22 12 23 13 24 14 25
REMARK SMILES IDX 15 26
REMARK H PARENT 10 2 6 14
ROOT
ATOM      1  N   UNL     1       2.940  44.440  52.233  1.00  0.00    -0.354 N 
ATOM      2  H   UNL     1       2.818  43.505  52.610  1.00  0.00     0.163 HD
ENDROOT
BRANCH   1   3
ATOM      3  C   UNL     1       4.168  44.403  51.582  1.00  0.00     0.226 A 
ATOM      4  C   UNL     1       6.201  45.555  51.295  1.00  0.00     0.147 A 
ATOM      5  N   UNL     1       4.965  45.453  51.850  1.00  0.00    -0.195 NA
ATOM      6  C   UNL     1       6.589  44.524  50.430  1.00  0.00     0.082 A 
ATOM      7  C   UNL     1       5.687  43.498  50.225  1.00  0.00     0.165 A 
ATOM      8  C   UNL     1       7.701  44.174  49.637  1.00  0.00     0.149 A 
ATOM      9  N   UNL     1       4.468  43.386  50.767  1.00  0.00    -0.193 NA
ATOM     10  N   UNL     1       6.295  42.628  49.361  1.00  0.00    -0.250 N 
ATOM     11  N   UNL     1       7.531  43.022  48.977  1.00  0.00    -0.179 NA
ATOM     12  C   UNL     1       5.753  41.392  48.855  1.00  0.00     0.176 C 
BRANCH   4  13
ATOM     13  N   UNL     1       7.041  46.650  51.548  1.00  0.00    -0.339 N 
ATOM     14  H   UNL     1       6.975  47.384  50.857  1.00  0.00     0.168 HD
BRANCH  13  15
ATOM     15  C   UNL     1       8.023  46.883  52.527  1.00  0.00     0.040 A 
ATOM     16  C   UNL     1       9.892  47.359  54.610  1.00  0.00    -0.051 A 
ATOM     17  C   UNL     1       8.546  47.685  54.779  1.00  0.00     0.005 A 
ATOM     18  C   UNL     1      10.293  46.770  53.409  1.00  0.00     0.005 A 
ATOM     19  C   UNL     1       7.626  47.452  53.749  1.00  0.00     0.026 A 
ATOM     20  C   UNL     1       9.368  46.537  52.383  1.00  0.00     0.026 A 
ATOM     21  C   UNL     1      10.876  47.575  55.721  1.00  0.00     0.044 C 
ENDBRANCH  13  15
ENDBRANCH   4  13
ENDBRANCH   1   3
BRANCH   1  22
ATOM     22  C   UNL     1       2.752  45.516  53.189  1.00  0.00     0.116 C 
BRANCH  22  23
ATOM     23  C   UNL     1       2.951  45.044  54.635  1.00  0.00     0.024 C 
BRANCH  23  24
ATOM     24  C   UNL     1       4.095  45.737  55.400  1.00  0.00    -0.016 C 
ATOM     25  C   UNL     1       5.394  44.933  55.367  1.00  0.00     0.007 C 
ATOM     26  C   UNL     1       4.336  47.132  54.815  1.00  0.00     0.007 C 
ENDBRANCH  23  24
ENDBRANCH  22  23
ENDBRANCH   1  22
TORSDOF 6
ENDMDL
MODEL 4
REMARK VINA RESULT:    -8.349      1.566      4.471
REMARK INTER + INTRA:         -12.363
REMARK INTER:                 -11.965
REMARK INTRA:                  -0.398
REMARK UNBOUND:                -1.085
REMARK SMILES Cc1ccc(Nc2nc(NCCC(C)C)nc3c2cnn3C)cc1
REMARK SMILES IDX 10 1 9 3 7 4 8 5 18 6 17 7 19 8 16 9 21 10 20 11 22 12 6 13
REMARK SMILES IDX 5 15 2 16 3 17 24 18 4 19 23 20 1 21 11 22 12 23 13 24 14 25
REMARK SMILES IDX 15 26
REMARK H PARENT 10 2 6 14
ROOT
ATOM      1  N   UNL     1       4.202  41.681  51.517  1.00  0.00    -0.354 N 
ATOM      2  H   UNL     1       3.423  41.219  51.976  1.00  0.00     0.163 HD
ENDROOT
BRANCH   1   3
ATOM      3  C   UNL     1       3.964  43.039  51.694  1.00  0.00     0.226 A 
ATOM      4  C   UNL     1       4.960  45.170  51.596  1.00  0.00     0.147 A 
ATOM      5  N   UNL     1       5.037  43.819  51.472  1.00  0.00    -0.195 NA
ATOM      6  C   UNL     1       3.717  45.697  51.975  1.00  0.00     0.082 A 
ATOM      7  C   UNL     1       2.687  44.801  52.181  1.00  0.00     0.165 A 
ATOM      8  C   UNL     1       3.140  46.957  52.234  1.00  0.00     0.149 A 
ATOM      9  N   UNL     1       2.751  43.469  52.060  1.00  0.00    -0.193 NA
ATOM     10  N   UNL     1       1.597  45.551  52.529  1.00  0.00    -0.250 N 
ATOM     11  N   UNL     1       1.848  46.880  52.577  1.00  0.00    -0.179 NA
ATOM     12  C   UNL     1       0.275  45.066  52.833  1.00  0.00     0.176 C 
BRANCH   4  13
ATOM     13  N   UNL     1       6.070  46.001  51.386  1.00  0.00    -0.339 N 
ATOM     14  H   UNL     1       6.139  46.361  50.445  1.00  0.00     0.168 HD
BRANCH  13  15
ATOM     15  C   UNL     1       7.154  46.357  52.208  1.00  0.00     0.040 A 
ATOM     16  C   UNL     1       9.253  47.049  53.990  1.00  0.00    -0.051 A 
ATOM     17  C   UNL     1       7.925  47.074  54.417  1.00  0.00     0.005 A 
ATOM     18  C   UNL     1       9.528  46.651  52.680  1.00  0.00     0.005 A 
ATOM     19  C   UNL     1       6.891  46.735  53.536  1.00  0.00     0.026 A 
ATOM     20  C   UNL     1       8.490  46.311  51.803  1.00  0.00     0.026 A 
ATOM     21  C   UNL     1      10.368  47.379  54.938  1.00  0.00     0.044 C 
ENDBRANCH  13  15
ENDBRANCH   4  13
ENDBRANCH   1   3
BRANCH   1  22
ATOM     22  C   UNL     1       4.456  41.245  50.156  1.00  0.00     0.116 C 
BRANCH  22  23
ATOM     23  C   UNL     1       5.928  41.417  49.761  1.00  0.00     0.024 C 
BRANCH  23  24
ATOM     24  C   UNL     1       6.214  42.574  48.783  1.00  0.00    -0.016 C 
ATOM     25  C   UNL     1       7.598  43.189  48.991  1.00  0.00     0.007 C 
ATOM     26  C   UNL     1       6.081  42.076  47.341  1.00  0.00     0.007 C 
ENDBRANCH  23  24
ENDBRANCH  22  23
ENDBRANCH   1  22
TORSDOF 6
ENDMDL
MODEL 5
REMARK VINA RESULT:    -8.346      1.357      1.662
REMARK INTER + INTRA:         -12.359
REMARK INTER:                 -11.583
REMARK INTRA:                  -0.776
REMARK UNBOUND:                -1.085
REMARK SMILES Cc1ccc(Nc2nc(NCCC(C)C)nc3c2cnn3C)cc1
REMARK SMILES IDX 10 1 9 3 7 4 8 5 18 6 17 7 19 8 16 9 21 10 20 11 22 12 6 13
REMARK SMILES IDX 5 15 2 16 3 17 24 18 4 19 23 20 1 21 11 22 12 23 13 24 14 25
REMARK SMILES IDX 15 26
REMARK H PARENT 10 2 6 14
ROOT
ATOM      1  N   UNL     1       3.372  43.611  53.043  1.00  0.00    -0.354 N 
ATOM      2  H   UNL     1       3.760  43.905  53.933  1.00  0.00     0.163 HD
ENDROOT
BRANCH   1   3
ATOM      3  C   UNL     1       4.412  43.767  52.133  1.00  0.00     0.226 A 
ATOM      4  C   UNL     1       6.214  45.157  51.527  1.00  0.00     0.147 A 
ATOM      5  N   UNL     1       5.156  44.870  52.330  1.00  0.00    -0.195 NA
ATOM      6  C   UNL     1       6.476  44.254  50.488  1.00  0.00     0.082 A 
ATOM      7  C   UNL     1       5.643  43.158  50.377  1.00  0.00     0.165 A 
ATOM      8  C   UNL     1       7.397  44.100  49.431  1.00  0.00     0.149 A 
ATOM      9  N   UNL     1       4.600  42.865  51.163  1.00  0.00    -0.193 NA
ATOM     10  N   UNL     1       6.104  42.439  49.308  1.00  0.00    -0.250 N 
ATOM     11  N   UNL     1       7.177  42.999  48.702  1.00  0.00    -0.179 NA
ATOM     12  C   UNL     1       5.568  41.201  48.802  1.00  0.00     0.176 C 
BRANCH   4  13
ATOM     13  N   UNL     1       6.992  46.310  51.705  1.00  0.00    -0.339 N 
ATOM     14  H   UNL     1       6.862  47.005  50.983  1.00  0.00     0.168 HD
BRANCH  13  15
ATOM     15  C   UNL     1       7.984  46.647  52.643  1.00  0.00     0.040 A 
ATOM     16  C   UNL     1       9.878  47.321  54.647  1.00  0.00    -0.051 A 
ATOM     17  C   UNL     1       8.513  47.499  54.874  1.00  0.00     0.005 A 
ATOM     18  C   UNL     1      10.289  46.780  53.427  1.00  0.00     0.005 A 
ATOM     19  C   UNL     1       7.581  47.168  53.884  1.00  0.00     0.026 A 
ATOM     20  C   UNL     1       9.351  46.450  52.439  1.00  0.00     0.026 A 
ATOM     21  C   UNL     1      10.880  47.642  55.716  1.00  0.00     0.044 C 
ENDBRANCH  13  15
ENDBRANCH   4  13
ENDBRANCH   1   3
BRANCH   1  22
ATOM     22  C   UNL     1       2.110  44.236  52.688  1.00  0.00     0.116 C 
BRANCH  22  23
ATOM     23  C   UNL     1       1.634  45.222  53.761  1.00  0.00     0.024 C 
BRANCH  23  24
ATOM     24  C   UNL     1       2.293  45.057  55.144  1.00  0.00    -0.016 C 
ATOM     25  C   UNL     1       3.456  46.026  55.359  1.00  0.00     0.007 C 
ATOM     26  C   UNL     1       1.245  45.255  56.243  1.00  0.00     0.007 C 
ENDBRANCH  23  24
ENDBRANCH  22  23
ENDBRANCH   1  22
TORSDOF 6
ENDMDL
MODEL 6
REMARK VINA RESULT:    -8.319      0.949      1.437
REMARK INTER + INTRA:         -12.322
REMARK INTER:                 -11.227
REMARK INTRA:                  -1.095
REMARK UNBOUND:                -1.085
REMARK SMILES Cc1ccc(Nc2nc(NCCC(C)C)nc3c2cnn3C)cc1
REMARK SMILES IDX 10 1 9 3 7 4 8 5 18 6 17 7 19 8 16 9 21 10 20 11 22 12 6 13
REMARK SMILES IDX 5 15 2 16 3 17 24 18 4 19 23 20 1 21 11 22 12 23 13 24 14 25
REMARK SMILES IDX 15 26
REMARK H PARENT 10 2 6 14
ROOT
ATOM      1  N   UNL     1       2.802  44.635  52.173  1.00  0.00    -0.354 N 
ATOM      2  H   UNL     1       2.151  44.100  51.607  1.00  0.00     0.163 HD
ENDROOT
BRANCH   1   3
ATOM      3  C   UNL     1       4.034  44.469  51.551  1.00  0.00     0.226 A 
ATOM      4  C   UNL     1       6.161  45.436  51.259  1.00  0.00     0.147 A 
ATOM      5  N   UNL     1       4.911  45.460  51.792  1.00  0.00    -0.195 NA
ATOM      6  C   UNL     1       6.477  44.339  50.445  1.00  0.00     0.082 A 
ATOM      7  C   UNL     1       5.496  43.384  50.264  1.00  0.00     0.165 A 
ATOM      8  C   UNL     1       7.570  43.865  49.691  1.00  0.00     0.149 A 
ATOM      9  N   UNL     1       4.263  43.396  50.785  1.00  0.00    -0.193 NA
ATOM     10  N   UNL     1       6.044  42.430  49.449  1.00  0.00    -0.250 N 
ATOM     11  N   UNL     1       7.315  42.703  49.075  1.00  0.00    -0.179 NA
ATOM     12  C   UNL     1       5.410  41.223  48.984  1.00  0.00     0.176 C 
BRANCH   4  13
ATOM     13  N   UNL     1       7.086  46.467  51.483  1.00  0.00    -0.339 N 
ATOM     14  H   UNL     1       7.192  47.097  50.701  1.00  0.00     0.168 HD
BRANCH  13  15
ATOM     15  C   UNL     1       7.958  46.739  52.552  1.00  0.00     0.040 A 
ATOM     16  C   UNL     1       9.832  47.306  54.608  1.00  0.00    -0.051 A 
ATOM     17  C   UNL     1      10.265  46.866  53.356  1.00  0.00     0.005 A 
ATOM     18  C   UNL     1       8.463  47.487  54.817  1.00  0.00     0.005 A 
ATOM     19  C   UNL     1       9.339  46.585  52.345  1.00  0.00     0.026 A 
ATOM     20  C   UNL     1       7.541  47.206  53.801  1.00  0.00     0.026 A 
ATOM     21  C   UNL     1      10.821  47.640  55.685  1.00  0.00     0.044 C 
ENDBRANCH  13  15
ENDBRANCH   4  13
ENDBRANCH   1   3
BRANCH   1  22
ATOM     22  C   UNL     1       2.758  44.345  53.596  1.00  0.00     0.116 C 
BRANCH  22  23
ATOM     23  C   UNL     1       2.512  45.605  54.434  1.00  0.00     0.024 C 
BRANCH  23  24
ATOM     24  C   UNL     1       3.733  46.116  55.225  1.00  0.00    -0.016 C 
ATOM     25  C   UNL     1       4.865  45.090  55.281  1.00  0.00     0.007 C 
ATOM     26  C   UNL     1       4.245  47.417  54.601  1.00  0.00     0.007 C 
ENDBRANCH  23  24
ENDBRANCH  22  23
ENDBRANCH   1  22
TORSDOF 6
ENDMDL
MODEL 7
REMARK VINA RESULT:    -8.301      2.282      6.689
REMARK INTER + INTRA:         -12.298
REMARK INTER:                 -11.594
REMARK INTRA:                  -0.703
REMARK UNBOUND:                -1.085
REMARK SMILES Cc1ccc(Nc2nc(NCCC(C)C)nc3c2cnn3C)cc1
REMARK SMILES IDX 10 1 9 3 7 4 8 5 18 6 17 7 19 8 16 9 21 10 20 11 22 12 6 13
REMARK SMILES IDX 5 15 2 16 3 17 24 18 4 19 23 20 1 21 11 22 12 23 13 24 14 25
REMARK SMILES IDX 15 26
REMARK H PARENT 10 2 6 14
ROOT
ATOM      1  N   UNL     1       7.121  46.157  51.168  1.00  0.00    -0.354 N 
ATOM      2  H   UNL     1       7.003  46.528  50.230  1.00  0.00     0.163 HD
ENDROOT
BRANCH   1   3
ATOM      3  C   UNL     1       6.210  45.111  51.254  1.00  0.00     0.226 A 
ATOM      4  C   UNL     1       5.664  42.990  50.389  1.00  0.00     0.147 A 
ATOM      5  N   UNL     1       6.462  44.090  50.416  1.00  0.00    -0.195 NA
ATOM      6  C   UNL     1       4.570  42.986  51.265  1.00  0.00     0.082 A 
ATOM      7  C   UNL     1       4.406  44.091  52.076  1.00  0.00     0.165 A 
ATOM      8  C   UNL     1       3.496  42.139  51.607  1.00  0.00     0.149 A 
ATOM      9  N   UNL     1       5.187  45.178  52.113  1.00  0.00    -0.193 NA
ATOM     10  N   UNL     1       3.291  43.844  52.830  1.00  0.00    -0.250 N 
ATOM     11  N   UNL     1       2.706  42.655  52.557  1.00  0.00    -0.179 NA
ATOM     12  C   UNL     1       2.720  44.702  53.837  1.00  0.00     0.176 C 
BRANCH   4  13
ATOM     13  N   UNL     1       5.899  41.922  49.511  1.00  0.00    -0.339 N 
ATOM     14  H   UNL     1       6.719  41.378  49.740  1.00  0.00     0.168 HD
BRANCH  13  15
ATOM     15  C   UNL     1       5.266  41.517  48.323  1.00  0.00     0.040 A 
ATOM     16  C   UNL     1       4.117  40.729  45.849  1.00  0.00    -0.051 A 
ATOM     17  C   UNL     1       5.244  41.553  45.877  1.00  0.00     0.005 A 
ATOM     18  C   UNL     1       3.586  40.280  47.060  1.00  0.00     0.005 A 
ATOM     19  C   UNL     1       5.807  41.941  47.098  1.00  0.00     0.026 A 
ATOM     20  C   UNL     1       4.154  40.672  48.279  1.00  0.00     0.026 A 
ATOM     21  C   UNL     1       3.528  40.282  44.544  1.00  0.00     0.044 C 
ENDBRANCH  13  15
ENDBRANCH   4  13
ENDBRANCH   1   3
BRANCH   1  22
ATOM     22  C   UNL     1       7.065  47.147  52.229  1.00  0.00     0.116 C 
BRANCH  22  23
ATOM     23  C   UNL     1       8.454  47.695  52.580  1.00  0.00     0.024 C 
BRANCH  23  24
ATOM     24  C   UNL     1       9.449  46.657  53.134  1.00  0.00    -0.016 C 
ATOM     25  C   UNL     1      10.532  46.284  52.122  1.00  0.00     0.007 C 
ATOM     26  C   UNL     1      10.098  47.195  54.412  1.00  0.00     0.007 C 
ENDBRANCH  23  24
ENDBRANCH  22  23
ENDBRANCH   1  22
TORSDOF 6
ENDMDL
MODEL 8
REMARK VINA RESULT:    -8.264      2.494      6.392
REMARK INTER + INTRA:         -12.248
REMARK INTER:                 -11.548
REMARK INTRA:                  -0.700
REMARK UNBOUND:                -1.085
REMARK SMILES Cc1ccc(Nc2nc(NCCC(C)C)nc3c2cnn3C)cc1
REMARK SMILES IDX 10 1 9 3 7 4 8 5 18 6 17 7 19 8 16 9 21 10 20 11 22 12 6 13
REMARK SMILES IDX 5 15 2 16 3 17 24 18 4 19 23 20 1 21 11 22 12 23 13 24 14 25
REMARK SMILES IDX 15 26
REMARK H PARENT 10 2 6 14
ROOT
ATOM      1  N   UNL     1       5.837  46.938  52.641  1.00  0.00    -0.354 N 
ATOM      2  H   UNL     1       4.955  47.108  53.113  1.00  0.00     0.163 HD
ENDROOT
BRANCH   1   3
ATOM      3  C   UNL     1       5.694  45.681  52.064  1.00  0.00     0.226 A 
ATOM      4  C   UNL     1       4.411  43.707  52.103  1.00  0.00     0.147 A 
ATOM      5  N   UNL     1       4.682  44.954  52.570  1.00  0.00    -0.195 NA
ATOM      6  C   UNL     1       5.243  43.223  51.085  1.00  0.00     0.082 A 
ATOM      7  C   UNL     1       6.254  44.054  50.646  1.00  0.00     0.165 A 
ATOM      8  C   UNL     1       5.385  42.058  50.302  1.00  0.00     0.149 A 
ATOM      9  N   UNL     1       6.529  45.284  51.097  1.00  0.00    -0.193 NA
ATOM     10  N   UNL     1       6.909  43.366  49.661  1.00  0.00    -0.250 N 
ATOM     11  N   UNL     1       6.401  42.132  49.434  1.00  0.00    -0.179 NA
ATOM     12  C   UNL     1       8.036  43.824  48.888  1.00  0.00     0.176 C 
BRANCH   4  13
ATOM     13  N   UNL     1       3.371  42.926  52.628  1.00  0.00    -0.339 N 
ATOM     14  H   UNL     1       3.686  42.178  53.230  1.00  0.00     0.168 HD
BRANCH  13  15
ATOM     15  C   UNL     1       1.982  42.927  52.407  1.00  0.00     0.040 A 
ATOM     16  C   UNL     1      -0.841  42.940  52.113  1.00  0.00    -0.051 A 
ATOM     17  C   UNL     1      -0.258  42.594  53.333  1.00  0.00     0.005 A 
ATOM     18  C   UNL     1      -0.010  43.304  51.052  1.00  0.00     0.005 A 
ATOM     19  C   UNL     1       1.135  42.587  53.475  1.00  0.00     0.026 A 
ATOM     20  C   UNL     1       1.383  43.295  51.200  1.00  0.00     0.026 A 
ATOM     21  C   UNL     1      -2.333  42.982  51.963  1.00  0.00     0.044 C 
ENDBRANCH  13  15
ENDBRANCH   4  13
ENDBRANCH   1   3
BRANCH   1  22
ATOM     22  C   UNL     1       7.020  47.138  53.460  1.00  0.00     0.116 C 
BRANCH  22  23
ATOM     23  C   UNL     1       8.118  47.901  52.709  1.00  0.00     0.024 C 
BRANCH  23  24
ATOM     24  C   UNL     1       9.559  47.446  53.015  1.00  0.00    -0.016 C 
ATOM     25  C   UNL     1       9.767  47.111  54.492  1.00  0.00     0.007 C 
ATOM     26  C   UNL     1       9.909  46.228  52.155  1.00  0.00     0.007 C 
ENDBRANCH  23  24
ENDBRANCH  22  23
ENDBRANCH   1  22
TORSDOF 6
ENDMDL
MODEL 9
REMARK VINA RESULT:    -8.254      1.189      1.781
REMARK INTER + INTRA:         -12.235
REMARK INTER:                 -11.420
REMARK INTRA:                  -0.814
REMARK UNBOUND:                -1.085
REMARK SMILES Cc1ccc(Nc2nc(NCCC(C)C)nc3c2cnn3C)cc1
REMARK SMILES IDX 10 1 9 3 7 4 8 5 18 6 17 7 19 8 16 9 21 10 20 11 22 12 6 13
REMARK SMILES IDX 5 15 2 16 3 17 24 18 4 19 23 20 1 21 11 22 12 23 13 24 14 25
REMARK SMILES IDX 15 26
REMARK H PARENT 10 2 6 14
ROOT
ATOM      1  N   UNL     1       2.230  45.620  52.063  1.00  0.00    -0.354 N 
ATOM      2  H   UNL     1       1.447  45.026  51.810  1.00  0.00     0.163 HD
ENDROOT
BRANCH   1   3
ATOM      3  C   UNL     1       3.349  44.967  51.559  1.00  0.00     0.226 A 
ATOM      4  C   UNL     1       5.638  45.224  51.070  1.00  0.00     0.147 A 
ATOM      5  N   UNL     1       4.461  45.724  51.529  1.00  0.00    -0.195 NA
ATOM      6  C   UNL     1       5.625  43.895  50.624  1.00  0.00     0.082 A 
ATOM      7  C   UNL     1       4.425  43.216  50.696  1.00  0.00     0.165 A 
ATOM      8  C   UNL     1       6.525  42.956  50.079  1.00  0.00     0.149 A 
ATOM      9  N   UNL     1       3.260  43.698  51.148  1.00  0.00    -0.193 NA
ATOM     10  N   UNL     1       4.673  41.959  50.216  1.00  0.00    -0.250 N 
ATOM     11  N   UNL     1       5.954  41.773  49.822  1.00  0.00    -0.179 NA
ATOM     12  C   UNL     1       3.730  40.875  50.101  1.00  0.00     0.176 C 
BRANCH   4  13
ATOM     13  N   UNL     1       6.805  46.000  51.015  1.00  0.00    -0.339 N 
ATOM     14  H   UNL     1       7.058  46.291  50.081  1.00  0.00     0.168 HD
BRANCH  13  15
ATOM     15  C   UNL     1       7.739  46.375  51.997  1.00  0.00     0.040 A 
ATOM     16  C   UNL     1       9.518  47.103  54.086  1.00  0.00    -0.051 A 
ATOM     17  C   UNL     1       8.139  47.093  54.301  1.00  0.00     0.005 A 
ATOM     18  C   UNL     1      10.003  46.722  52.834  1.00  0.00     0.005 A 
ATOM     19  C   UNL     1       7.264  46.736  53.269  1.00  0.00     0.026 A 
ATOM     20  C   UNL     1       9.123  46.364  51.804  1.00  0.00     0.026 A 
ATOM     21  C   UNL     1      10.463  47.453  55.197  1.00  0.00     0.044 C 
ENDBRANCH  13  15
ENDBRANCH   4  13
ENDBRANCH   1   3
BRANCH   1  22
ATOM     22  C   UNL     1       2.284  45.997  53.464  1.00  0.00     0.116 C 
BRANCH  22  23
ATOM     23  C   UNL     1       1.832  44.858  54.386  1.00  0.00     0.024 C 
BRANCH  23  24
ATOM     24  C   UNL     1       0.557  44.117  53.937  1.00  0.00    -0.016 C 
ATOM     25  C   UNL     1       0.816  42.643  53.623  1.00  0.00     0.007 C 
ATOM     26  C   UNL     1      -0.516  44.233  55.023  1.00  0.00     0.007 C 
ENDBRANCH  23  24
ENDBRANCH  22  23
ENDBRANCH   1  22
TORSDOF 6
ENDMDL
MODEL 10
REMARK VINA RESULT:    -8.238      2.352      6.768
REMARK INTER + INTRA:         -12.212
REMARK INTER:                 -11.474
REMARK INTRA:                  -0.738
REMARK UNBOUND:                -1.085
REMARK SMILES Cc1ccc(Nc2nc(NCCC(C)C)nc3c2cnn3C)cc1
REMARK SMILES IDX 10 1 9 3 7 4 8 5 18 6 17 7 19 8 16 9 21 10 20 11 22 12 6 13
REMARK SMILES IDX 5 15 2 16 3 17 24 18 4 19 23 20 1 21 11 22 12 23 13 24 14 25
REMARK SMILES IDX 15 26
REMARK H PARENT 10 2 6 14
ROOT
ATOM      1  N   UNL     1       7.825  46.009  50.620  1.00  0.00    -0.354 N 
ATOM      2  H   UNL     1       7.306  46.869  50.476  1.00  0.00     0.163 HD
ENDROOT
BRANCH   1   3
ATOM      3  C   UNL     1       6.851  45.032  50.791  1.00  0.00     0.226 A 
ATOM      4  C   UNL     1       6.089  42.950  49.996  1.00  0.00     0.147 A 
ATOM      5  N   UNL     1       6.962  43.990  49.947  1.00  0.00    -0.195 NA
ATOM      6  C   UNL     1       5.071  43.030  50.957  1.00  0.00     0.082 A 
ATOM      7  C   UNL     1       5.051  44.148  51.766  1.00  0.00     0.165 A 
ATOM      8  C   UNL     1       3.969  42.265  51.393  1.00  0.00     0.149 A 
ATOM      9  N   UNL     1       5.907  45.177  51.727  1.00  0.00    -0.193 NA
ATOM     10  N   UNL     1       3.985  43.987  52.609  1.00  0.00    -0.250 N 
ATOM     11  N   UNL     1       3.297  42.841  52.397  1.00  0.00    -0.179 NA
ATOM     12  C   UNL     1       3.559  44.890  53.647  1.00  0.00     0.176 C 
BRANCH   4  13
ATOM     13  N   UNL     1       6.176  41.862  49.115  1.00  0.00    -0.339 N 
ATOM     14  H   UNL     1       6.995  41.289  49.255  1.00  0.00     0.168 HD
BRANCH  13  15
ATOM     15  C   UNL     1       5.390  41.469  48.017  1.00  0.00     0.040 A 
ATOM     16  C   UNL     1       3.924  40.705  45.709  1.00  0.00    -0.051 A 
ATOM     17  C   UNL     1       5.050  41.522  45.595  1.00  0.00     0.005 A 
ATOM     18  C   UNL     1       3.552  40.250  46.976  1.00  0.00     0.005 A 
ATOM     19  C   UNL     1       5.769  41.899  46.735  1.00  0.00     0.026 A 
ATOM     20  C   UNL     1       4.277  40.630  48.113  1.00  0.00     0.026 A 
ATOM     21  C   UNL     1       3.167  40.270  44.490  1.00  0.00     0.044 C 
ENDBRANCH  13  15
ENDBRANCH   4  13
ENDBRANCH   1   3
BRANCH   1  22
ATOM     22  C   UNL     1       8.852  46.078  51.645  1.00  0.00     0.116 C 
BRANCH  22  23
ATOM     23  C   UNL     1       9.054  47.506  52.164  1.00  0.00     0.024 C 
BRANCH  23  24
ATOM     24  C   UNL     1       8.829  47.692  53.678  1.00  0.00    -0.016 C 
ATOM     25  C   UNL     1       7.612  46.920  54.188  1.00  0.00     0.007 C 
ATOM     26  C   UNL     1      10.080  47.251  54.443  1.00  0.00     0.007 C 
ENDBRANCH  23  24
ENDBRANCH  22  23
ENDBRANCH   1  22
TORSDOF 6
ENDMDL
MODEL 11
REMARK VINA RESULT:    -8.232      1.874      4.740
REMARK INTER + INTRA:         -12.204
REMARK INTER:                 -11.312
REMARK INTRA:                  -0.892
REMARK UNBOUND:                -1.085
REMARK SMILES Cc1ccc(Nc2nc(NCCC(C)C)nc3c2cnn3C)cc1
REMARK SMILES IDX 10 1 9 3 7 4 8 5 18 6 17 7 19 8 16 9 21 10 20 11 22 12 6 13
REMARK SMILES IDX 5 15 2 16 3 17 24 18 4 19 23 20 1 21 11 22 12 23 13 24 14 25
REMARK SMILES IDX 15 26
REMARK H PARENT 10 2 6 14
ROOT
ATOM      1  N   UNL     1       3.893  41.251  51.248  1.00  0.00    -0.354 N 
ATOM      2  H   UNL     1       3.179  40.558  51.449  1.00  0.00     0.163 HD
ENDROOT
BRANCH   1   3
ATOM      3  C   UNL     1       3.319  42.466  51.604  1.00  0.00     0.226 A 
ATOM      4  C   UNL     1       3.767  44.572  52.558  1.00  0.00     0.147 A 
ATOM      5  N   UNL     1       4.177  43.338  52.165  1.00  0.00    -0.195 NA
ATOM      6  C   UNL     1       2.413  44.877  52.359  1.00  0.00     0.082 A 
ATOM      7  C   UNL     1       1.624  43.904  51.780  1.00  0.00     0.165 A 
ATOM      8  C   UNL     1       1.530  45.954  52.584  1.00  0.00     0.149 A 
ATOM      9  N   UNL     1       2.018  42.686  51.387  1.00  0.00    -0.193 NA
ATOM     10  N   UNL     1       0.368  44.439  51.690  1.00  0.00    -0.250 N 
ATOM     11  N   UNL     1       0.279  45.696  52.184  1.00  0.00    -0.179 NA
ATOM     12  C   UNL     1      -0.804  43.807  51.141  1.00  0.00     0.176 C 
BRANCH   4  13
ATOM     13  N   UNL     1       4.640  45.490  53.160  1.00  0.00    -0.339 N 
ATOM     14  H   UNL     1       4.206  46.061  53.871  1.00  0.00     0.168 HD
BRANCH  13  15
ATOM     15  C   UNL     1       5.980  45.829  52.903  1.00  0.00     0.040 A 
ATOM     16  C   UNL     1       8.719  46.476  52.528  1.00  0.00    -0.051 A 
ATOM     17  C   UNL     1       8.173  46.421  53.811  1.00  0.00     0.005 A 
ATOM     18  C   UNL     1       7.898  46.180  51.438  1.00  0.00     0.005 A 
ATOM     19  C   UNL     1       6.822  46.104  53.993  1.00  0.00     0.026 A 
ATOM     20  C   UNL     1       6.546  45.862  51.626  1.00  0.00     0.026 A 
ATOM     21  C   UNL     1      10.173  46.783  52.327  1.00  0.00     0.044 C 
ENDBRANCH  13  15
ENDBRANCH   4  13
ENDBRANCH   1   3
BRANCH   1  22
ATOM     22  C   UNL     1       4.463  41.176  49.915  1.00  0.00     0.116 C 
BRANCH  22  23
ATOM     23  C   UNL     1       5.949  41.553  49.900  1.00  0.00     0.024 C 
BRANCH  23  24
ATOM     24  C   UNL     1       6.321  42.719  48.963  1.00  0.00    -0.016 C 
ATOM     25  C   UNL     1       7.740  43.234  49.203  1.00  0.00     0.007 C 
ATOM     26  C   UNL     1       6.171  42.277  47.505  1.00  0.00     0.007 C 
ENDBRANCH  23  24
ENDBRANCH  22  23
ENDBRANCH   1  22
TORSDOF 6
ENDMDL
MODEL 12
REMARK VINA RESULT:    -8.215      2.093      6.024
REMARK INTER + INTRA:         -12.181
REMARK INTER:                 -11.746
REMARK INTRA:                  -0.436
REMARK UNBOUND:                -1.085
REMARK SMILES Cc1ccc(Nc2nc(NCCC(C)C)nc3c2cnn3C)cc1
REMARK SMILES IDX 10 1 9 3 7 4 8 5 18 6 17 7 19 8 16 9 21 10 20 11 22 12 6 13
REMARK SMILES IDX 5 15 2 16 3 17 24 18 4 19 23 20 1 21 11 22 12 23 13 24 14 25
REMARK SMILES IDX 15 26
REMARK H PARENT 10 2 6 14
ROOT
ATOM      1  N   UNL     1       5.719  46.886  52.683  1.00  0.00    -0.354 N 
ATOM      2  H   UNL     1       5.430  47.000  53.649  1.00  0.00     0.163 HD
ENDROOT
BRANCH   1   3
ATOM      3  C   UNL     1       5.284  45.614  52.329  1.00  0.00     0.226 A 
ATOM      4  C   UNL     1       3.652  43.973  52.769  1.00  0.00     0.147 A 
ATOM      5  N   UNL     1       4.201  45.193  53.009  1.00  0.00    -0.195 NA
ATOM      6  C   UNL     1       4.277  43.184  51.794  1.00  0.00     0.082 A 
ATOM      7  C   UNL     1       5.384  43.716  51.164  1.00  0.00     0.165 A 
ATOM      8  C   UNL     1       4.119  41.912  51.206  1.00  0.00     0.149 A 
ATOM      9  N   UNL     1       5.933  44.916  51.390  1.00  0.00    -0.193 NA
ATOM     10  N   UNL     1       5.800  42.770  50.267  1.00  0.00    -0.250 N 
ATOM     11  N   UNL     1       5.045  41.647  50.276  1.00  0.00    -0.179 NA
ATOM     12  C   UNL     1       6.917  42.867  49.362  1.00  0.00     0.176 C 
BRANCH   4  13
ATOM     13  N   UNL     1       2.535  43.508  53.478  1.00  0.00    -0.339 N 
ATOM     14  H   UNL     1       2.282  42.554  53.262  1.00  0.00     0.168 HD
BRANCH  13  15
ATOM     15  C   UNL     1       1.645  44.142  54.363  1.00  0.00     0.040 A 
ATOM     16  C   UNL     1      -0.259  45.321  56.108  1.00  0.00    -0.051 A 
ATOM     17  C   UNL     1      -0.675  44.533  55.033  1.00  0.00     0.005 A 
ATOM     18  C   UNL     1       1.110  45.493  56.321  1.00  0.00     0.005 A 
ATOM     19  C   UNL     1       0.266  43.955  54.173  1.00  0.00     0.026 A 
ATOM     20  C   UNL     1       2.047  44.911  55.458  1.00  0.00     0.026 A 
ATOM     21  C   UNL     1      -1.260  45.916  57.053  1.00  0.00     0.044 C 
ENDBRANCH  13  15
ENDBRANCH   4  13
ENDBRANCH   1   3
BRANCH   1  22
ATOM     22  C   UNL     1       7.117  47.181  52.423  1.00  0.00     0.116 C 
BRANCH  22  23
ATOM     23  C   UNL     1       7.979  47.047  53.684  1.00  0.00     0.024 C 
BRANCH  23  24
ATOM     24  C   UNL     1       9.471  47.385  53.498  1.00  0.00    -0.016 C 
ATOM     25  C   UNL     1      10.272  47.238  54.792  1.00  0.00     0.007 C 
ATOM     26  C   UNL     1      10.072  46.487  52.413  1.00  0.00     0.007 C 
ENDBRANCH  23  24
ENDBRANCH  22  23
ENDBRANCH   1  22
TORSDOF 6
ENDMDL
MODEL 13
REMARK VINA RESULT:    -8.146      2.084      6.201
REMARK INTER + INTRA:         -12.089
REMARK INTER:                 -11.320
REMARK INTRA:                  -0.769
REMARK UNBOUND:                -1.085
REMARK SMILES Cc1ccc(Nc2nc(NCCC(C)C)nc3c2cnn3C)cc1
REMARK SMILES IDX 10 1 9 3 7 4 8 5 18 6 17 7 19 8 16 9 21 10 20 11 22 12 6 13
REMARK SMILES IDX 5 15 2 16 3 17 24 18 4 19 23 20 1 21 11 22 12 23 13 24 14 25
REMARK SMILES IDX 15 26
REMARK H PARENT 10 2 6 14
ROOT
ATOM      1  N   UNL     1       6.842  46.357  51.275  1.00  0.00    -0.354 N 
ATOM      2  H   UNL     1       6.568  46.778  50.393  1.00  0.00     0.163 HD
ENDROOT
BRANCH   1   3
ATOM      3  C   UNL     1       6.019  45.245  51.408  1.00  0.00     0.226 A 
ATOM      4  C   UNL     1       4.201  44.360  52.615  1.00  0.00     0.147 A 
ATOM      5  N   UNL     1       5.086  45.362  52.370  1.00  0.00    -0.195 NA
ATOM      6  C   UNL     1       4.321  43.208  51.826  1.00  0.00     0.082 A 
ATOM      7  C   UNL     1       5.319  43.197  50.872  1.00  0.00     0.165 A 
ATOM      8  C   UNL     1       3.693  41.953  51.689  1.00  0.00     0.149 A 
ATOM      9  N   UNL     1       6.195  44.178  50.620  1.00  0.00    -0.193 NA
ATOM     10  N   UNL     1       5.226  41.986  50.242  1.00  0.00    -0.250 N 
ATOM     11  N   UNL     1       4.239  41.197  50.728  1.00  0.00    -0.179 NA
ATOM     12  C   UNL     1       6.048  41.508  49.159  1.00  0.00     0.176 C 
BRANCH   4  13
ATOM     13  N   UNL     1       3.231  44.455  53.625  1.00  0.00    -0.339 N 
ATOM     14  H   UNL     1       3.611  44.410  54.560  1.00  0.00     0.168 HD
BRANCH  13  15
ATOM     15  C   UNL     1       1.827  44.509  53.586  1.00  0.00     0.040 A 
ATOM     16  C   UNL     1      -0.999  44.661  53.359  1.00  0.00    -0.051 A 
ATOM     17  C   UNL     1      -0.178  45.333  52.452  1.00  0.00     0.005 A 
ATOM     18  C   UNL     1      -0.402  43.893  54.360  1.00  0.00     0.005 A 
ATOM     19  C   UNL     1       1.215  45.258  52.567  1.00  0.00     0.026 A 
ATOM     20  C   UNL     1       0.993  43.821  54.470  1.00  0.00     0.026 A 
ATOM     21  C   UNL     1      -2.491  44.710  53.222  1.00  0.00     0.044 C 
ENDBRANCH  13  15
ENDBRANCH   4  13
ENDBRANCH   1   3
BRANCH   1  22
ATOM     22  C   UNL     1       6.877  47.269  52.404  1.00  0.00     0.116 C 
BRANCH  22  23
ATOM     23  C   UNL     1       8.291  47.797  52.676  1.00  0.00     0.024 C 
BRANCH  23  24
ATOM     24  C   UNL     1       9.316  46.733  53.115  1.00  0.00    -0.016 C 
ATOM     25  C   UNL     1      10.322  46.399  52.013  1.00  0.00     0.007 C 
ATOM     26  C   UNL     1      10.058  47.216  54.364  1.00  0.00     0.007 C 
ENDBRANCH  23  24
ENDBRANCH  22  23
ENDBRANCH   1  22
TORSDOF 6
ENDMDL
MODEL 14
REMARK VINA RESULT:    -8.128      1.958      5.720
REMARK INTER + INTRA:         -12.065
REMARK INTER:                 -11.155
REMARK INTRA:                  -0.910
REMARK UNBOUND:                -1.085
REMARK SMILES Cc1ccc(Nc2nc(NCCC(C)C)nc3c2cnn3C)cc1
REMARK SMILES IDX 10 1 9 3 7 4 8 5 18 6 17 7 19 8 16 9 21 10 20 11 22 12 6 13
REMARK SMILES IDX 5 15 2 16 3 17 24 18 4 19 23 20 1 21 11 22 12 23 13 24 14 25
REMARK SMILES IDX 15 26
REMARK H PARENT 10 2 6 14
ROOT
ATOM      1  N   UNL     1       4.638  47.049  54.950  1.00  0.00    -0.354 N 
ATOM      2  H   UNL     1       4.047  47.546  54.291  1.00  0.00     0.163 HD
ENDROOT
BRANCH   1   3
ATOM      3  C   UNL     1       5.832  46.841  54.269  1.00  0.00     0.226 A 
ATOM      4  C   UNL     1       6.764  45.973  52.288  1.00  0.00     0.147 A 
ATOM      5  N   UNL     1       5.688  46.237  53.075  1.00  0.00    -0.195 NA
ATOM      6  C   UNL     1       8.017  46.350  52.789  1.00  0.00     0.082 A 
ATOM      7  C   UNL     1       8.045  46.958  54.029  1.00  0.00     0.165 A 
ATOM      8  C   UNL     1       9.370  46.300  52.395  1.00  0.00     0.149 A 
ATOM      9  N   UNL     1       6.993  47.225  54.812  1.00  0.00    -0.193 NA
ATOM     10  N   UNL     1       9.361  47.230  54.286  1.00  0.00    -0.250 N 
ATOM     11  N   UNL     1      10.199  46.829  53.302  1.00  0.00    -0.179 NA
ATOM     12  C   UNL     1       9.898  47.874  55.458  1.00  0.00     0.176 C 
BRANCH   4  13
ATOM     13  N   UNL     1       6.638  45.330  51.048  1.00  0.00    -0.339 N 
ATOM     14  H   UNL     1       7.018  45.856  50.274  1.00  0.00     0.168 HD
BRANCH  13  15
ATOM     15  C   UNL     1       6.005  44.135  50.662  1.00  0.00     0.040 A 
ATOM     16  C   UNL     1       4.594  41.783  49.928  1.00  0.00    -0.051 A 
ATOM     17  C   UNL     1       4.041  42.687  50.837  1.00  0.00     0.005 A 
ATOM     18  C   UNL     1       5.840  42.073  49.370  1.00  0.00     0.005 A 
ATOM     19  C   UNL     1       4.739  43.845  51.198  1.00  0.00     0.026 A 
ATOM     20  C   UNL     1       6.535  43.234  49.734  1.00  0.00     0.026 A 
ATOM     21  C   UNL     1       3.837  40.558  49.511  1.00  0.00     0.044 C 
ENDBRANCH  13  15
ENDBRANCH   4  13
ENDBRANCH   1   3
BRANCH   1  22
ATOM     22  C   UNL     1       4.030  45.876  55.554  1.00  0.00     0.116 C 
BRANCH  22  23
ATOM     23  C   UNL     1       2.570  45.696  55.122  1.00  0.00     0.024 C 
BRANCH  23  24
ATOM     24  C   UNL     1       2.371  45.055  53.734  1.00  0.00    -0.016 C 
ATOM     25  C   UNL     1       1.352  43.915  53.756  1.00  0.00     0.007 C 
ATOM     26  C   UNL     1       1.928  46.124  52.731  1.00  0.00     0.007 C 
ENDBRANCH  23  24
ENDBRANCH  22  23
ENDBRANCH   1  22
TORSDOF 6
ENDMDL
MODEL 15
REMARK VINA RESULT:    -8.047      2.366      5.407
REMARK INTER + INTRA:         -11.955
REMARK INTER:                 -11.386
REMARK INTRA:                  -0.568
REMARK UNBOUND:                -1.085
REMARK SMILES Cc1ccc(Nc2nc(NCCC(C)C)nc3c2cnn3C)cc1
REMARK SMILES IDX 10 1 9 3 7 4 8 5 18 6 17 7 19 8 16 9 21 10 20 11 22 12 6 13
REMARK SMILES IDX 5 15 2 16 3 17 24 18 4 19 23 20 1 21 11 22 12 23 13 24 14 25
REMARK SMILES IDX 15 26
REMARK H PARENT 10 2 6 14
ROOT
ATOM      1  N   UNL     1       4.150  46.399  55.327  1.00  0.00    -0.354 N 
ATOM      2  H   UNL     1       4.531  45.904  56.127  1.00  0.00     0.163 HD
ENDROOT
BRANCH   1   3
ATOM      3  C   UNL     1       3.230  45.519  54.769  1.00  0.00     0.226 A 
ATOM      4  C   UNL     1       2.923  43.913  53.074  1.00  0.00     0.147 A 
ATOM      5  N   UNL     1       3.702  44.820  53.721  1.00  0.00    -0.195 NA
ATOM      6  C   UNL     1       1.614  43.757  53.549  1.00  0.00     0.082 A 
ATOM      7  C   UNL     1       1.236  44.531  54.628  1.00  0.00     0.165 A 
ATOM      8  C   UNL     1       0.465  42.997  53.246  1.00  0.00     0.149 A 
ATOM      9  N   UNL     1       1.995  45.426  55.274  1.00  0.00    -0.193 NA
ATOM     10  N   UNL     1      -0.062  44.195  54.899  1.00  0.00    -0.250 N 
ATOM     11  N   UNL     1      -0.565  43.259  54.060  1.00  0.00    -0.179 NA
ATOM     12  C   UNL     1      -0.893  44.727  55.949  1.00  0.00     0.176 C 
BRANCH   4  13
ATOM     13  N   UNL     1       3.389  43.186  51.969  1.00  0.00    -0.339 N 
ATOM     14  H   UNL     1       2.805  42.400  51.722  1.00  0.00     0.168 HD
BRANCH  13  15
ATOM     15  C   UNL     1       4.559  43.287  51.195  1.00  0.00     0.040 A 
ATOM     16  C   UNL     1       6.959  43.616  49.714  1.00  0.00    -0.051 A 
ATOM     17  C   UNL     1       6.408  44.688  50.418  1.00  0.00     0.005 A 
ATOM     18  C   UNL     1       6.321  42.376  49.777  1.00  0.00     0.005 A 
ATOM     19  C   UNL     1       5.223  44.524  51.145  1.00  0.00     0.026 A 
ATOM     20  C   UNL     1       5.136  42.217  50.508  1.00  0.00     0.026 A 
ATOM     21  C   UNL     1       8.245  43.777  48.960  1.00  0.00     0.044 C 
ENDBRANCH  13  15
ENDBRANCH   4  13
ENDBRANCH   1   3
BRANCH   1  22
ATOM     22  C   UNL     1       5.141  46.952  54.420  1.00  0.00     0.116 C 
BRANCH  22  23
ATOM     23  C   UNL     1       6.556  46.459  54.742  1.00  0.00     0.024 C 
BRANCH  23  24
ATOM     24  C   UNL     1       7.584  46.624  53.605  1.00  0.00    -0.016 C 
ATOM     25  C   UNL     1       7.080  47.539  52.488  1.00  0.00     0.007 C 
ATOM     26  C   UNL     1       8.896  47.173  54.171  1.00  0.00     0.007 C 
ENDBRANCH  23  24
ENDBRANCH  22  23
ENDBRANCH   1  22
TORSDOF 6
ENDMDL
MODEL 16
REMARK VINA RESULT:    -7.983      1.771      4.919
REMARK INTER + INTRA:         -11.869
REMARK INTER:                 -11.037
REMARK INTRA:                  -0.832
REMARK UNBOUND:                -1.085
REMARK SMILES Cc1ccc(Nc2nc(NCCC(C)C)nc3c2cnn3C)cc1
REMARK SMILES IDX 10 1 9 3 7 4 8 5 18 6 17 7 19 8 16 9 21 10 20 11 22 12 6 13
REMARK SMILES IDX 5 15 2 16 3 17 24 18 4 19 23 20 1 21 11 22 12 23 13 24 14 25
REMARK SMILES IDX 15 26
REMARK H PARENT 10 2 6 14
ROOT
ATOM      1  N   UNL     1       3.197  41.537  50.834  1.00  0.00    -0.354 N 
ATOM      2  H   UNL     1       2.514  41.615  50.088  1.00  0.00     0.163 HD
ENDROOT
BRANCH   1   3
ATOM      3  C   UNL     1       3.075  42.720  51.554  1.00  0.00     0.226 A 
ATOM      4  C   UNL     1       4.024  44.849  51.884  1.00  0.00     0.147 A 
ATOM      5  N   UNL     1       4.015  43.638  51.268  1.00  0.00    -0.195 NA
ATOM      6  C   UNL     1       3.017  45.080  52.832  1.00  0.00     0.082 A 
ATOM      7  C   UNL     1       2.108  44.063  53.048  1.00  0.00     0.165 A 
ATOM      8  C   UNL     1       2.606  46.107  53.706  1.00  0.00     0.149 A 
ATOM      9  N   UNL     1       2.089  42.867  52.445  1.00  0.00    -0.193 NA
ATOM     10  N   UNL     1       1.238  44.528  53.996  1.00  0.00    -0.250 N 
ATOM     11  N   UNL     1       1.525  45.780  54.425  1.00  0.00    -0.179 NA
ATOM     12  C   UNL     1       0.103  43.831  54.545  1.00  0.00     0.176 C 
BRANCH   4  13
ATOM     13  N   UNL     1       5.005  45.815  51.614  1.00  0.00    -0.339 N 
ATOM     14  H   UNL     1       4.838  46.340  50.767  1.00  0.00     0.168 HD
BRANCH  13  15
ATOM     15  C   UNL     1       6.220  46.132  52.245  1.00  0.00     0.040 A 
ATOM     16  C   UNL     1       8.733  46.803  53.382  1.00  0.00    -0.051 A 
ATOM     17  C   UNL     1       8.635  46.465  52.032  1.00  0.00     0.005 A 
ATOM     18  C   UNL     1       7.569  46.831  54.153  1.00  0.00     0.005 A 
ATOM     19  C   UNL     1       7.395  46.132  51.474  1.00  0.00     0.026 A 
ATOM     20  C   UNL     1       6.331  46.498  53.589  1.00  0.00     0.026 A 
ATOM     21  C   UNL     1      10.053  47.193  53.979  1.00  0.00     0.044 C 
ENDBRANCH  13  15
ENDBRANCH   4  13
ENDBRANCH   1   3
BRANCH   1  22
ATOM     22  C   UNL     1       4.538  41.184  50.402  1.00  0.00     0.116 C 
BRANCH  22  23
ATOM     23  C   UNL     1       4.605  40.911  48.895  1.00  0.00     0.024 C 
BRANCH  23  24
ATOM     24  C   UNL     1       5.849  41.476  48.180  1.00  0.00    -0.016 C 
ATOM     25  C   UNL     1       5.556  41.900  46.741  1.00  0.00     0.007 C 
ATOM     26  C   UNL     1       6.400  42.667  48.968  1.00  0.00     0.007 C 
ENDBRANCH  23  24
ENDBRANCH  22  23
ENDBRANCH   1  22
TORSDOF 6
ENDMDL
MODEL 17
REMARK VINA RESULT:    -7.965      2.438      5.361
REMARK INTER + INTRA:         -11.845
REMARK INTER:                 -11.185
REMARK INTRA:                  -0.659
REMARK UNBOUND:                -1.085
REMARK SMILES Cc1ccc(Nc2nc(NCCC(C)C)nc3c2cnn3C)cc1
REMARK SMILES IDX 10 1 9 3 7 4 8 5 18 6 17 7 19 8 16 9 21 10 20 11 22 12 6 13
REMARK SMILES IDX 5 15 2 16 3 17 24 18 4 19 23 20 1 21 11 22 12 23 13 24 14 25
REMARK SMILES IDX 15 26
REMARK H PARENT 10 2 6 14
ROOT
ATOM      1  N   UNL     1       3.872  46.247  55.442  1.00  0.00    -0.354 N 
ATOM      2  H   UNL     1       4.263  45.733  56.226  1.00  0.00     0.163 HD
ENDROOT
BRANCH   1   3
ATOM      3  C   UNL     1       3.027  45.342  54.810  1.00  0.00     0.226 A 
ATOM      4  C   UNL     1       2.882  43.790  53.046  1.00  0.00     0.147 A 
ATOM      5  N   UNL     1       3.581  44.710  53.760  1.00  0.00    -0.195 NA
ATOM      6  C   UNL     1       1.563  43.548  53.452  1.00  0.00     0.082 A 
ATOM      7  C   UNL     1       1.097  44.259  54.541  1.00  0.00     0.165 A 
ATOM      8  C   UNL     1       0.471  42.742  53.069  1.00  0.00     0.149 A 
ATOM      9  N   UNL     1       1.777  45.166  55.253  1.00  0.00    -0.193 NA
ATOM     10  N   UNL     1      -0.192  43.845  54.739  1.00  0.00    -0.250 N 
ATOM     11  N   UNL     1      -0.606  42.918  53.844  1.00  0.00    -0.179 NA
ATOM     12  C   UNL     1      -1.096  44.292  55.768  1.00  0.00     0.176 C 
BRANCH   4  13
ATOM     13  N   UNL     1       3.435  43.132  51.937  1.00  0.00    -0.339 N 
ATOM     14  H   UNL     1       2.904  42.329  51.632  1.00  0.00     0.168 HD
BRANCH  13  15
ATOM     15  C   UNL     1       4.633  43.321  51.225  1.00  0.00     0.040 A 
ATOM     16  C   UNL     1       7.015  43.580  49.703  1.00  0.00    -0.051 A 
ATOM     17  C   UNL     1       6.330  42.365  49.745  1.00  0.00     0.005 A 
ATOM     18  C   UNL     1       6.490  44.670  50.401  1.00  0.00     0.005 A 
ATOM     19  C   UNL     1       5.157  42.239  50.498  1.00  0.00     0.026 A 
ATOM     20  C   UNL     1       5.315  44.538  51.152  1.00  0.00     0.026 A 
ATOM     21  C   UNL     1       8.254  43.732  48.872  1.00  0.00     0.044 C 
ENDBRANCH  13  15
ENDBRANCH   4  13
ENDBRANCH   1   3
BRANCH   1  22
ATOM     22  C   UNL     1       4.850  46.910  54.597  1.00  0.00     0.116 C 
BRANCH  22  23
ATOM     23  C   UNL     1       6.278  46.434  54.884  1.00  0.00     0.024 C 
BRANCH  23  24
ATOM     24  C   UNL     1       7.274  46.607  53.720  1.00  0.00    -0.016 C 
ATOM     25  C   UNL     1       6.753  47.554  52.638  1.00  0.00     0.007 C 
ATOM     26  C   UNL     1       8.612  47.123  54.258  1.00  0.00     0.007 C 
ENDBRANCH  23  24
ENDBRANCH  22  23
ENDBRANCH   1  22
TORSDOF 6
ENDMDL
MODEL 18
REMARK VINA RESULT:    -7.945      1.413      5.318
REMARK INTER + INTRA:         -11.817
REMARK INTER:                 -10.930
REMARK INTRA:                  -0.887
REMARK UNBOUND:                -1.085
REMARK SMILES Cc1ccc(Nc2nc(NCCC(C)C)nc3c2cnn3C)cc1
REMARK SMILES IDX 10 1 9 3 7 4 8 5 18 6 17 7 19 8 16 9 21 10 20 11 22 12 6 13
REMARK SMILES IDX 5 15 2 16 3 17 24 18 4 19 23 20 1 21 11 22 12 23 13 24 14 25
REMARK SMILES IDX 15 26
REMARK H PARENT 10 2 6 14
ROOT
ATOM      1  N   UNL     1       7.999  46.200  50.644  1.00  0.00    -0.354 N 
ATOM      2  H   UNL     1       8.017  46.422  49.654  1.00  0.00     0.163 HD
ENDROOT
BRANCH   1   3
ATOM      3  C   UNL     1       6.860  45.422  50.813  1.00  0.00     0.226 A 
ATOM      4  C   UNL     1       4.648  45.442  51.621  1.00  0.00     0.147 A 
ATOM      5  N   UNL     1       5.833  46.067  51.395  1.00  0.00    -0.195 NA
ATOM      6  C   UNL     1       4.561  44.099  51.229  1.00  0.00     0.082 A 
ATOM      7  C   UNL     1       5.680  43.538  50.646  1.00  0.00     0.165 A 
ATOM      8  C   UNL     1       3.614  43.054  51.243  1.00  0.00     0.149 A 
ATOM      9  N   UNL     1       6.851  44.144  50.417  1.00  0.00    -0.193 NA
ATOM     10  N   UNL     1       5.344  42.244  50.352  1.00  0.00    -0.250 N 
ATOM     11  N   UNL     1       4.082  41.917  50.715  1.00  0.00    -0.179 NA
ATOM     12  C   UNL     1       6.181  41.255  49.721  1.00  0.00     0.176 C 
BRANCH   4  13
ATOM     13  N   UNL     1       3.570  46.091  52.241  1.00  0.00    -0.339 N 
ATOM     14  H   UNL     1       3.316  46.967  51.806  1.00  0.00     0.168 HD
BRANCH  13  15
ATOM     15  C   UNL     1       2.835  45.803  53.405  1.00  0.00     0.040 A 
ATOM     16  C   UNL     1       1.453  45.302  55.833  1.00  0.00    -0.051 A 
ATOM     17  C   UNL     1       2.796  45.682  55.848  1.00  0.00     0.005 A 
ATOM     18  C   UNL     1       0.799  45.200  54.604  1.00  0.00     0.005 A 
ATOM     19  C   UNL     1       3.475  45.926  54.649  1.00  0.00     0.026 A 
ATOM     20  C   UNL     1       1.484  45.447  53.407  1.00  0.00     0.026 A 
ATOM     21  C   UNL     1       0.710  45.070  57.115  1.00  0.00     0.044 C 
ENDBRANCH  13  15
ENDBRANCH   4  13
ENDBRANCH   1   3
BRANCH   1  22
ATOM     22  C   UNL     1       8.134  47.342  51.530  1.00  0.00     0.116 C 
BRANCH  22  23
ATOM     23  C   UNL     1       9.352  47.216  52.453  1.00  0.00     0.024 C 
BRANCH  23  24
ATOM     24  C   UNL     1       9.104  47.603  53.924  1.00  0.00    -0.016 C 
ATOM     25  C   UNL     1       7.804  47.015  54.473  1.00  0.00     0.007 C 
ATOM     26  C   UNL     1      10.284  47.141  54.784  1.00  0.00     0.007 C 
ENDBRANCH  23  24
ENDBRANCH  22  23
ENDBRANCH   1  22
TORSDOF 6
ENDMDL
MODEL 19
REMARK VINA RESULT:    -7.756      2.983      5.731
REMARK INTER + INTRA:         -11.562
REMARK INTER:                 -10.140
REMARK INTRA:                  -1.423
REMARK UNBOUND:                -1.085
REMARK SMILES Cc1ccc(Nc2nc(NCCC(C)C)nc3c2cnn3C)cc1
REMARK SMILES IDX 10 1 9 3 7 4 8 5 18 6 17 7 19 8 16 9 21 10 20 11 22 12 6 13
REMARK SMILES IDX 5 15 2 16 3 17 24 18 4 19 23 20 1 21 11 22 12 23 13 24 14 25
REMARK SMILES IDX 15 26
REMARK H PARENT 10 2 6 14
ROOT
ATOM      1  N   UNL     1       1.284  42.606  52.533  1.00  0.00    -0.354 N 
ATOM      2  H   UNL     1       0.341  42.311  52.304  1.00  0.00     0.163 HD
ENDROOT
BRANCH   1   3
ATOM      3  C   UNL     1       1.143  43.402  53.664  1.00  0.00     0.226 A 
ATOM      4  C   UNL     1       2.256  44.939  55.057  1.00  0.00     0.147 A 
ATOM      5  N   UNL     1       2.242  44.109  53.982  1.00  0.00    -0.195 NA
ATOM      6  C   UNL     1       1.079  45.008  55.814  1.00  0.00     0.082 A 
ATOM      7  C   UNL     1       0.014  44.234  55.397  1.00  0.00     0.165 A 
ATOM      8  C   UNL     1       0.599  45.672  56.961  1.00  0.00     0.149 A 
ATOM      9  N   UNL     1      -0.012  43.414  54.339  1.00  0.00    -0.193 NA
ATOM     10  N   UNL     1      -1.001  44.479  56.282  1.00  0.00    -0.250 N 
ATOM     11  N   UNL     1      -0.667  45.354  57.259  1.00  0.00    -0.179 NA
ATOM     12  C   UNL     1      -2.325  43.911  56.259  1.00  0.00     0.176 C 
BRANCH   4  13
ATOM     13  N   UNL     1       3.397  45.672  55.416  1.00  0.00    -0.339 N 
ATOM     14  H   UNL     1       3.362  46.051  56.352  1.00  0.00     0.168 HD
BRANCH  13  15
ATOM     15  C   UNL     1       4.541  46.057  54.694  1.00  0.00     0.040 A 
ATOM     16  C   UNL     1       6.890  46.686  53.230  1.00  0.00    -0.051 A 
ATOM     17  C   UNL     1       6.794  45.484  53.932  1.00  0.00     0.005 A 
ATOM     18  C   UNL     1       5.799  47.557  53.240  1.00  0.00     0.005 A 
ATOM     19  C   UNL     1       5.635  45.177  54.655  1.00  0.00     0.026 A 
ATOM     20  C   UNL     1       4.641  47.245  53.965  1.00  0.00     0.026 A 
ATOM     21  C   UNL     1       8.115  47.007  52.426  1.00  0.00     0.044 C 
ENDBRANCH  13  15
ENDBRANCH   4  13
ENDBRANCH   1   3
BRANCH   1  22
ATOM     22  C   UNL     1       2.030  43.186  51.430  1.00  0.00     0.116 C 
BRANCH  22  23
ATOM     23  C   UNL     1       3.401  42.523  51.249  1.00  0.00     0.024 C 
BRANCH  23  24
ATOM     24  C   UNL     1       4.611  43.466  51.399  1.00  0.00    -0.016 C 
ATOM     25  C   UNL     1       5.773  43.079  50.483  1.00  0.00     0.007 C 
ATOM     26  C   UNL     1       4.181  44.907  51.108  1.00  0.00     0.007 C 
ENDBRANCH  23  24
ENDBRANCH  22  23
ENDBRANCH   1  22
TORSDOF 6
ENDMDL
MODEL 20
REMARK VINA RESULT:    -7.721      2.041      6.769
REMARK INTER + INTRA:         -11.515
REMARK INTER:                 -10.471
REMARK INTRA:                  -1.044
REMARK UNBOUND:                -1.085
REMARK SMILES Cc1ccc(Nc2nc(NCCC(C)C)nc3c2cnn3C)cc1
REMARK SMILES IDX 10 1 9 3 7 4 8 5 18 6 17 7 19 8 16 9 21 10 20 11 22 12 6 13
REMARK SMILES IDX 5 15 2 16 3 17 24 18 4 19 23 20 1 21 11 22 12 23 13 24 14 25
REMARK SMILES IDX 15 26
REMARK H PARENT 10 2 6 14
ROOT
ATOM      1  N   UNL     1       8.081  45.057  49.587  1.00  0.00    -0.354 N 
ATOM      2  H   UNL     1       8.982  45.498  49.434  1.00  0.00     0.163 HD
ENDROOT
BRANCH   1   3
ATOM      3  C   UNL     1       7.620  45.595  50.783  1.00  0.00     0.226 A 
ATOM      4  C   UNL     1       5.679  46.184  51.978  1.00  0.00     0.147 A 
ATOM      5  N   UNL     1       6.280  45.686  50.866  1.00  0.00    -0.195 NA
ATOM      6  C   UNL     1       6.523  46.603  53.015  1.00  0.00     0.082 A 
ATOM      7  C   UNL     1       7.882  46.467  52.818  1.00  0.00     0.165 A 
ATOM      8  C   UNL     1       6.412  47.166  54.303  1.00  0.00     0.149 A 
ATOM      9  N   UNL     1       8.486  45.976  51.728  1.00  0.00    -0.193 NA
ATOM     10  N   UNL     1       8.479  46.932  53.958  1.00  0.00    -0.250 N 
ATOM     11  N   UNL     1       7.599  47.376  54.886  1.00  0.00    -0.179 NA
ATOM     12  C   UNL     1       9.891  46.984  54.236  1.00  0.00     0.176 C 
BRANCH   4  13
ATOM     13  N   UNL     1       4.284  46.304  52.079  1.00  0.00    -0.339 N 
ATOM     14  H   UNL     1       3.965  47.254  52.203  1.00  0.00     0.168 HD
BRANCH  13  15
ATOM     15  C   UNL     1       3.254  45.349  52.130  1.00  0.00     0.040 A 
ATOM     16  C   UNL     1       1.180  43.427  52.386  1.00  0.00    -0.051 A 
ATOM     17  C   UNL     1       2.056  43.670  53.445  1.00  0.00     0.005 A 
ATOM     18  C   UNL     1       1.329  44.167  51.211  1.00  0.00     0.005 A 
ATOM     19  C   UNL     1       3.079  44.617  53.316  1.00  0.00     0.026 A 
ATOM     20  C   UNL     1       2.354  45.114  51.087  1.00  0.00     0.026 A 
ATOM     21  C   UNL     1       0.062  42.439  52.530  1.00  0.00     0.044 C 
ENDBRANCH  13  15
ENDBRANCH   4  13
ENDBRANCH   1   3
BRANCH   1  22
ATOM     22  C   UNL     1       8.086  43.607  49.495  1.00  0.00     0.116 C 
BRANCH  22  23
ATOM     23  C   UNL     1       6.846  43.072  48.768  1.00  0.00     0.024 C 
BRANCH  23  24
ATOM     24  C   UNL     1       6.087  41.951  49.505  1.00  0.00    -0.016 C 
ATOM     25  C   UNL     1       5.173  42.488  50.607  1.00  0.00     0.007 C 
ATOM     26  C   UNL     1       5.264  41.139  48.501  1.00  0.00     0.007 C 
ENDBRANCH  23  24
ENDBRANCH  22  23
ENDBRANCH   1  22
TORSDOF 6
ENDMDL
