MODEL 1
REMARK VINA RESULT:    -8.278      0.000      0.000
REMARK INTER + INTRA:         -12.028
REMARK INTER:                 -11.182
REMARK INTRA:                  -0.846
REMARK UNBOUND:                -0.846
REMARK SMILES COCCNc1nc(Nc2ccccc2Cl)c2cnn(C)c2n1
REMARK SMILES IDX 5 1 4 3 3 4 2 5 1 6 6 7 7 8 23 9 8 10 22 11 17 12 20 13
REMARK SMILES IDX 18 14 19 15 21 16 9 17 10 19 11 20 15 21 12 22 14 23 13 24
REMARK SMILES IDX 16 25
REMARK H PARENT 5 2 9 18
ROOT
ATOM      1  N   UNL     1       4.489  46.942  54.935  1.00  0.00    -0.352 N 
ATOM      2  H   UNL     1       3.908  47.618  54.452  1.00  0.00     0.163 HD
ENDROOT
BRANCH   1   3
ATOM      3  C   UNL     1       3.811  45.738  55.393  1.00  0.00     0.144 C 
BRANCH   3   4
ATOM      4  C   UNL     1       2.341  45.677  54.960  1.00  0.00     0.181 C 
BRANCH   4   5
ATOM      5  O   UNL     1       2.257  45.092  53.657  1.00  0.00    -0.383 OA
ATOM      6  C   UNL     1       1.754  46.017  52.702  1.00  0.00     0.194 C 
ENDBRANCH   4   5
ENDBRANCH   3   4
ENDBRANCH   1   3
BRANCH   1   7
ATOM      7  C   UNL     1       5.622  46.758  54.157  1.00  0.00     0.226 A 
ATOM      8  N   UNL     1       5.399  46.128  52.990  1.00  0.00    -0.195 NA
ATOM      9  N   UNL     1       6.811  47.178  54.603  1.00  0.00    -0.193 NA
ATOM     10  C   UNL     1       6.418  45.875  52.126  1.00  0.00     0.147 A 
ATOM     11  C   UNL     1       7.806  46.923  53.743  1.00  0.00     0.165 A 
ATOM     12  C   UNL     1       7.697  46.292  52.521  1.00  0.00     0.082 A 
ATOM     13  N   UNL     1       9.131  47.230  53.893  1.00  0.00    -0.250 N 
ATOM     14  C   UNL     1       9.015  46.266  52.021  1.00  0.00     0.149 A 
ATOM     15  N   UNL     1       9.899  46.830  52.853  1.00  0.00    -0.179 NA
ATOM     16  C   UNL     1       9.744  47.907  55.009  1.00  0.00     0.176 C 
BRANCH  10  17
ATOM     17  N   UNL     1       6.214  45.213  50.909  1.00  0.00    -0.338 N 
ATOM     18  H   UNL     1       6.400  45.779  50.089  1.00  0.00     0.168 HD
BRANCH  17  19
ATOM     19  C   UNL     1       5.807  43.903  50.580  1.00  0.00     0.058 A 
ATOM     20  C   UNL     1       4.658  43.299  51.103  1.00  0.00     0.027 A 
ATOM     21  C   UNL     1       6.592  43.134  49.692  1.00  0.00     0.064 A 
ATOM     22  C   UNL     1       4.302  41.990  50.757  1.00  0.00     0.002 A 
ATOM     23  C   UNL     1       6.241  41.826  49.343  1.00  0.00     0.023 A 
ATOM     24  C   UNL     1       5.091  41.254  49.880  1.00  0.00     0.002 A 
ATOM     25  Cl  UNL     1       8.033  43.801  48.994  1.00  0.00    -0.082 Cl
ENDBRANCH  17  19
ENDBRANCH  10  17
ENDBRANCH   1   7
TORSDOF 6
ENDMDL
MODEL 2
REMARK VINA RESULT:    -8.183      2.314      5.448
REMARK INTER + INTRA:         -11.899
REMARK INTER:                 -11.040
REMARK INTRA:                  -0.858
REMARK UNBOUND:                -0.846
REMARK SMILES COCCNc1nc(Nc2ccccc2Cl)c2cnn(C)c2n1
REMARK SMILES IDX 5 1 4 3 3 4 2 5 1 6 6 7 7 8 23 9 8 10 22 11 17 12 20 13
REMARK SMILES IDX 18 14 19 15 21 16 9 17 10 19 11 20 15 21 12 22 14 23 13 24
REMARK SMILES IDX 16 25
REMARK H PARENT 5 2 9 18
ROOT
ATOM      1  N   UNL     1       2.916  42.957  52.989  1.00  0.00    -0.352 N 
ATOM      2  H   UNL     1       3.293  42.870  53.926  1.00  0.00     0.163 HD
ENDROOT
BRANCH   1   3
ATOM      3  C   UNL     1       1.713  43.767  52.864  1.00  0.00     0.144 C 
BRANCH   3   4
ATOM      4  C   UNL     1       1.284  44.411  54.188  1.00  0.00     0.181 C 
BRANCH   4   5
ATOM      5  O   UNL     1       1.928  45.681  54.326  1.00  0.00    -0.383 OA
ATOM      6  C   UNL     1       2.830  45.691  55.425  1.00  0.00     0.194 C 
ENDBRANCH   4   5
ENDBRANCH   3   4
ENDBRANCH   1   3
BRANCH   1   7
ATOM      7  C   UNL     1       3.976  43.288  52.159  1.00  0.00     0.226 A 
ATOM      8  N   UNL     1       4.568  44.460  52.452  1.00  0.00    -0.195 NA
ATOM      9  N   UNL     1       4.314  42.473  51.153  1.00  0.00    -0.193 NA
ATOM     10  C   UNL     1       5.619  44.915  51.720  1.00  0.00     0.147 A 
ATOM     11  C   UNL     1       5.350  42.932  50.439  1.00  0.00     0.165 A 
ATOM     12  C   UNL     1       6.036  44.111  50.650  1.00  0.00     0.082 A 
ATOM     13  N   UNL     1       5.942  42.337  49.359  1.00  0.00    -0.250 N 
ATOM     14  C   UNL     1       7.018  44.129  49.637  1.00  0.00     0.149 A 
ATOM     15  N   UNL     1       6.965  43.055  48.840  1.00  0.00    -0.179 NA
ATOM     16  C   UNL     1       5.585  41.076  48.760  1.00  0.00     0.176 C 
BRANCH  10  17
ATOM     17  N   UNL     1       6.246  46.135  51.998  1.00  0.00    -0.338 N 
ATOM     18  H   UNL     1       5.680  46.951  51.795  1.00  0.00     0.168 HD
BRANCH  17  19
ATOM     19  C   UNL     1       7.514  46.473  52.515  1.00  0.00     0.058 A 
ATOM     20  C   UNL     1       8.689  46.444  51.755  1.00  0.00     0.027 A 
ATOM     21  C   UNL     1       7.634  46.848  53.872  1.00  0.00     0.064 A 
ATOM     22  C   UNL     1       9.928  46.774  52.316  1.00  0.00     0.002 A 
ATOM     23  C   UNL     1       8.869  47.179  54.438  1.00  0.00     0.023 A 
ATOM     24  C   UNL     1      10.019  47.140  53.656  1.00  0.00     0.002 A 
ATOM     25  Cl  UNL     1       6.231  46.913  54.890  1.00  0.00    -0.082 Cl
ENDBRANCH  17  19
ENDBRANCH  10  17
ENDBRANCH   1   7
TORSDOF 6
ENDMDL
MODEL 3
REMARK VINA RESULT:    -8.016      2.493      5.480
REMARK INTER + INTRA:         -11.673
REMARK INTER:                 -10.921
REMARK INTRA:                  -0.752
REMARK UNBOUND:                -0.846
REMARK SMILES COCCNc1nc(Nc2ccccc2Cl)c2cnn(C)c2n1
REMARK SMILES IDX 5 1 4 3 3 4 2 5 1 6 6 7 7 8 23 9 8 10 22 11 17 12 20 13
REMARK SMILES IDX 18 14 19 15 21 16 9 17 10 19 11 20 15 21 12 22 14 23 13 24
REMARK SMILES IDX 16 25
REMARK H PARENT 5 2 9 18
ROOT
ATOM      1  N   UNL     1       2.922  43.310  53.153  1.00  0.00    -0.352 N 
ATOM      2  H   UNL     1       3.262  42.695  53.883  1.00  0.00     0.163 HD
ENDROOT
BRANCH   1   3
ATOM      3  C   UNL     1       2.178  44.477  53.605  1.00  0.00     0.144 C 
BRANCH   3   4
ATOM      4  C   UNL     1       0.659  44.301  53.489  1.00  0.00     0.181 C 
BRANCH   4   5
ATOM      5  O   UNL     1       0.315  42.949  53.803  1.00  0.00    -0.383 OA
ATOM      6  C   UNL     1      -0.502  42.371  52.793  1.00  0.00     0.194 C 
ENDBRANCH   4   5
ENDBRANCH   3   4
ENDBRANCH   1   3
BRANCH   1   7
ATOM      7  C   UNL     1       3.989  43.547  52.300  1.00  0.00     0.226 A 
ATOM      8  N   UNL     1       4.636  44.705  52.525  1.00  0.00    -0.195 NA
ATOM      9  N   UNL     1       4.281  42.664  51.338  1.00  0.00    -0.193 NA
ATOM     10  C   UNL     1       5.700  45.071  51.763  1.00  0.00     0.147 A 
ATOM     11  C   UNL     1       5.330  43.036  50.594  1.00  0.00     0.165 A 
ATOM     12  C   UNL     1       6.072  44.192  50.736  1.00  0.00     0.082 A 
ATOM     13  N   UNL     1       5.886  42.357  49.544  1.00  0.00    -0.250 N 
ATOM     14  C   UNL     1       7.045  44.110  49.718  1.00  0.00     0.149 A 
ATOM     15  N   UNL     1       6.936  42.998  48.981  1.00  0.00    -0.179 NA
ATOM     16  C   UNL     1       5.466  41.082  49.017  1.00  0.00     0.176 C 
BRANCH  10  17
ATOM     17  N   UNL     1       6.385  46.274  51.970  1.00  0.00    -0.338 N 
ATOM     18  H   UNL     1       5.882  47.099  51.663  1.00  0.00     0.168 HD
BRANCH  17  19
ATOM     19  C   UNL     1       7.641  46.587  52.531  1.00  0.00     0.058 A 
ATOM     20  C   UNL     1       8.836  46.560  51.805  1.00  0.00     0.027 A 
ATOM     21  C   UNL     1       7.724  46.931  53.899  1.00  0.00     0.064 A 
ATOM     22  C   UNL     1      10.062  46.864  52.410  1.00  0.00     0.002 A 
ATOM     23  C   UNL     1       8.945  47.235  54.508  1.00  0.00     0.023 A 
ATOM     24  C   UNL     1      10.118  47.200  53.759  1.00  0.00     0.002 A 
ATOM     25  Cl  UNL     1       6.293  46.990  54.877  1.00  0.00    -0.082 Cl
ENDBRANCH  17  19
ENDBRANCH  10  17
ENDBRANCH   1   7
TORSDOF 6
ENDMDL
MODEL 4
REMARK VINA RESULT:    -7.990      2.345      5.636
REMARK INTER + INTRA:         -11.638
REMARK INTER:                 -10.794
REMARK INTRA:                  -0.844
REMARK UNBOUND:                -0.846
REMARK SMILES COCCNc1nc(Nc2ccccc2Cl)c2cnn(C)c2n1
REMARK SMILES IDX 5 1 4 3 3 4 2 5 1 6 6 7 7 8 23 9 8 10 22 11 17 12 20 13
REMARK SMILES IDX 18 14 19 15 21 16 9 17 10 19 11 20 15 21 12 22 14 23 13 24
REMARK SMILES IDX 16 25
REMARK H PARENT 5 2 9 18
ROOT
ATOM      1  N   UNL     1       3.258  42.504  51.139  1.00  0.00    -0.352 N 
ATOM      2  H   UNL     1       2.773  42.866  50.326  1.00  0.00     0.163 HD
ENDROOT
BRANCH   1   3
ATOM      3  C   UNL     1       4.336  41.564  50.868  1.00  0.00     0.144 C 
BRANCH   3   4
ATOM      4  C   UNL     1       4.425  41.166  49.389  1.00  0.00     0.181 C 
BRANCH   4   5
ATOM      5  O   UNL     1       5.786  41.254  48.957  1.00  0.00    -0.383 OA
ATOM      6  C   UNL     1       6.659  41.535  50.043  1.00  0.00     0.194 C 
ENDBRANCH   4   5
ENDBRANCH   3   4
ENDBRANCH   1   3
BRANCH   1   7
ATOM      7  C   UNL     1       3.573  43.595  51.936  1.00  0.00     0.226 A 
ATOM      8  N   UNL     1       4.570  44.362  51.461  1.00  0.00    -0.195 NA
ATOM      9  N   UNL     1       2.913  43.795  53.082  1.00  0.00    -0.193 NA
ATOM     10  C   UNL     1       4.989  45.464  52.139  1.00  0.00     0.147 A 
ATOM     11  C   UNL     1       3.334  44.882  53.741  1.00  0.00     0.165 A 
ATOM     12  C   UNL     1       4.339  45.743  53.350  1.00  0.00     0.082 A 
ATOM     13  N   UNL     1       2.864  45.366  54.931  1.00  0.00    -0.250 N 
ATOM     14  C   UNL     1       4.395  46.706  54.378  1.00  0.00     0.149 A 
ATOM     15  N   UNL     1       3.503  46.482  55.351  1.00  0.00    -0.179 NA
ATOM     16  C   UNL     1       1.800  44.813  55.731  1.00  0.00     0.176 C 
BRANCH  10  17
ATOM     17  N   UNL     1       6.031  46.273  51.671  1.00  0.00    -0.338 N 
ATOM     18  H   UNL     1       5.782  46.861  50.884  1.00  0.00     0.168 HD
BRANCH  17  19
ATOM     19  C   UNL     1       7.371  46.451  52.075  1.00  0.00     0.058 A 
ATOM     20  C   UNL     1       7.745  47.209  53.190  1.00  0.00     0.027 A 
ATOM     21  C   UNL     1       8.409  45.858  51.321  1.00  0.00     0.064 A 
ATOM     22  C   UNL     1       9.090  47.369  53.543  1.00  0.00     0.002 A 
ATOM     23  C   UNL     1       9.753  46.015  51.669  1.00  0.00     0.023 A 
ATOM     24  C   UNL     1      10.094  46.774  52.785  1.00  0.00     0.002 A 
ATOM     25  Cl  UNL     1       8.038  44.900  49.923  1.00  0.00    -0.082 Cl
ENDBRANCH  17  19
ENDBRANCH  10  17
ENDBRANCH   1   7
TORSDOF 6
ENDMDL
MODEL 5
REMARK VINA RESULT:    -7.951      1.931      5.299
REMARK INTER + INTRA:         -11.586
REMARK INTER:                 -10.800
REMARK INTRA:                  -0.786
REMARK UNBOUND:                -0.846
REMARK SMILES COCCNc1nc(Nc2ccccc2Cl)c2cnn(C)c2n1
REMARK SMILES IDX 5 1 4 3 3 4 2 5 1 6 6 7 7 8 23 9 8 10 22 11 17 12 20 13
REMARK SMILES IDX 18 14 19 15 21 16 9 17 10 19 11 20 15 21 12 22 14 23 13 24
REMARK SMILES IDX 16 25
REMARK H PARENT 5 2 9 18
ROOT
ATOM      1  N   UNL     1       3.343  43.821  53.594  1.00  0.00    -0.352 N 
ATOM      2  H   UNL     1       3.863  44.209  54.372  1.00  0.00     0.163 HD
ENDROOT
BRANCH   1   3
ATOM      3  C   UNL     1       2.048  44.431  53.330  1.00  0.00     0.144 C 
BRANCH   3   4
ATOM      4  C   UNL     1       1.987  45.908  53.741  1.00  0.00     0.181 C 
BRANCH   4   5
ATOM      5  O   UNL     1       1.916  46.722  52.567  1.00  0.00    -0.383 OA
ATOM      6  C   UNL     1       3.087  47.512  52.410  1.00  0.00     0.194 C 
ENDBRANCH   4   5
ENDBRANCH   3   4
ENDBRANCH   1   3
BRANCH   1   7
ATOM      7  C   UNL     1       4.222  43.744  52.524  1.00  0.00     0.226 A 
ATOM      8  N   UNL     1       5.136  44.730  52.482  1.00  0.00    -0.195 NA
ATOM      9  N   UNL     1       4.099  42.756  51.630  1.00  0.00    -0.193 NA
ATOM     10  C   UNL     1       6.060  44.785  51.486  1.00  0.00     0.147 A 
ATOM     11  C   UNL     1       5.014  42.821  50.655  1.00  0.00     0.165 A 
ATOM     12  C   UNL     1       5.998  43.778  50.513  1.00  0.00     0.082 A 
ATOM     13  N   UNL     1       5.165  41.963  49.600  1.00  0.00    -0.250 N 
ATOM     14  C   UNL     1       6.683  43.403  49.338  1.00  0.00     0.149 A 
ATOM     15  N   UNL     1       6.179  42.301  48.770  1.00  0.00    -0.179 NA
ATOM     16  C   UNL     1       4.376  40.790  49.316  1.00  0.00     0.176 C 
BRANCH  10  17
ATOM     17  N   UNL     1       7.016  45.806  51.414  1.00  0.00    -0.338 N 
ATOM     18  H   UNL     1       7.062  46.272  50.515  1.00  0.00     0.168 HD
BRANCH  17  19
ATOM     19  C   UNL     1       7.935  46.335  52.344  1.00  0.00     0.058 A 
ATOM     20  C   UNL     1       7.552  47.069  53.472  1.00  0.00     0.027 A 
ATOM     21  C   UNL     1       9.320  46.142  52.139  1.00  0.00     0.064 A 
ATOM     22  C   UNL     1       8.503  47.588  54.360  1.00  0.00     0.002 A 
ATOM     23  C   UNL     1      10.273  46.657  53.023  1.00  0.00     0.023 A 
ATOM     24  C   UNL     1       9.861  47.383  54.137  1.00  0.00     0.002 A 
ATOM     25  Cl  UNL     1       9.885  45.244  50.768  1.00  0.00    -0.082 Cl
ENDBRANCH  17  19
ENDBRANCH  10  17
ENDBRANCH   1   7
TORSDOF 6
ENDMDL
MODEL 6
REMARK VINA RESULT:    -7.847      2.866      6.294
REMARK INTER + INTRA:         -11.445
REMARK INTER:                 -10.730
REMARK INTRA:                  -0.715
REMARK UNBOUND:                -0.846
REMARK SMILES COCCNc1nc(Nc2ccccc2Cl)c2cnn(C)c2n1
REMARK SMILES IDX 5 1 4 3 3 4 2 5 1 6 6 7 7 8 23 9 8 10 22 11 17 12 20 13
REMARK SMILES IDX 18 14 19 15 21 16 9 17 10 19 11 20 15 21 12 22 14 23 13 24
REMARK SMILES IDX 16 25
REMARK H PARENT 5 2 9 18
ROOT
ATOM      1  N   UNL     1       4.686  41.950  51.488  1.00  0.00    -0.352 N 
ATOM      2  H   UNL     1       4.062  41.371  52.039  1.00  0.00     0.163 HD
ENDROOT
BRANCH   1   3
ATOM      3  C   UNL     1       4.869  41.544  50.103  1.00  0.00     0.144 C 
BRANCH   3   4
ATOM      4  C   UNL     1       6.337  41.576  49.658  1.00  0.00     0.181 C 
BRANCH   4   5
ATOM      5  O   UNL     1       6.551  42.715  48.819  1.00  0.00    -0.383 OA
ATOM      6  C   UNL     1       7.731  43.417  49.184  1.00  0.00     0.194 C 
ENDBRANCH   4   5
ENDBRANCH   3   4
ENDBRANCH   1   3
BRANCH   1   7
ATOM      7  C   UNL     1       4.306  43.267  51.703  1.00  0.00     0.226 A 
ATOM      8  N   UNL     1       5.300  44.162  51.571  1.00  0.00    -0.195 NA
ATOM      9  N   UNL     1       3.040  43.548  52.035  1.00  0.00    -0.193 NA
ATOM     10  C   UNL     1       5.074  45.490  51.756  1.00  0.00     0.147 A 
ATOM     11  C   UNL     1       2.831  44.858  52.215  1.00  0.00     0.165 A 
ATOM     12  C   UNL     1       3.768  45.865  52.101  1.00  0.00     0.082 A 
ATOM     13  N   UNL     1       1.655  45.472  52.549  1.00  0.00    -0.250 N 
ATOM     14  C   UNL     1       3.051  47.045  52.392  1.00  0.00     0.149 A 
ATOM     15  N   UNL     1       1.763  46.816  52.673  1.00  0.00    -0.179 NA
ATOM     16  C   UNL     1       0.378  44.840  52.769  1.00  0.00     0.176 C 
BRANCH  10  17
ATOM     17  N   UNL     1       6.094  46.442  51.634  1.00  0.00    -0.338 N 
ATOM     18  H   UNL     1       5.874  47.212  51.013  1.00  0.00     0.168 HD
BRANCH  17  19
ATOM     19  C   UNL     1       7.377  46.561  52.207  1.00  0.00     0.058 A 
ATOM     20  C   UNL     1       8.563  46.409  51.479  1.00  0.00     0.027 A 
ATOM     21  C   UNL     1       7.499  46.830  53.589  1.00  0.00     0.064 A 
ATOM     22  C   UNL     1       9.815  46.522  52.096  1.00  0.00     0.002 A 
ATOM     23  C   UNL     1       8.747  46.943  54.210  1.00  0.00     0.023 A 
ATOM     24  C   UNL     1       9.908  46.788  53.458  1.00  0.00     0.002 A 
ATOM     25  Cl  UNL     1       6.083  47.033  54.570  1.00  0.00    -0.082 Cl
ENDBRANCH  17  19
ENDBRANCH  10  17
ENDBRANCH   1   7
TORSDOF 6
ENDMDL
MODEL 7
REMARK VINA RESULT:    -7.847      2.515      6.069
REMARK INTER + INTRA:         -11.445
REMARK INTER:                 -10.646
REMARK INTRA:                  -0.799
REMARK UNBOUND:                -0.846
REMARK SMILES COCCNc1nc(Nc2ccccc2Cl)c2cnn(C)c2n1
REMARK SMILES IDX 5 1 4 3 3 4 2 5 1 6 6 7 7 8 23 9 8 10 22 11 17 12 20 13
REMARK SMILES IDX 18 14 19 15 21 16 9 17 10 19 11 20 15 21 12 22 14 23 13 24
REMARK SMILES IDX 16 25
REMARK H PARENT 5 2 9 18
ROOT
ATOM      1  N   UNL     1       4.501  41.608  50.939  1.00  0.00    -0.352 N 
ATOM      2  H   UNL     1       3.624  41.276  50.555  1.00  0.00     0.163 HD
ENDROOT
BRANCH   1   3
ATOM      3  C   UNL     1       5.646  41.553  50.043  1.00  0.00     0.144 C 
BRANCH   3   4
ATOM      4  C   UNL     1       5.257  41.244  48.592  1.00  0.00     0.181 C 
BRANCH   4   5
ATOM      5  O   UNL     1       3.946  40.672  48.566  1.00  0.00    -0.383 OA
ATOM      6  C   UNL     1       3.579  40.267  47.254  1.00  0.00     0.194 C 
ENDBRANCH   4   5
ENDBRANCH   3   4
ENDBRANCH   1   3
BRANCH   1   7
ATOM      7  C   UNL     1       4.238  42.833  51.534  1.00  0.00     0.226 A 
ATOM      8  N   UNL     1       5.118  43.802  51.225  1.00  0.00    -0.195 NA
ATOM      9  N   UNL     1       3.191  42.963  52.357  1.00  0.00    -0.193 NA
ATOM     10  C   UNL     1       4.988  45.054  51.739  1.00  0.00     0.147 A 
ATOM     11  C   UNL     1       3.075  44.200  52.857  1.00  0.00     0.165 A 
ATOM     12  C   UNL     1       3.909  45.271  52.607  1.00  0.00     0.082 A 
ATOM     13  N   UNL     1       2.114  44.661  53.715  1.00  0.00    -0.250 N 
ATOM     14  C   UNL     1       3.362  46.325  53.368  1.00  0.00     0.149 A 
ATOM     15  N   UNL     1       2.271  45.962  54.052  1.00  0.00    -0.179 NA
ATOM     16  C   UNL     1       1.008  43.914  54.260  1.00  0.00     0.176 C 
BRANCH  10  17
ATOM     17  N   UNL     1       5.895  46.079  51.440  1.00  0.00    -0.338 N 
ATOM     18  H   UNL     1       5.568  46.734  50.739  1.00  0.00     0.168 HD
BRANCH  17  19
ATOM     19  C   UNL     1       7.182  46.399  51.920  1.00  0.00     0.058 A 
ATOM     20  C   UNL     1       7.407  47.233  53.021  1.00  0.00     0.027 A 
ATOM     21  C   UNL     1       8.319  45.878  51.262  1.00  0.00     0.064 A 
ATOM     22  C   UNL     1       8.705  47.534  53.453  1.00  0.00     0.002 A 
ATOM     23  C   UNL     1       9.617  46.176  51.689  1.00  0.00     0.023 A 
ATOM     24  C   UNL     1       9.808  47.008  52.788  1.00  0.00     0.002 A 
ATOM     25  Cl  UNL     1       8.135  44.835  49.888  1.00  0.00    -0.082 Cl
ENDBRANCH  17  19
ENDBRANCH  10  17
ENDBRANCH   1   7
TORSDOF 6
ENDMDL
MODEL 8
REMARK VINA RESULT:    -7.756      1.986      5.231
REMARK INTER + INTRA:         -11.322
REMARK INTER:                 -10.353
REMARK INTRA:                  -0.970
REMARK UNBOUND:                -0.846
REMARK SMILES COCCNc1nc(Nc2ccccc2Cl)c2cnn(C)c2n1
REMARK SMILES IDX 5 1 4 3 3 4 2 5 1 6 6 7 7 8 23 9 8 10 22 11 17 12 20 13
REMARK SMILES IDX 18 14 19 15 21 16 9 17 10 19 11 20 15 21 12 22 14 23 13 24
REMARK SMILES IDX 16 25
REMARK H PARENT 5 2 9 18
ROOT
ATOM      1  N   UNL     1       2.414  45.443  52.294  1.00  0.00    -0.352 N 
ATOM      2  H   UNL     1       1.685  45.510  51.592  1.00  0.00     0.163 HD
ENDROOT
BRANCH   1   3
ATOM      3  C   UNL     1       2.007  44.896  53.580  1.00  0.00     0.144 C 
BRANCH   3   4
ATOM      4  C   UNL     1       2.572  45.682  54.770  1.00  0.00     0.181 C 
BRANCH   4   5
ATOM      5  O   UNL     1       3.685  44.971  55.320  1.00  0.00    -0.383 OA
ATOM      6  C   UNL     1       4.906  45.663  55.098  1.00  0.00     0.194 C 
ENDBRANCH   4   5
ENDBRANCH   3   4
ENDBRANCH   1   3
BRANCH   1   7
ATOM      7  C   UNL     1       3.505  44.843  51.682  1.00  0.00     0.226 A 
ATOM      8  N   UNL     1       4.585  45.635  51.569  1.00  0.00    -0.195 NA
ATOM      9  N   UNL     1       3.412  43.582  51.244  1.00  0.00    -0.193 NA
ATOM     10  C   UNL     1       5.727  45.181  50.987  1.00  0.00     0.147 A 
ATOM     11  C   UNL     1       4.542  43.147  50.672  1.00  0.00     0.165 A 
ATOM     12  C   UNL     1       5.709  43.864  50.507  1.00  0.00     0.082 A 
ATOM     13  N   UNL     1       4.778  41.911  50.135  1.00  0.00    -0.250 N 
ATOM     14  C   UNL     1       6.581  42.968  49.854  1.00  0.00     0.149 A 
ATOM     15  N   UNL     1       6.021  41.776  49.617  1.00  0.00    -0.179 NA
ATOM     16  C   UNL     1       3.860  40.801  50.077  1.00  0.00     0.176 C 
BRANCH  10  17
ATOM     17  N   UNL     1       6.862  45.989  50.848  1.00  0.00    -0.338 N 
ATOM     18  H   UNL     1       6.995  46.366  49.916  1.00  0.00     0.168 HD
BRANCH  17  19
ATOM     19  C   UNL     1       7.870  46.401  51.745  1.00  0.00     0.058 A 
ATOM     20  C   UNL     1       7.635  47.257  52.827  1.00  0.00     0.027 A 
ATOM     21  C   UNL     1       9.197  45.953  51.553  1.00  0.00     0.064 A 
ATOM     22  C   UNL     1       8.671  47.650  53.682  1.00  0.00     0.002 A 
ATOM     23  C   UNL     1      10.235  46.343  52.404  1.00  0.00     0.023 A 
ATOM     24  C   UNL     1       9.969  47.195  53.472  1.00  0.00     0.002 A 
ATOM     25  Cl  UNL     1       9.581  44.890  50.238  1.00  0.00    -0.082 Cl
ENDBRANCH  17  19
ENDBRANCH  10  17
ENDBRANCH   1   7
TORSDOF 6
ENDMDL
MODEL 9
REMARK VINA RESULT:    -7.697      2.920      6.382
REMARK INTER + INTRA:         -11.242
REMARK INTER:                 -10.478
REMARK INTRA:                  -0.764
REMARK UNBOUND:                -0.846
REMARK SMILES COCCNc1nc(Nc2ccccc2Cl)c2cnn(C)c2n1
REMARK SMILES IDX 5 1 4 3 3 4 2 5 1 6 6 7 7 8 23 9 8 10 22 11 17 12 20 13
REMARK SMILES IDX 18 14 19 15 21 16 9 17 10 19 11 20 15 21 12 22 14 23 13 24
REMARK SMILES IDX 16 25
REMARK H PARENT 5 2 9 18
ROOT
ATOM      1  N   UNL     1       4.732  41.592  50.983  1.00  0.00    -0.352 N 
ATOM      2  H   UNL     1       3.894  41.118  50.667  1.00  0.00     0.163 HD
ENDROOT
BRANCH   1   3
ATOM      3  C   UNL     1       5.801  41.711  50.002  1.00  0.00     0.144 C 
BRANCH   3   4
ATOM      4  C   UNL     1       5.388  41.229  48.606  1.00  0.00     0.181 C 
BRANCH   4   5
ATOM      5  O   UNL     1       4.059  40.704  48.661  1.00  0.00    -0.383 OA
ATOM      6  C   UNL     1       3.617  40.267  47.383  1.00  0.00     0.194 C 
ENDBRANCH   4   5
ENDBRANCH   3   4
ENDBRANCH   1   3
BRANCH   1   7
ATOM      7  C   UNL     1       4.321  42.765  51.598  1.00  0.00     0.226 A 
ATOM      8  N   UNL     1       5.171  43.797  51.453  1.00  0.00    -0.195 NA
ATOM      9  N   UNL     1       3.171  42.791  52.282  1.00  0.00    -0.193 NA
ATOM     10  C   UNL     1       4.899  45.009  52.006  1.00  0.00     0.147 A 
ATOM     11  C   UNL     1       2.915  43.989  52.821  1.00  0.00     0.165 A 
ATOM     12  C   UNL     1       3.707  45.117  52.735  1.00  0.00     0.082 A 
ATOM     13  N   UNL     1       1.826  44.348  53.567  1.00  0.00    -0.250 N 
ATOM     14  C   UNL     1       3.003  46.095  53.468  1.00  0.00     0.149 A 
ATOM     15  N   UNL     1       1.858  45.635  53.985  1.00  0.00    -0.179 NA
ATOM     16  C   UNL     1       0.708  43.513  53.926  1.00  0.00     0.176 C 
BRANCH  10  17
ATOM     17  N   UNL     1       5.772  46.097  51.878  1.00  0.00    -0.338 N 
ATOM     18  H   UNL     1       5.357  46.918  51.453  1.00  0.00     0.168 HD
BRANCH  17  19
ATOM     19  C   UNL     1       7.124  46.296  52.228  1.00  0.00     0.058 A 
ATOM     20  C   UNL     1       8.184  46.140  51.328  1.00  0.00     0.027 A 
ATOM     21  C   UNL     1       7.452  46.655  53.555  1.00  0.00     0.064 A 
ATOM     22  C   UNL     1       9.512  46.335  51.726  1.00  0.00     0.002 A 
ATOM     23  C   UNL     1       8.777  46.851  53.958  1.00  0.00     0.023 A 
ATOM     24  C   UNL     1       9.809  46.688  53.039  1.00  0.00     0.002 A 
ATOM     25  Cl  UNL     1       6.203  46.870  54.739  1.00  0.00    -0.082 Cl
ENDBRANCH  17  19
ENDBRANCH  10  17
ENDBRANCH   1   7
TORSDOF 6
ENDMDL
MODEL 10
REMARK VINA RESULT:    -7.687      2.453      5.355
REMARK INTER + INTRA:         -11.229
REMARK INTER:                 -10.622
REMARK INTRA:                  -0.607
REMARK UNBOUND:                -0.846
REMARK SMILES COCCNc1nc(Nc2ccccc2Cl)c2cnn(C)c2n1
REMARK SMILES IDX 5 1 4 3 3 4 2 5 1 6 6 7 7 8 23 9 8 10 22 11 17 12 20 13
REMARK SMILES IDX 18 14 19 15 21 16 9 17 10 19 11 20 15 21 12 22 14 23 13 24
REMARK SMILES IDX 16 25
REMARK H PARENT 5 2 9 18
ROOT
ATOM      1  N   UNL     1       2.843  46.055  56.349  1.00  0.00    -0.352 N 
ATOM      2  H   UNL     1       3.110  47.020  56.511  1.00  0.00     0.163 HD
ENDROOT
BRANCH   1   3
ATOM      3  C   UNL     1       1.450  45.730  56.615  1.00  0.00     0.144 C 
BRANCH   3   4
ATOM      4  C   UNL     1       0.896  46.439  57.858  1.00  0.00     0.181 C 
BRANCH   4   5
ATOM      5  O   UNL     1      -0.510  46.195  57.953  1.00  0.00    -0.383 OA
ATOM      6  C   UNL     1      -1.261  47.383  57.739  1.00  0.00     0.194 C 
ENDBRANCH   4   5
ENDBRANCH   3   4
ENDBRANCH   1   3
BRANCH   1   7
ATOM      7  C   UNL     1       3.332  45.710  55.098  1.00  0.00     0.226 A 
ATOM      8  N   UNL     1       4.365  46.461  54.677  1.00  0.00    -0.195 NA
ATOM      9  N   UNL     1       2.761  44.714  54.411  1.00  0.00    -0.193 NA
ATOM     10  C   UNL     1       4.945  46.239  53.468  1.00  0.00     0.147 A 
ATOM     11  C   UNL     1       3.340  44.505  53.222  1.00  0.00     0.165 A 
ATOM     12  C   UNL     1       4.403  45.205  52.690  1.00  0.00     0.082 A 
ATOM     13  N   UNL     1       3.002  43.563  52.289  1.00  0.00    -0.250 N 
ATOM     14  C   UNL     1       4.622  44.606  51.432  1.00  0.00     0.149 A 
ATOM     15  N   UNL     1       3.769  43.608  51.175  1.00  0.00    -0.179 NA
ATOM     16  C   UNL     1       1.953  42.580  52.390  1.00  0.00     0.176 C 
BRANCH  10  17
ATOM     17  N   UNL     1       6.015  47.013  53.002  1.00  0.00    -0.338 N 
ATOM     18  H   UNL     1       5.743  47.781  52.400  1.00  0.00     0.168 HD
BRANCH  17  19
ATOM     19  C   UNL     1       7.410  46.952  53.204  1.00  0.00     0.058 A 
ATOM     20  C   UNL     1       8.031  47.318  54.403  1.00  0.00     0.027 A 
ATOM     21  C   UNL     1       8.246  46.520  52.150  1.00  0.00     0.064 A 
ATOM     22  C   UNL     1       9.421  47.255  54.551  1.00  0.00     0.002 A 
ATOM     23  C   UNL     1       9.635  46.455  52.293  1.00  0.00     0.023 A 
ATOM     24  C   UNL     1      10.223  46.825  53.498  1.00  0.00     0.002 A 
ATOM     25  Cl  UNL     1       7.563  46.047  50.627  1.00  0.00    -0.082 Cl
ENDBRANCH  17  19
ENDBRANCH  10  17
ENDBRANCH   1   7
TORSDOF 6
ENDMDL
MODEL 11
REMARK VINA RESULT:    -7.443      2.840      5.483
REMARK INTER + INTRA:         -10.900
REMARK INTER:                 -10.250
REMARK INTRA:                  -0.650
REMARK UNBOUND:                -0.846
REMARK SMILES COCCNc1nc(Nc2ccccc2Cl)c2cnn(C)c2n1
REMARK SMILES IDX 5 1 4 3 3 4 2 5 1 6 6 7 7 8 23 9 8 10 22 11 17 12 20 13
REMARK SMILES IDX 18 14 19 15 21 16 9 17 10 19 11 20 15 21 12 22 14 23 13 24
REMARK SMILES IDX 16 25
REMARK H PARENT 5 2 9 18
ROOT
ATOM      1  N   UNL     1       3.700  45.012  55.409  1.00  0.00    -0.352 N 
ATOM      2  H   UNL     1       3.764  44.210  56.025  1.00  0.00     0.163 HD
ENDROOT
BRANCH   1   3
ATOM      3  C   UNL     1       4.917  45.797  55.263  1.00  0.00     0.144 C 
BRANCH   3   4
ATOM      4  C   UNL     1       4.670  47.175  54.636  1.00  0.00     0.181 C 
BRANCH   4   5
ATOM      5  O   UNL     1       5.811  47.552  53.861  1.00  0.00    -0.383 OA
ATOM      6  C   UNL     1       6.941  46.748  54.172  1.00  0.00     0.194 C 
ENDBRANCH   4   5
ENDBRANCH   3   4
ENDBRANCH   1   3
BRANCH   1   7
ATOM      7  C   UNL     1       3.103  44.572  54.237  1.00  0.00     0.226 A 
ATOM      8  N   UNL     1       3.965  44.125  53.307  1.00  0.00    -0.195 NA
ATOM      9  N   UNL     1       1.773  44.636  54.102  1.00  0.00    -0.193 NA
ATOM     10  C   UNL     1       3.522  43.665  52.106  1.00  0.00     0.147 A 
ATOM     11  C   UNL     1       1.350  44.181  52.916  1.00  0.00     0.165 A 
ATOM     12  C   UNL     1       2.137  43.695  51.892  1.00  0.00     0.082 A 
ATOM     13  N   UNL     1       0.058  44.103  52.470  1.00  0.00    -0.250 N 
ATOM     14  C   UNL     1       1.219  43.357  50.876  1.00  0.00     0.149 A 
ATOM     15  N   UNL     1      -0.051  43.608  51.216  1.00  0.00    -0.179 NA
ATOM     16  C   UNL     1      -1.132  44.486  53.189  1.00  0.00     0.176 C 
BRANCH  10  17
ATOM     17  N   UNL     1       4.399  43.203  51.117  1.00  0.00    -0.338 N 
ATOM     18  H   UNL     1       4.087  42.365  50.641  1.00  0.00     0.168 HD
BRANCH  17  19
ATOM     19  C   UNL     1       5.639  43.670  50.632  1.00  0.00     0.058 A 
ATOM     20  C   UNL     1       6.167  44.926  50.952  1.00  0.00     0.027 A 
ATOM     21  C   UNL     1       6.396  42.853  49.763  1.00  0.00     0.064 A 
ATOM     22  C   UNL     1       7.396  45.351  50.433  1.00  0.00     0.002 A 
ATOM     23  C   UNL     1       7.624  43.273  49.243  1.00  0.00     0.023 A 
ATOM     24  C   UNL     1       8.124  44.528  49.580  1.00  0.00     0.002 A 
ATOM     25  Cl  UNL     1       5.819  41.281  49.313  1.00  0.00    -0.082 Cl
ENDBRANCH  17  19
ENDBRANCH  10  17
ENDBRANCH   1   7
TORSDOF 6
ENDMDL
MODEL 12
REMARK VINA RESULT:    -7.352      2.763      5.653
REMARK INTER + INTRA:         -10.777
REMARK INTER:                 -10.071
REMARK INTRA:                  -0.706
REMARK UNBOUND:                -0.846
REMARK SMILES COCCNc1nc(Nc2ccccc2Cl)c2cnn(C)c2n1
REMARK SMILES IDX 5 1 4 3 3 4 2 5 1 6 6 7 7 8 23 9 8 10 22 11 17 12 20 13
REMARK SMILES IDX 18 14 19 15 21 16 9 17 10 19 11 20 15 21 12 22 14 23 13 24
REMARK SMILES IDX 16 25
REMARK H PARENT 5 2 9 18
ROOT
ATOM      1  N   UNL     1       2.587  46.012  56.461  1.00  0.00    -0.352 N 
ATOM      2  H   UNL     1       2.948  46.955  56.369  1.00  0.00     0.163 HD
ENDROOT
BRANCH   1   3
ATOM      3  C   UNL     1       1.211  45.904  56.923  1.00  0.00     0.144 C 
BRANCH   3   4
ATOM      4  C   UNL     1       0.944  46.706  58.203  1.00  0.00     0.181 C 
BRANCH   4   5
ATOM      5  O   UNL     1      -0.468  46.799  58.415  1.00  0.00    -0.383 OA
ATOM      6  C   UNL     1      -1.196  46.384  57.268  1.00  0.00     0.194 C 
ENDBRANCH   4   5
ENDBRANCH   3   4
ENDBRANCH   1   3
BRANCH   1   7
ATOM      7  C   UNL     1       2.901  45.347  55.285  1.00  0.00     0.226 A 
ATOM      8  N   UNL     1       4.207  45.361  54.969  1.00  0.00    -0.195 NA
ATOM      9  N   UNL     1       1.929  44.778  54.562  1.00  0.00    -0.193 NA
ATOM     10  C   UNL     1       4.661  44.752  53.842  1.00  0.00     0.147 A 
ATOM     11  C   UNL     1       2.388  44.182  53.455  1.00  0.00     0.165 A 
ATOM     12  C   UNL     1       3.701  44.127  53.033  1.00  0.00     0.082 A 
ATOM     13  N   UNL     1       1.660  43.507  52.513  1.00  0.00    -0.250 N 
ATOM     14  C   UNL     1       3.650  43.401  51.825  1.00  0.00     0.149 A 
ATOM     15  N   UNL     1       2.409  43.024  51.495  1.00  0.00    -0.179 NA
ATOM     16  C   UNL     1       0.236  43.282  52.516  1.00  0.00     0.176 C 
BRANCH  10  17
ATOM     17  N   UNL     1       6.015  44.761  53.485  1.00  0.00    -0.338 N 
ATOM     18  H   UNL     1       6.420  43.840  53.360  1.00  0.00     0.168 HD
BRANCH  17  19
ATOM     19  C   UNL     1       6.945  45.795  53.251  1.00  0.00     0.058 A 
ATOM     20  C   UNL     1       7.622  46.468  54.274  1.00  0.00     0.027 A 
ATOM     21  C   UNL     1       7.211  46.204  51.925  1.00  0.00     0.064 A 
ATOM     22  C   UNL     1       8.526  47.499  53.993  1.00  0.00     0.002 A 
ATOM     23  C   UNL     1       8.112  47.233  51.639  1.00  0.00     0.023 A 
ATOM     24  C   UNL     1       8.771  47.883  52.679  1.00  0.00     0.002 A 
ATOM     25  Cl  UNL     1       6.417  45.426  50.592  1.00  0.00    -0.082 Cl
ENDBRANCH  17  19
ENDBRANCH  10  17
ENDBRANCH   1   7
TORSDOF 6
ENDMDL
MODEL 13
REMARK VINA RESULT:    -7.338      2.879      5.843
REMARK INTER + INTRA:         -10.758
REMARK INTER:                 -10.185
REMARK INTRA:                  -0.573
REMARK UNBOUND:                -0.846
REMARK SMILES COCCNc1nc(Nc2ccccc2Cl)c2cnn(C)c2n1
REMARK SMILES IDX 5 1 4 3 3 4 2 5 1 6 6 7 7 8 23 9 8 10 22 11 17 12 20 13
REMARK SMILES IDX 18 14 19 15 21 16 9 17 10 19 11 20 15 21 12 22 14 23 13 24
REMARK SMILES IDX 16 25
REMARK H PARENT 5 2 9 18
ROOT
ATOM      1  N   UNL     1       9.119  47.498  52.491  1.00  0.00    -0.352 N 
ATOM      2  H   UNL     1       9.283  48.237  51.817  1.00  0.00     0.163 HD
ENDROOT
BRANCH   1   3
ATOM      3  C   UNL     1       9.128  47.901  53.889  1.00  0.00     0.144 C 
BRANCH   3   4
ATOM      4  C   UNL     1      10.247  47.233  54.698  1.00  0.00     0.181 C 
BRANCH   4   5
ATOM      5  O   UNL     1      10.310  47.828  55.997  1.00  0.00    -0.383 OA
ATOM      6  C   UNL     1      11.465  47.404  56.709  1.00  0.00     0.194 C 
ENDBRANCH   4   5
ENDBRANCH   3   4
ENDBRANCH   1   3
BRANCH   1   7
ATOM      7  C   UNL     1       8.004  46.798  52.054  1.00  0.00     0.226 A 
ATOM      8  N   UNL     1       6.843  47.209  52.594  1.00  0.00    -0.195 NA
ATOM      9  N   UNL     1       8.147  45.793  51.184  1.00  0.00    -0.193 NA
ATOM     10  C   UNL     1       5.667  46.613  52.261  1.00  0.00     0.147 A 
ATOM     11  C   UNL     1       6.983  45.213  50.865  1.00  0.00     0.165 A 
ATOM     12  C   UNL     1       5.735  45.552  51.348  1.00  0.00     0.082 A 
ATOM     13  N   UNL     1       6.784  44.170  50.001  1.00  0.00    -0.250 N 
ATOM     14  C   UNL     1       4.857  44.648  50.714  1.00  0.00     0.149 A 
ATOM     15  N   UNL     1       5.488  43.797  49.896  1.00  0.00    -0.179 NA
ATOM     16  C   UNL     1       7.788  43.475  49.236  1.00  0.00     0.176 C 
BRANCH  10  17
ATOM     17  N   UNL     1       4.446  47.015  52.816  1.00  0.00    -0.338 N 
ATOM     18  H   UNL     1       4.363  48.015  52.963  1.00  0.00     0.168 HD
BRANCH  17  19
ATOM     19  C   UNL     1       3.288  46.314  53.212  1.00  0.00     0.058 A 
ATOM     20  C   UNL     1       2.096  46.320  52.479  1.00  0.00     0.027 A 
ATOM     21  C   UNL     1       3.301  45.575  54.417  1.00  0.00     0.064 A 
ATOM     22  C   UNL     1       0.967  45.620  52.921  1.00  0.00     0.002 A 
ATOM     23  C   UNL     1       2.176  44.875  54.862  1.00  0.00     0.023 A 
ATOM     24  C   UNL     1       1.005  44.899  54.110  1.00  0.00     0.002 A 
ATOM     25  Cl  UNL     1       4.735  45.512  55.390  1.00  0.00    -0.082 Cl
ENDBRANCH  17  19
ENDBRANCH  10  17
ENDBRANCH   1   7
TORSDOF 6
ENDMDL
MODEL 14
REMARK VINA RESULT:    -7.262      2.522      4.908
REMARK INTER + INTRA:         -10.655
REMARK INTER:                  -9.704
REMARK INTRA:                  -0.951
REMARK UNBOUND:                -0.846
REMARK SMILES COCCNc1nc(Nc2ccccc2Cl)c2cnn(C)c2n1
REMARK SMILES IDX 5 1 4 3 3 4 2 5 1 6 6 7 7 8 23 9 8 10 22 11 17 12 20 13
REMARK SMILES IDX 18 14 19 15 21 16 9 17 10 19 11 20 15 21 12 22 14 23 13 24
REMARK SMILES IDX 16 25
REMARK H PARENT 5 2 9 18
ROOT
ATOM      1  N   UNL     1       6.514  43.385  49.254  1.00  0.00    -0.352 N 
ATOM      2  H   UNL     1       7.200  43.529  48.521  1.00  0.00     0.163 HD
ENDROOT
BRANCH   1   3
ATOM      3  C   UNL     1       6.488  42.054  49.843  1.00  0.00     0.144 C 
BRANCH   3   4
ATOM      4  C   UNL     1       5.134  41.351  49.673  1.00  0.00     0.181 C 
BRANCH   4   5
ATOM      5  O   UNL     1       4.545  41.145  50.960  1.00  0.00    -0.383 OA
ATOM      6  C   UNL     1       3.503  42.078  51.212  1.00  0.00     0.194 C 
ENDBRANCH   4   5
ENDBRANCH   3   4
ENDBRANCH   1   3
BRANCH   1   7
ATOM      7  C   UNL     1       6.639  44.449  50.134  1.00  0.00     0.226 A 
ATOM      8  N   UNL     1       5.470  44.977  50.539  1.00  0.00    -0.195 NA
ATOM      9  N   UNL     1       7.854  44.880  50.491  1.00  0.00    -0.193 NA
ATOM     10  C   UNL     1       5.438  46.029  51.399  1.00  0.00     0.147 A 
ATOM     11  C   UNL     1       7.809  45.916  51.338  1.00  0.00     0.165 A 
ATOM     12  C   UNL     1       6.675  46.533  51.824  1.00  0.00     0.082 A 
ATOM     13  N   UNL     1       8.869  46.578  51.896  1.00  0.00    -0.250 N 
ATOM     14  C   UNL     1       7.165  47.557  52.662  1.00  0.00     0.149 A 
ATOM     15  N   UNL     1       8.502  47.597  52.707  1.00  0.00    -0.179 NA
ATOM     16  C   UNL     1      10.269  46.295  51.700  1.00  0.00     0.176 C 
BRANCH  10  17
ATOM     17  N   UNL     1       4.234  46.602  51.828  1.00  0.00    -0.338 N 
ATOM     18  H   UNL     1       4.201  47.612  51.749  1.00  0.00     0.168 HD
BRANCH  17  19
ATOM     19  C   UNL     1       3.039  46.062  52.347  1.00  0.00     0.058 A 
ATOM     20  C   UNL     1       2.014  45.549  51.545  1.00  0.00     0.027 A 
ATOM     21  C   UNL     1       2.834  46.044  53.745  1.00  0.00     0.064 A 
ATOM     22  C   UNL     1       0.838  45.037  52.106  1.00  0.00     0.002 A 
ATOM     23  C   UNL     1       1.662  45.534  54.311  1.00  0.00     0.023 A 
ATOM     24  C   UNL     1       0.661  45.029  53.486  1.00  0.00     0.002 A 
ATOM     25  Cl  UNL     1       4.051  46.660  54.817  1.00  0.00    -0.082 Cl
ENDBRANCH  17  19
ENDBRANCH  10  17
ENDBRANCH   1   7
TORSDOF 6
ENDMDL
MODEL 15
REMARK VINA RESULT:    -7.253      2.333      5.070
REMARK INTER + INTRA:         -10.643
REMARK INTER:                 -10.012
REMARK INTRA:                  -0.631
REMARK UNBOUND:                -0.846
REMARK SMILES COCCNc1nc(Nc2ccccc2Cl)c2cnn(C)c2n1
REMARK SMILES IDX 5 1 4 3 3 4 2 5 1 6 6 7 7 8 23 9 8 10 22 11 17 12 20 13
REMARK SMILES IDX 18 14 19 15 21 16 9 17 10 19 11 20 15 21 12 22 14 23 13 24
REMARK SMILES IDX 16 25
REMARK H PARENT 5 2 9 18
ROOT
ATOM      1  N   UNL     1       5.874  46.925  54.926  1.00  0.00    -0.352 N 
ATOM      2  H   UNL     1       5.852  47.045  55.932  1.00  0.00     0.163 HD
ENDROOT
BRANCH   1   3
ATOM      3  C   UNL     1       7.124  46.425  54.375  1.00  0.00     0.144 C 
BRANCH   3   4
ATOM      4  C   UNL     1       7.807  47.427  53.435  1.00  0.00     0.181 C 
BRANCH   4   5
ATOM      5  O   UNL     1       8.759  48.196  54.176  1.00  0.00    -0.383 OA
ATOM      6  C   UNL     1       9.874  47.406  54.570  1.00  0.00     0.194 C 
ENDBRANCH   4   5
ENDBRANCH   3   4
ENDBRANCH   1   3
BRANCH   1   7
ATOM      7  C   UNL     1       4.723  46.232  54.580  1.00  0.00     0.226 A 
ATOM      8  N   UNL     1       4.746  45.694  53.348  1.00  0.00    -0.195 NA
ATOM      9  N   UNL     1       3.703  46.164  55.443  1.00  0.00    -0.193 NA
ATOM     10  C   UNL     1       3.685  44.990  52.872  1.00  0.00     0.147 A 
ATOM     11  C   UNL     1       2.664  45.468  54.963  1.00  0.00     0.165 A 
ATOM     12  C   UNL     1       2.577  44.869  53.723  1.00  0.00     0.082 A 
ATOM     13  N   UNL     1       1.478  45.207  55.593  1.00  0.00    -0.250 N 
ATOM     14  C   UNL     1       1.295  44.279  53.708  1.00  0.00     0.149 A 
ATOM     15  N   UNL     1       0.615  44.485  54.842  1.00  0.00    -0.179 NA
ATOM     16  C   UNL     1       1.093  45.616  56.921  1.00  0.00     0.176 C 
BRANCH  10  17
ATOM     17  N   UNL     1       3.679  44.429  51.590  1.00  0.00    -0.338 N 
ATOM     18  H   UNL     1       2.980  44.816  50.967  1.00  0.00     0.168 HD
BRANCH  17  19
ATOM     19  C   UNL     1       4.458  43.429  50.970  1.00  0.00     0.058 A 
ATOM     20  C   UNL     1       4.069  42.087  50.893  1.00  0.00     0.027 A 
ATOM     21  C   UNL     1       5.708  43.772  50.406  1.00  0.00     0.064 A 
ATOM     22  C   UNL     1       4.884  41.127  50.280  1.00  0.00     0.002 A 
ATOM     23  C   UNL     1       6.525  42.817  49.793  1.00  0.00     0.023 A 
ATOM     24  C   UNL     1       6.110  41.490  49.732  1.00  0.00     0.002 A 
ATOM     25  Cl  UNL     1       6.271  45.411  50.456  1.00  0.00    -0.082 Cl
ENDBRANCH  17  19
ENDBRANCH  10  17
ENDBRANCH   1   7
TORSDOF 6
ENDMDL
MODEL 16
REMARK VINA RESULT:    -7.248      2.423      5.020
REMARK INTER + INTRA:         -10.636
REMARK INTER:                 -10.023
REMARK INTRA:                  -0.613
REMARK UNBOUND:                -0.846
REMARK SMILES COCCNc1nc(Nc2ccccc2Cl)c2cnn(C)c2n1
REMARK SMILES IDX 5 1 4 3 3 4 2 5 1 6 6 7 7 8 23 9 8 10 22 11 17 12 20 13
REMARK SMILES IDX 18 14 19 15 21 16 9 17 10 19 11 20 15 21 12 22 14 23 13 24
REMARK SMILES IDX 16 25
REMARK H PARENT 5 2 9 18
ROOT
ATOM      1  N   UNL     1       5.953  46.947  54.952  1.00  0.00    -0.352 N 
ATOM      2  H   UNL     1       5.822  47.135  55.940  1.00  0.00     0.163 HD
ENDROOT
BRANCH   1   3
ATOM      3  C   UNL     1       7.281  46.494  54.565  1.00  0.00     0.144 C 
BRANCH   3   4
ATOM      4  C   UNL     1       8.202  47.641  54.129  1.00  0.00     0.181 C 
BRANCH   4   5
ATOM      5  O   UNL     1       7.690  48.226  52.928  1.00  0.00    -0.383 OA
ATOM      6  C   UNL     1       8.382  47.750  51.781  1.00  0.00     0.194 C 
ENDBRANCH   4   5
ENDBRANCH   3   4
ENDBRANCH   1   3
BRANCH   1   7
ATOM      7  C   UNL     1       4.886  46.158  54.550  1.00  0.00     0.226 A 
ATOM      8  N   UNL     1       5.071  45.529  53.375  1.00  0.00    -0.195 NA
ATOM      9  N   UNL     1       3.784  46.092  55.305  1.00  0.00    -0.193 NA
ATOM     10  C   UNL     1       4.108  44.724  52.854  1.00  0.00     0.147 A 
ATOM     11  C   UNL     1       2.843  45.296  54.781  1.00  0.00     0.165 A 
ATOM     12  C   UNL     1       2.923  44.599  53.593  1.00  0.00     0.082 A 
ATOM     13  N   UNL     1       1.613  45.009  55.306  1.00  0.00    -0.250 N 
ATOM     14  C   UNL     1       1.686  43.929  53.496  1.00  0.00     0.149 A 
ATOM     15  N   UNL     1       0.876  44.178  54.533  1.00  0.00    -0.179 NA
ATOM     16  C   UNL     1       1.065  45.495  56.548  1.00  0.00     0.176 C 
BRANCH  10  17
ATOM     17  N   UNL     1       4.272  44.066  51.629  1.00  0.00    -0.338 N 
ATOM     18  H   UNL     1       3.409  43.733  51.215  1.00  0.00     0.168 HD
BRANCH  17  19
ATOM     19  C   UNL     1       5.400  43.771  50.835  1.00  0.00     0.058 A 
ATOM     20  C   UNL     1       6.355  44.726  50.468  1.00  0.00     0.027 A 
ATOM     21  C   UNL     1       5.589  42.454  50.357  1.00  0.00     0.064 A 
ATOM     22  C   UNL     1       7.451  44.389  49.666  1.00  0.00     0.002 A 
ATOM     23  C   UNL     1       6.682  42.112  49.555  1.00  0.00     0.023 A 
ATOM     24  C   UNL     1       7.615  43.085  49.208  1.00  0.00     0.002 A 
ATOM     25  Cl  UNL     1       4.456  41.205  50.762  1.00  0.00    -0.082 Cl
ENDBRANCH  17  19
ENDBRANCH  10  17
ENDBRANCH   1   7
TORSDOF 6
ENDMDL
MODEL 17
REMARK VINA RESULT:    -7.170      2.398      5.011
REMARK INTER + INTRA:         -10.531
REMARK INTER:                  -9.675
REMARK INTRA:                  -0.855
REMARK UNBOUND:                -0.846
REMARK SMILES COCCNc1nc(Nc2ccccc2Cl)c2cnn(C)c2n1
REMARK SMILES IDX 5 1 4 3 3 4 2 5 1 6 6 7 7 8 23 9 8 10 22 11 17 12 20 13
REMARK SMILES IDX 18 14 19 15 21 16 9 17 10 19 11 20 15 21 12 22 14 23 13 24
REMARK SMILES IDX 16 25
REMARK H PARENT 5 2 9 18
ROOT
ATOM      1  N   UNL     1       6.759  43.145  49.202  1.00  0.00    -0.352 N 
ATOM      2  H   UNL     1       7.564  43.208  48.589  1.00  0.00     0.163 HD
ENDROOT
BRANCH   1   3
ATOM      3  C   UNL     1       6.521  41.842  49.804  1.00  0.00     0.144 C 
BRANCH   3   4
ATOM      4  C   UNL     1       5.078  41.353  49.624  1.00  0.00     0.181 C 
BRANCH   4   5
ATOM      5  O   UNL     1       4.520  41.045  50.904  1.00  0.00    -0.383 OA
ATOM      6  C   UNL     1       3.607  42.048  51.329  1.00  0.00     0.194 C 
ENDBRANCH   4   5
ENDBRANCH   3   4
ENDBRANCH   1   3
BRANCH   1   7
ATOM      7  C   UNL     1       6.830  44.225  50.070  1.00  0.00     0.226 A 
ATOM      8  N   UNL     1       5.638  44.669  50.505  1.00  0.00    -0.195 NA
ATOM      9  N   UNL     1       8.021  44.746  50.387  1.00  0.00    -0.193 NA
ATOM     10  C   UNL     1       5.555  45.725  51.358  1.00  0.00     0.147 A 
ATOM     11  C   UNL     1       7.926  45.785  51.227  1.00  0.00     0.165 A 
ATOM     12  C   UNL     1       6.764  46.322  51.742  1.00  0.00     0.082 A 
ATOM     13  N   UNL     1       8.949  46.528  51.747  1.00  0.00    -0.250 N 
ATOM     14  C   UNL     1       7.202  47.387  52.557  1.00  0.00     0.149 A 
ATOM     15  N   UNL     1       8.533  47.525  52.562  1.00  0.00    -0.179 NA
ATOM     16  C   UNL     1      10.360  46.346  51.512  1.00  0.00     0.176 C 
BRANCH  10  17
ATOM     17  N   UNL     1       4.326  46.213  51.819  1.00  0.00    -0.338 N 
ATOM     18  H   UNL     1       3.884  46.882  51.199  1.00  0.00     0.168 HD
BRANCH  17  19
ATOM     19  C   UNL     1       3.559  45.961  52.976  1.00  0.00     0.058 A 
ATOM     20  C   UNL     1       4.025  46.193  54.274  1.00  0.00     0.027 A 
ATOM     21  C   UNL     1       2.256  45.430  52.843  1.00  0.00     0.064 A 
ATOM     22  C   UNL     1       3.232  45.913  55.393  1.00  0.00     0.002 A 
ATOM     23  C   UNL     1       1.460  45.148  53.958  1.00  0.00     0.023 A 
ATOM     24  C   UNL     1       1.952  45.391  55.237  1.00  0.00     0.002 A 
ATOM     25  Cl  UNL     1       1.596  45.110  51.272  1.00  0.00    -0.082 Cl
ENDBRANCH  17  19
ENDBRANCH  10  17
ENDBRANCH   1   7
TORSDOF 6
ENDMDL
MODEL 18
REMARK VINA RESULT:    -7.136      3.222      5.825
REMARK INTER + INTRA:         -10.485
REMARK INTER:                  -9.743
REMARK INTRA:                  -0.742
REMARK UNBOUND:                -0.846
REMARK SMILES COCCNc1nc(Nc2ccccc2Cl)c2cnn(C)c2n1
REMARK SMILES IDX 5 1 4 3 3 4 2 5 1 6 6 7 7 8 23 9 8 10 22 11 17 12 20 13
REMARK SMILES IDX 18 14 19 15 21 16 9 17 10 19 11 20 15 21 12 22 14 23 13 24
REMARK SMILES IDX 16 25
REMARK H PARENT 5 2 9 18
ROOT
ATOM      1  N   UNL     1       5.504  46.903  52.448  1.00  0.00    -0.352 N 
ATOM      2  H   UNL     1       4.741  47.149  53.068  1.00  0.00     0.163 HD
ENDROOT
BRANCH   1   3
ATOM      3  C   UNL     1       6.839  47.223  52.930  1.00  0.00     0.144 C 
BRANCH   3   4
ATOM      4  C   UNL     1       7.041  46.877  54.410  1.00  0.00     0.181 C 
BRANCH   4   5
ATOM      5  O   UNL     1       8.177  47.587  54.911  1.00  0.00    -0.383 OA
ATOM      6  C   UNL     1       9.214  47.661  53.941  1.00  0.00     0.194 C 
ENDBRANCH   4   5
ENDBRANCH   3   4
ENDBRANCH   1   3
BRANCH   1   7
ATOM      7  C   UNL     1       5.287  45.593  52.047  1.00  0.00     0.226 A 
ATOM      8  N   UNL     1       4.292  44.968  52.700  1.00  0.00    -0.195 NA
ATOM      9  N   UNL     1       6.059  45.051  51.097  1.00  0.00    -0.193 NA
ATOM     10  C   UNL     1       3.969  43.679  52.414  1.00  0.00     0.147 A 
ATOM     11  C   UNL     1       5.731  43.781  50.825  1.00  0.00     0.165 A 
ATOM     12  C   UNL     1       4.730  43.043  51.423  1.00  0.00     0.082 A 
ATOM     13  N   UNL     1       6.314  42.953  49.906  1.00  0.00    -0.250 N 
ATOM     14  C   UNL     1       4.801  41.783  50.794  1.00  0.00     0.149 A 
ATOM     15  N   UNL     1       5.768  41.715  49.871  1.00  0.00    -0.179 NA
ATOM     16  C   UNL     1       7.405  43.272  49.019  1.00  0.00     0.176 C 
BRANCH  10  17
ATOM     17  N   UNL     1       2.943  43.002  53.086  1.00  0.00    -0.338 N 
ATOM     18  H   UNL     1       3.260  42.236  53.670  1.00  0.00     0.168 HD
BRANCH  17  19
ATOM     19  C   UNL     1       1.543  43.169  53.130  1.00  0.00     0.058 A 
ATOM     20  C   UNL     1       0.672  42.615  52.186  1.00  0.00     0.027 A 
ATOM     21  C   UNL     1       0.968  43.947  54.160  1.00  0.00     0.064 A 
ATOM     22  C   UNL     1      -0.711  42.820  52.262  1.00  0.00     0.002 A 
ATOM     23  C   UNL     1      -0.412  44.156  54.241  1.00  0.00     0.023 A 
ATOM     24  C   UNL     1      -1.253  43.590  53.287  1.00  0.00     0.002 A 
ATOM     25  Cl  UNL     1       1.971  44.673  55.374  1.00  0.00    -0.082 Cl
ENDBRANCH  17  19
ENDBRANCH  10  17
ENDBRANCH   1   7
TORSDOF 6
ENDMDL
MODEL 19
REMARK VINA RESULT:    -7.100      3.345      6.847
REMARK INTER + INTRA:         -10.436
REMARK INTER:                  -9.769
REMARK INTRA:                  -0.667
REMARK UNBOUND:                -0.846
REMARK SMILES COCCNc1nc(Nc2ccccc2Cl)c2cnn(C)c2n1
REMARK SMILES IDX 5 1 4 3 3 4 2 5 1 6 6 7 7 8 23 9 8 10 22 11 17 12 20 13
REMARK SMILES IDX 18 14 19 15 21 16 9 17 10 19 11 20 15 21 12 22 14 23 13 24
REMARK SMILES IDX 16 25
REMARK H PARENT 5 2 9 18
ROOT
ATOM      1  N   UNL     1       3.820  41.219  50.732  1.00  0.00    -0.352 N 
ATOM      2  H   UNL     1       3.138  40.791  50.116  1.00  0.00     0.163 HD
ENDROOT
BRANCH   1   3
ATOM      3  C   UNL     1       5.180  41.290  50.219  1.00  0.00     0.144 C 
BRANCH   3   4
ATOM      4  C   UNL     1       5.247  41.221  48.688  1.00  0.00     0.181 C 
BRANCH   4   5
ATOM      5  O   UNL     1       6.140  42.231  48.208  1.00  0.00    -0.383 OA
ATOM      6  C   UNL     1       6.853  42.844  49.274  1.00  0.00     0.194 C 
ENDBRANCH   4   5
ENDBRANCH   3   4
ENDBRANCH   1   3
BRANCH   1   7
ATOM      7  C   UNL     1       3.265  42.407  51.182  1.00  0.00     0.226 A 
ATOM      8  N   UNL     1       4.140  43.244  51.767  1.00  0.00    -0.195 NA
ATOM      9  N   UNL     1       1.953  42.627  51.035  1.00  0.00    -0.193 NA
ATOM     10  C   UNL     1       3.736  44.445  52.259  1.00  0.00     0.147 A 
ATOM     11  C   UNL     1       1.568  43.812  51.524  1.00  0.00     0.165 A 
ATOM     12  C   UNL     1       2.374  44.751  52.136  1.00  0.00     0.082 A 
ATOM     13  N   UNL     1       0.306  44.340  51.523  1.00  0.00    -0.250 N 
ATOM     14  C   UNL     1       1.495  45.803  52.469  1.00  0.00     0.149 A 
ATOM     15  N   UNL     1       0.230  45.560  52.105  1.00  0.00    -0.179 NA
ATOM     16  C   UNL     1      -0.886  43.736  50.981  1.00  0.00     0.176 C 
BRANCH  10  17
ATOM     17  N   UNL     1       4.625  45.331  52.881  1.00  0.00    -0.338 N 
ATOM     18  H   UNL     1       4.342  45.625  53.808  1.00  0.00     0.168 HD
BRANCH  17  19
ATOM     19  C   UNL     1       5.853  45.902  52.486  1.00  0.00     0.058 A 
ATOM     20  C   UNL     1       6.436  45.684  51.232  1.00  0.00     0.027 A 
ATOM     21  C   UNL     1       6.560  46.726  53.391  1.00  0.00     0.064 A 
ATOM     22  C   UNL     1       7.665  46.262  50.891  1.00  0.00     0.002 A 
ATOM     23  C   UNL     1       7.787  47.304  53.055  1.00  0.00     0.023 A 
ATOM     24  C   UNL     1       8.341  47.070  51.800  1.00  0.00     0.002 A 
ATOM     25  Cl  UNL     1       5.913  47.050  54.968  1.00  0.00    -0.082 Cl
ENDBRANCH  17  19
ENDBRANCH  10  17
ENDBRANCH   1   7
TORSDOF 6
ENDMDL
