MODEL 1
REMARK VINA RESULT:    -8.673      0.000      0.000
REMARK INTER + INTRA:         -12.544
REMARK INTER:                 -11.715
REMARK INTRA:                  -0.829
REMARK UNBOUND:                -0.829
REMARK SMILES COCCNc1nc(Nc2ccccc2C)c2cnn(C)c2n1
REMARK SMILES IDX 5 1 4 3 3 4 2 5 1 6 6 7 7 8 23 9 8 10 22 11 17 12 20 13
REMARK SMILES IDX 18 14 19 15 21 16 9 17 10 19 11 20 15 21 12 22 14 23 13 24
REMARK SMILES IDX 16 25
REMARK H PARENT 5 2 9 18
ROOT
ATOM      1  N   UNL     1       4.870  47.023  54.962  1.00  0.00    -0.352 N 
ATOM      2  H   UNL     1       4.285  47.709  54.497  1.00  0.00     0.163 HD
ENDROOT
BRANCH   1   3
ATOM      3  C   UNL     1       4.186  45.805  55.374  1.00  0.00     0.144 C 
BRANCH   3   4
ATOM      4  C   UNL     1       2.715  45.848  54.938  1.00  0.00     0.181 C 
BRANCH   4   5
ATOM      5  O   UNL     1       2.530  45.360  53.607  1.00  0.00    -0.383 OA
ATOM      6  C   UNL     1       2.124  46.371  52.695  1.00  0.00     0.194 C 
ENDBRANCH   4   5
ENDBRANCH   3   4
ENDBRANCH   1   3
BRANCH   1   7
ATOM      7  C   UNL     1       5.944  46.814  54.102  1.00  0.00     0.226 A 
ATOM      8  N   UNL     1       5.723  46.314  52.872  1.00  0.00    -0.195 NA
ATOM      9  N   UNL     1       7.137  47.151  54.609  1.00  0.00    -0.193 NA
ATOM     10  C   UNL     1       6.763  46.100  52.027  1.00  0.00     0.147 A 
ATOM     11  C   UNL     1       8.149  46.921  53.758  1.00  0.00     0.165 A 
ATOM     12  C   UNL     1       8.047  46.410  52.479  1.00  0.00     0.082 A 
ATOM     13  N   UNL     1       9.482  47.138  53.971  1.00  0.00    -0.250 N 
ATOM     14  C   UNL     1       9.376  46.362  52.013  1.00  0.00     0.149 A 
ATOM     15  N   UNL     1      10.260  46.809  52.914  1.00  0.00    -0.179 NA
ATOM     16  C   UNL     1      10.096  47.659  55.165  1.00  0.00     0.176 C 
BRANCH  10  17
ATOM     17  N   UNL     1       6.456  45.567  50.761  1.00  0.00    -0.339 N 
ATOM     18  H   UNL     1       7.184  45.902  50.133  1.00  0.00     0.168 HD
BRANCH  17  19
ATOM     19  C   UNL     1       6.140  44.216  50.500  1.00  0.00     0.043 A 
ATOM     20  C   UNL     1       4.941  43.720  51.032  1.00  0.00     0.026 A 
ATOM     21  C   UNL     1       6.922  43.387  49.671  1.00  0.00    -0.028 A 
ATOM     22  C   UNL     1       4.545  42.402  50.805  1.00  0.00     0.002 A 
ATOM     23  C   UNL     1       6.519  42.057  49.463  1.00  0.00     0.005 A 
ATOM     24  C   UNL     1       5.340  41.568  50.027  1.00  0.00     0.000 A 
ATOM     25  C   UNL     1       8.192  43.863  49.021  1.00  0.00     0.046 C 
ENDBRANCH  17  19
ENDBRANCH  10  17
ENDBRANCH   1   7
TORSDOF 6
ENDMDL
MODEL 2
REMARK VINA RESULT:    -8.219      1.933      5.359
REMARK INTER + INTRA:         -11.931
REMARK INTER:                 -11.020
REMARK INTRA:                  -0.911
REMARK UNBOUND:                -0.829
REMARK SMILES COCCNc1nc(Nc2ccccc2C)c2cnn(C)c2n1
REMARK SMILES IDX 5 1 4 3 3 4 2 5 1 6 6 7 7 8 23 9 8 10 22 11 17 12 20 13
REMARK SMILES IDX 18 14 19 15 21 16 9 17 10 19 11 20 15 21 12 22 14 23 13 24
REMARK SMILES IDX 16 25
REMARK H PARENT 5 2 9 18
ROOT
ATOM      1  N   UNL     1       2.985  43.079  53.034  1.00  0.00    -0.352 N 
ATOM      2  H   UNL     1       3.380  42.991  53.965  1.00  0.00     0.163 HD
ENDROOT
BRANCH   1   3
ATOM      3  C   UNL     1       1.796  43.916  52.944  1.00  0.00     0.144 C 
BRANCH   3   4
ATOM      4  C   UNL     1       1.314  44.305  54.349  1.00  0.00     0.181 C 
BRANCH   4   5
ATOM      5  O   UNL     1       1.672  45.645  54.693  1.00  0.00    -0.383 OA
ATOM      6  C   UNL     1       2.853  45.720  55.481  1.00  0.00     0.194 C 
ENDBRANCH   4   5
ENDBRANCH   3   4
ENDBRANCH   1   3
BRANCH   1   7
ATOM      7  C   UNL     1       4.039  43.494  52.226  1.00  0.00     0.226 A 
ATOM      8  N   UNL     1       4.599  44.701  52.429  1.00  0.00    -0.195 NA
ATOM      9  N   UNL     1       4.406  42.607  51.292  1.00  0.00    -0.193 NA
ATOM     10  C   UNL     1       5.623  45.119  51.644  1.00  0.00     0.147 A 
ATOM     11  C   UNL     1       5.415  43.047  50.523  1.00  0.00     0.165 A 
ATOM     12  C   UNL     1       6.062  44.262  50.632  1.00  0.00     0.082 A 
ATOM     13  N   UNL     1       6.009  42.397  49.476  1.00  0.00    -0.250 N 
ATOM     14  C   UNL     1       7.027  44.240  49.606  1.00  0.00     0.149 A 
ATOM     15  N   UNL     1       7.007  43.104  48.898  1.00  0.00    -0.179 NA
ATOM     16  C   UNL     1       5.677  41.093  48.965  1.00  0.00     0.176 C 
BRANCH  10  17
ATOM     17  N   UNL     1       6.151  46.395  51.910  1.00  0.00    -0.339 N 
ATOM     18  H   UNL     1       5.398  46.925  52.344  1.00  0.00     0.168 HD
BRANCH  17  19
ATOM     19  C   UNL     1       7.386  46.649  52.547  1.00  0.00     0.043 A 
ATOM     20  C   UNL     1       8.524  46.741  51.733  1.00  0.00     0.026 A 
ATOM     21  C   UNL     1       7.504  46.898  53.929  1.00  0.00    -0.028 A 
ATOM     22  C   UNL     1       9.779  47.008  52.281  1.00  0.00     0.002 A 
ATOM     23  C   UNL     1       8.777  47.152  54.469  1.00  0.00     0.005 A 
ATOM     24  C   UNL     1       9.906  47.205  53.651  1.00  0.00     0.000 A 
ATOM     25  C   UNL     1       6.321  46.873  54.858  1.00  0.00     0.046 C 
ENDBRANCH  17  19
ENDBRANCH  10  17
ENDBRANCH   1   7
TORSDOF 6
ENDMDL
MODEL 3
REMARK VINA RESULT:    -8.194      1.789      5.119
REMARK INTER + INTRA:         -11.898
REMARK INTER:                 -11.098
REMARK INTRA:                  -0.799
REMARK UNBOUND:                -0.829
REMARK SMILES COCCNc1nc(Nc2ccccc2C)c2cnn(C)c2n1
REMARK SMILES IDX 5 1 4 3 3 4 2 5 1 6 6 7 7 8 23 9 8 10 22 11 17 12 20 13
REMARK SMILES IDX 18 14 19 15 21 16 9 17 10 19 11 20 15 21 12 22 14 23 13 24
REMARK SMILES IDX 16 25
REMARK H PARENT 5 2 9 18
ROOT
ATOM      1  N   UNL     1       3.804  44.071  53.011  1.00  0.00    -0.352 N 
ATOM      2  H   UNL     1       4.007  43.219  53.524  1.00  0.00     0.163 HD
ENDROOT
BRANCH   1   3
ATOM      3  C   UNL     1       3.557  45.245  53.837  1.00  0.00     0.144 C 
BRANCH   3   4
ATOM      4  C   UNL     1       2.380  46.053  53.272  1.00  0.00     0.181 C 
BRANCH   4   5
ATOM      5  O   UNL     1       2.786  47.336  52.789  1.00  0.00    -0.383 OA
ATOM      6  C   UNL     1       3.947  47.834  53.440  1.00  0.00     0.194 C 
ENDBRANCH   4   5
ENDBRANCH   3   4
ENDBRANCH   1   3
BRANCH   1   7
ATOM      7  C   UNL     1       4.854  44.216  52.110  1.00  0.00     0.226 A 
ATOM      8  N   UNL     1       5.649  45.300  52.183  1.00  0.00    -0.195 NA
ATOM      9  N   UNL     1       4.972  43.215  51.228  1.00  0.00    -0.193 NA
ATOM     10  C   UNL     1       6.672  45.455  51.305  1.00  0.00     0.147 A 
ATOM     11  C   UNL     1       5.985  43.397  50.366  1.00  0.00     0.165 A 
ATOM     12  C   UNL     1       6.860  44.465  50.339  1.00  0.00     0.082 A 
ATOM     13  N   UNL     1       6.363  42.576  49.339  1.00  0.00    -0.250 N 
ATOM     14  C   UNL     1       7.723  44.185  49.261  1.00  0.00     0.149 A 
ATOM     15  N   UNL     1       7.431  43.032  48.646  1.00  0.00    -0.179 NA
ATOM     16  C   UNL     1       5.748  41.331  48.953  1.00  0.00     0.176 C 
BRANCH  10  17
ATOM     17  N   UNL     1       7.455  46.617  51.437  1.00  0.00    -0.339 N 
ATOM     18  H   UNL     1       6.832  47.398  51.241  1.00  0.00     0.168 HD
BRANCH  17  19
ATOM     19  C   UNL     1       8.307  46.905  52.525  1.00  0.00     0.043 A 
ATOM     20  C   UNL     1       7.754  47.599  53.612  1.00  0.00     0.026 A 
ATOM     21  C   UNL     1       9.641  46.457  52.601  1.00  0.00    -0.028 A 
ATOM     22  C   UNL     1       8.522  47.907  54.734  1.00  0.00     0.002 A 
ATOM     23  C   UNL     1      10.407  46.787  53.731  1.00  0.00     0.005 A 
ATOM     24  C   UNL     1       9.853  47.508  54.790  1.00  0.00     0.000 A 
ATOM     25  C   UNL     1      10.288  45.662  51.500  1.00  0.00     0.046 C 
ENDBRANCH  17  19
ENDBRANCH  10  17
ENDBRANCH   1   7
TORSDOF 6
ENDMDL
MODEL 4
REMARK VINA RESULT:    -8.139      1.841      5.040
REMARK INTER + INTRA:         -11.823
REMARK INTER:                 -10.941
REMARK INTRA:                  -0.882
REMARK UNBOUND:                -0.829
REMARK SMILES COCCNc1nc(Nc2ccccc2C)c2cnn(C)c2n1
REMARK SMILES IDX 5 1 4 3 3 4 2 5 1 6 6 7 7 8 23 9 8 10 22 11 17 12 20 13
REMARK SMILES IDX 18 14 19 15 21 16 9 17 10 19 11 20 15 21 12 22 14 23 13 24
REMARK SMILES IDX 16 25
REMARK H PARENT 5 2 9 18
ROOT
ATOM      1  N   UNL     1       3.223  44.529  54.315  1.00  0.00    -0.352 N 
ATOM      2  H   UNL     1       3.796  44.400  55.143  1.00  0.00     0.163 HD
ENDROOT
BRANCH   1   3
ATOM      3  C   UNL     1       2.365  45.706  54.335  1.00  0.00     0.144 C 
BRANCH   3   4
ATOM      4  C   UNL     1       0.999  45.377  53.717  1.00  0.00     0.181 C 
BRANCH   4   5
ATOM      5  O   UNL     1       0.933  45.724  52.332  1.00  0.00    -0.383 OA
ATOM      6  C   UNL     1       0.716  44.602  51.487  1.00  0.00     0.194 C 
ENDBRANCH   4   5
ENDBRANCH   3   4
ENDBRANCH   1   3
BRANCH   1   7
ATOM      7  C   UNL     1       4.110  44.484  53.244  1.00  0.00     0.226 A 
ATOM      8  N   UNL     1       4.974  45.500  53.053  1.00  0.00    -0.195 NA
ATOM      9  N   UNL     1       4.011  43.386  52.484  1.00  0.00    -0.193 NA
ATOM     10  C   UNL     1       5.839  45.471  52.009  1.00  0.00     0.147 A 
ATOM     11  C   UNL     1       4.871  43.386  51.453  1.00  0.00     0.165 A 
ATOM     12  C   UNL     1       5.795  44.368  51.154  1.00  0.00     0.082 A 
ATOM     13  N   UNL     1       5.013  42.428  50.487  1.00  0.00    -0.250 N 
ATOM     14  C   UNL     1       6.440  43.900  49.992  1.00  0.00     0.149 A 
ATOM     15  N   UNL     1       5.974  42.714  49.580  1.00  0.00    -0.179 NA
ATOM     16  C   UNL     1       4.263  41.205  50.362  1.00  0.00     0.176 C 
BRANCH  10  17
ATOM     17  N   UNL     1       6.705  46.570  51.868  1.00  0.00    -0.339 N 
ATOM     18  H   UNL     1       6.110  47.396  51.847  1.00  0.00     0.168 HD
BRANCH  17  19
ATOM     19  C   UNL     1       7.864  46.798  52.642  1.00  0.00     0.043 A 
ATOM     20  C   UNL     1       7.690  47.370  53.911  1.00  0.00     0.026 A 
ATOM     21  C   UNL     1       9.154  46.401  52.236  1.00  0.00    -0.028 A 
ATOM     22  C   UNL     1       8.781  47.611  54.746  1.00  0.00     0.002 A 
ATOM     23  C   UNL     1      10.245  46.664  53.081  1.00  0.00     0.005 A 
ATOM     24  C   UNL     1      10.060  47.265  54.326  1.00  0.00     0.000 A 
ATOM     25  C   UNL     1       9.413  45.733  50.913  1.00  0.00     0.046 C 
ENDBRANCH  17  19
ENDBRANCH  10  17
ENDBRANCH   1   7
TORSDOF 6
ENDMDL
MODEL 5
REMARK VINA RESULT:    -8.089      2.663      6.378
REMARK INTER + INTRA:         -11.756
REMARK INTER:                 -11.069
REMARK INTRA:                  -0.686
REMARK UNBOUND:                -0.829
REMARK SMILES COCCNc1nc(Nc2ccccc2C)c2cnn(C)c2n1
REMARK SMILES IDX 5 1 4 3 3 4 2 5 1 6 6 7 7 8 23 9 8 10 22 11 17 12 20 13
REMARK SMILES IDX 18 14 19 15 21 16 9 17 10 19 11 20 15 21 12 22 14 23 13 24
REMARK SMILES IDX 16 25
REMARK H PARENT 5 2 9 18
ROOT
ATOM      1  N   UNL     1       6.595  42.493  49.014  1.00  0.00    -0.352 N 
ATOM      2  H   UNL     1       7.592  42.349  49.140  1.00  0.00     0.163 HD
ENDROOT
BRANCH   1   3
ATOM      3  C   UNL     1       5.793  41.277  48.988  1.00  0.00     0.144 C 
BRANCH   3   4
ATOM      4  C   UNL     1       5.050  41.160  47.650  1.00  0.00     0.181 C 
BRANCH   4   5
ATOM      5  O   UNL     1       5.741  41.819  46.587  1.00  0.00    -0.383 OA
ATOM      6  C   UNL     1       5.059  41.733  45.343  1.00  0.00     0.194 C 
ENDBRANCH   4   5
ENDBRANCH   3   4
ENDBRANCH   1   3
BRANCH   1   7
ATOM      7  C   UNL     1       6.227  43.401  50.002  1.00  0.00     0.226 A 
ATOM      8  N   UNL     1       6.947  44.526  50.172  1.00  0.00    -0.195 NA
ATOM      9  N   UNL     1       5.145  43.047  50.707  1.00  0.00    -0.193 NA
ATOM     10  C   UNL     1       6.601  45.416  51.136  1.00  0.00     0.147 A 
ATOM     11  C   UNL     1       4.830  43.939  51.660  1.00  0.00     0.165 A 
ATOM     12  C   UNL     1       5.492  45.120  51.932  1.00  0.00     0.082 A 
ATOM     13  N   UNL     1       3.800  43.870  52.558  1.00  0.00    -0.250 N 
ATOM     14  C   UNL     1       4.778  45.684  53.008  1.00  0.00     0.149 A 
ATOM     15  N   UNL     1       3.740  44.931  53.394  1.00  0.00    -0.179 NA
ATOM     16  C   UNL     1       2.826  42.816  52.680  1.00  0.00     0.176 C 
BRANCH  10  17
ATOM     17  N   UNL     1       7.404  46.564  51.262  1.00  0.00    -0.339 N 
ATOM     18  H   UNL     1       6.797  47.355  51.056  1.00  0.00     0.168 HD
BRANCH  17  19
ATOM     19  C   UNL     1       8.258  46.847  52.351  1.00  0.00     0.043 A 
ATOM     20  C   UNL     1       7.700  47.515  53.450  1.00  0.00     0.026 A 
ATOM     21  C   UNL     1       9.597  46.414  52.414  1.00  0.00    -0.028 A 
ATOM     22  C   UNL     1       8.469  47.816  54.574  1.00  0.00     0.002 A 
ATOM     23  C   UNL     1      10.364  46.737  53.546  1.00  0.00     0.005 A 
ATOM     24  C   UNL     1       9.805  47.433  54.618  1.00  0.00     0.000 A 
ATOM     25  C   UNL     1      10.250  45.645  51.299  1.00  0.00     0.046 C 
ENDBRANCH  17  19
ENDBRANCH  10  17
ENDBRANCH   1   7
TORSDOF 6
ENDMDL
MODEL 6
REMARK VINA RESULT:    -7.833      2.885      6.587
REMARK INTER + INTRA:         -11.410
REMARK INTER:                 -10.732
REMARK INTRA:                  -0.679
REMARK UNBOUND:                -0.829
REMARK SMILES COCCNc1nc(Nc2ccccc2C)c2cnn(C)c2n1
REMARK SMILES IDX 5 1 4 3 3 4 2 5 1 6 6 7 7 8 23 9 8 10 22 11 17 12 20 13
REMARK SMILES IDX 18 14 19 15 21 16 9 17 10 19 11 20 15 21 12 22 14 23 13 24
REMARK SMILES IDX 16 25
REMARK H PARENT 5 2 9 18
ROOT
ATOM      1  N   UNL     1       5.520  41.810  50.333  1.00  0.00    -0.352 N 
ATOM      2  H   UNL     1       4.743  41.166  50.235  1.00  0.00     0.163 HD
ENDROOT
BRANCH   1   3
ATOM      3  C   UNL     1       6.182  42.175  49.088  1.00  0.00     0.144 C 
BRANCH   3   4
ATOM      4  C   UNL     1       5.484  41.500  47.899  1.00  0.00     0.181 C 
BRANCH   4   5
ATOM      5  O   UNL     1       5.821  42.115  46.653  1.00  0.00    -0.383 OA
ATOM      6  C   UNL     1       5.152  41.529  45.545  1.00  0.00     0.194 C 
ENDBRANCH   4   5
ENDBRANCH   3   4
ENDBRANCH   1   3
BRANCH   1   7
ATOM      7  C   UNL     1       5.014  42.890  51.051  1.00  0.00     0.226 A 
ATOM      8  N   UNL     1       5.678  44.061  51.046  1.00  0.00    -0.195 NA
ATOM      9  N   UNL     1       3.867  42.641  51.695  1.00  0.00    -0.193 NA
ATOM     10  C   UNL     1       5.197  45.119  51.747  1.00  0.00     0.147 A 
ATOM     11  C   UNL     1       3.418  43.700  52.387  1.00  0.00     0.165 A 
ATOM     12  C   UNL     1       4.011  44.944  52.462  1.00  0.00     0.082 A 
ATOM     13  N   UNL     1       2.292  43.773  53.161  1.00  0.00    -0.250 N 
ATOM     14  C   UNL     1       3.160  45.689  53.303  1.00  0.00     0.149 A 
ATOM     15  N   UNL     1       2.105  44.985  53.731  1.00  0.00    -0.179 NA
ATOM     16  C   UNL     1       1.339  42.721  53.406  1.00  0.00     0.176 C 
BRANCH  10  17
ATOM     17  N   UNL     1       5.949  46.307  51.702  1.00  0.00    -0.339 N 
ATOM     18  H   UNL     1       5.322  47.047  52.012  1.00  0.00     0.168 HD
BRANCH  17  19
ATOM     19  C   UNL     1       7.241  46.475  52.246  1.00  0.00     0.043 A 
ATOM     20  C   UNL     1       8.322  46.468  51.352  1.00  0.00     0.026 A 
ATOM     21  C   UNL     1       7.477  46.733  53.611  1.00  0.00    -0.028 A 
ATOM     22  C   UNL     1       9.630  46.646  51.805  1.00  0.00     0.002 A 
ATOM     23  C   UNL     1       8.800  46.895  54.055  1.00  0.00     0.005 A 
ATOM     24  C   UNL     1       9.869  46.851  53.159  1.00  0.00     0.000 A 
ATOM     25  C   UNL     1       6.365  46.810  54.621  1.00  0.00     0.046 C 
ENDBRANCH  17  19
ENDBRANCH  10  17
ENDBRANCH   1   7
TORSDOF 6
ENDMDL
MODEL 7
REMARK VINA RESULT:    -7.828      2.742      6.091
REMARK INTER + INTRA:         -11.403
REMARK INTER:                 -10.566
REMARK INTRA:                  -0.837
REMARK UNBOUND:                -0.829
REMARK SMILES COCCNc1nc(Nc2ccccc2C)c2cnn(C)c2n1
REMARK SMILES IDX 5 1 4 3 3 4 2 5 1 6 6 7 7 8 23 9 8 10 22 11 17 12 20 13
REMARK SMILES IDX 18 14 19 15 21 16 9 17 10 19 11 20 15 21 12 22 14 23 13 24
REMARK SMILES IDX 16 25
REMARK H PARENT 5 2 9 18
ROOT
ATOM      1  N   UNL     1       5.100  41.782  50.714  1.00  0.00    -0.352 N 
ATOM      2  H   UNL     1       4.166  41.453  50.494  1.00  0.00     0.163 HD
ENDROOT
BRANCH   1   3
ATOM      3  C   UNL     1       6.097  41.551  49.678  1.00  0.00     0.144 C 
BRANCH   3   4
ATOM      4  C   UNL     1       5.410  41.278  48.332  1.00  0.00     0.181 C 
BRANCH   4   5
ATOM      5  O   UNL     1       5.901  42.126  47.292  1.00  0.00    -0.383 OA
ATOM      6  C   UNL     1       5.465  41.729  45.998  1.00  0.00     0.194 C 
ENDBRANCH   4   5
ENDBRANCH   3   4
ENDBRANCH   1   3
BRANCH   1   7
ATOM      7  C   UNL     1       4.944  43.118  51.072  1.00  0.00     0.226 A 
ATOM      8  N   UNL     1       5.909  44.005  50.763  1.00  0.00    -0.195 NA
ATOM      9  N   UNL     1       3.800  43.393  51.709  1.00  0.00    -0.193 NA
ATOM     10  C   UNL     1       5.771  45.309  51.111  1.00  0.00     0.147 A 
ATOM     11  C   UNL     1       3.692  44.687  52.051  1.00  0.00     0.165 A 
ATOM     12  C   UNL     1       4.612  45.684  51.794  1.00  0.00     0.082 A 
ATOM     13  N   UNL     1       2.663  45.289  52.722  1.00  0.00    -0.250 N 
ATOM     14  C   UNL     1       4.037  46.844  52.350  1.00  0.00     0.149 A 
ATOM     15  N   UNL     1       2.845  46.615  52.914  1.00  0.00    -0.179 NA
ATOM     16  C   UNL     1       1.465  44.660  53.215  1.00  0.00     0.176 C 
BRANCH  10  17
ATOM     17  N   UNL     1       6.822  46.176  50.763  1.00  0.00    -0.339 N 
ATOM     18  H   UNL     1       6.382  47.021  50.403  1.00  0.00     0.168 HD
BRANCH  17  19
ATOM     19  C   UNL     1       7.927  46.489  51.585  1.00  0.00     0.043 A 
ATOM     20  C   UNL     1       7.705  47.366  52.657  1.00  0.00     0.026 A 
ATOM     21  C   UNL     1       9.197  45.899  51.428  1.00  0.00    -0.028 A 
ATOM     22  C   UNL     1       8.738  47.711  53.528  1.00  0.00     0.002 A 
ATOM     23  C   UNL     1      10.232  46.268  52.304  1.00  0.00     0.005 A 
ATOM     24  C   UNL     1      10.005  47.168  53.346  1.00  0.00     0.000 A 
ATOM     25  C   UNL     1       9.497  44.909  50.337  1.00  0.00     0.046 C 
ENDBRANCH  17  19
ENDBRANCH  10  17
ENDBRANCH   1   7
TORSDOF 6
ENDMDL
MODEL 8
REMARK VINA RESULT:    -7.791      2.384      5.185
REMARK INTER + INTRA:         -11.353
REMARK INTER:                 -10.759
REMARK INTRA:                  -0.595
REMARK UNBOUND:                -0.829
REMARK SMILES COCCNc1nc(Nc2ccccc2C)c2cnn(C)c2n1
REMARK SMILES IDX 5 1 4 3 3 4 2 5 1 6 6 7 7 8 23 9 8 10 22 11 17 12 20 13
REMARK SMILES IDX 18 14 19 15 21 16 9 17 10 19 11 20 15 21 12 22 14 23 13 24
REMARK SMILES IDX 16 25
REMARK H PARENT 5 2 9 18
ROOT
ATOM      1  N   UNL     1       2.988  46.051  56.177  1.00  0.00    -0.352 N 
ATOM      2  H   UNL     1       3.091  47.050  56.322  1.00  0.00     0.163 HD
ENDROOT
BRANCH   1   3
ATOM      3  C   UNL     1       1.626  45.547  56.285  1.00  0.00     0.144 C 
BRANCH   3   4
ATOM      4  C   UNL     1       0.950  46.108  57.543  1.00  0.00     0.181 C 
BRANCH   4   5
ATOM      5  O   UNL     1      -0.438  45.771  57.609  1.00  0.00    -0.383 OA
ATOM      6  C   UNL     1      -0.873  44.989  56.505  1.00  0.00     0.194 C 
ENDBRANCH   4   5
ENDBRANCH   3   4
ENDBRANCH   1   3
BRANCH   1   7
ATOM      7  C   UNL     1       3.600  45.792  54.954  1.00  0.00     0.226 A 
ATOM      8  N   UNL     1       4.553  46.626  54.498  1.00  0.00    -0.195 NA
ATOM      9  N   UNL     1       3.160  44.690  54.335  1.00  0.00    -0.193 NA
ATOM     10  C   UNL     1       5.153  46.388  53.305  1.00  0.00     0.147 A 
ATOM     11  C   UNL     1       3.762  44.482  53.153  1.00  0.00     0.165 A 
ATOM     12  C   UNL     1       4.744  45.266  52.581  1.00  0.00     0.082 A 
ATOM     13  N   UNL     1       3.532  43.463  52.269  1.00  0.00    -0.250 N 
ATOM     14  C   UNL     1       5.035  44.629  51.358  1.00  0.00     0.149 A 
ATOM     15  N   UNL     1       4.304  43.524  51.160  1.00  0.00    -0.179 NA
ATOM     16  C   UNL     1       2.584  42.388  52.413  1.00  0.00     0.176 C 
BRANCH  10  17
ATOM     17  N   UNL     1       6.134  47.307  52.889  1.00  0.00    -0.339 N 
ATOM     18  H   UNL     1       5.813  48.220  53.203  1.00  0.00     0.168 HD
BRANCH  17  19
ATOM     19  C   UNL     1       7.524  47.159  53.086  1.00  0.00     0.043 A 
ATOM     20  C   UNL     1       8.037  47.508  54.344  1.00  0.00     0.026 A 
ATOM     21  C   UNL     1       8.386  46.603  52.120  1.00  0.00    -0.028 A 
ATOM     22  C   UNL     1       9.396  47.374  54.628  1.00  0.00     0.002 A 
ATOM     23  C   UNL     1       9.755  46.488  52.415  1.00  0.00     0.005 A 
ATOM     24  C   UNL     1      10.257  46.871  53.659  1.00  0.00     0.000 A 
ATOM     25  C   UNL     1       7.901  46.155  50.769  1.00  0.00     0.046 C 
ENDBRANCH  17  19
ENDBRANCH  10  17
ENDBRANCH   1   7
TORSDOF 6
ENDMDL
MODEL 9
REMARK VINA RESULT:    -7.747      2.550      5.451
REMARK INTER + INTRA:         -11.293
REMARK INTER:                 -10.515
REMARK INTRA:                  -0.778
REMARK UNBOUND:                -0.829
REMARK SMILES COCCNc1nc(Nc2ccccc2C)c2cnn(C)c2n1
REMARK SMILES IDX 5 1 4 3 3 4 2 5 1 6 6 7 7 8 23 9 8 10 22 11 17 12 20 13
REMARK SMILES IDX 18 14 19 15 21 16 9 17 10 19 11 20 15 21 12 22 14 23 13 24
REMARK SMILES IDX 16 25
REMARK H PARENT 5 2 9 18
ROOT
ATOM      1  N   UNL     1       3.869  41.987  51.569  1.00  0.00    -0.352 N 
ATOM      2  H   UNL     1       2.864  41.987  51.435  1.00  0.00     0.163 HD
ENDROOT
BRANCH   1   3
ATOM      3  C   UNL     1       4.644  41.498  50.437  1.00  0.00     0.144 C 
BRANCH   3   4
ATOM      4  C   UNL     1       3.731  40.765  49.445  1.00  0.00     0.181 C 
BRANCH   4   5
ATOM      5  O   UNL     1       4.278  40.735  48.125  1.00  0.00    -0.383 OA
ATOM      6  C   UNL     1       3.440  40.066  47.191  1.00  0.00     0.194 C 
ENDBRANCH   4   5
ENDBRANCH   3   4
ENDBRANCH   1   3
BRANCH   1   7
ATOM      7  C   UNL     1       4.188  43.282  51.965  1.00  0.00     0.226 A 
ATOM      8  N   UNL     1       5.096  43.987  51.265  1.00  0.00    -0.195 NA
ATOM      9  N   UNL     1       3.524  43.713  53.045  1.00  0.00    -0.193 NA
ATOM     10  C   UNL     1       5.419  45.249  51.644  1.00  0.00     0.147 A 
ATOM     11  C   UNL     1       3.868  44.960  53.405  1.00  0.00     0.165 A 
ATOM     12  C   UNL     1       4.785  45.774  52.771  1.00  0.00     0.082 A 
ATOM     13  N   UNL     1       3.392  45.682  54.465  1.00  0.00    -0.250 N 
ATOM     14  C   UNL     1       4.783  46.962  53.530  1.00  0.00     0.149 A 
ATOM     15  N   UNL     1       3.932  46.918  54.563  1.00  0.00    -0.179 NA
ATOM     16  C   UNL     1       2.416  45.257  55.435  1.00  0.00     0.176 C 
BRANCH  10  17
ATOM     17  N   UNL     1       6.383  45.920  50.870  1.00  0.00    -0.339 N 
ATOM     18  H   UNL     1       6.024  46.863  50.731  1.00  0.00     0.168 HD
BRANCH  17  19
ATOM     19  C   UNL     1       7.770  45.938  51.132  1.00  0.00     0.043 A 
ATOM     20  C   UNL     1       8.226  46.802  52.139  1.00  0.00     0.026 A 
ATOM     21  C   UNL     1       8.687  45.077  50.496  1.00  0.00    -0.028 A 
ATOM     22  C   UNL     1       9.578  46.866  52.473  1.00  0.00     0.002 A 
ATOM     23  C   UNL     1      10.049  45.163  50.832  1.00  0.00     0.005 A 
ATOM     24  C   UNL     1      10.491  46.052  51.812  1.00  0.00     0.000 A 
ATOM     25  C   UNL     1       8.267  44.085  49.446  1.00  0.00     0.046 C 
ENDBRANCH  17  19
ENDBRANCH  10  17
ENDBRANCH   1   7
TORSDOF 6
ENDMDL
MODEL 10
REMARK VINA RESULT:    -7.683      2.553      6.272
REMARK INTER + INTRA:         -11.207
REMARK INTER:                 -10.404
REMARK INTRA:                  -0.803
REMARK UNBOUND:                -0.829
REMARK SMILES COCCNc1nc(Nc2ccccc2C)c2cnn(C)c2n1
REMARK SMILES IDX 5 1 4 3 3 4 2 5 1 6 6 7 7 8 23 9 8 10 22 11 17 12 20 13
REMARK SMILES IDX 18 14 19 15 21 16 9 17 10 19 11 20 15 21 12 22 14 23 13 24
REMARK SMILES IDX 16 25
REMARK H PARENT 5 2 9 18
ROOT
ATOM      1  N   UNL     1       4.708  41.675  51.302  1.00  0.00    -0.352 N 
ATOM      2  H   UNL     1       4.134  41.020  51.824  1.00  0.00     0.163 HD
ENDROOT
BRANCH   1   3
ATOM      3  C   UNL     1       4.646  41.533  49.854  1.00  0.00     0.144 C 
BRANCH   3   4
ATOM      4  C   UNL     1       6.063  41.470  49.266  1.00  0.00     0.181 C 
BRANCH   4   5
ATOM      5  O   UNL     1       6.413  42.667  48.566  1.00  0.00    -0.383 OA
ATOM      6  C   UNL     1       7.563  43.308  49.102  1.00  0.00     0.194 C 
ENDBRANCH   4   5
ENDBRANCH   3   4
ENDBRANCH   1   3
BRANCH   1   7
ATOM      7  C   UNL     1       4.347  42.934  51.770  1.00  0.00     0.226 A 
ATOM      8  N   UNL     1       5.157  43.986  51.544  1.00  0.00    -0.195 NA
ATOM      9  N   UNL     1       3.177  42.971  52.421  1.00  0.00    -0.193 NA
ATOM     10  C   UNL     1       4.818  45.217  52.001  1.00  0.00     0.147 A 
ATOM     11  C   UNL     1       2.870  44.198  52.870  1.00  0.00     0.165 A 
ATOM     12  C   UNL     1       3.619  45.346  52.705  1.00  0.00     0.082 A 
ATOM     13  N   UNL     1       1.763  44.572  53.583  1.00  0.00    -0.250 N 
ATOM     14  C   UNL     1       2.873  46.350  53.354  1.00  0.00     0.149 A 
ATOM     15  N   UNL     1       1.735  45.889  53.888  1.00  0.00    -0.179 NA
ATOM     16  C   UNL     1       0.682  43.723  54.013  1.00  0.00     0.176 C 
BRANCH  10  17
ATOM     17  N   UNL     1       5.717  46.266  51.734  1.00  0.00    -0.339 N 
ATOM     18  H   UNL     1       5.217  47.126  51.950  1.00  0.00     0.168 HD
BRANCH  17  19
ATOM     19  C   UNL     1       7.054  46.327  52.185  1.00  0.00     0.043 A 
ATOM     20  C   UNL     1       8.066  46.160  51.229  1.00  0.00     0.026 A 
ATOM     21  C   UNL     1       7.406  46.633  53.515  1.00  0.00    -0.028 A 
ATOM     22  C   UNL     1       9.412  46.225  51.588  1.00  0.00     0.002 A 
ATOM     23  C   UNL     1       8.766  46.681  53.866  1.00  0.00     0.005 A 
ATOM     24  C   UNL     1       9.762  46.478  52.910  1.00  0.00     0.000 A 
ATOM     25  C   UNL     1       6.378  46.880  54.585  1.00  0.00     0.046 C 
ENDBRANCH  17  19
ENDBRANCH  10  17
ENDBRANCH   1   7
TORSDOF 6
ENDMDL
MODEL 11
REMARK VINA RESULT:    -7.404      2.284      4.665
REMARK INTER + INTRA:         -10.830
REMARK INTER:                 -10.017
REMARK INTRA:                  -0.813
REMARK UNBOUND:                -0.829
REMARK SMILES COCCNc1nc(Nc2ccccc2C)c2cnn(C)c2n1
REMARK SMILES IDX 5 1 4 3 3 4 2 5 1 6 6 7 7 8 23 9 8 10 22 11 17 12 20 13
REMARK SMILES IDX 18 14 19 15 21 16 9 17 10 19 11 20 15 21 12 22 14 23 13 24
REMARK SMILES IDX 16 25
REMARK H PARENT 5 2 9 18
ROOT
ATOM      1  N   UNL     1       3.504  42.246  52.046  1.00  0.00    -0.352 N 
ATOM      2  H   UNL     1       2.962  42.002  52.868  1.00  0.00     0.163 HD
ENDROOT
BRANCH   1   3
ATOM      3  C   UNL     1       2.796  42.120  50.779  1.00  0.00     0.144 C 
BRANCH   3   4
ATOM      4  C   UNL     1       1.485  42.918  50.822  1.00  0.00     0.181 C 
BRANCH   4   5
ATOM      5  O   UNL     1       0.637  42.510  51.897  1.00  0.00    -0.383 OA
ATOM      6  C   UNL     1      -0.152  43.572  52.418  1.00  0.00     0.194 C 
ENDBRANCH   4   5
ENDBRANCH   3   4
ENDBRANCH   1   3
BRANCH   1   7
ATOM      7  C   UNL     1       4.001  43.521  52.299  1.00  0.00     0.226 A 
ATOM      8  N   UNL     1       4.901  44.063  51.457  1.00  0.00    -0.195 NA
ATOM      9  N   UNL     1       3.508  44.101  53.400  1.00  0.00    -0.193 NA
ATOM     10  C   UNL     1       5.398  45.302  51.697  1.00  0.00     0.147 A 
ATOM     11  C   UNL     1       4.022  45.322  53.620  1.00  0.00     0.165 A 
ATOM     12  C   UNL     1       4.949  45.977  52.834  1.00  0.00     0.082 A 
ATOM     13  N   UNL     1       3.745  46.168  54.659  1.00  0.00    -0.250 N 
ATOM     14  C   UNL     1       5.158  47.208  53.488  1.00  0.00     0.149 A 
ATOM     15  N   UNL     1       4.423  47.337  54.600  1.00  0.00    -0.179 NA
ATOM     16  C   UNL     1       2.839  45.930  55.752  1.00  0.00     0.176 C 
BRANCH  10  17
ATOM     17  N   UNL     1       6.340  45.800  50.778  1.00  0.00    -0.339 N 
ATOM     18  H   UNL     1       6.015  46.730  50.520  1.00  0.00     0.168 HD
BRANCH  17  19
ATOM     19  C   UNL     1       7.740  45.781  50.956  1.00  0.00     0.043 A 
ATOM     20  C   UNL     1       8.285  46.682  51.882  1.00  0.00     0.026 A 
ATOM     21  C   UNL     1       8.586  44.851  50.319  1.00  0.00    -0.028 A 
ATOM     22  C   UNL     1       9.657  46.715  52.131  1.00  0.00     0.002 A 
ATOM     23  C   UNL     1       9.968  44.905  50.569  1.00  0.00     0.005 A 
ATOM     24  C   UNL     1      10.500  45.831  51.467  1.00  0.00     0.000 A 
ATOM     25  C   UNL     1       8.070  43.818  49.355  1.00  0.00     0.046 C 
ENDBRANCH  17  19
ENDBRANCH  10  17
ENDBRANCH   1   7
TORSDOF 6
ENDMDL
MODEL 12
REMARK VINA RESULT:    -7.383      2.385      5.149
REMARK INTER + INTRA:         -10.802
REMARK INTER:                 -10.741
REMARK INTRA:                  -0.061
REMARK UNBOUND:                -0.829
REMARK SMILES COCCNc1nc(Nc2ccccc2C)c2cnn(C)c2n1
REMARK SMILES IDX 5 1 4 3 3 4 2 5 1 6 6 7 7 8 23 9 8 10 22 11 17 12 20 13
REMARK SMILES IDX 18 14 19 15 21 16 9 17 10 19 11 20 15 21 12 22 14 23 13 24
REMARK SMILES IDX 16 25
REMARK H PARENT 5 2 9 18
ROOT
ATOM      1  N   UNL     1       6.462  46.491  54.907  1.00  0.00    -0.352 N 
ATOM      2  H   UNL     1       6.776  45.931  55.694  1.00  0.00     0.163 HD
ENDROOT
BRANCH   1   3
ATOM      3  C   UNL     1       7.481  46.781  53.909  1.00  0.00     0.144 C 
BRANCH   3   4
ATOM      4  C   UNL     1       8.660  47.524  54.553  1.00  0.00     0.181 C 
BRANCH   4   5
ATOM      5  O   UNL     1       9.922  47.063  54.067  1.00  0.00    -0.383 OA
ATOM      6  C   UNL     1       9.900  46.735  52.684  1.00  0.00     0.194 C 
ENDBRANCH   4   5
ENDBRANCH   3   4
ENDBRANCH   1   3
BRANCH   1   7
ATOM      7  C   UNL     1       5.344  45.829  54.409  1.00  0.00     0.226 A 
ATOM      8  N   UNL     1       5.400  45.251  53.194  1.00  0.00    -0.195 NA
ATOM      9  N   UNL     1       4.284  45.832  55.228  1.00  0.00    -0.193 NA
ATOM     10  C   UNL     1       4.315  44.607  52.695  1.00  0.00     0.147 A 
ATOM     11  C   UNL     1       3.222  45.198  54.707  1.00  0.00     0.165 A 
ATOM     12  C   UNL     1       3.158  44.574  53.477  1.00  0.00     0.082 A 
ATOM     13  N   UNL     1       1.987  45.037  55.275  1.00  0.00    -0.250 N 
ATOM     14  C   UNL     1       1.844  44.071  53.405  1.00  0.00     0.149 A 
ATOM     15  N   UNL     1       1.122  44.343  54.500  1.00  0.00    -0.179 NA
ATOM     16  C   UNL     1       1.555  45.520  56.560  1.00  0.00     0.176 C 
BRANCH  10  17
ATOM     17  N   UNL     1       4.445  44.035  51.417  1.00  0.00    -0.339 N 
ATOM     18  H   UNL     1       3.696  44.433  50.854  1.00  0.00     0.168 HD
BRANCH  17  19
ATOM     19  C   UNL     1       5.647  43.952  50.680  1.00  0.00     0.043 A 
ATOM     20  C   UNL     1       6.465  45.091  50.649  1.00  0.00     0.026 A 
ATOM     21  C   UNL     1       6.092  42.767  50.060  1.00  0.00    -0.028 A 
ATOM     22  C   UNL     1       7.677  45.087  49.960  1.00  0.00     0.002 A 
ATOM     23  C   UNL     1       7.309  42.781  49.357  1.00  0.00     0.005 A 
ATOM     24  C   UNL     1       8.095  43.933  49.307  1.00  0.00     0.000 A 
ATOM     25  C   UNL     1       5.297  41.491  50.096  1.00  0.00     0.046 C 
ENDBRANCH  17  19
ENDBRANCH  10  17
ENDBRANCH   1   7
TORSDOF 6
ENDMDL
MODEL 13
REMARK VINA RESULT:    -7.382      2.000      4.931
REMARK INTER + INTRA:         -10.800
REMARK INTER:                  -9.799
REMARK INTRA:                  -1.001
REMARK UNBOUND:                -0.829
REMARK SMILES COCCNc1nc(Nc2ccccc2C)c2cnn(C)c2n1
REMARK SMILES IDX 5 1 4 3 3 4 2 5 1 6 6 7 7 8 23 9 8 10 22 11 17 12 20 13
REMARK SMILES IDX 18 14 19 15 21 16 9 17 10 19 11 20 15 21 12 22 14 23 13 24
REMARK SMILES IDX 16 25
REMARK H PARENT 5 2 9 18
ROOT
ATOM      1  N   UNL     1       6.588  43.413  49.324  1.00  0.00    -0.352 N 
ATOM      2  H   UNL     1       7.364  43.553  48.685  1.00  0.00     0.163 HD
ENDROOT
BRANCH   1   3
ATOM      3  C   UNL     1       6.551  42.111  49.975  1.00  0.00     0.144 C 
BRANCH   3   4
ATOM      4  C   UNL     1       5.186  41.445  49.753  1.00  0.00     0.181 C 
BRANCH   4   5
ATOM      5  O   UNL     1       4.547  41.096  50.983  1.00  0.00    -0.383 OA
ATOM      6  C   UNL     1       3.671  42.108  51.462  1.00  0.00     0.194 C 
ENDBRANCH   4   5
ENDBRANCH   3   4
ENDBRANCH   1   3
BRANCH   1   7
ATOM      7  C   UNL     1       6.637  44.491  50.203  1.00  0.00     0.226 A 
ATOM      8  N   UNL     1       5.490  45.032  50.656  1.00  0.00    -0.195 NA
ATOM      9  N   UNL     1       7.874  44.893  50.522  1.00  0.00    -0.193 NA
ATOM     10  C   UNL     1       5.525  46.087  51.508  1.00  0.00     0.147 A 
ATOM     11  C   UNL     1       7.880  45.943  51.358  1.00  0.00     0.165 A 
ATOM     12  C   UNL     1       6.775  46.582  51.884  1.00  0.00     0.082 A 
ATOM     13  N   UNL     1       8.970  46.601  51.861  1.00  0.00    -0.250 N 
ATOM     14  C   UNL     1       7.312  47.607  52.690  1.00  0.00     0.149 A 
ATOM     15  N   UNL     1       8.650  47.623  52.686  1.00  0.00    -0.179 NA
ATOM     16  C   UNL     1      10.355  46.311  51.596  1.00  0.00     0.176 C 
BRANCH  10  17
ATOM     17  N   UNL     1       4.288  46.604  51.934  1.00  0.00    -0.339 N 
ATOM     18  H   UNL     1       3.718  46.693  51.095  1.00  0.00     0.168 HD
BRANCH  17  19
ATOM     19  C   UNL     1       3.527  46.109  53.015  1.00  0.00     0.043 A 
ATOM     20  C   UNL     1       4.017  46.343  54.309  1.00  0.00     0.026 A 
ATOM     21  C   UNL     1       2.276  45.481  52.855  1.00  0.00    -0.028 A 
ATOM     22  C   UNL     1       3.316  45.905  55.432  1.00  0.00     0.002 A 
ATOM     23  C   UNL     1       1.588  45.032  53.996  1.00  0.00     0.005 A 
ATOM     24  C   UNL     1       2.105  45.241  55.275  1.00  0.00     0.000 A 
ATOM     25  C   UNL     1       1.659  45.244  51.504  1.00  0.00     0.046 C 
ENDBRANCH  17  19
ENDBRANCH  10  17
ENDBRANCH   1   7
TORSDOF 6
ENDMDL
MODEL 14
REMARK VINA RESULT:    -7.375      2.865      5.586
REMARK INTER + INTRA:         -10.791
REMARK INTER:                 -10.522
REMARK INTRA:                  -0.270
REMARK UNBOUND:                -0.829
REMARK SMILES COCCNc1nc(Nc2ccccc2C)c2cnn(C)c2n1
REMARK SMILES IDX 5 1 4 3 3 4 2 5 1 6 6 7 7 8 23 9 8 10 22 11 17 12 20 13
REMARK SMILES IDX 18 14 19 15 21 16 9 17 10 19 11 20 15 21 12 22 14 23 13 24
REMARK SMILES IDX 16 25
REMARK H PARENT 5 2 9 18
ROOT
ATOM      1  N   UNL     1       3.999  44.980  55.309  1.00  0.00    -0.352 N 
ATOM      2  H   UNL     1       3.739  44.303  56.018  1.00  0.00     0.163 HD
ENDROOT
BRANCH   1   3
ATOM      3  C   UNL     1       5.428  45.238  55.195  1.00  0.00     0.144 C 
BRANCH   3   4
ATOM      4  C   UNL     1       5.671  46.638  54.615  1.00  0.00     0.181 C 
BRANCH   4   5
ATOM      5  O   UNL     1       6.963  47.148  54.953  1.00  0.00    -0.383 OA
ATOM      6  C   UNL     1       7.915  46.987  53.910  1.00  0.00     0.194 C 
ENDBRANCH   4   5
ENDBRANCH   3   4
ENDBRANCH   1   3
BRANCH   1   7
ATOM      7  C   UNL     1       3.403  44.529  54.135  1.00  0.00     0.226 A 
ATOM      8  N   UNL     1       4.159  43.939  53.190  1.00  0.00    -0.195 NA
ATOM      9  N   UNL     1       2.082  44.735  54.067  1.00  0.00    -0.193 NA
ATOM     10  C   UNL     1       3.590  43.500  52.039  1.00  0.00     0.147 A 
ATOM     11  C   UNL     1       1.546  44.302  52.916  1.00  0.00     0.165 A 
ATOM     12  C   UNL     1       2.216  43.688  51.876  1.00  0.00     0.082 A 
ATOM     13  N   UNL     1       0.236  44.376  52.527  1.00  0.00    -0.250 N 
ATOM     14  C   UNL     1       1.217  43.434  50.915  1.00  0.00     0.149 A 
ATOM     15  N   UNL     1       0.004  43.845  51.305  1.00  0.00    -0.179 NA
ATOM     16  C   UNL     1      -0.858  44.944  53.271  1.00  0.00     0.176 C 
BRANCH  10  17
ATOM     17  N   UNL     1       4.443  42.901  51.094  1.00  0.00    -0.339 N 
ATOM     18  H   UNL     1       3.841  42.567  50.345  1.00  0.00     0.168 HD
BRANCH  17  19
ATOM     19  C   UNL     1       5.623  43.480  50.579  1.00  0.00     0.043 A 
ATOM     20  C   UNL     1       5.925  44.791  50.977  1.00  0.00     0.026 A 
ATOM     21  C   UNL     1       6.537  42.779  49.768  1.00  0.00    -0.028 A 
ATOM     22  C   UNL     1       7.081  45.430  50.528  1.00  0.00     0.002 A 
ATOM     23  C   UNL     1       7.690  43.440  49.311  1.00  0.00     0.005 A 
ATOM     24  C   UNL     1       7.960  44.756  49.688  1.00  0.00     0.000 A 
ATOM     25  C   UNL     1       6.310  41.353  49.344  1.00  0.00     0.046 C 
ENDBRANCH  17  19
ENDBRANCH  10  17
ENDBRANCH   1   7
TORSDOF 6
ENDMDL
MODEL 15
REMARK VINA RESULT:    -7.372      2.843      5.695
REMARK INTER + INTRA:         -10.788
REMARK INTER:                 -10.063
REMARK INTRA:                  -0.725
REMARK UNBOUND:                -0.829
REMARK SMILES COCCNc1nc(Nc2ccccc2C)c2cnn(C)c2n1
REMARK SMILES IDX 5 1 4 3 3 4 2 5 1 6 6 7 7 8 23 9 8 10 22 11 17 12 20 13
REMARK SMILES IDX 18 14 19 15 21 16 9 17 10 19 11 20 15 21 12 22 14 23 13 24
REMARK SMILES IDX 16 25
REMARK H PARENT 5 2 9 18
ROOT
ATOM      1  N   UNL     1       2.590  46.046  56.454  1.00  0.00    -0.352 N 
ATOM      2  H   UNL     1       2.758  47.031  56.280  1.00  0.00     0.163 HD
ENDROOT
BRANCH   1   3
ATOM      3  C   UNL     1       1.243  45.718  56.900  1.00  0.00     0.144 C 
BRANCH   3   4
ATOM      4  C   UNL     1       0.866  46.568  58.122  1.00  0.00     0.181 C 
BRANCH   4   5
ATOM      5  O   UNL     1      -0.539  46.821  58.194  1.00  0.00    -0.383 OA
ATOM      6  C   UNL     1      -1.233  46.446  57.011  1.00  0.00     0.194 C 
ENDBRANCH   4   5
ENDBRANCH   3   4
ENDBRANCH   1   3
BRANCH   1   7
ATOM      7  C   UNL     1       2.981  45.395  55.288  1.00  0.00     0.226 A 
ATOM      8  N   UNL     1       4.288  45.320  54.975  1.00  0.00    -0.195 NA
ATOM      9  N   UNL     1       1.972  44.886  54.570  1.00  0.00    -0.193 NA
ATOM     10  C   UNL     1       4.682  44.693  53.838  1.00  0.00     0.147 A 
ATOM     11  C   UNL     1       2.387  44.280  53.446  1.00  0.00     0.165 A 
ATOM     12  C   UNL     1       3.693  44.144  53.019  1.00  0.00     0.082 A 
ATOM     13  N   UNL     1       1.614  43.676  52.492  1.00  0.00    -0.250 N 
ATOM     14  C   UNL     1       3.593  43.444  51.800  1.00  0.00     0.149 A 
ATOM     15  N   UNL     1       2.329  43.148  51.472  1.00  0.00    -0.179 NA
ATOM     16  C   UNL     1       0.179  43.563  52.482  1.00  0.00     0.176 C 
BRANCH  10  17
ATOM     17  N   UNL     1       6.063  44.661  53.573  1.00  0.00    -0.339 N 
ATOM     18  H   UNL     1       6.208  43.881  52.936  1.00  0.00     0.168 HD
BRANCH  17  19
ATOM     19  C   UNL     1       6.847  45.775  53.200  1.00  0.00     0.043 A 
ATOM     20  C   UNL     1       7.458  46.507  54.229  1.00  0.00     0.026 A 
ATOM     21  C   UNL     1       7.108  46.121  51.860  1.00  0.00    -0.028 A 
ATOM     22  C   UNL     1       8.264  47.609  53.946  1.00  0.00     0.002 A 
ATOM     23  C   UNL     1       7.910  47.243  51.589  1.00  0.00     0.005 A 
ATOM     24  C   UNL     1       8.483  47.982  52.625  1.00  0.00     0.000 A 
ATOM     25  C   UNL     1       6.534  45.352  50.701  1.00  0.00     0.046 C 
ENDBRANCH  17  19
ENDBRANCH  10  17
ENDBRANCH   1   7
TORSDOF 6
ENDMDL
MODEL 16
REMARK VINA RESULT:    -7.321      2.413      5.241
REMARK INTER + INTRA:         -10.718
REMARK INTER:                 -10.153
REMARK INTRA:                  -0.565
REMARK UNBOUND:                -0.829
REMARK SMILES COCCNc1nc(Nc2ccccc2C)c2cnn(C)c2n1
REMARK SMILES IDX 5 1 4 3 3 4 2 5 1 6 6 7 7 8 23 9 8 10 22 11 17 12 20 13
REMARK SMILES IDX 18 14 19 15 21 16 9 17 10 19 11 20 15 21 12 22 14 23 13 24
REMARK SMILES IDX 16 25
REMARK H PARENT 5 2 9 18
ROOT
ATOM      1  N   UNL     1       5.599  46.875  54.953  1.00  0.00    -0.352 N 
ATOM      2  H   UNL     1       5.452  46.991  55.950  1.00  0.00     0.163 HD
ENDROOT
BRANCH   1   3
ATOM      3  C   UNL     1       6.887  46.308  54.579  1.00  0.00     0.144 C 
BRANCH   3   4
ATOM      4  C   UNL     1       7.663  47.291  53.691  1.00  0.00     0.181 C 
BRANCH   4   5
ATOM      5  O   UNL     1       8.669  47.999  54.418  1.00  0.00    -0.383 OA
ATOM      6  C   UNL     1       9.884  47.271  54.539  1.00  0.00     0.194 C 
ENDBRANCH   4   5
ENDBRANCH   3   4
ENDBRANCH   1   3
BRANCH   1   7
ATOM      7  C   UNL     1       4.501  46.148  54.502  1.00  0.00     0.226 A 
ATOM      8  N   UNL     1       4.500  45.654  53.250  1.00  0.00    -0.195 NA
ATOM      9  N   UNL     1       3.520  46.006  55.402  1.00  0.00    -0.193 NA
ATOM     10  C   UNL     1       3.432  44.949  52.797  1.00  0.00     0.147 A 
ATOM     11  C   UNL     1       2.473  45.313  54.927  1.00  0.00     0.165 A 
ATOM     12  C   UNL     1       2.355  44.764  53.666  1.00  0.00     0.082 A 
ATOM     13  N   UNL     1       1.311  45.008  55.580  1.00  0.00    -0.250 N 
ATOM     14  C   UNL     1       1.086  44.151  53.666  1.00  0.00     0.149 A 
ATOM     15  N   UNL     1       0.442  44.289  54.832  1.00  0.00    -0.179 NA
ATOM     16  C   UNL     1       0.952  45.370  56.928  1.00  0.00     0.176 C 
BRANCH  10  17
ATOM     17  N   UNL     1       3.498  44.471  51.475  1.00  0.00    -0.339 N 
ATOM     18  H   UNL     1       3.464  45.295  50.877  1.00  0.00     0.168 HD
BRANCH  17  19
ATOM     19  C   UNL     1       4.436  43.532  50.994  1.00  0.00     0.043 A 
ATOM     20  C   UNL     1       4.040  42.187  50.955  1.00  0.00     0.026 A 
ATOM     21  C   UNL     1       5.697  43.894  50.479  1.00  0.00    -0.028 A 
ATOM     22  C   UNL     1       4.900  41.199  50.477  1.00  0.00     0.002 A 
ATOM     23  C   UNL     1       6.558  42.886  50.014  1.00  0.00     0.005 A 
ATOM     24  C   UNL     1       6.163  41.548  50.013  1.00  0.00     0.000 A 
ATOM     25  C   UNL     1       6.171  45.321  50.436  1.00  0.00     0.046 C 
ENDBRANCH  17  19
ENDBRANCH  10  17
ENDBRANCH   1   7
TORSDOF 6
ENDMDL
MODEL 17
REMARK VINA RESULT:    -7.315      2.183      5.804
REMARK INTER + INTRA:         -10.710
REMARK INTER:                 -10.192
REMARK INTRA:                  -0.518
REMARK UNBOUND:                -0.829
REMARK SMILES COCCNc1nc(Nc2ccccc2C)c2cnn(C)c2n1
REMARK SMILES IDX 5 1 4 3 3 4 2 5 1 6 6 7 7 8 23 9 8 10 22 11 17 12 20 13
REMARK SMILES IDX 18 14 19 15 21 16 9 17 10 19 11 20 15 21 12 22 14 23 13 24
REMARK SMILES IDX 16 25
REMARK H PARENT 5 2 9 18
ROOT
ATOM      1  N   UNL     1       8.876  47.510  51.575  1.00  0.00    -0.352 N 
ATOM      2  H   UNL     1       8.644  48.406  51.993  1.00  0.00     0.163 HD
ENDROOT
BRANCH   1   3
ATOM      3  C   UNL     1       9.987  46.805  52.200  1.00  0.00     0.144 C 
BRANCH   3   4
ATOM      4  C   UNL     1       9.683  46.543  53.682  1.00  0.00     0.181 C 
BRANCH   4   5
ATOM      5  O   UNL     1       9.821  47.720  54.480  1.00  0.00    -0.383 OA
ATOM      6  C   UNL     1      10.558  47.498  55.676  1.00  0.00     0.194 C 
ENDBRANCH   4   5
ENDBRANCH   3   4
ENDBRANCH   1   3
BRANCH   1   7
ATOM      7  C   UNL     1       7.682  46.795  51.556  1.00  0.00     0.226 A 
ATOM      8  N   UNL     1       6.629  47.240  52.267  1.00  0.00    -0.195 NA
ATOM      9  N   UNL     1       7.706  45.693  50.796  1.00  0.00    -0.193 NA
ATOM     10  C   UNL     1       5.462  46.548  52.261  1.00  0.00     0.147 A 
ATOM     11  C   UNL     1       6.544  45.021  50.815  1.00  0.00     0.165 A 
ATOM     12  C   UNL     1       5.402  45.375  51.505  1.00  0.00     0.082 A 
ATOM     13  N   UNL     1       6.245  43.856  50.164  1.00  0.00    -0.250 N 
ATOM     14  C   UNL     1       4.477  44.356  51.199  1.00  0.00     0.149 A 
ATOM     15  N   UNL     1       4.980  43.427  50.377  1.00  0.00    -0.179 NA
ATOM     16  C   UNL     1       7.119  43.087  49.316  1.00  0.00     0.176 C 
BRANCH  10  17
ATOM     17  N   UNL     1       4.408  47.069  53.033  1.00  0.00    -0.339 N 
ATOM     18  H   UNL     1       4.069  47.886  52.529  1.00  0.00     0.168 HD
BRANCH  17  19
ATOM     19  C   UNL     1       3.336  46.316  53.562  1.00  0.00     0.043 A 
ATOM     20  C   UNL     1       2.117  46.355  52.869  1.00  0.00     0.026 A 
ATOM     21  C   UNL     1       3.464  45.475  54.685  1.00  0.00    -0.028 A 
ATOM     22  C   UNL     1       1.015  45.625  53.314  1.00  0.00     0.002 A 
ATOM     23  C   UNL     1       2.341  44.758  55.130  1.00  0.00     0.005 A 
ATOM     24  C   UNL     1       1.125  44.833  54.450  1.00  0.00     0.000 A 
ATOM     25  C   UNL     1       4.754  45.339  55.448  1.00  0.00     0.046 C 
ENDBRANCH  17  19
ENDBRANCH  10  17
ENDBRANCH   1   7
TORSDOF 6
ENDMDL
MODEL 18
REMARK VINA RESULT:    -7.153      2.467      6.373
REMARK INTER + INTRA:         -10.491
REMARK INTER:                  -9.641
REMARK INTRA:                  -0.850
REMARK UNBOUND:                -0.829
REMARK SMILES COCCNc1nc(Nc2ccccc2C)c2cnn(C)c2n1
REMARK SMILES IDX 5 1 4 3 3 4 2 5 1 6 6 7 7 8 23 9 8 10 22 11 17 12 20 13
REMARK SMILES IDX 18 14 19 15 21 16 9 17 10 19 11 20 15 21 12 22 14 23 13 24
REMARK SMILES IDX 16 25
REMARK H PARENT 5 2 9 18
ROOT
ATOM      1  N   UNL     1       7.985  46.070  50.635  1.00  0.00    -0.352 N 
ATOM      2  H   UNL     1       7.915  46.484  49.712  1.00  0.00     0.163 HD
ENDROOT
BRANCH   1   3
ATOM      3  C   UNL     1       8.373  46.988  51.697  1.00  0.00     0.144 C 
BRANCH   3   4
ATOM      4  C   UNL     1       9.828  46.732  52.114  1.00  0.00     0.181 C 
BRANCH   4   5
ATOM      5  O   UNL     1       9.927  46.198  53.437  1.00  0.00    -0.383 OA
ATOM      6  C   UNL     1       9.957  47.203  54.441  1.00  0.00     0.194 C 
ENDBRANCH   4   5
ENDBRANCH   3   4
ENDBRANCH   1   3
BRANCH   1   7
ATOM      7  C   UNL     1       6.764  45.435  50.846  1.00  0.00     0.226 A 
ATOM      8  N   UNL     1       5.755  46.110  51.426  1.00  0.00    -0.195 NA
ATOM      9  N   UNL     1       6.718  44.164  50.426  1.00  0.00    -0.193 NA
ATOM     10  C   UNL     1       4.562  45.500  51.642  1.00  0.00     0.147 A 
ATOM     11  C   UNL     1       5.532  43.581  50.659  1.00  0.00     0.165 A 
ATOM     12  C   UNL     1       4.430  44.167  51.248  1.00  0.00     0.082 A 
ATOM     13  N   UNL     1       5.165  42.295  50.369  1.00  0.00    -0.250 N 
ATOM     14  C   UNL     1       3.456  43.149  51.263  1.00  0.00     0.149 A 
ATOM     15  N   UNL     1       3.892  42.003  50.723  1.00  0.00    -0.179 NA
ATOM     16  C   UNL     1       5.978  41.280  49.752  1.00  0.00     0.176 C 
BRANCH  10  17
ATOM     17  N   UNL     1       3.557  46.266  52.261  1.00  0.00    -0.339 N 
ATOM     18  H   UNL     1       2.897  46.508  51.525  1.00  0.00     0.168 HD
BRANCH  17  19
ATOM     19  C   UNL     1       2.885  45.917  53.453  1.00  0.00     0.043 A 
ATOM     20  C   UNL     1       3.599  46.038  54.654  1.00  0.00     0.026 A 
ATOM     21  C   UNL     1       1.527  45.545  53.493  1.00  0.00    -0.028 A 
ATOM     22  C   UNL     1       3.004  45.732  55.878  1.00  0.00     0.002 A 
ATOM     23  C   UNL     1       0.944  45.226  54.732  1.00  0.00     0.005 A 
ATOM     24  C   UNL     1       1.677  45.318  55.915  1.00  0.00     0.000 A 
ATOM     25  C   UNL     1       0.681  45.446  52.254  1.00  0.00     0.046 C 
ENDBRANCH  17  19
ENDBRANCH  10  17
ENDBRANCH   1   7
TORSDOF 6
ENDMDL
MODEL 19
REMARK VINA RESULT:    -7.146      2.674      5.710
REMARK INTER + INTRA:         -10.482
REMARK INTER:                  -9.634
REMARK INTRA:                  -0.848
REMARK UNBOUND:                -0.829
REMARK SMILES COCCNc1nc(Nc2ccccc2C)c2cnn(C)c2n1
REMARK SMILES IDX 5 1 4 3 3 4 2 5 1 6 6 7 7 8 23 9 8 10 22 11 17 12 20 13
REMARK SMILES IDX 18 14 19 15 21 16 9 17 10 19 11 20 15 21 12 22 14 23 13 24
REMARK SMILES IDX 16 25
REMARK H PARENT 5 2 9 18
ROOT
ATOM      1  N   UNL     1       6.318  47.076  52.658  1.00  0.00    -0.352 N 
ATOM      2  H   UNL     1       6.156  47.031  53.659  1.00  0.00     0.163 HD
ENDROOT
BRANCH   1   3
ATOM      3  C   UNL     1       7.655  47.501  52.266  1.00  0.00     0.144 C 
BRANCH   3   4
ATOM      4  C   UNL     1       8.567  47.587  53.498  1.00  0.00     0.181 C 
BRANCH   4   5
ATOM      5  O   UNL     1       9.921  47.244  53.194  1.00  0.00    -0.383 OA
ATOM      6  C   UNL     1      10.044  46.447  52.024  1.00  0.00     0.194 C 
ENDBRANCH   4   5
ENDBRANCH   3   4
ENDBRANCH   1   3
BRANCH   1   7
ATOM      7  C   UNL     1       5.948  45.826  52.170  1.00  0.00     0.226 A 
ATOM      8  N   UNL     1       4.909  45.176  52.727  1.00  0.00    -0.195 NA
ATOM      9  N   UNL     1       6.694  45.385  51.149  1.00  0.00    -0.193 NA
ATOM     10  C   UNL     1       4.543  43.954  52.264  1.00  0.00     0.147 A 
ATOM     11  C   UNL     1       6.318  44.171  50.716  1.00  0.00     0.165 A 
ATOM     12  C   UNL     1       5.277  43.409  51.208  1.00  0.00     0.082 A 
ATOM     13  N   UNL     1       6.878  43.436  49.707  1.00  0.00    -0.250 N 
ATOM     14  C   UNL     1       5.299  42.237  50.425  1.00  0.00     0.149 A 
ATOM     15  N   UNL     1       6.269  42.246  49.503  1.00  0.00    -0.179 NA
ATOM     16  C   UNL     1       8.005  43.804  48.889  1.00  0.00     0.176 C 
BRANCH  10  17
ATOM     17  N   UNL     1       3.454  43.331  52.900  1.00  0.00    -0.339 N 
ATOM     18  H   UNL     1       3.646  43.384  53.898  1.00  0.00     0.168 HD
BRANCH  17  19
ATOM     19  C   UNL     1       2.093  43.592  52.628  1.00  0.00     0.043 A 
ATOM     20  C   UNL     1       1.582  43.138  51.403  1.00  0.00     0.026 A 
ATOM     21  C   UNL     1       1.224  44.199  53.555  1.00  0.00    -0.028 A 
ATOM     22  C   UNL     1       0.244  43.338  51.065  1.00  0.00     0.002 A 
ATOM     23  C   UNL     1      -0.119  44.407  53.195  1.00  0.00     0.005 A 
ATOM     24  C   UNL     1      -0.605  43.981  51.959  1.00  0.00     0.000 A 
ATOM     25  C   UNL     1       1.685  44.663  54.910  1.00  0.00     0.046 C 
ENDBRANCH  17  19
ENDBRANCH  10  17
ENDBRANCH   1   7
TORSDOF 6
ENDMDL
MODEL 20
REMARK VINA RESULT:    -7.143      3.296      6.121
REMARK INTER + INTRA:         -10.478
REMARK INTER:                  -9.804
REMARK INTRA:                  -0.673
REMARK UNBOUND:                -0.829
REMARK SMILES COCCNc1nc(Nc2ccccc2C)c2cnn(C)c2n1
REMARK SMILES IDX 5 1 4 3 3 4 2 5 1 6 6 7 7 8 23 9 8 10 22 11 17 12 20 13
REMARK SMILES IDX 18 14 19 15 21 16 9 17 10 19 11 20 15 21 12 22 14 23 13 24
REMARK SMILES IDX 16 25
REMARK H PARENT 5 2 9 18
ROOT
ATOM      1  N   UNL     1       1.623  45.716  56.772  1.00  0.00    -0.352 N 
ATOM      2  H   UNL     1       2.040  46.637  56.858  1.00  0.00     0.163 HD
ENDROOT
BRANCH   1   3
ATOM      3  C   UNL     1       0.217  45.637  57.143  1.00  0.00     0.144 C 
BRANCH   3   4
ATOM      4  C   UNL     1      -0.207  46.907  57.892  1.00  0.00     0.181 C 
BRANCH   4   5
ATOM      5  O   UNL     1       0.691  47.235  58.955  1.00  0.00    -0.383 OA
ATOM      6  C   UNL     1       0.082  48.008  59.980  1.00  0.00     0.194 C 
ENDBRANCH   4   5
ENDBRANCH   3   4
ENDBRANCH   1   3
BRANCH   1   7
ATOM      7  C   UNL     1       1.895  45.311  55.469  1.00  0.00     0.226 A 
ATOM      8  N   UNL     1       3.136  44.901  55.145  1.00  0.00    -0.195 NA
ATOM      9  N   UNL     1       0.847  45.370  54.637  1.00  0.00    -0.193 NA
ATOM     10  C   UNL     1       3.415  44.509  53.877  1.00  0.00     0.147 A 
ATOM     11  C   UNL     1       1.151  44.986  53.387  1.00  0.00     0.165 A 
ATOM     12  C   UNL     1       2.382  44.553  52.938  1.00  0.00     0.082 A 
ATOM     13  N   UNL     1       0.319  44.945  52.302  1.00  0.00    -0.250 N 
ATOM     14  C   UNL     1       2.180  44.276  51.571  1.00  0.00     0.149 A 
ATOM     15  N   UNL     1       0.922  44.507  51.174  1.00  0.00    -0.179 NA
ATOM     16  C   UNL     1      -1.073  45.313  52.264  1.00  0.00     0.176 C 
BRANCH  10  17
ATOM     17  N   UNL     1       4.735  44.102  53.611  1.00  0.00    -0.339 N 
ATOM     18  H   UNL     1       4.676  43.124  53.336  1.00  0.00     0.168 HD
BRANCH  17  19
ATOM     19  C   UNL     1       5.657  44.803  52.804  1.00  0.00     0.043 A 
ATOM     20  C   UNL     1       5.729  44.447  51.449  1.00  0.00     0.026 A 
ATOM     21  C   UNL     1       6.429  45.884  53.274  1.00  0.00    -0.028 A 
ATOM     22  C   UNL     1       6.600  45.103  50.579  1.00  0.00     0.002 A 
ATOM     23  C   UNL     1       7.312  46.526  52.390  1.00  0.00     0.005 A 
ATOM     24  C   UNL     1       7.398  46.138  51.053  1.00  0.00     0.000 A 
ATOM     25  C   UNL     1       6.366  46.360  54.700  1.00  0.00     0.046 C 
ENDBRANCH  17  19
ENDBRANCH  10  17
ENDBRANCH   1   7
TORSDOF 6
ENDMDL
