MODEL 1
REMARK VINA RESULT:    -8.975      0.000      0.000
REMARK INTER + INTRA:         -13.296
REMARK INTER:                 -12.648
REMARK INTRA:                  -0.648
REMARK UNBOUND:                -0.648
REMARK SMILES CCCCCNc1nc(Nc2ccccc2C)c2cnn(C)c2n1
REMARK SMILES IDX 5 1 4 2 3 3 2 4 1 5 6 6 7 8 8 9 24 10 9 11 23 12 18 13 21 14
REMARK SMILES IDX 19 15 20 16 22 17 10 18 11 20 12 21 16 22 13 23 15 24 14 25
REMARK SMILES IDX 17 26
REMARK H PARENT 6 7 10 19
ROOT
ATOM      1  C   UNL     1       7.274  46.703  53.937  1.00  0.00     0.116 C 
ENDROOT
BRANCH   1   2
ATOM      2  C   UNL     1       8.495  47.388  54.556  1.00  0.00     0.021 C 
BRANCH   2   3
ATOM      3  C   UNL     1       9.810  47.186  53.792  1.00  0.00     0.002 C 
BRANCH   3   4
ATOM      4  C   UNL     1       9.615  46.967  52.291  1.00  0.00    -0.003 C 
ATOM      5  C   UNL     1      10.600  45.943  51.747  1.00  0.00     0.004 C 
ENDBRANCH   3   4
ENDBRANCH   2   3
ENDBRANCH   1   2
BRANCH   1   6
ATOM      6  N   UNL     1       6.262  46.471  54.951  1.00  0.00    -0.354 N 
ATOM      7  H   UNL     1       6.569  45.943  55.761  1.00  0.00     0.163 HD
BRANCH   6   8
ATOM      8  C   UNL     1       5.115  45.832  54.497  1.00  0.00     0.226 A 
ATOM      9  N   UNL     1       5.232  45.280  53.274  1.00  0.00    -0.195 NA
ATOM     10  N   UNL     1       4.016  45.807  55.265  1.00  0.00    -0.193 NA
ATOM     11  C   UNL     1       4.181  44.627  52.718  1.00  0.00     0.147 A 
ATOM     12  C   UNL     1       3.003  45.132  54.704  1.00  0.00     0.165 A 
ATOM     13  C   UNL     1       3.006  44.525  53.464  1.00  0.00     0.082 A 
ATOM     14  N   UNL     1       1.765  44.893  55.235  1.00  0.00    -0.250 N 
ATOM     15  C   UNL     1       1.728  43.940  53.355  1.00  0.00     0.149 A 
ATOM     16  N   UNL     1       0.958  44.170  54.425  1.00  0.00    -0.179 NA
ATOM     17  C   UNL     1       1.279  45.318  56.524  1.00  0.00     0.176 C 
BRANCH  11  18
ATOM     18  N   UNL     1       4.380  44.061  51.449  1.00  0.00    -0.339 N 
ATOM     19  H   UNL     1       3.927  43.149  51.458  1.00  0.00     0.168 HD
BRANCH  18  20
ATOM     20  C   UNL     1       5.579  44.012  50.700  1.00  0.00     0.043 A 
ATOM     21  C   UNL     1       6.415  45.131  50.570  1.00  0.00     0.026 A 
ATOM     22  C   UNL     1       5.999  42.784  50.147  1.00  0.00    -0.028 A 
ATOM     23  C   UNL     1       7.619  45.053  49.868  1.00  0.00     0.002 A 
ATOM     24  C   UNL     1       7.213  42.716  49.444  1.00  0.00     0.005 A 
ATOM     25  C   UNL     1       8.016  43.847  49.302  1.00  0.00     0.000 A 
ATOM     26  C   UNL     1       5.154  41.545  50.279  1.00  0.00     0.046 C 
ENDBRANCH  18  20
ENDBRANCH  11  18
ENDBRANCH   6   8
ENDBRANCH   1   6
TORSDOF 7
ENDMDL
MODEL 2
REMARK VINA RESULT:    -8.915      1.711      5.382
REMARK INTER + INTRA:         -13.212
REMARK INTER:                 -11.995
REMARK INTRA:                  -1.217
REMARK UNBOUND:                -0.648
REMARK SMILES CCCCCNc1nc(Nc2ccccc2C)c2cnn(C)c2n1
REMARK SMILES IDX 5 1 4 2 3 3 2 4 1 5 6 6 7 8 8 9 24 10 9 11 23 12 18 13 21 14
REMARK SMILES IDX 19 15 20 16 22 17 10 18 11 20 12 21 16 22 13 23 15 24 14 25
REMARK SMILES IDX 17 26
REMARK H PARENT 6 7 10 19
ROOT
ATOM      1  C   UNL     1       4.043  45.767  55.424  1.00  0.00     0.116 C 
ENDROOT
BRANCH   1   2
ATOM      2  C   UNL     1       2.626  45.630  54.859  1.00  0.00     0.021 C 
BRANCH   2   3
ATOM      3  C   UNL     1       2.465  44.576  53.757  1.00  0.00     0.002 C 
BRANCH   3   4
ATOM      4  C   UNL     1       1.770  45.107  52.502  1.00  0.00    -0.003 C 
ATOM      5  C   UNL     1       2.419  46.392  52.010  1.00  0.00     0.004 C 
ENDBRANCH   3   4
ENDBRANCH   2   3
ENDBRANCH   1   2
BRANCH   1   6
ATOM      6  N   UNL     1       4.655  46.994  54.948  1.00  0.00    -0.354 N 
ATOM      7  H   UNL     1       4.063  47.583  54.372  1.00  0.00     0.163 HD
BRANCH   6   8
ATOM      8  C   UNL     1       5.829  46.819  54.225  1.00  0.00     0.226 A 
ATOM      9  N   UNL     1       5.656  46.284  53.002  1.00  0.00    -0.195 NA
ATOM     10  N   UNL     1       7.004  47.175  54.765  1.00  0.00    -0.193 NA
ATOM     11  C   UNL     1       6.725  46.061  52.197  1.00  0.00     0.147 A 
ATOM     12  C   UNL     1       8.040  46.971  53.938  1.00  0.00     0.165 A 
ATOM     13  C   UNL     1       7.985  46.434  52.668  1.00  0.00     0.082 A 
ATOM     14  N   UNL     1       9.358  47.257  54.168  1.00  0.00    -0.250 N 
ATOM     15  C   UNL     1       9.321  46.454  52.219  1.00  0.00     0.149 A 
ATOM     16  N   UNL     1      10.169  46.942  53.132  1.00  0.00    -0.179 NA
ATOM     17  C   UNL     1       9.922  47.845  55.358  1.00  0.00     0.176 C 
BRANCH  11  18
ATOM     18  N   UNL     1       6.468  45.519  50.929  1.00  0.00    -0.339 N 
ATOM     19  H   UNL     1       5.855  46.173  50.446  1.00  0.00     0.168 HD
BRANCH  18  20
ATOM     20  C   UNL     1       6.120  44.186  50.610  1.00  0.00     0.043 A 
ATOM     21  C   UNL     1       4.938  43.597  51.085  1.00  0.00     0.026 A 
ATOM     22  C   UNL     1       6.930  43.455  49.715  1.00  0.00    -0.028 A 
ATOM     23  C   UNL     1       4.586  42.297  50.721  1.00  0.00     0.002 A 
ATOM     24  C   UNL     1       6.564  42.148  49.355  1.00  0.00     0.005 A 
ATOM     25  C   UNL     1       5.400  41.571  49.859  1.00  0.00     0.000 A 
ATOM     26  C   UNL     1       8.195  44.048  49.155  1.00  0.00     0.046 C 
ENDBRANCH  18  20
ENDBRANCH  11  18
ENDBRANCH   6   8
ENDBRANCH   1   6
TORSDOF 7
ENDMDL
MODEL 3
REMARK VINA RESULT:    -8.788      0.581      1.609
REMARK INTER + INTRA:         -13.032
REMARK INTER:                 -12.042
REMARK INTRA:                  -0.989
REMARK UNBOUND:                -0.648
REMARK SMILES CCCCCNc1nc(Nc2ccccc2C)c2cnn(C)c2n1
REMARK SMILES IDX 5 1 4 2 3 3 2 4 1 5 6 6 7 8 8 9 24 10 9 11 23 12 18 13 21 14
REMARK SMILES IDX 19 15 20 16 22 17 10 18 11 20 12 21 16 22 13 23 15 24 14 25
REMARK SMILES IDX 17 26
REMARK H PARENT 6 7 10 19
ROOT
ATOM      1  C   UNL     1       7.400  46.442  54.201  1.00  0.00     0.116 C 
ENDROOT
BRANCH   1   2
ATOM      2  C   UNL     1       8.551  47.381  54.574  1.00  0.00     0.021 C 
BRANCH   2   3
ATOM      3  C   UNL     1       9.818  47.224  53.724  1.00  0.00     0.002 C 
BRANCH   3   4
ATOM      4  C   UNL     1       9.533  47.015  52.237  1.00  0.00    -0.003 C 
ATOM      5  C   UNL     1      10.319  45.837  51.681  1.00  0.00     0.004 C 
ENDBRANCH   3   4
ENDBRANCH   2   3
ENDBRANCH   1   2
BRANCH   1   6
ATOM      6  N   UNL     1       6.203  46.800  54.939  1.00  0.00    -0.354 N 
ATOM      7  H   UNL     1       6.233  46.617  55.936  1.00  0.00     0.163 HD
BRANCH   6   8
ATOM      8  C   UNL     1       5.034  46.203  54.482  1.00  0.00     0.226 A 
ATOM      9  N   UNL     1       5.091  45.771  53.207  1.00  0.00    -0.195 NA
ATOM     10  N   UNL     1       3.974  46.100  55.296  1.00  0.00    -0.193 NA
ATOM     11  C   UNL     1       4.014  45.171  52.642  1.00  0.00     0.147 A 
ATOM     12  C   UNL     1       2.934  45.478  54.723  1.00  0.00     0.165 A 
ATOM     13  C   UNL     1       2.877  44.992  53.432  1.00  0.00     0.082 A 
ATOM     14  N   UNL     1       1.724  45.184  55.288  1.00  0.00    -0.250 N 
ATOM     15  C   UNL     1       1.595  44.415  53.329  1.00  0.00     0.149 A 
ATOM     16  N   UNL     1       0.877  44.539  54.452  1.00  0.00    -0.179 NA
ATOM     17  C   UNL     1       1.302  45.481  56.634  1.00  0.00     0.176 C 
BRANCH  11  18
ATOM     18  N   UNL     1       4.151  44.729  51.317  1.00  0.00    -0.339 N 
ATOM     19  H   UNL     1       3.219  44.722  50.909  1.00  0.00     0.168 HD
BRANCH  18  20
ATOM     20  C   UNL     1       4.908  43.632  50.843  1.00  0.00     0.043 A 
ATOM     21  C   UNL     1       4.381  42.332  50.808  1.00  0.00     0.026 A 
ATOM     22  C   UNL     1       6.191  43.860  50.303  1.00  0.00    -0.028 A 
ATOM     23  C   UNL     1       5.124  41.269  50.291  1.00  0.00     0.002 A 
ATOM     24  C   UNL     1       6.928  42.783  49.784  1.00  0.00     0.005 A 
ATOM     25  C   UNL     1       6.398  41.494  49.783  1.00  0.00     0.000 A 
ATOM     26  C   UNL     1       6.793  45.239  50.291  1.00  0.00     0.046 C 
ENDBRANCH  18  20
ENDBRANCH  11  18
ENDBRANCH   6   8
ENDBRANCH   1   6
TORSDOF 7
ENDMDL
MODEL 4
REMARK VINA RESULT:    -8.779      2.202      5.061
REMARK INTER + INTRA:         -13.019
REMARK INTER:                 -11.550
REMARK INTRA:                  -1.469
REMARK UNBOUND:                -0.648
REMARK SMILES CCCCCNc1nc(Nc2ccccc2C)c2cnn(C)c2n1
REMARK SMILES IDX 5 1 4 2 3 3 2 4 1 5 6 6 7 8 8 9 24 10 9 11 23 12 18 13 21 14
REMARK SMILES IDX 19 15 20 16 22 17 10 18 11 20 12 21 16 22 13 23 15 24 14 25
REMARK SMILES IDX 17 26
REMARK H PARENT 6 7 10 19
ROOT
ATOM      1  C   UNL     1       3.219  47.123  52.672  1.00  0.00     0.116 C 
ENDROOT
BRANCH   1   2
ATOM      2  C   UNL     1       3.556  46.526  54.041  1.00  0.00     0.021 C 
BRANCH   2   3
ATOM      3  C   UNL     1       4.848  47.051  54.679  1.00  0.00     0.002 C 
BRANCH   3   4
ATOM      4  C   UNL     1       5.902  45.966  54.905  1.00  0.00    -0.003 C 
ATOM      5  C   UNL     1       5.379  44.594  54.506  1.00  0.00     0.004 C 
ENDBRANCH   3   4
ENDBRANCH   2   3
ENDBRANCH   1   2
BRANCH   1   6
ATOM      6  N   UNL     1       2.807  46.075  51.756  1.00  0.00    -0.354 N 
ATOM      7  H   UNL     1       2.115  45.426  52.118  1.00  0.00     0.163 HD
BRANCH   6   8
ATOM      8  C   UNL     1       3.841  45.288  51.264  1.00  0.00     0.226 A 
ATOM      9  N   UNL     1       4.994  45.951  51.056  1.00  0.00    -0.195 NA
ATOM     10  N   UNL     1       3.637  43.982  51.038  1.00  0.00    -0.193 NA
ATOM     11  C   UNL     1       6.080  45.295  50.576  1.00  0.00     0.147 A 
ATOM     12  C   UNL     1       4.733  43.353  50.592  1.00  0.00     0.165 A 
ATOM     13  C   UNL     1       5.965  43.924  50.344  1.00  0.00     0.082 A 
ATOM     14  N   UNL     1       4.870  42.024  50.299  1.00  0.00    -0.250 N 
ATOM     15  C   UNL     1       6.772  42.849  49.919  1.00  0.00     0.149 A 
ATOM     16  N   UNL     1       6.110  41.687  49.875  1.00  0.00    -0.179 NA
ATOM     17  C   UNL     1       3.857  41.004  50.409  1.00  0.00     0.176 C 
BRANCH  11  18
ATOM     18  N   UNL     1       7.254  46.045  50.401  1.00  0.00    -0.339 N 
ATOM     19  H   UNL     1       7.764  45.621  49.629  1.00  0.00     0.168 HD
BRANCH  18  20
ATOM     20  C   UNL     1       8.149  46.500  51.397  1.00  0.00     0.043 A 
ATOM     21  C   UNL     1       7.778  47.479  52.332  1.00  0.00     0.026 A 
ATOM     22  C   UNL     1       9.415  45.890  51.519  1.00  0.00    -0.028 A 
ATOM     23  C   UNL     1       8.657  47.880  53.340  1.00  0.00     0.002 A 
ATOM     24  C   UNL     1      10.290  46.301  52.538  1.00  0.00     0.005 A 
ATOM     25  C   UNL     1       9.914  47.295  53.440  1.00  0.00     0.000 A 
ATOM     26  C   UNL     1       9.853  44.816  50.560  1.00  0.00     0.046 C 
ENDBRANCH  18  20
ENDBRANCH  11  18
ENDBRANCH   6   8
ENDBRANCH   1   6
TORSDOF 7
ENDMDL
MODEL 5
REMARK VINA RESULT:    -8.589      1.105      1.403
REMARK INTER + INTRA:         -12.752
REMARK INTER:                 -12.060
REMARK INTRA:                  -0.692
REMARK UNBOUND:                -0.648
REMARK SMILES CCCCCNc1nc(Nc2ccccc2C)c2cnn(C)c2n1
REMARK SMILES IDX 5 1 4 2 3 3 2 4 1 5 6 6 7 8 8 9 24 10 9 11 23 12 18 13 21 14
REMARK SMILES IDX 19 15 20 16 22 17 10 18 11 20 12 21 16 22 13 23 15 24 14 25
REMARK SMILES IDX 17 26
REMARK H PARENT 6 7 10 19
ROOT
ATOM      1  C   UNL     1       5.593  46.904  54.571  1.00  0.00     0.116 C 
ENDROOT
BRANCH   1   2
ATOM      2  C   UNL     1       7.114  46.745  54.493  1.00  0.00     0.021 C 
BRANCH   2   3
ATOM      3  C   UNL     1       7.778  47.435  53.294  1.00  0.00     0.002 C 
BRANCH   3   4
ATOM      4  C   UNL     1       9.301  47.513  53.403  1.00  0.00    -0.003 C 
ATOM      5  C   UNL     1       9.968  46.334  52.710  1.00  0.00     0.004 C 
ENDBRANCH   3   4
ENDBRANCH   2   3
ENDBRANCH   1   2
BRANCH   1   6
ATOM      6  N   UNL     1       4.994  45.712  55.145  1.00  0.00    -0.354 N 
ATOM      7  H   UNL     1       5.648  45.014  55.484  1.00  0.00     0.163 HD
BRANCH   6   8
ATOM      8  C   UNL     1       4.122  45.034  54.303  1.00  0.00     0.226 A 
ATOM      9  N   UNL     1       4.709  44.466  53.232  1.00  0.00    -0.195 NA
ATOM     10  N   UNL     1       2.813  44.989  54.593  1.00  0.00    -0.193 NA
ATOM     11  C   UNL     1       3.964  43.775  52.333  1.00  0.00     0.147 A 
ATOM     12  C   UNL     1       2.106  44.277  53.705  1.00  0.00     0.165 A 
ATOM     13  C   UNL     1       2.596  43.650  52.576  1.00  0.00     0.082 A 
ATOM     14  N   UNL     1       0.765  44.011  53.729  1.00  0.00    -0.250 N 
ATOM     15  C   UNL     1       1.469  43.028  52.002  1.00  0.00     0.149 A 
ATOM     16  N   UNL     1       0.343  43.253  52.690  1.00  0.00    -0.179 NA
ATOM     17  C   UNL     1      -0.186  44.441  54.723  1.00  0.00     0.176 C 
BRANCH  11  18
ATOM     18  N   UNL     1       4.646  43.195  51.252  1.00  0.00    -0.339 N 
ATOM     19  H   UNL     1       4.721  42.199  51.450  1.00  0.00     0.168 HD
BRANCH  18  20
ATOM     20  C   UNL     1       5.817  43.663  50.613  1.00  0.00     0.043 A 
ATOM     21  C   UNL     1       6.309  44.959  50.830  1.00  0.00     0.026 A 
ATOM     22  C   UNL     1       6.567  42.779  49.810  1.00  0.00    -0.028 A 
ATOM     23  C   UNL     1       7.493  45.389  50.229  1.00  0.00     0.002 A 
ATOM     24  C   UNL     1       7.758  43.222  49.212  1.00  0.00     0.005 A 
ATOM     25  C   UNL     1       8.215  44.522  49.418  1.00  0.00     0.000 A 
ATOM     26  C   UNL     1       6.100  41.369  49.565  1.00  0.00     0.046 C 
ENDBRANCH  18  20
ENDBRANCH  11  18
ENDBRANCH   6   8
ENDBRANCH   1   6
TORSDOF 7
ENDMDL
MODEL 6
REMARK VINA RESULT:    -8.471      2.317      6.124
REMARK INTER + INTRA:         -12.586
REMARK INTER:                 -11.853
REMARK INTRA:                  -0.733
REMARK UNBOUND:                -0.648
REMARK SMILES CCCCCNc1nc(Nc2ccccc2C)c2cnn(C)c2n1
REMARK SMILES IDX 5 1 4 2 3 3 2 4 1 5 6 6 7 8 8 9 24 10 9 11 23 12 18 13 21 14
REMARK SMILES IDX 19 15 20 16 22 17 10 18 11 20 12 21 16 22 13 23 15 24 14 25
REMARK SMILES IDX 17 26
REMARK H PARENT 6 7 10 19
ROOT
ATOM      1  C   UNL     1       5.665  41.178  48.968  1.00  0.00     0.116 C 
ENDROOT
BRANCH   1   2
ATOM      2  C   UNL     1       4.969  41.217  47.605  1.00  0.00     0.021 C 
BRANCH   2   3
ATOM      3  C   UNL     1       5.745  41.947  46.500  1.00  0.00     0.002 C 
BRANCH   3   4
ATOM      4  C   UNL     1       4.983  42.036  45.178  1.00  0.00    -0.003 C 
ATOM      5  C   UNL     1       5.343  40.884  44.251  1.00  0.00     0.004 C 
ENDBRANCH   3   4
ENDBRANCH   2   3
ENDBRANCH   1   2
BRANCH   1   6
ATOM      6  N   UNL     1       6.505  42.350  49.135  1.00  0.00    -0.354 N 
ATOM      7  H   UNL     1       7.480  42.163  49.347  1.00  0.00     0.163 HD
BRANCH   6   8
ATOM      8  C   UNL     1       6.074  43.245  50.106  1.00  0.00     0.226 A 
ATOM      9  N   UNL     1       6.856  44.332  50.249  1.00  0.00    -0.195 NA
ATOM     10  N   UNL     1       4.961  42.984  50.807  1.00  0.00    -0.193 NA
ATOM     11  C   UNL     1       6.542  45.281  51.166  1.00  0.00     0.147 A 
ATOM     12  C   UNL     1       4.659  43.951  51.685  1.00  0.00     0.165 A 
ATOM     13  C   UNL     1       5.379  45.105  51.917  1.00  0.00     0.082 A 
ATOM     14  N   UNL     1       3.579  44.008  52.523  1.00  0.00    -0.250 N 
ATOM     15  C   UNL     1       4.640  45.790  52.902  1.00  0.00     0.149 A 
ATOM     16  N   UNL     1       3.546  45.122  53.290  1.00  0.00    -0.179 NA
ATOM     17  C   UNL     1       2.524  43.033  52.644  1.00  0.00     0.176 C 
BRANCH  11  18
ATOM     18  N   UNL     1       7.391  46.396  51.247  1.00  0.00    -0.339 N 
ATOM     19  H   UNL     1       7.925  46.425  50.380  1.00  0.00     0.168 HD
BRANCH  18  20
ATOM     20  C   UNL     1       8.196  46.796  52.339  1.00  0.00     0.043 A 
ATOM     21  C   UNL     1       7.661  47.490  53.435  1.00  0.00     0.026 A 
ATOM     22  C   UNL     1       9.551  46.407  52.377  1.00  0.00    -0.028 A 
ATOM     23  C   UNL     1       8.460  47.834  54.527  1.00  0.00     0.002 A 
ATOM     24  C   UNL     1      10.344  46.757  53.482  1.00  0.00     0.005 A 
ATOM     25  C   UNL     1       9.801  47.471  54.549  1.00  0.00     0.000 A 
ATOM     26  C   UNL     1      10.170  45.638  51.241  1.00  0.00     0.046 C 
ENDBRANCH  18  20
ENDBRANCH  11  18
ENDBRANCH   6   8
ENDBRANCH   1   6
TORSDOF 7
ENDMDL
MODEL 7
REMARK VINA RESULT:    -8.453      1.794      5.961
REMARK INTER + INTRA:         -12.560
REMARK INTER:                 -11.436
REMARK INTRA:                  -1.124
REMARK UNBOUND:                -0.648
REMARK SMILES CCCCCNc1nc(Nc2ccccc2C)c2cnn(C)c2n1
REMARK SMILES IDX 5 1 4 2 3 3 2 4 1 5 6 6 7 8 8 9 24 10 9 11 23 12 18 13 21 14
REMARK SMILES IDX 19 15 20 16 22 17 10 18 11 20 12 21 16 22 13 23 15 24 14 25
REMARK SMILES IDX 17 26
REMARK H PARENT 6 7 10 19
ROOT
ATOM      1  C   UNL     1       2.650  44.612  52.716  1.00  0.00     0.116 C 
ENDROOT
BRANCH   1   2
ATOM      2  C   UNL     1       2.434  45.929  53.466  1.00  0.00     0.021 C 
BRANCH   2   3
ATOM      3  C   UNL     1       2.844  47.190  52.694  1.00  0.00     0.002 C 
BRANCH   3   4
ATOM      4  C   UNL     1       4.071  47.891  53.278  1.00  0.00    -0.003 C 
ATOM      5  C   UNL     1       4.349  47.427  54.700  1.00  0.00     0.004 C 
ENDBRANCH   3   4
ENDBRANCH   2   3
ENDBRANCH   1   2
BRANCH   1   6
ATOM      6  N   UNL     1       3.937  44.040  53.069  1.00  0.00    -0.354 N 
ATOM      7  H   UNL     1       4.380  44.436  53.891  1.00  0.00     0.163 HD
BRANCH   6   8
ATOM      8  C   UNL     1       4.894  44.090  52.063  1.00  0.00     0.226 A 
ATOM      9  N   UNL     1       5.713  45.158  52.126  1.00  0.00    -0.195 NA
ATOM     10  N   UNL     1       4.941  43.121  51.137  1.00  0.00    -0.193 NA
ATOM     11  C   UNL     1       6.690  45.323  51.200  1.00  0.00     0.147 A 
ATOM     12  C   UNL     1       5.933  43.294  50.253  1.00  0.00     0.165 A 
ATOM     13  C   UNL     1       6.832  44.342  50.218  1.00  0.00     0.082 A 
ATOM     14  N   UNL     1       6.272  42.474  49.212  1.00  0.00    -0.250 N 
ATOM     15  C   UNL     1       7.674  44.047  49.127  1.00  0.00     0.149 A 
ATOM     16  N   UNL     1       7.333  42.917  48.496  1.00  0.00    -0.179 NA
ATOM     17  C   UNL     1       5.633  41.237  48.838  1.00  0.00     0.176 C 
BRANCH  11  18
ATOM     18  N   UNL     1       7.517  46.448  51.339  1.00  0.00    -0.339 N 
ATOM     19  H   UNL     1       8.074  46.512  50.489  1.00  0.00     0.168 HD
BRANCH  18  20
ATOM     20  C   UNL     1       8.285  46.827  52.465  1.00  0.00     0.043 A 
ATOM     21  C   UNL     1       7.715  47.509  53.551  1.00  0.00     0.026 A 
ATOM     22  C   UNL     1       9.636  46.429  52.546  1.00  0.00    -0.028 A 
ATOM     23  C   UNL     1       8.476  47.832  54.676  1.00  0.00     0.002 A 
ATOM     24  C   UNL     1      10.390  46.758  53.684  1.00  0.00     0.005 A 
ATOM     25  C   UNL     1       9.813  47.460  54.741  1.00  0.00     0.000 A 
ATOM     26  C   UNL     1      10.290  45.672  51.421  1.00  0.00     0.046 C 
ENDBRANCH  18  20
ENDBRANCH  11  18
ENDBRANCH   6   8
ENDBRANCH   1   6
TORSDOF 7
ENDMDL
MODEL 8
REMARK VINA RESULT:    -8.448      2.693      4.131
REMARK INTER + INTRA:         -12.553
REMARK INTER:                 -11.802
REMARK INTRA:                  -0.751
REMARK UNBOUND:                -0.648
REMARK SMILES CCCCCNc1nc(Nc2ccccc2C)c2cnn(C)c2n1
REMARK SMILES IDX 5 1 4 2 3 3 2 4 1 5 6 6 7 8 8 9 24 10 9 11 23 12 18 13 21 14
REMARK SMILES IDX 19 15 20 16 22 17 10 18 11 20 12 21 16 22 13 23 15 24 14 25
REMARK SMILES IDX 17 26
REMARK H PARENT 6 7 10 19
ROOT
ATOM      1  C   UNL     1       7.976  46.498  51.238  1.00  0.00     0.116 C 
ENDROOT
BRANCH   1   2
ATOM      2  C   UNL     1       9.424  46.825  51.612  1.00  0.00     0.021 C 
BRANCH   2   3
ATOM      3  C   UNL     1       9.856  46.356  53.007  1.00  0.00     0.002 C 
BRANCH   3   4
ATOM      4  C   UNL     1       9.291  47.213  54.141  1.00  0.00    -0.003 C 
ATOM      5  C   UNL     1      10.309  47.398  55.257  1.00  0.00     0.004 C 
ENDBRANCH   3   4
ENDBRANCH   2   3
ENDBRANCH   1   2
BRANCH   1   6
ATOM      6  N   UNL     1       7.935  45.358  50.341  1.00  0.00    -0.354 N 
ATOM      7  H   UNL     1       7.927  45.580  49.352  1.00  0.00     0.163 HD
BRANCH   6   8
ATOM      8  C   UNL     1       6.865  44.494  50.542  1.00  0.00     0.226 A 
ATOM      9  N   UNL     1       6.821  43.454  49.688  1.00  0.00    -0.195 NA
ATOM     10  N   UNL     1       5.985  44.739  51.525  1.00  0.00    -0.193 NA
ATOM     11  C   UNL     1       5.823  42.539  49.780  1.00  0.00     0.147 A 
ATOM     12  C   UNL     1       5.028  43.805  51.611  1.00  0.00     0.165 A 
ATOM     13  C   UNL     1       4.882  42.699  50.797  1.00  0.00     0.082 A 
ATOM     14  N   UNL     1       4.006  43.741  52.518  1.00  0.00    -0.250 N 
ATOM     15  C   UNL     1       3.751  42.032  51.310  1.00  0.00     0.149 A 
ATOM     16  N   UNL     1       3.200  42.666  52.352  1.00  0.00    -0.179 NA
ATOM     17  C   UNL     1       3.737  44.670  53.587  1.00  0.00     0.176 C 
BRANCH  11  18
ATOM     18  N   UNL     1       5.851  41.471  48.870  1.00  0.00    -0.339 N 
ATOM     19  H   UNL     1       6.818  41.159  48.809  1.00  0.00     0.168 HD
BRANCH  18  20
ATOM     20  C   UNL     1       5.225  41.394  47.604  1.00  0.00     0.043 A 
ATOM     21  C   UNL     1       5.758  42.036  46.476  1.00  0.00     0.026 A 
ATOM     22  C   UNL     1       4.088  40.575  47.445  1.00  0.00    -0.028 A 
ATOM     23  C   UNL     1       5.154  41.909  45.224  1.00  0.00     0.002 A 
ATOM     24  C   UNL     1       3.490  40.453  46.180  1.00  0.00     0.005 A 
ATOM     25  C   UNL     1       4.019  41.122  45.077  1.00  0.00     0.000 A 
ATOM     26  C   UNL     1       3.490  39.842  48.616  1.00  0.00     0.046 C 
ENDBRANCH  18  20
ENDBRANCH  11  18
ENDBRANCH   6   8
ENDBRANCH   1   6
TORSDOF 7
ENDMDL
MODEL 9
REMARK VINA RESULT:    -8.392      1.542      6.513
REMARK INTER + INTRA:         -12.475
REMARK INTER:                 -11.715
REMARK INTRA:                  -0.759
REMARK UNBOUND:                -0.648
REMARK SMILES CCCCCNc1nc(Nc2ccccc2C)c2cnn(C)c2n1
REMARK SMILES IDX 5 1 4 2 3 3 2 4 1 5 6 6 7 8 8 9 24 10 9 11 23 12 18 13 21 14
REMARK SMILES IDX 19 15 20 16 22 17 10 18 11 20 12 21 16 22 13 23 15 24 14 25
REMARK SMILES IDX 17 26
REMARK H PARENT 6 7 10 19
ROOT
ATOM      1  C   UNL     1       2.027  44.392  53.306  1.00  0.00     0.116 C 
ENDROOT
BRANCH   1   2
ATOM      2  C   UNL     1       1.294  44.201  54.636  1.00  0.00     0.021 C 
BRANCH   2   3
ATOM      3  C   UNL     1       1.523  45.311  55.670  1.00  0.00     0.002 C 
BRANCH   3   4
ATOM      4  C   UNL     1       0.519  45.287  56.823  1.00  0.00    -0.003 C 
ATOM      5  C   UNL     1      -0.894  45.027  56.323  1.00  0.00     0.004 C 
ENDBRANCH   3   4
ENDBRANCH   2   3
ENDBRANCH   1   2
BRANCH   1   6
ATOM      6  N   UNL     1       2.931  43.281  53.067  1.00  0.00    -0.354 N 
ATOM      7  H   UNL     1       3.352  42.875  53.896  1.00  0.00     0.163 HD
BRANCH   6   8
ATOM      8  C   UNL     1       3.985  43.559  52.206  1.00  0.00     0.226 A 
ATOM      9  N   UNL     1       4.586  44.744  52.426  1.00  0.00    -0.195 NA
ATOM     10  N   UNL     1       4.321  42.676  51.255  1.00  0.00    -0.193 NA
ATOM     11  C   UNL     1       5.630  45.133  51.651  1.00  0.00     0.147 A 
ATOM     12  C   UNL     1       5.372  43.072  50.523  1.00  0.00     0.165 A 
ATOM     13  C   UNL     1       6.067  44.257  50.657  1.00  0.00     0.082 A 
ATOM     14  N   UNL     1       5.981  42.392  49.505  1.00  0.00    -0.250 N 
ATOM     15  C   UNL     1       7.081  44.183  49.681  1.00  0.00     0.149 A 
ATOM     16  N   UNL     1       7.029  43.054  48.962  1.00  0.00    -0.179 NA
ATOM     17  C   UNL     1       5.623  41.092  48.995  1.00  0.00     0.176 C 
BRANCH  11  18
ATOM     18  N   UNL     1       6.220  46.371  51.950  1.00  0.00    -0.339 N 
ATOM     19  H   UNL     1       6.098  46.962  51.131  1.00  0.00     0.168 HD
BRANCH  18  20
ATOM     20  C   UNL     1       7.477  46.609  52.551  1.00  0.00     0.043 A 
ATOM     21  C   UNL     1       8.664  46.623  51.802  1.00  0.00     0.026 A 
ATOM     22  C   UNL     1       7.538  46.935  53.923  1.00  0.00    -0.028 A 
ATOM     23  C   UNL     1       9.891  46.908  52.403  1.00  0.00     0.002 A 
ATOM     24  C   UNL     1       8.778  47.222  54.516  1.00  0.00     0.005 A 
ATOM     25  C   UNL     1       9.948  47.203  53.760  1.00  0.00     0.000 A 
ATOM     26  C   UNL     1       6.292  46.961  54.768  1.00  0.00     0.046 C 
ENDBRANCH  18  20
ENDBRANCH  11  18
ENDBRANCH   6   8
ENDBRANCH   1   6
TORSDOF 7
ENDMDL
MODEL 10
REMARK VINA RESULT:    -8.388      2.043      5.251
REMARK INTER + INTRA:         -12.469
REMARK INTER:                 -11.592
REMARK INTRA:                  -0.877
REMARK UNBOUND:                -0.648
REMARK SMILES CCCCCNc1nc(Nc2ccccc2C)c2cnn(C)c2n1
REMARK SMILES IDX 5 1 4 2 3 3 2 4 1 5 6 6 7 8 8 9 24 10 9 11 23 12 18 13 21 14
REMARK SMILES IDX 19 15 20 16 22 17 10 18 11 20 12 21 16 22 13 23 15 24 14 25
REMARK SMILES IDX 17 26
REMARK H PARENT 6 7 10 19
ROOT
ATOM      1  C   UNL     1       5.744  41.627  49.826  1.00  0.00     0.116 C 
ENDROOT
BRANCH   1   2
ATOM      2  C   UNL     1       5.201  41.175  48.468  1.00  0.00     0.021 C 
BRANCH   2   3
ATOM      3  C   UNL     1       5.720  41.970  47.264  1.00  0.00     0.002 C 
BRANCH   3   4
ATOM      4  C   UNL     1       5.208  41.448  45.921  1.00  0.00    -0.003 C 
ATOM      5  C   UNL     1       5.246  42.531  44.853  1.00  0.00     0.004 C 
ENDBRANCH   3   4
ENDBRANCH   2   3
ENDBRANCH   1   2
BRANCH   1   6
ATOM      6  N   UNL     1       4.669  41.686  50.801  1.00  0.00    -0.354 N 
ATOM      7  H   UNL     1       3.751  41.427  50.455  1.00  0.00     0.163 HD
BRANCH   6   8
ATOM      8  C   UNL     1       4.506  42.920  51.418  1.00  0.00     0.226 A 
ATOM      9  N   UNL     1       5.396  43.855  51.036  1.00  0.00    -0.195 NA
ATOM     10  N   UNL     1       3.522  43.094  52.312  1.00  0.00    -0.193 NA
ATOM     11  C   UNL     1       5.343  45.103  51.567  1.00  0.00     0.147 A 
ATOM     12  C   UNL     1       3.475  44.343  52.798  1.00  0.00     0.165 A 
ATOM     13  C   UNL     1       4.328  45.381  52.482  1.00  0.00     0.082 A 
ATOM     14  N   UNL     1       2.577  44.854  53.695  1.00  0.00    -0.250 N 
ATOM     15  C   UNL     1       3.847  46.473  53.232  1.00  0.00     0.149 A 
ATOM     16  N   UNL     1       2.787  46.159  53.987  1.00  0.00    -0.179 NA
ATOM     17  C   UNL     1       1.478  44.156  54.315  1.00  0.00     0.176 C 
BRANCH  11  18
ATOM     18  N   UNL     1       6.290  46.032  51.108  1.00  0.00    -0.339 N 
ATOM     19  H   UNL     1       6.414  45.861  50.112  1.00  0.00     0.168 HD
BRANCH  18  20
ATOM     20  C   UNL     1       7.522  46.383  51.708  1.00  0.00     0.043 A 
ATOM     21  C   UNL     1       7.583  47.213  52.838  1.00  0.00     0.026 A 
ATOM     22  C   UNL     1       8.716  45.811  51.221  1.00  0.00    -0.028 A 
ATOM     23  C   UNL     1       8.803  47.510  53.448  1.00  0.00     0.002 A 
ATOM     24  C   UNL     1       9.938  46.115  51.844  1.00  0.00     0.005 A 
ATOM     25  C   UNL     1       9.980  46.964  52.948  1.00  0.00     0.000 A 
ATOM     26  C   UNL     1       8.705  44.893  50.028  1.00  0.00     0.046 C 
ENDBRANCH  18  20
ENDBRANCH  11  18
ENDBRANCH   6   8
ENDBRANCH   1   6
TORSDOF 7
ENDMDL
MODEL 11
REMARK VINA RESULT:    -8.379      1.727      5.558
REMARK INTER + INTRA:         -12.456
REMARK INTER:                 -11.660
REMARK INTRA:                  -0.796
REMARK UNBOUND:                -0.648
REMARK SMILES CCCCCNc1nc(Nc2ccccc2C)c2cnn(C)c2n1
REMARK SMILES IDX 5 1 4 2 3 3 2 4 1 5 6 6 7 8 8 9 24 10 9 11 23 12 18 13 21 14
REMARK SMILES IDX 19 15 20 16 22 17 10 18 11 20 12 21 16 22 13 23 15 24 14 25
REMARK SMILES IDX 17 26
REMARK H PARENT 6 7 10 19
ROOT
ATOM      1  C   UNL     1       3.524  46.579  54.474  1.00  0.00     0.116 C 
ENDROOT
BRANCH   1   2
ATOM      2  C   UNL     1       3.144  45.371  55.334  1.00  0.00     0.021 C 
BRANCH   2   3
ATOM      3  C   UNL     1       1.643  45.219  55.614  1.00  0.00     0.002 C 
BRANCH   3   4
ATOM      4  C   UNL     1       0.820  44.893  54.368  1.00  0.00    -0.003 C 
ATOM      5  C   UNL     1       1.173  43.521  53.813  1.00  0.00     0.004 C 
ENDBRANCH   3   4
ENDBRANCH   2   3
ENDBRANCH   1   2
BRANCH   1   6
ATOM      6  N   UNL     1       4.753  47.176  54.964  1.00  0.00    -0.354 N 
ATOM      7  H   UNL     1       4.727  48.182  55.098  1.00  0.00     0.163 HD
BRANCH   6   8
ATOM      8  C   UNL     1       5.875  46.929  54.183  1.00  0.00     0.226 A 
ATOM      9  N   UNL     1       5.604  46.437  52.959  1.00  0.00    -0.195 NA
ATOM     10  N   UNL     1       7.098  47.181  54.672  1.00  0.00    -0.193 NA
ATOM     11  C   UNL     1       6.615  46.152  52.100  1.00  0.00     0.147 A 
ATOM     12  C   UNL     1       8.075  46.918  53.793  1.00  0.00     0.165 A 
ATOM     13  C   UNL     1       7.920  46.416  52.516  1.00  0.00     0.082 A 
ATOM     14  N   UNL     1       9.420  47.097  53.965  1.00  0.00    -0.250 N 
ATOM     15  C   UNL     1       9.231  46.345  52.004  1.00  0.00     0.149 A 
ATOM     16  N   UNL     1      10.156  46.745  52.885  1.00  0.00    -0.179 NA
ATOM     17  C   UNL     1      10.083  47.613  55.137  1.00  0.00     0.176 C 
BRANCH  11  18
ATOM     18  N   UNL     1       6.257  45.660  50.835  1.00  0.00    -0.339 N 
ATOM     19  H   UNL     1       5.398  46.134  50.565  1.00  0.00     0.168 HD
BRANCH  18  20
ATOM     20  C   UNL     1       6.239  44.314  50.401  1.00  0.00     0.043 A 
ATOM     21  C   UNL     1       7.313  43.751  49.694  1.00  0.00     0.026 A 
ATOM     22  C   UNL     1       5.158  43.485  50.768  1.00  0.00    -0.028 A 
ATOM     23  C   UNL     1       7.299  42.408  49.316  1.00  0.00     0.002 A 
ATOM     24  C   UNL     1       5.157  42.134  50.383  1.00  0.00     0.005 A 
ATOM     25  C   UNL     1       6.220  41.601  49.657  1.00  0.00     0.000 A 
ATOM     26  C   UNL     1       3.993  44.030  51.549  1.00  0.00     0.046 C 
ENDBRANCH  18  20
ENDBRANCH  11  18
ENDBRANCH   6   8
ENDBRANCH   1   6
TORSDOF 7
ENDMDL
MODEL 12
REMARK VINA RESULT:    -8.330      1.422      4.718
REMARK INTER + INTRA:         -12.387
REMARK INTER:                 -11.233
REMARK INTRA:                  -1.154
REMARK UNBOUND:                -0.648
REMARK SMILES CCCCCNc1nc(Nc2ccccc2C)c2cnn(C)c2n1
REMARK SMILES IDX 5 1 4 2 3 3 2 4 1 5 6 6 7 8 8 9 24 10 9 11 23 12 18 13 21 14
REMARK SMILES IDX 19 15 20 16 22 17 10 18 11 20 12 21 16 22 13 23 15 24 14 25
REMARK SMILES IDX 17 26
REMARK H PARENT 6 7 10 19
ROOT
ATOM      1  C   UNL     1       4.250  41.677  51.190  1.00  0.00     0.116 C 
ENDROOT
BRANCH   1   2
ATOM      2  C   UNL     1       5.207  41.194  50.096  1.00  0.00     0.021 C 
BRANCH   2   3
ATOM      3  C   UNL     1       6.490  42.021  49.944  1.00  0.00     0.002 C 
BRANCH   3   4
ATOM      4  C   UNL     1       6.592  42.746  48.601  1.00  0.00    -0.003 C 
ATOM      5  C   UNL     1       5.867  41.983  47.503  1.00  0.00     0.004 C 
ENDBRANCH   3   4
ENDBRANCH   2   3
ENDBRANCH   1   2
BRANCH   1   6
ATOM      6  N   UNL     1       3.718  42.984  50.847  1.00  0.00    -0.354 N 
ATOM      7  H   UNL     1       4.055  43.378  49.976  1.00  0.00     0.163 HD
BRANCH   6   8
ATOM      8  C   UNL     1       3.917  43.966  51.809  1.00  0.00     0.226 A 
ATOM      9  N   UNL     1       4.883  44.854  51.506  1.00  0.00    -0.195 NA
ATOM     10  N   UNL     1       3.174  43.969  52.925  1.00  0.00    -0.193 NA
ATOM     11  C   UNL     1       5.176  45.863  52.364  1.00  0.00     0.147 A 
ATOM     12  C   UNL     1       3.463  44.992  53.741  1.00  0.00     0.165 A 
ATOM     13  C   UNL     1       4.426  45.961  53.537  1.00  0.00     0.082 A 
ATOM     14  N   UNL     1       2.869  45.300  54.934  1.00  0.00    -0.250 N 
ATOM     15  C   UNL     1       4.317  46.807  54.659  1.00  0.00     0.149 A 
ATOM     16  N   UNL     1       3.379  46.405  55.525  1.00  0.00    -0.179 NA
ATOM     17  C   UNL     1       1.793  44.586  55.576  1.00  0.00     0.176 C 
BRANCH  11  18
ATOM     18  N   UNL     1       6.180  46.762  51.974  1.00  0.00    -0.339 N 
ATOM     19  H   UNL     1       6.171  46.793  50.957  1.00  0.00     0.168 HD
BRANCH  18  20
ATOM     20  C   UNL     1       7.505  46.847  52.462  1.00  0.00     0.043 A 
ATOM     21  C   UNL     1       7.807  47.483  53.676  1.00  0.00     0.026 A 
ATOM     22  C   UNL     1       8.542  46.194  51.762  1.00  0.00    -0.028 A 
ATOM     23  C   UNL     1       9.113  47.515  54.166  1.00  0.00     0.002 A 
ATOM     24  C   UNL     1       9.852  46.231  52.266  1.00  0.00     0.005 A 
ATOM     25  C   UNL     1      10.136  46.892  53.460  1.00  0.00     0.000 A 
ATOM     26  C   UNL     1       8.270  45.474  50.468  1.00  0.00     0.046 C 
ENDBRANCH  18  20
ENDBRANCH  11  18
ENDBRANCH   6   8
ENDBRANCH   1   6
TORSDOF 7
ENDMDL
MODEL 13
REMARK VINA RESULT:    -8.268      1.705      6.572
REMARK INTER + INTRA:         -12.300
REMARK INTER:                 -11.390
REMARK INTRA:                  -0.910
REMARK UNBOUND:                -0.648
REMARK SMILES CCCCCNc1nc(Nc2ccccc2C)c2cnn(C)c2n1
REMARK SMILES IDX 5 1 4 2 3 3 2 4 1 5 6 6 7 8 8 9 24 10 9 11 23 12 18 13 21 14
REMARK SMILES IDX 19 15 20 16 22 17 10 18 11 20 12 21 16 22 13 23 15 24 14 25
REMARK SMILES IDX 17 26
REMARK H PARENT 6 7 10 19
ROOT
ATOM      1  C   UNL     1       2.481  44.409  53.849  1.00  0.00     0.116 C 
ENDROOT
BRANCH   1   2
ATOM      2  C   UNL     1       1.025  44.202  54.278  1.00  0.00     0.021 C 
BRANCH   2   3
ATOM      3  C   UNL     1       0.340  42.969  53.676  1.00  0.00     0.002 C 
BRANCH   3   4
ATOM      4  C   UNL     1      -0.769  43.313  52.681  1.00  0.00    -0.003 C 
ATOM      5  C   UNL     1      -0.280  43.198  51.245  1.00  0.00     0.004 C 
ENDBRANCH   3   4
ENDBRANCH   2   3
ENDBRANCH   1   2
BRANCH   1   6
ATOM      6  N   UNL     1       2.935  43.279  53.058  1.00  0.00    -0.354 N 
ATOM      7  H   UNL     1       3.220  42.462  53.587  1.00  0.00     0.163 HD
BRANCH   6   8
ATOM      8  C   UNL     1       3.987  43.556  52.194  1.00  0.00     0.226 A 
ATOM      9  N   UNL     1       4.590  44.740  52.412  1.00  0.00    -0.195 NA
ATOM     10  N   UNL     1       4.321  42.671  51.243  1.00  0.00    -0.193 NA
ATOM     11  C   UNL     1       5.632  45.128  51.635  1.00  0.00     0.147 A 
ATOM     12  C   UNL     1       5.371  43.066  50.509  1.00  0.00     0.165 A 
ATOM     13  C   UNL     1       6.067  44.251  50.640  1.00  0.00     0.082 A 
ATOM     14  N   UNL     1       5.977  42.385  49.490  1.00  0.00    -0.250 N 
ATOM     15  C   UNL     1       7.079  44.175  49.662  1.00  0.00     0.149 A 
ATOM     16  N   UNL     1       7.025  43.046  48.944  1.00  0.00    -0.179 NA
ATOM     17  C   UNL     1       5.618  41.085  48.982  1.00  0.00     0.176 C 
BRANCH  11  18
ATOM     18  N   UNL     1       6.224  46.366  51.931  1.00  0.00    -0.339 N 
ATOM     19  H   UNL     1       6.103  46.955  51.110  1.00  0.00     0.168 HD
BRANCH  18  20
ATOM     20  C   UNL     1       7.481  46.604  52.533  1.00  0.00     0.043 A 
ATOM     21  C   UNL     1       8.669  46.609  51.786  1.00  0.00     0.026 A 
ATOM     22  C   UNL     1       7.539  46.938  53.903  1.00  0.00    -0.028 A 
ATOM     23  C   UNL     1       9.896  46.894  52.387  1.00  0.00     0.002 A 
ATOM     24  C   UNL     1       8.779  47.225  54.496  1.00  0.00     0.005 A 
ATOM     25  C   UNL     1       9.951  47.198  53.742  1.00  0.00     0.000 A 
ATOM     26  C   UNL     1       6.292  46.973  54.746  1.00  0.00     0.046 C 
ENDBRANCH  18  20
ENDBRANCH  11  18
ENDBRANCH   6   8
ENDBRANCH   1   6
TORSDOF 7
ENDMDL
MODEL 14
REMARK VINA RESULT:    -8.205      1.936      4.872
REMARK INTER + INTRA:         -12.211
REMARK INTER:                 -11.478
REMARK INTRA:                  -0.733
REMARK UNBOUND:                -0.648
REMARK SMILES CCCCCNc1nc(Nc2ccccc2C)c2cnn(C)c2n1
REMARK SMILES IDX 5 1 4 2 3 3 2 4 1 5 6 6 7 8 8 9 24 10 9 11 23 12 18 13 21 14
REMARK SMILES IDX 19 15 20 16 22 17 10 18 11 20 12 21 16 22 13 23 15 24 14 25
REMARK SMILES IDX 17 26
REMARK H PARENT 6 7 10 19
ROOT
ATOM      1  C   UNL     1       4.008  41.304  50.462  1.00  0.00     0.116 C 
ENDROOT
BRANCH   1   2
ATOM      2  C   UNL     1       4.862  41.166  49.198  1.00  0.00     0.021 C 
BRANCH   2   3
ATOM      3  C   UNL     1       6.342  41.529  49.372  1.00  0.00     0.002 C 
BRANCH   3   4
ATOM      4  C   UNL     1       6.766  42.761  48.571  1.00  0.00    -0.003 C 
ATOM      5  C   UNL     1       7.902  43.505  49.257  1.00  0.00     0.004 C 
ENDBRANCH   3   4
ENDBRANCH   2   3
ENDBRANCH   1   2
BRANCH   1   6
ATOM      6  N   UNL     1       4.752  42.003  51.495  1.00  0.00    -0.354 N 
ATOM      7  H   UNL     1       4.756  41.559  52.407  1.00  0.00     0.163 HD
BRANCH   6   8
ATOM      8  C   UNL     1       4.352  43.315  51.716  1.00  0.00     0.226 A 
ATOM      9  N   UNL     1       5.325  44.230  51.547  1.00  0.00    -0.195 NA
ATOM     10  N   UNL     1       3.085  43.576  52.069  1.00  0.00    -0.193 NA
ATOM     11  C   UNL     1       5.062  45.548  51.734  1.00  0.00     0.147 A 
ATOM     12  C   UNL     1       2.846  44.887  52.220  1.00  0.00     0.165 A 
ATOM     13  C   UNL     1       3.758  45.912  52.071  1.00  0.00     0.082 A 
ATOM     14  N   UNL     1       1.658  45.484  52.540  1.00  0.00    -0.250 N 
ATOM     15  C   UNL     1       3.013  47.084  52.311  1.00  0.00     0.149 A 
ATOM     16  N   UNL     1       1.732  46.834  52.611  1.00  0.00    -0.179 NA
ATOM     17  C   UNL     1       0.397  44.831  52.785  1.00  0.00     0.176 C 
BRANCH  11  18
ATOM     18  N   UNL     1       6.119  46.447  51.521  1.00  0.00    -0.339 N 
ATOM     19  H   UNL     1       6.240  46.528  50.514  1.00  0.00     0.168 HD
BRANCH  18  20
ATOM     20  C   UNL     1       7.372  46.483  52.176  1.00  0.00     0.043 A 
ATOM     21  C   UNL     1       8.578  46.344  51.472  1.00  0.00     0.026 A 
ATOM     22  C   UNL     1       7.421  46.759  53.559  1.00  0.00    -0.028 A 
ATOM     23  C   UNL     1       9.807  46.431  52.127  1.00  0.00     0.002 A 
ATOM     24  C   UNL     1       8.664  46.846  54.207  1.00  0.00     0.005 A 
ATOM     25  C   UNL     1       9.850  46.678  53.494  1.00  0.00     0.000 A 
ATOM     26  C   UNL     1       6.159  46.943  54.358  1.00  0.00     0.046 C 
ENDBRANCH  18  20
ENDBRANCH  11  18
ENDBRANCH   6   8
ENDBRANCH   1   6
TORSDOF 7
ENDMDL
MODEL 15
REMARK VINA RESULT:    -8.178      1.962      5.274
REMARK INTER + INTRA:         -12.173
REMARK INTER:                 -11.622
REMARK INTRA:                  -0.551
REMARK UNBOUND:                -0.648
REMARK SMILES CCCCCNc1nc(Nc2ccccc2C)c2cnn(C)c2n1
REMARK SMILES IDX 5 1 4 2 3 3 2 4 1 5 6 6 7 8 8 9 24 10 9 11 23 12 18 13 21 14
REMARK SMILES IDX 19 15 20 16 22 17 10 18 11 20 12 21 16 22 13 23 15 24 14 25
REMARK SMILES IDX 17 26
REMARK H PARENT 6 7 10 19
ROOT
ATOM      1  C   UNL     1       9.138  46.101  51.622  1.00  0.00     0.116 C 
ENDROOT
BRANCH   1   2
ATOM      2  C   UNL     1       9.432  47.224  52.620  1.00  0.00     0.021 C 
BRANCH   2   3
ATOM      3  C   UNL     1      10.066  46.770  53.940  1.00  0.00     0.002 C 
BRANCH   3   4
ATOM      4  C   UNL     1       9.821  47.737  55.099  1.00  0.00    -0.003 C 
ATOM      5  C   UNL     1      10.909  47.624  56.156  1.00  0.00     0.004 C 
ENDBRANCH   3   4
ENDBRANCH   2   3
ENDBRANCH   1   2
BRANCH   1   6
ATOM      6  N   UNL     1       7.987  46.444  50.806  1.00  0.00    -0.354 N 
ATOM      7  H   UNL     1       7.665  47.402  50.887  1.00  0.00     0.163 HD
BRANCH   6   8
ATOM      8  C   UNL     1       6.866  45.650  51.015  1.00  0.00     0.226 A 
ATOM      9  N   UNL     1       5.856  46.270  51.655  1.00  0.00    -0.195 NA
ATOM     10  N   UNL     1       6.860  44.378  50.588  1.00  0.00    -0.193 NA
ATOM     11  C   UNL     1       4.705  45.602  51.919  1.00  0.00     0.147 A 
ATOM     12  C   UNL     1       5.701  43.752  50.837  1.00  0.00     0.165 A 
ATOM     13  C   UNL     1       4.600  44.282  51.480  1.00  0.00     0.082 A 
ATOM     14  N   UNL     1       5.360  42.470  50.503  1.00  0.00    -0.250 N 
ATOM     15  C   UNL     1       3.650  43.240  51.467  1.00  0.00     0.149 A 
ATOM     16  N   UNL     1       4.108  42.125  50.886  1.00  0.00    -0.179 NA
ATOM     17  C   UNL     1       6.177  41.509  49.805  1.00  0.00     0.176 C 
BRANCH  11  18
ATOM     18  N   UNL     1       3.689  46.316  52.572  1.00  0.00    -0.339 N 
ATOM     19  H   UNL     1       4.131  47.111  53.028  1.00  0.00     0.168 HD
BRANCH  18  20
ATOM     20  C   UNL     1       2.645  45.800  53.376  1.00  0.00     0.043 A 
ATOM     21  C   UNL     1       1.353  45.598  52.868  1.00  0.00     0.026 A 
ATOM     22  C   UNL     1       2.928  45.388  54.695  1.00  0.00    -0.028 A 
ATOM     23  C   UNL     1       0.347  45.043  53.661  1.00  0.00     0.002 A 
ATOM     24  C   UNL     1       1.909  44.828  55.482  1.00  0.00     0.005 A 
ATOM     25  C   UNL     1       0.624  44.661  54.968  1.00  0.00     0.000 A 
ATOM     26  C   UNL     1       4.305  45.557  55.281  1.00  0.00     0.046 C 
ENDBRANCH  18  20
ENDBRANCH  11  18
ENDBRANCH   6   8
ENDBRANCH   1   6
TORSDOF 7
ENDMDL
MODEL 16
REMARK VINA RESULT:    -8.174      1.362      2.313
REMARK INTER + INTRA:         -12.167
REMARK INTER:                 -11.360
REMARK INTRA:                  -0.807
REMARK UNBOUND:                -0.648
REMARK SMILES CCCCCNc1nc(Nc2ccccc2C)c2cnn(C)c2n1
REMARK SMILES IDX 5 1 4 2 3 3 2 4 1 5 6 6 7 8 8 9 24 10 9 11 23 12 18 13 21 14
REMARK SMILES IDX 19 15 20 16 22 17 10 18 11 20 12 21 16 22 13 23 15 24 14 25
REMARK SMILES IDX 17 26
REMARK H PARENT 6 7 10 19
ROOT
ATOM      1  C   UNL     1       5.910  45.185  54.957  1.00  0.00     0.116 C 
ENDROOT
BRANCH   1   2
ATOM      2  C   UNL     1       6.626  46.497  54.622  1.00  0.00     0.021 C 
BRANCH   2   3
ATOM      3  C   UNL     1       7.538  46.442  53.390  1.00  0.00     0.002 C 
BRANCH   3   4
ATOM      4  C   UNL     1       8.552  47.585  53.330  1.00  0.00    -0.003 C 
ATOM      5  C   UNL     1       9.887  47.173  53.933  1.00  0.00     0.004 C 
ENDBRANCH   3   4
ENDBRANCH   2   3
ENDBRANCH   1   2
BRANCH   1   6
ATOM      6  N   UNL     1       4.695  45.455  55.705  1.00  0.00    -0.354 N 
ATOM      7  H   UNL     1       4.620  44.986  56.601  1.00  0.00     0.163 HD
BRANCH   6   8
ATOM      8  C   UNL     1       3.517  45.165  55.028  1.00  0.00     0.226 A 
ATOM      9  N   UNL     1       3.687  44.805  53.742  1.00  0.00    -0.195 NA
ATOM     10  N   UNL     1       2.340  45.259  55.666  1.00  0.00    -0.193 NA
ATOM     11  C   UNL     1       2.612  44.498  52.972  1.00  0.00     0.147 A 
ATOM     12  C   UNL     1       1.299  44.922  54.891  1.00  0.00     0.165 A 
ATOM     13  C   UNL     1       1.350  44.537  53.567  1.00  0.00     0.082 A 
ATOM     14  N   UNL     1      -0.021  44.879  55.245  1.00  0.00    -0.250 N 
ATOM     15  C   UNL     1       0.009  44.273  53.225  1.00  0.00     0.149 A 
ATOM     16  N   UNL     1      -0.839  44.492  54.238  1.00  0.00    -0.179 NA
ATOM     17  C   UNL     1      -0.584  45.187  56.536  1.00  0.00     0.176 C 
BRANCH  11  18
ATOM     18  N   UNL     1       2.866  44.113  51.647  1.00  0.00    -0.339 N 
ATOM     19  H   UNL     1       2.022  43.658  51.304  1.00  0.00     0.168 HD
BRANCH  18  20
ATOM     20  C   UNL     1       4.018  43.472  51.136  1.00  0.00     0.043 A 
ATOM     21  C   UNL     1       4.086  42.077  50.996  1.00  0.00     0.026 A 
ATOM     22  C   UNL     1       5.093  44.254  50.664  1.00  0.00    -0.028 A 
ATOM     23  C   UNL     1       5.212  41.464  50.443  1.00  0.00     0.002 A 
ATOM     24  C   UNL     1       6.220  43.627  50.109  1.00  0.00     0.005 A 
ATOM     25  C   UNL     1       6.280  42.238  50.004  1.00  0.00     0.000 A 
ATOM     26  C   UNL     1       5.061  45.756  50.765  1.00  0.00     0.046 C 
ENDBRANCH  18  20
ENDBRANCH  11  18
ENDBRANCH   6   8
ENDBRANCH   1   6
TORSDOF 7
ENDMDL
MODEL 17
REMARK VINA RESULT:    -8.148      1.963      5.287
REMARK INTER + INTRA:         -12.131
REMARK INTER:                 -11.217
REMARK INTRA:                  -0.914
REMARK UNBOUND:                -0.648
REMARK SMILES CCCCCNc1nc(Nc2ccccc2C)c2cnn(C)c2n1
REMARK SMILES IDX 5 1 4 2 3 3 2 4 1 5 6 6 7 8 8 9 24 10 9 11 23 12 18 13 21 14
REMARK SMILES IDX 19 15 20 16 22 17 10 18 11 20 12 21 16 22 13 23 15 24 14 25
REMARK SMILES IDX 17 26
REMARK H PARENT 6 7 10 19
ROOT
ATOM      1  C   UNL     1       9.243  45.910  51.265  1.00  0.00     0.116 C 
ENDROOT
BRANCH   1   2
ATOM      2  C   UNL     1       9.911  46.787  52.328  1.00  0.00     0.021 C 
BRANCH   2   3
ATOM      3  C   UNL     1       9.527  46.458  53.776  1.00  0.00     0.002 C 
BRANCH   3   4
ATOM      4  C   UNL     1       9.582  47.666  54.711  1.00  0.00    -0.003 C 
ATOM      5  C   UNL     1      10.699  47.526  55.735  1.00  0.00     0.004 C 
ENDBRANCH   3   4
ENDBRANCH   2   3
ENDBRANCH   1   2
BRANCH   1   6
ATOM      6  N   UNL     1       7.988  46.504  50.841  1.00  0.00    -0.354 N 
ATOM      7  H   UNL     1       7.748  47.382  51.288  1.00  0.00     0.163 HD
BRANCH   6   8
ATOM      8  C   UNL     1       6.874  45.687  50.993  1.00  0.00     0.226 A 
ATOM      9  N   UNL     1       5.825  46.281  51.593  1.00  0.00    -0.195 NA
ATOM     10  N   UNL     1       6.911  44.420  50.555  1.00  0.00    -0.193 NA
ATOM     11  C   UNL     1       4.677  45.589  51.801  1.00  0.00     0.147 A 
ATOM     12  C   UNL     1       5.755  43.769  50.747  1.00  0.00     0.165 A 
ATOM     13  C   UNL     1       4.617  44.271  51.345  1.00  0.00     0.082 A 
ATOM     14  N   UNL     1       5.454  42.484  50.387  1.00  0.00    -0.250 N 
ATOM     15  C   UNL     1       3.689  43.213  51.282  1.00  0.00     0.149 A 
ATOM     16  N   UNL     1       4.194  42.112  50.711  1.00  0.00    -0.179 NA
ATOM     17  C   UNL     1       6.320  41.546  49.717  1.00  0.00     0.176 C 
BRANCH  11  18
ATOM     18  N   UNL     1       3.619  46.277  52.414  1.00  0.00    -0.339 N 
ATOM     19  H   UNL     1       3.876  47.262  52.429  1.00  0.00     0.168 HD
BRANCH  18  20
ATOM     20  C   UNL     1       2.926  45.927  53.596  1.00  0.00     0.043 A 
ATOM     21  C   UNL     1       3.530  46.016  54.860  1.00  0.00     0.026 A 
ATOM     22  C   UNL     1       1.564  45.568  53.518  1.00  0.00    -0.028 A 
ATOM     23  C   UNL     1       2.816  45.713  56.021  1.00  0.00     0.002 A 
ATOM     24  C   UNL     1       0.856  45.267  54.693  1.00  0.00     0.005 A 
ATOM     25  C   UNL     1       1.481  45.335  55.937  1.00  0.00     0.000 A 
ATOM     26  C   UNL     1       0.860  45.483  52.191  1.00  0.00     0.046 C 
ENDBRANCH  18  20
ENDBRANCH  11  18
ENDBRANCH   6   8
ENDBRANCH   1   6
TORSDOF 7
ENDMDL
MODEL 18
REMARK VINA RESULT:    -8.099      1.811      5.513
REMARK INTER + INTRA:         -12.061
REMARK INTER:                 -11.260
REMARK INTRA:                  -0.801
REMARK UNBOUND:                -0.648
REMARK SMILES CCCCCNc1nc(Nc2ccccc2C)c2cnn(C)c2n1
REMARK SMILES IDX 5 1 4 2 3 3 2 4 1 5 6 6 7 8 8 9 24 10 9 11 23 12 18 13 21 14
REMARK SMILES IDX 19 15 20 16 22 17 10 18 11 20 12 21 16 22 13 23 15 24 14 25
REMARK SMILES IDX 17 26
REMARK H PARENT 6 7 10 19
ROOT
ATOM      1  C   UNL     1       6.625  46.828  53.238  1.00  0.00     0.116 C 
ENDROOT
BRANCH   1   2
ATOM      2  C   UNL     1       7.642  47.687  52.480  1.00  0.00     0.021 C 
BRANCH   2   3
ATOM      3  C   UNL     1       9.014  47.815  53.154  1.00  0.00     0.002 C 
BRANCH   3   4
ATOM      4  C   UNL     1       9.818  46.514  53.153  1.00  0.00    -0.003 C 
ATOM      5  C   UNL     1      10.269  46.143  51.748  1.00  0.00     0.004 C 
ENDBRANCH   3   4
ENDBRANCH   2   3
ENDBRANCH   1   2
BRANCH   1   6
ATOM      6  N   UNL     1       5.422  46.659  52.443  1.00  0.00    -0.354 N 
ATOM      7  H   UNL     1       4.568  47.011  52.863  1.00  0.00     0.163 HD
BRANCH   6   8
ATOM      8  C   UNL     1       5.147  45.349  52.071  1.00  0.00     0.226 A 
ATOM      9  N   UNL     1       4.161  44.765  52.778  1.00  0.00    -0.195 NA
ATOM     10  N   UNL     1       5.847  44.775  51.082  1.00  0.00    -0.193 NA
ATOM     11  C   UNL     1       3.797  43.485  52.511  1.00  0.00     0.147 A 
ATOM     12  C   UNL     1       5.448  43.522  50.820  1.00  0.00     0.165 A 
ATOM     13  C   UNL     1       4.452  42.823  51.472  1.00  0.00     0.082 A 
ATOM     14  N   UNL     1       5.929  42.679  49.856  1.00  0.00    -0.250 N 
ATOM     15  C   UNL     1       4.408  41.577  50.814  1.00  0.00     0.149 A 
ATOM     16  N   UNL     1       5.315  41.473  49.835  1.00  0.00    -0.179 NA
ATOM     17  C   UNL     1       6.976  42.958  48.905  1.00  0.00     0.176 C 
BRANCH  11  18
ATOM     18  N   UNL     1       2.749  42.947  53.274  1.00  0.00    -0.339 N 
ATOM     19  H   UNL     1       2.902  41.942  53.321  1.00  0.00     0.168 HD
BRANCH  18  20
ATOM     20  C   UNL     1       1.368  43.234  53.173  1.00  0.00     0.043 A 
ATOM     21  C   UNL     1       0.564  42.656  52.179  1.00  0.00     0.026 A 
ATOM     22  C   UNL     1       0.757  44.047  54.151  1.00  0.00    -0.028 A 
ATOM     23  C   UNL     1      -0.808  42.912  52.124  1.00  0.00     0.002 A 
ATOM     24  C   UNL     1      -0.623  44.296  54.086  1.00  0.00     0.005 A 
ATOM     25  C   UNL     1      -1.400  43.734  53.075  1.00  0.00     0.000 A 
ATOM     26  C   UNL     1       1.568  44.672  55.256  1.00  0.00     0.046 C 
ENDBRANCH  18  20
ENDBRANCH  11  18
ENDBRANCH   6   8
ENDBRANCH   1   6
TORSDOF 7
ENDMDL
MODEL 19
REMARK VINA RESULT:    -8.098      1.944      5.964
REMARK INTER + INTRA:         -12.060
REMARK INTER:                 -10.702
REMARK INTRA:                  -1.357
REMARK UNBOUND:                -0.648
REMARK SMILES CCCCCNc1nc(Nc2ccccc2C)c2cnn(C)c2n1
REMARK SMILES IDX 5 1 4 2 3 3 2 4 1 5 6 6 7 8 8 9 24 10 9 11 23 12 18 13 21 14
REMARK SMILES IDX 19 15 20 16 22 17 10 18 11 20 12 21 16 22 13 23 15 24 14 25
REMARK SMILES IDX 17 26
REMARK H PARENT 6 7 10 19
ROOT
ATOM      1  C   UNL     1       7.843  43.651  49.669  1.00  0.00     0.116 C 
ENDROOT
BRANCH   1   2
ATOM      2  C   UNL     1       6.716  42.793  49.087  1.00  0.00     0.021 C 
BRANCH   2   3
ATOM      3  C   UNL     1       6.222  41.664  49.999  1.00  0.00     0.002 C 
BRANCH   3   4
ATOM      4  C   UNL     1       4.879  41.964  50.667  1.00  0.00    -0.003 C 
ATOM      5  C   UNL     1       3.762  41.123  50.068  1.00  0.00     0.004 C 
ENDBRANCH   3   4
ENDBRANCH   2   3
ENDBRANCH   1   2
BRANCH   1   6
ATOM      6  N   UNL     1       7.483  45.056  49.614  1.00  0.00    -0.354 N 
ATOM      7  H   UNL     1       8.175  45.669  49.195  1.00  0.00     0.163 HD
BRANCH   6   8
ATOM      8  C   UNL     1       7.167  45.627  50.841  1.00  0.00     0.226 A 
ATOM      9  N   UNL     1       5.848  45.784  51.059  1.00  0.00    -0.195 NA
ATOM     10  N   UNL     1       8.148  45.972  51.689  1.00  0.00    -0.193 NA
ATOM     11  C   UNL     1       5.410  46.331  52.221  1.00  0.00     0.147 A 
ATOM     12  C   UNL     1       7.686  46.483  52.838  1.00  0.00     0.165 A 
ATOM     13  C   UNL     1       6.363  46.688  53.175  1.00  0.00     0.082 A 
ATOM     14  N   UNL     1       8.417  46.898  53.918  1.00  0.00    -0.250 N 
ATOM     15  C   UNL     1       6.410  47.217  54.481  1.00  0.00     0.149 A 
ATOM     16  N   UNL     1       7.659  47.363  54.939  1.00  0.00    -0.179 NA
ATOM     17  C   UNL     1       9.851  46.875  54.054  1.00  0.00     0.176 C 
BRANCH  11  18
ATOM     18  N   UNL     1       4.021  46.446  52.388  1.00  0.00    -0.339 N 
ATOM     19  H   UNL     1       3.869  47.030  53.208  1.00  0.00     0.168 HD
BRANCH  18  20
ATOM     20  C   UNL     1       3.052  45.418  52.325  1.00  0.00     0.043 A 
ATOM     21  C   UNL     1       2.493  45.003  51.106  1.00  0.00     0.026 A 
ATOM     22  C   UNL     1       2.704  44.722  53.502  1.00  0.00    -0.028 A 
ATOM     23  C   UNL     1       1.574  43.954  51.057  1.00  0.00     0.002 A 
ATOM     24  C   UNL     1       1.780  43.666  53.439  1.00  0.00     0.005 A 
ATOM     25  C   UNL     1       1.215  43.288  52.223  1.00  0.00     0.000 A 
ATOM     26  C   UNL     1       3.294  45.107  54.833  1.00  0.00     0.046 C 
ENDBRANCH  18  20
ENDBRANCH  11  18
ENDBRANCH   6   8
ENDBRANCH   1   6
TORSDOF 7
ENDMDL
MODEL 20
REMARK VINA RESULT:    -7.937      2.027      4.914
REMARK INTER + INTRA:         -11.833
REMARK INTER:                 -10.597
REMARK INTRA:                  -1.236
REMARK UNBOUND:                -0.648
REMARK SMILES CCCCCNc1nc(Nc2ccccc2C)c2cnn(C)c2n1
REMARK SMILES IDX 5 1 4 2 3 3 2 4 1 5 6 6 7 8 8 9 24 10 9 11 23 12 18 13 21 14
REMARK SMILES IDX 19 15 20 16 22 17 10 18 11 20 12 21 16 22 13 23 15 24 14 25
REMARK SMILES IDX 17 26
REMARK H PARENT 6 7 10 19
ROOT
ATOM      1  C   UNL     1       5.041  41.540  50.509  1.00  0.00     0.116 C 
ENDROOT
BRANCH   1   2
ATOM      2  C   UNL     1       5.379  41.508  49.015  1.00  0.00     0.021 C 
BRANCH   2   3
ATOM      3  C   UNL     1       6.523  42.437  48.589  1.00  0.00     0.002 C 
BRANCH   3   4
ATOM      4  C   UNL     1       6.939  43.430  49.674  1.00  0.00    -0.003 C 
ATOM      5  C   UNL     1       8.241  44.130  49.315  1.00  0.00     0.004 C 
ENDBRANCH   3   4
ENDBRANCH   2   3
ENDBRANCH   1   2
BRANCH   1   6
ATOM      6  N   UNL     1       3.627  41.278  50.708  1.00  0.00    -0.354 N 
ATOM      7  H   UNL     1       3.124  40.951  49.890  1.00  0.00     0.163 HD
BRANCH   6   8
ATOM      8  C   UNL     1       2.897  42.355  51.194  1.00  0.00     0.226 A 
ATOM      9  N   UNL     1       3.601  43.202  51.969  1.00  0.00    -0.195 NA
ATOM     10  N   UNL     1       1.599  42.479  50.879  1.00  0.00    -0.193 NA
ATOM     11  C   UNL     1       3.002  44.294  52.506  1.00  0.00     0.147 A 
ATOM     12  C   UNL     1       1.039  43.581  51.399  1.00  0.00     0.165 A 
ATOM     13  C   UNL     1       1.659  44.517  52.202  1.00  0.00     0.082 A 
ATOM     14  N   UNL     1      -0.249  44.014  51.241  1.00  0.00    -0.250 N 
ATOM     15  C   UNL     1       0.659  45.477  52.458  1.00  0.00     0.149 A 
ATOM     16  N   UNL     1      -0.513  45.173  51.888  1.00  0.00    -0.179 NA
ATOM     17  C   UNL     1      -1.290  43.377  50.474  1.00  0.00     0.176 C 
BRANCH  11  18
ATOM     18  N   UNL     1       3.802  45.142  53.288  1.00  0.00    -0.339 N 
ATOM     19  H   UNL     1       3.211  45.916  53.583  1.00  0.00     0.168 HD
BRANCH  18  20
ATOM     20  C   UNL     1       5.113  45.595  53.011  1.00  0.00     0.043 A 
ATOM     21  C   UNL     1       5.445  46.191  51.784  1.00  0.00     0.026 A 
ATOM     22  C   UNL     1       6.093  45.535  54.024  1.00  0.00    -0.028 A 
ATOM     23  C   UNL     1       6.731  46.677  51.546  1.00  0.00     0.002 A 
ATOM     24  C   UNL     1       7.383  46.029  53.773  1.00  0.00     0.005 A 
ATOM     25  C   UNL     1       7.701  46.592  52.538  1.00  0.00     0.000 A 
ATOM     26  C   UNL     1       5.783  44.930  55.367  1.00  0.00     0.046 C 
ENDBRANCH  18  20
ENDBRANCH  11  18
ENDBRANCH   6   8
ENDBRANCH   1   6
TORSDOF 7
ENDMDL
