MODEL 1
REMARK VINA RESULT:    -8.434      0.000      0.000
REMARK INTER + INTRA:         -12.951
REMARK INTER:                 -11.886
REMARK INTRA:                  -1.065
REMARK UNBOUND:                -1.065
REMARK SMILES CCCCCNc1nc(Nc2ccccc2Cl)c2cnn(C)c2n1
REMARK SMILES IDX 5 1 4 2 3 3 2 4 1 5 6 6 7 8 8 9 24 10 9 11 23 12 18 13 21 14
REMARK SMILES IDX 19 15 20 16 22 17 10 18 11 20 12 21 16 22 13 23 15 24 14 25
REMARK SMILES IDX 17 26
REMARK H PARENT 6 7 10 19
ROOT
ATOM      1  C   UNL     1       3.624  46.683  54.517  1.00  0.00     0.116 C 
ENDROOT
BRANCH   1   2
ATOM      2  C   UNL     1       3.224  45.442  55.323  1.00  0.00     0.021 C 
BRANCH   2   3
ATOM      3  C   UNL     1       1.941  44.784  54.805  1.00  0.00     0.002 C 
BRANCH   3   4
ATOM      4  C   UNL     1       2.047  44.312  53.353  1.00  0.00    -0.003 C 
ATOM      5  C   UNL     1       1.525  42.900  53.132  1.00  0.00     0.004 C 
ENDBRANCH   3   4
ENDBRANCH   2   3
ENDBRANCH   1   2
BRANCH   1   6
ATOM      6  N   UNL     1       4.916  47.179  54.957  1.00  0.00    -0.354 N 
ATOM      7  H   UNL     1       4.971  48.174  55.141  1.00  0.00     0.163 HD
BRANCH   6   8
ATOM      8  C   UNL     1       5.969  46.904  54.089  1.00  0.00     0.226 A 
ATOM      9  N   UNL     1       5.712  46.406  52.865  1.00  0.00    -0.195 NA
ATOM     10  N   UNL     1       7.183  47.177  54.579  1.00  0.00    -0.193 NA
ATOM     11  C   UNL     1       6.725  46.122  52.008  1.00  0.00     0.147 A 
ATOM     12  C   UNL     1       8.170  46.887  53.717  1.00  0.00     0.165 A 
ATOM     13  C   UNL     1       8.030  46.371  52.442  1.00  0.00     0.082 A 
ATOM     14  N   UNL     1       9.514  47.040  53.921  1.00  0.00    -0.250 N 
ATOM     15  C   UNL     1       9.355  46.258  51.972  1.00  0.00     0.149 A 
ATOM     16  N   UNL     1      10.266  46.669  52.862  1.00  0.00    -0.179 NA
ATOM     17  C   UNL     1      10.160  47.539  55.109  1.00  0.00     0.176 C 
BRANCH  11  18
ATOM     18  N   UNL     1       6.335  45.601  50.755  1.00  0.00    -0.338 N 
ATOM     19  H   UNL     1       5.527  46.179  50.513  1.00  0.00     0.168 HD
BRANCH  18  20
ATOM     20  C   UNL     1       6.058  44.236  50.503  1.00  0.00     0.058 A 
ATOM     21  C   UNL     1       4.892  43.676  51.043  1.00  0.00     0.027 A 
ATOM     22  C   UNL     1       6.876  43.434  49.689  1.00  0.00     0.064 A 
ATOM     23  C   UNL     1       4.553  42.346  50.784  1.00  0.00     0.002 A 
ATOM     24  C   UNL     1       6.537  42.104  49.429  1.00  0.00     0.023 A 
ATOM     25  C   UNL     1       5.374  41.561  49.977  1.00  0.00     0.002 A 
ATOM     26  Cl  UNL     1       8.333  44.056  48.998  1.00  0.00    -0.082 Cl
ENDBRANCH  18  20
ENDBRANCH  11  18
ENDBRANCH   6   8
ENDBRANCH   1   6
TORSDOF 7
ENDMDL
MODEL 2
REMARK VINA RESULT:    -8.305      2.132      5.062
REMARK INTER + INTRA:         -12.769
REMARK INTER:                 -11.224
REMARK INTRA:                  -1.544
REMARK UNBOUND:                -1.065
REMARK SMILES CCCCCNc1nc(Nc2ccccc2Cl)c2cnn(C)c2n1
REMARK SMILES IDX 5 1 4 2 3 3 2 4 1 5 6 6 7 8 8 9 24 10 9 11 23 12 18 13 21 14
REMARK SMILES IDX 19 15 20 16 22 17 10 18 11 20 12 21 16 22 13 23 15 24 14 25
REMARK SMILES IDX 17 26
REMARK H PARENT 6 7 10 19
ROOT
ATOM      1  C   UNL     1       2.891  46.622  53.183  1.00  0.00     0.116 C 
ENDROOT
BRANCH   1   2
ATOM      2  C   UNL     1       2.577  45.592  54.274  1.00  0.00     0.021 C 
BRANCH   2   3
ATOM      3  C   UNL     1       3.732  45.403  55.264  1.00  0.00     0.002 C 
BRANCH   3   4
ATOM      4  C   UNL     1       5.057  45.983  54.764  1.00  0.00    -0.003 C 
ATOM      5  C   UNL     1       6.086  44.923  54.398  1.00  0.00     0.004 C 
ENDBRANCH   3   4
ENDBRANCH   2   3
ENDBRANCH   1   2
BRANCH   1   6
ATOM      6  N   UNL     1       2.715  46.036  51.866  1.00  0.00    -0.354 N 
ATOM      7  H   UNL     1       1.939  45.392  51.767  1.00  0.00     0.163 HD
BRANCH   6   8
ATOM      8  C   UNL     1       3.827  45.353  51.383  1.00  0.00     0.226 A 
ATOM      9  N   UNL     1       4.969  46.023  51.140  1.00  0.00    -0.195 NA
ATOM     10  N   UNL     1       3.642  44.041  51.202  1.00  0.00    -0.193 NA
ATOM     11  C   UNL     1       6.060  45.377  50.658  1.00  0.00     0.147 A 
ATOM     12  C   UNL     1       4.732  43.421  50.724  1.00  0.00     0.165 A 
ATOM     13  C   UNL     1       5.953  44.002  50.434  1.00  0.00     0.082 A 
ATOM     14  N   UNL     1       4.861  42.093  50.425  1.00  0.00    -0.250 N 
ATOM     15  C   UNL     1       6.741  42.928  49.970  1.00  0.00     0.149 A 
ATOM     16  N   UNL     1       6.088  41.759  49.967  1.00  0.00    -0.179 NA
ATOM     17  C   UNL     1       3.851  41.073  50.551  1.00  0.00     0.176 C 
BRANCH  11  18
ATOM     18  N   UNL     1       7.199  46.185  50.439  1.00  0.00    -0.338 N 
ATOM     19  H   UNL     1       7.660  45.715  49.657  1.00  0.00     0.168 HD
BRANCH  18  20
ATOM     20  C   UNL     1       8.143  46.528  51.435  1.00  0.00     0.058 A 
ATOM     21  C   UNL     1       7.804  47.513  52.373  1.00  0.00     0.027 A 
ATOM     22  C   UNL     1       9.387  45.883  51.556  1.00  0.00     0.064 A 
ATOM     23  C   UNL     1       8.685  47.853  53.402  1.00  0.00     0.002 A 
ATOM     24  C   UNL     1      10.268  46.222  52.586  1.00  0.00     0.023 A 
ATOM     25  C   UNL     1       9.916  47.207  53.509  1.00  0.00     0.002 A 
ATOM     26  Cl  UNL     1       9.875  44.666  50.429  1.00  0.00    -0.082 Cl
ENDBRANCH  18  20
ENDBRANCH  11  18
ENDBRANCH   6   8
ENDBRANCH   1   6
TORSDOF 7
ENDMDL
MODEL 3
REMARK VINA RESULT:    -8.241      2.014      5.544
REMARK INTER + INTRA:         -12.678
REMARK INTER:                 -12.340
REMARK INTRA:                  -0.338
REMARK UNBOUND:                -1.065
REMARK SMILES CCCCCNc1nc(Nc2ccccc2Cl)c2cnn(C)c2n1
REMARK SMILES IDX 5 1 4 2 3 3 2 4 1 5 6 6 7 8 8 9 24 10 9 11 23 12 18 13 21 14
REMARK SMILES IDX 19 15 20 16 22 17 10 18 11 20 12 21 16 22 13 23 15 24 14 25
REMARK SMILES IDX 17 26
REMARK H PARENT 6 7 10 19
ROOT
ATOM      1  C   UNL     1       7.226  46.810  53.911  1.00  0.00     0.116 C 
ENDROOT
BRANCH   1   2
ATOM      2  C   UNL     1       8.472  47.391  54.587  1.00  0.00     0.021 C 
BRANCH   2   3
ATOM      3  C   UNL     1       9.771  47.017  53.865  1.00  0.00     0.002 C 
BRANCH   3   4
ATOM      4  C   UNL     1       9.606  46.899  52.348  1.00  0.00    -0.003 C 
ATOM      5  C   UNL     1      10.639  45.995  51.692  1.00  0.00     0.004 C 
ENDBRANCH   3   4
ENDBRANCH   2   3
ENDBRANCH   1   2
BRANCH   1   6
ATOM      6  N   UNL     1       6.229  46.452  54.905  1.00  0.00    -0.354 N 
ATOM      7  H   UNL     1       6.563  45.909  55.692  1.00  0.00     0.163 HD
BRANCH   6   8
ATOM      8  C   UNL     1       5.138  45.749  54.404  1.00  0.00     0.226 A 
ATOM      9  N   UNL     1       5.234  45.124  53.217  1.00  0.00    -0.195 NA
ATOM     10  N   UNL     1       4.056  45.763  55.191  1.00  0.00    -0.193 NA
ATOM     11  C   UNL     1       4.177  44.441  52.707  1.00  0.00     0.147 A 
ATOM     12  C   UNL     1       3.022  45.084  54.668  1.00  0.00     0.165 A 
ATOM     13  C   UNL     1       3.002  44.410  53.462  1.00  0.00     0.082 A 
ATOM     14  N   UNL     1       1.781  44.921  55.218  1.00  0.00    -0.250 N 
ATOM     15  C   UNL     1       1.698  43.876  53.391  1.00  0.00     0.149 A 
ATOM     16  N   UNL     1       0.948  44.176  54.459  1.00  0.00    -0.179 NA
ATOM     17  C   UNL     1       1.311  45.450  56.474  1.00  0.00     0.176 C 
BRANCH  11  18
ATOM     18  N   UNL     1       4.395  43.830  51.452  1.00  0.00    -0.338 N 
ATOM     19  H   UNL     1       4.168  42.850  51.638  1.00  0.00     0.168 HD
BRANCH  18  20
ATOM     20  C   UNL     1       5.595  43.926  50.710  1.00  0.00     0.058 A 
ATOM     21  C   UNL     1       6.263  45.158  50.668  1.00  0.00     0.027 A 
ATOM     22  C   UNL     1       6.174  42.823  50.057  1.00  0.00     0.064 A 
ATOM     23  C   UNL     1       7.475  45.290  49.986  1.00  0.00     0.002 A 
ATOM     24  C   UNL     1       7.387  42.955  49.376  1.00  0.00     0.023 A 
ATOM     25  C   UNL     1       8.037  44.189  49.341  1.00  0.00     0.002 A 
ATOM     26  Cl  UNL     1       5.401  41.277  50.059  1.00  0.00    -0.082 Cl
ENDBRANCH  18  20
ENDBRANCH  11  18
ENDBRANCH   6   8
ENDBRANCH   1   6
TORSDOF 7
ENDMDL
MODEL 4
REMARK VINA RESULT:    -8.153      2.918      6.091
REMARK INTER + INTRA:         -12.555
REMARK INTER:                 -11.906
REMARK INTRA:                  -0.648
REMARK UNBOUND:                -1.065
REMARK SMILES CCCCCNc1nc(Nc2ccccc2Cl)c2cnn(C)c2n1
REMARK SMILES IDX 5 1 4 2 3 3 2 4 1 5 6 6 7 8 8 9 24 10 9 11 23 12 18 13 21 14
REMARK SMILES IDX 19 15 20 16 22 17 10 18 11 20 12 21 16 22 13 23 15 24 14 25
REMARK SMILES IDX 17 26
REMARK H PARENT 6 7 10 19
ROOT
ATOM      1  C   UNL     1       7.720  46.444  51.609  1.00  0.00     0.116 C 
ENDROOT
BRANCH   1   2
ATOM      2  C   UNL     1       9.035  47.228  51.548  1.00  0.00     0.021 C 
BRANCH   2   3
ATOM      3  C   UNL     1      10.153  46.581  52.373  1.00  0.00     0.002 C 
BRANCH   3   4
ATOM      4  C   UNL     1       9.845  46.529  53.871  1.00  0.00    -0.003 C 
ATOM      5  C   UNL     1       9.412  47.867  54.451  1.00  0.00     0.004 C 
ENDBRANCH   3   4
ENDBRANCH   2   3
ENDBRANCH   1   2
BRANCH   1   6
ATOM      6  N   UNL     1       7.553  45.639  50.411  1.00  0.00    -0.354 N 
ATOM      7  H   UNL     1       7.288  46.142  49.572  1.00  0.00     0.163 HD
BRANCH   6   8
ATOM      8  C   UNL     1       6.629  44.605  50.531  1.00  0.00     0.226 A 
ATOM      9  N   UNL     1       6.693  43.553  49.694  1.00  0.00    -0.195 NA
ATOM     10  N   UNL     1       5.733  44.767  51.510  1.00  0.00    -0.193 NA
ATOM     11  C   UNL     1       5.795  42.540  49.788  1.00  0.00     0.147 A 
ATOM     12  C   UNL     1       4.854  43.756  51.585  1.00  0.00     0.165 A 
ATOM     13  C   UNL     1       4.817  42.631  50.783  1.00  0.00     0.082 A 
ATOM     14  N   UNL     1       3.816  43.630  52.467  1.00  0.00    -0.250 N 
ATOM     15  C   UNL     1       3.718  41.896  51.274  1.00  0.00     0.149 A 
ATOM     16  N   UNL     1       3.104  42.493  52.304  1.00  0.00    -0.179 NA
ATOM     17  C   UNL     1       3.437  44.560  53.500  1.00  0.00     0.176 C 
BRANCH  11  18
ATOM     18  N   UNL     1       5.959  41.492  48.855  1.00  0.00    -0.338 N 
ATOM     19  H   UNL     1       6.969  41.490  48.694  1.00  0.00     0.168 HD
BRANCH  18  20
ATOM     20  C   UNL     1       5.263  41.394  47.627  1.00  0.00     0.058 A 
ATOM     21  C   UNL     1       5.779  42.062  46.508  1.00  0.00     0.027 A 
ATOM     22  C   UNL     1       4.107  40.611  47.471  1.00  0.00     0.064 A 
ATOM     23  C   UNL     1       5.152  41.958  45.263  1.00  0.00     0.002 A 
ATOM     24  C   UNL     1       3.480  40.506  46.226  1.00  0.00     0.023 A 
ATOM     25  C   UNL     1       4.005  41.179  45.122  1.00  0.00     0.002 A 
ATOM     26  Cl  UNL     1       3.410  39.768  48.810  1.00  0.00    -0.082 Cl
ENDBRANCH  18  20
ENDBRANCH  11  18
ENDBRANCH   6   8
ENDBRANCH   1   6
TORSDOF 7
ENDMDL
MODEL 5
REMARK VINA RESULT:    -8.137      2.261      5.337
REMARK INTER + INTRA:         -12.532
REMARK INTER:                 -11.580
REMARK INTRA:                  -0.953
REMARK UNBOUND:                -1.065
REMARK SMILES CCCCCNc1nc(Nc2ccccc2Cl)c2cnn(C)c2n1
REMARK SMILES IDX 5 1 4 2 3 3 2 4 1 5 6 6 7 8 8 9 24 10 9 11 23 12 18 13 21 14
REMARK SMILES IDX 19 15 20 16 22 17 10 18 11 20 12 21 16 22 13 23 15 24 14 25
REMARK SMILES IDX 17 26
REMARK H PARENT 6 7 10 19
ROOT
ATOM      1  C   UNL     1       1.864  43.431  52.582  1.00  0.00     0.116 C 
ENDROOT
BRANCH   1   2
ATOM      2  C   UNL     1       0.873  43.419  53.752  1.00  0.00     0.021 C 
BRANCH   2   3
ATOM      3  C   UNL     1       0.737  44.786  54.430  1.00  0.00     0.002 C 
BRANCH   3   4
ATOM      4  C   UNL     1       1.615  44.933  55.675  1.00  0.00    -0.003 C 
ATOM      5  C   UNL     1       2.918  45.676  55.418  1.00  0.00     0.004 C 
ENDBRANCH   3   4
ENDBRANCH   2   3
ENDBRANCH   1   2
BRANCH   1   6
ATOM      6  N   UNL     1       3.198  43.091  53.043  1.00  0.00    -0.354 N 
ATOM      7  H   UNL     1       3.451  43.436  53.962  1.00  0.00     0.163 HD
BRANCH   6   8
ATOM      8  C   UNL     1       4.226  43.500  52.198  1.00  0.00     0.226 A 
ATOM      9  N   UNL     1       4.811  44.696  52.389  1.00  0.00    -0.195 NA
ATOM     10  N   UNL     1       4.544  42.622  51.241  1.00  0.00    -0.193 NA
ATOM     11  C   UNL     1       5.807  45.117  51.569  1.00  0.00     0.147 A 
ATOM     12  C   UNL     1       5.529  43.057  50.440  1.00  0.00     0.165 A 
ATOM     13  C   UNL     1       6.200  44.262  50.535  1.00  0.00     0.082 A 
ATOM     14  N   UNL     1       6.071  42.402  49.369  1.00  0.00    -0.250 N 
ATOM     15  C   UNL     1       7.126  44.223  49.472  1.00  0.00     0.149 A 
ATOM     16  N   UNL     1       7.060  43.092  48.759  1.00  0.00    -0.179 NA
ATOM     17  C   UNL     1       5.695  41.106  48.863  1.00  0.00     0.176 C 
BRANCH  11  18
ATOM     18  N   UNL     1       6.343  46.390  51.864  1.00  0.00    -0.338 N 
ATOM     19  H   UNL     1       6.336  46.854  50.953  1.00  0.00     0.168 HD
BRANCH  18  20
ATOM     20  C   UNL     1       7.577  46.610  52.521  1.00  0.00     0.058 A 
ATOM     21  C   UNL     1       8.758  46.563  51.766  1.00  0.00     0.027 A 
ATOM     22  C   UNL     1       7.664  46.927  53.887  1.00  0.00     0.064 A 
ATOM     23  C   UNL     1       9.995  46.818  52.361  1.00  0.00     0.002 A 
ATOM     24  C   UNL     1       8.901  47.184  54.482  1.00  0.00     0.023 A 
ATOM     25  C   UNL     1      10.067  47.130  53.717  1.00  0.00     0.002 A 
ATOM     26  Cl  UNL     1       6.250  46.992  54.880  1.00  0.00    -0.082 Cl
ENDBRANCH  18  20
ENDBRANCH  11  18
ENDBRANCH   6   8
ENDBRANCH   1   6
TORSDOF 7
ENDMDL
MODEL 6
REMARK VINA RESULT:    -8.125      1.689      5.264
REMARK INTER + INTRA:         -12.515
REMARK INTER:                 -11.531
REMARK INTRA:                  -0.984
REMARK UNBOUND:                -1.065
REMARK SMILES CCCCCNc1nc(Nc2ccccc2Cl)c2cnn(C)c2n1
REMARK SMILES IDX 5 1 4 2 3 3 2 4 1 5 6 6 7 8 8 9 24 10 9 11 23 12 18 13 21 14
REMARK SMILES IDX 19 15 20 16 22 17 10 18 11 20 12 21 16 22 13 23 15 24 14 25
REMARK SMILES IDX 17 26
REMARK H PARENT 6 7 10 19
ROOT
ATOM      1  C   UNL     1       7.383  47.145  53.956  1.00  0.00     0.116 C 
ENDROOT
BRANCH   1   2
ATOM      2  C   UNL     1       8.745  47.438  54.596  1.00  0.00     0.021 C 
BRANCH   2   3
ATOM      3  C   UNL     1       9.917  47.192  53.640  1.00  0.00     0.002 C 
BRANCH   3   4
ATOM      4  C   UNL     1       9.474  46.836  52.219  1.00  0.00    -0.003 C 
ATOM      5  C   UNL     1      10.305  45.734  51.580  1.00  0.00     0.004 C 
ENDBRANCH   3   4
ENDBRANCH   2   3
ENDBRANCH   1   2
BRANCH   1   6
ATOM      6  N   UNL     1       6.462  46.613  54.945  1.00  0.00    -0.354 N 
ATOM      7  H   UNL     1       6.833  45.894  55.556  1.00  0.00     0.163 HD
BRANCH   6   8
ATOM      8  C   UNL     1       5.289  46.082  54.417  1.00  0.00     0.226 A 
ATOM      9  N   UNL     1       5.258  45.673  53.136  1.00  0.00    -0.195 NA
ATOM     10  N   UNL     1       4.265  46.026  55.276  1.00  0.00    -0.193 NA
ATOM     11  C   UNL     1       4.121  45.162  52.600  1.00  0.00     0.147 A 
ATOM     12  C   UNL     1       3.150  45.519  54.727  1.00  0.00     0.165 A 
ATOM     13  C   UNL     1       2.998  45.073  53.428  1.00  0.00     0.082 A 
ATOM     14  N   UNL     1       1.939  45.342  55.336  1.00  0.00    -0.250 N 
ATOM     15  C   UNL     1       1.655  44.646  53.368  1.00  0.00     0.149 A 
ATOM     16  N   UNL     1       1.002  44.799  54.527  1.00  0.00    -0.179 NA
ATOM     17  C   UNL     1       1.595  45.668  56.697  1.00  0.00     0.176 C 
BRANCH  11  18
ATOM     18  N   UNL     1       4.207  44.770  51.246  1.00  0.00    -0.338 N 
ATOM     19  H   UNL     1       3.225  44.694  50.970  1.00  0.00     0.168 HD
BRANCH  18  20
ATOM     20  C   UNL     1       4.938  43.653  50.778  1.00  0.00     0.058 A 
ATOM     21  C   UNL     1       4.344  42.385  50.844  1.00  0.00     0.027 A 
ATOM     22  C   UNL     1       6.215  43.769  50.200  1.00  0.00     0.064 A 
ATOM     23  C   UNL     1       5.008  41.259  50.353  1.00  0.00     0.002 A 
ATOM     24  C   UNL     1       6.879  42.643  49.708  1.00  0.00     0.023 A 
ATOM     25  C   UNL     1       6.274  41.388  49.784  1.00  0.00     0.002 A 
ATOM     26  Cl  UNL     1       7.012  45.299  50.096  1.00  0.00    -0.082 Cl
ENDBRANCH  18  20
ENDBRANCH  11  18
ENDBRANCH   6   8
ENDBRANCH   1   6
TORSDOF 7
ENDMDL
MODEL 7
REMARK VINA RESULT:    -8.037      2.588      6.559
REMARK INTER + INTRA:         -12.391
REMARK INTER:                 -11.577
REMARK INTRA:                  -0.815
REMARK UNBOUND:                -1.065
REMARK SMILES CCCCCNc1nc(Nc2ccccc2Cl)c2cnn(C)c2n1
REMARK SMILES IDX 5 1 4 2 3 3 2 4 1 5 6 6 7 8 8 9 24 10 9 11 23 12 18 13 21 14
REMARK SMILES IDX 19 15 20 16 22 17 10 18 11 20 12 21 16 22 13 23 15 24 14 25
REMARK SMILES IDX 17 26
REMARK H PARENT 6 7 10 19
ROOT
ATOM      1  C   UNL     1       6.531  46.977  52.367  1.00  0.00     0.116 C 
ENDROOT
BRANCH   1   2
ATOM      2  C   UNL     1       7.761  47.865  52.582  1.00  0.00     0.021 C 
BRANCH   2   3
ATOM      3  C   UNL     1       8.999  47.359  51.835  1.00  0.00     0.002 C 
BRANCH   3   4
ATOM      4  C   UNL     1      10.048  46.734  52.757  1.00  0.00    -0.003 C 
ATOM      5  C   UNL     1       9.933  47.186  54.205  1.00  0.00     0.004 C 
ENDBRANCH   3   4
ENDBRANCH   2   3
ENDBRANCH   1   2
BRANCH   1   6
ATOM      6  N   UNL     1       6.845  45.885  51.461  1.00  0.00    -0.354 N 
ATOM      7  H   UNL     1       6.936  46.132  50.483  1.00  0.00     0.163 HD
BRANCH   6   8
ATOM      8  C   UNL     1       5.943  44.826  51.494  1.00  0.00     0.226 A 
ATOM      9  N   UNL     1       4.996  44.785  52.449  1.00  0.00    -0.195 NA
ATOM     10  N   UNL     1       6.114  43.917  50.528  1.00  0.00    -0.193 NA
ATOM     11  C   UNL     1       4.114  43.755  52.504  1.00  0.00     0.147 A 
ATOM     12  C   UNL     1       5.234  42.907  50.601  1.00  0.00     0.165 A 
ATOM     13  C   UNL     1       4.225  42.755  51.534  1.00  0.00     0.082 A 
ATOM     14  N   UNL     1       5.152  41.822  49.772  1.00  0.00    -0.250 N 
ATOM     15  C   UNL     1       3.599  41.545  51.167  1.00  0.00     0.149 A 
ATOM     16  N   UNL     1       4.151  40.972  50.091  1.00  0.00    -0.179 NA
ATOM     17  C   UNL     1       6.000  41.526  48.645  1.00  0.00     0.176 C 
BRANCH  11  18
ATOM     18  N   UNL     1       3.169  43.818  53.552  1.00  0.00    -0.338 N 
ATOM     19  H   UNL     1       3.420  43.013  54.130  1.00  0.00     0.168 HD
BRANCH  18  20
ATOM     20  C   UNL     1       1.768  43.874  53.366  1.00  0.00     0.058 A 
ATOM     21  C   UNL     1       1.006  42.732  53.651  1.00  0.00     0.027 A 
ATOM     22  C   UNL     1       1.102  45.043  52.960  1.00  0.00     0.064 A 
ATOM     23  C   UNL     1      -0.386  42.753  53.527  1.00  0.00     0.002 A 
ATOM     24  C   UNL     1      -0.290  45.065  52.837  1.00  0.00     0.023 A 
ATOM     25  C   UNL     1      -1.033  43.919  53.122  1.00  0.00     0.002 A 
ATOM     26  Cl  UNL     1       1.979  46.485  52.583  1.00  0.00    -0.082 Cl
ENDBRANCH  18  20
ENDBRANCH  11  18
ENDBRANCH   6   8
ENDBRANCH   1   6
TORSDOF 7
ENDMDL
MODEL 8
REMARK VINA RESULT:    -8.037      2.274      6.259
REMARK INTER + INTRA:         -12.390
REMARK INTER:                 -11.536
REMARK INTRA:                  -0.855
REMARK UNBOUND:                -1.065
REMARK SMILES CCCCCNc1nc(Nc2ccccc2Cl)c2cnn(C)c2n1
REMARK SMILES IDX 5 1 4 2 3 3 2 4 1 5 6 6 7 8 8 9 24 10 9 11 23 12 18 13 21 14
REMARK SMILES IDX 19 15 20 16 22 17 10 18 11 20 12 21 16 22 13 23 15 24 14 25
REMARK SMILES IDX 17 26
REMARK H PARENT 6 7 10 19
ROOT
ATOM      1  C   UNL     1       5.766  41.475  49.669  1.00  0.00     0.116 C 
ENDROOT
BRANCH   1   2
ATOM      2  C   UNL     1       5.119  41.188  48.309  1.00  0.00     0.021 C 
BRANCH   2   3
ATOM      3  C   UNL     1       5.807  41.923  47.155  1.00  0.00     0.002 C 
BRANCH   3   4
ATOM      4  C   UNL     1       5.358  41.436  45.775  1.00  0.00    -0.003 C 
ATOM      5  C   UNL     1       5.119  42.563  44.780  1.00  0.00     0.004 C 
ENDBRANCH   3   4
ENDBRANCH   2   3
ENDBRANCH   1   2
BRANCH   1   6
ATOM      6  N   UNL     1       4.746  41.662  50.686  1.00  0.00    -0.354 N 
ATOM      7  H   UNL     1       3.800  41.417  50.417  1.00  0.00     0.163 HD
BRANCH   6   8
ATOM      8  C   UNL     1       4.664  42.955  51.195  1.00  0.00     0.226 A 
ATOM      9  N   UNL     1       5.547  43.888  50.792  1.00  0.00    -0.195 NA
ATOM     10  N   UNL     1       3.671  43.150  52.069  1.00  0.00    -0.193 NA
ATOM     11  C   UNL     1       5.490  45.151  51.285  1.00  0.00     0.147 A 
ATOM     12  C   UNL     1       3.633  44.404  52.545  1.00  0.00     0.165 A 
ATOM     13  C   UNL     1       4.484  45.441  52.211  1.00  0.00     0.082 A 
ATOM     14  N   UNL     1       2.749  44.914  53.455  1.00  0.00    -0.250 N 
ATOM     15  C   UNL     1       4.017  46.528  52.978  1.00  0.00     0.149 A 
ATOM     16  N   UNL     1       2.956  46.220  53.735  1.00  0.00    -0.179 NA
ATOM     17  C   UNL     1       1.672  44.212  54.107  1.00  0.00     0.176 C 
BRANCH  11  18
ATOM     18  N   UNL     1       6.470  46.041  50.793  1.00  0.00    -0.338 N 
ATOM     19  H   UNL     1       6.674  45.661  49.865  1.00  0.00     0.168 HD
BRANCH  18  20
ATOM     20  C   UNL     1       7.670  46.368  51.467  1.00  0.00     0.058 A 
ATOM     21  C   UNL     1       7.627  47.322  52.493  1.00  0.00     0.027 A 
ATOM     22  C   UNL     1       8.894  45.734  51.189  1.00  0.00     0.064 A 
ATOM     23  C   UNL     1       8.777  47.644  53.218  1.00  0.00     0.002 A 
ATOM     24  C   UNL     1      10.043  46.054  51.914  1.00  0.00     0.023 A 
ATOM     25  C   UNL     1       9.984  47.009  52.930  1.00  0.00     0.002 A 
ATOM     26  Cl  UNL     1       9.022  44.554  49.931  1.00  0.00    -0.082 Cl
ENDBRANCH  18  20
ENDBRANCH  11  18
ENDBRANCH   6   8
ENDBRANCH   1   6
TORSDOF 7
ENDMDL
MODEL 9
REMARK VINA RESULT:    -7.988      2.444      6.467
REMARK INTER + INTRA:         -12.322
REMARK INTER:                 -11.532
REMARK INTRA:                  -0.790
REMARK UNBOUND:                -1.065
REMARK SMILES CCCCCNc1nc(Nc2ccccc2Cl)c2cnn(C)c2n1
REMARK SMILES IDX 5 1 4 2 3 3 2 4 1 5 6 6 7 8 8 9 24 10 9 11 23 12 18 13 21 14
REMARK SMILES IDX 19 15 20 16 22 17 10 18 11 20 12 21 16 22 13 23 15 24 14 25
REMARK SMILES IDX 17 26
REMARK H PARENT 6 7 10 19
ROOT
ATOM      1  C   UNL     1       7.913  47.101  51.919  1.00  0.00     0.116 C 
ENDROOT
BRANCH   1   2
ATOM      2  C   UNL     1       9.433  47.166  52.103  1.00  0.00     0.021 C 
BRANCH   2   3
ATOM      3  C   UNL     1       9.894  46.599  53.450  1.00  0.00     0.002 C 
BRANCH   3   4
ATOM      4  C   UNL     1       9.575  47.517  54.633  1.00  0.00    -0.003 C 
ATOM      5  C   UNL     1      10.632  47.489  55.727  1.00  0.00     0.004 C 
ENDBRANCH   3   4
ENDBRANCH   2   3
ENDBRANCH   1   2
BRANCH   1   6
ATOM      6  N   UNL     1       7.579  46.347  50.723  1.00  0.00    -0.354 N 
ATOM      7  H   UNL     1       7.389  46.895  49.892  1.00  0.00     0.163 HD
BRANCH   6   8
ATOM      8  C   UNL     1       6.488  45.493  50.861  1.00  0.00     0.226 A 
ATOM      9  N   UNL     1       5.324  45.970  51.339  1.00  0.00    -0.195 NA
ATOM     10  N   UNL     1       6.716  44.230  50.486  1.00  0.00    -0.193 NA
ATOM     11  C   UNL     1       4.252  45.152  51.491  1.00  0.00     0.147 A 
ATOM     12  C   UNL     1       5.645  43.437  50.646  1.00  0.00     0.165 A 
ATOM     13  C   UNL     1       4.405  43.810  51.128  1.00  0.00     0.082 A 
ATOM     14  N   UNL     1       5.560  42.101  50.367  1.00  0.00    -0.250 N 
ATOM     15  C   UNL     1       3.651  42.619  51.093  1.00  0.00     0.149 A 
ATOM     16  N   UNL     1       4.343  41.572  50.624  1.00  0.00    -0.179 NA
ATOM     17  C   UNL     1       6.605  41.254  49.848  1.00  0.00     0.176 C 
BRANCH  11  18
ATOM     18  N   UNL     1       3.087  45.763  52.004  1.00  0.00    -0.338 N 
ATOM     19  H   UNL     1       3.297  46.760  51.913  1.00  0.00     0.168 HD
BRANCH  18  20
ATOM     20  C   UNL     1       2.530  45.490  53.276  1.00  0.00     0.058 A 
ATOM     21  C   UNL     1       1.444  44.607  53.359  1.00  0.00     0.027 A 
ATOM     22  C   UNL     1       3.056  46.024  54.465  1.00  0.00     0.064 A 
ATOM     23  C   UNL     1       0.890  44.272  54.597  1.00  0.00     0.002 A 
ATOM     24  C   UNL     1       2.504  45.688  55.703  1.00  0.00     0.023 A 
ATOM     25  C   UNL     1       1.421  44.810  55.768  1.00  0.00     0.002 A 
ATOM     26  Cl  UNL     1       4.388  47.126  54.436  1.00  0.00    -0.082 Cl
ENDBRANCH  18  20
ENDBRANCH  11  18
ENDBRANCH   6   8
ENDBRANCH   1   6
TORSDOF 7
ENDMDL
MODEL 10
REMARK VINA RESULT:    -7.960      1.189      1.537
REMARK INTER + INTRA:         -12.282
REMARK INTER:                 -11.263
REMARK INTRA:                  -1.019
REMARK UNBOUND:                -1.065
REMARK SMILES CCCCCNc1nc(Nc2ccccc2Cl)c2cnn(C)c2n1
REMARK SMILES IDX 5 1 4 2 3 3 2 4 1 5 6 6 7 8 8 9 24 10 9 11 23 12 18 13 21 14
REMARK SMILES IDX 19 15 20 16 22 17 10 18 11 20 12 21 16 22 13 23 15 24 14 25
REMARK SMILES IDX 17 26
REMARK H PARENT 6 7 10 19
ROOT
ATOM      1  C   UNL     1       3.577  46.720  54.563  1.00  0.00     0.116 C 
ENDROOT
BRANCH   1   2
ATOM      2  C   UNL     1       3.207  45.413  55.274  1.00  0.00     0.021 C 
BRANCH   2   3
ATOM      3  C   UNL     1       1.693  45.215  55.404  1.00  0.00     0.002 C 
BRANCH   3   4
ATOM      4  C   UNL     1       1.014  44.862  54.079  1.00  0.00    -0.003 C 
ATOM      5  C   UNL     1       0.911  43.365  53.827  1.00  0.00     0.004 C 
ENDBRANCH   3   4
ENDBRANCH   2   3
ENDBRANCH   1   2
BRANCH   1   6
ATOM      6  N   UNL     1       4.887  47.178  54.992  1.00  0.00    -0.354 N 
ATOM      7  H   UNL     1       4.963  48.164  55.211  1.00  0.00     0.163 HD
BRANCH   6   8
ATOM      8  C   UNL     1       5.916  46.918  54.092  1.00  0.00     0.226 A 
ATOM      9  N   UNL     1       5.627  46.438  52.869  1.00  0.00    -0.195 NA
ATOM     10  N   UNL     1       7.142  47.187  54.552  1.00  0.00    -0.193 NA
ATOM     11  C   UNL     1       6.617  46.168  51.981  1.00  0.00     0.147 A 
ATOM     12  C   UNL     1       8.107  46.913  53.660  1.00  0.00     0.165 A 
ATOM     13  C   UNL     1       7.933  46.415  52.382  1.00  0.00     0.082 A 
ATOM     14  N   UNL     1       9.455  47.067  53.830  1.00  0.00    -0.250 N 
ATOM     15  C   UNL     1       9.245  46.312  51.874  1.00  0.00     0.149 A 
ATOM     16  N   UNL     1      10.179  46.713  52.745  1.00  0.00    -0.179 NA
ATOM     17  C   UNL     1      10.132  47.550  55.007  1.00  0.00     0.176 C 
BRANCH  11  18
ATOM     18  N   UNL     1       6.194  45.665  50.730  1.00  0.00    -0.338 N 
ATOM     19  H   UNL     1       5.270  46.089  50.618  1.00  0.00     0.168 HD
BRANCH  18  20
ATOM     20  C   UNL     1       6.151  44.292  50.391  1.00  0.00     0.058 A 
ATOM     21  C   UNL     1       7.235  43.736  49.697  1.00  0.00     0.027 A 
ATOM     22  C   UNL     1       5.090  43.450  50.769  1.00  0.00     0.064 A 
ATOM     23  C   UNL     1       7.258  42.376  49.380  1.00  0.00     0.002 A 
ATOM     24  C   UNL     1       5.114  42.089  50.453  1.00  0.00     0.023 A 
ATOM     25  C   UNL     1       6.199  41.553  49.759  1.00  0.00     0.002 A 
ATOM     26  Cl  UNL     1       3.717  44.069  51.618  1.00  0.00    -0.082 Cl
ENDBRANCH  18  20
ENDBRANCH  11  18
ENDBRANCH   6   8
ENDBRANCH   1   6
TORSDOF 7
ENDMDL
MODEL 11
REMARK VINA RESULT:    -7.880      2.535      6.535
REMARK INTER + INTRA:         -12.169
REMARK INTER:                 -11.113
REMARK INTRA:                  -1.056
REMARK UNBOUND:                -1.065
REMARK SMILES CCCCCNc1nc(Nc2ccccc2Cl)c2cnn(C)c2n1
REMARK SMILES IDX 5 1 4 2 3 3 2 4 1 5 6 6 7 8 8 9 24 10 9 11 23 12 18 13 21 14
REMARK SMILES IDX 19 15 20 16 22 17 10 18 11 20 12 21 16 22 13 23 15 24 14 25
REMARK SMILES IDX 17 26
REMARK H PARENT 6 7 10 19
ROOT
ATOM      1  C   UNL     1       4.458  41.506  49.936  1.00  0.00     0.116 C 
ENDROOT
BRANCH   1   2
ATOM      2  C   UNL     1       5.758  41.309  49.148  1.00  0.00     0.021 C 
BRANCH   2   3
ATOM      3  C   UNL     1       6.392  42.632  48.705  1.00  0.00     0.002 C 
BRANCH   3   4
ATOM      4  C   UNL     1       7.646  42.998  49.503  1.00  0.00    -0.003 C 
ATOM      5  C   UNL     1       8.479  44.095  48.858  1.00  0.00     0.004 C 
ENDBRANCH   3   4
ENDBRANCH   2   3
ENDBRANCH   1   2
BRANCH   1   6
ATOM      6  N   UNL     1       4.747  41.771  51.334  1.00  0.00    -0.354 N 
ATOM      7  H   UNL     1       4.409  41.081  51.996  1.00  0.00     0.163 HD
BRANCH   6   8
ATOM      8  C   UNL     1       4.278  42.994  51.802  1.00  0.00     0.226 A 
ATOM      9  N   UNL     1       5.007  44.108  51.606  1.00  0.00    -0.195 NA
ATOM     10  N   UNL     1       3.095  42.939  52.423  1.00  0.00    -0.193 NA
ATOM     11  C   UNL     1       4.572  45.309  52.064  1.00  0.00     0.147 A 
ATOM     12  C   UNL     1       2.683  44.135  52.870  1.00  0.00     0.165 A 
ATOM     13  C   UNL     1       3.345  45.341  52.733  1.00  0.00     0.082 A 
ATOM     14  N   UNL     1       1.529  44.409  53.550  1.00  0.00    -0.250 N 
ATOM     15  C   UNL     1       2.495  46.272  53.365  1.00  0.00     0.149 A 
ATOM     16  N   UNL     1       1.382  45.716  53.862  1.00  0.00    -0.179 NA
ATOM     17  C   UNL     1       0.509  43.469  53.943  1.00  0.00     0.176 C 
BRANCH  11  18
ATOM     18  N   UNL     1       5.423  46.406  51.803  1.00  0.00    -0.338 N 
ATOM     19  H   UNL     1       5.412  46.461  50.782  1.00  0.00     0.168 HD
BRANCH  18  20
ATOM     20  C   UNL     1       6.746  46.529  52.290  1.00  0.00     0.058 A 
ATOM     21  C   UNL     1       7.809  46.419  51.383  1.00  0.00     0.027 A 
ATOM     22  C   UNL     1       7.035  46.812  53.636  1.00  0.00     0.064 A 
ATOM     23  C   UNL     1       9.130  46.578  51.809  1.00  0.00     0.002 A 
ATOM     24  C   UNL     1       8.356  46.973  54.062  1.00  0.00     0.023 A 
ATOM     25  C   UNL     1       9.403  46.857  53.147  1.00  0.00     0.002 A 
ATOM     26  Cl  UNL     1       5.774  46.952  54.811  1.00  0.00    -0.082 Cl
ENDBRANCH  18  20
ENDBRANCH  11  18
ENDBRANCH   6   8
ENDBRANCH   1   6
TORSDOF 7
ENDMDL
MODEL 12
REMARK VINA RESULT:    -7.837      2.139      4.570
REMARK INTER + INTRA:         -12.110
REMARK INTER:                 -10.704
REMARK INTRA:                  -1.405
REMARK UNBOUND:                -1.065
REMARK SMILES CCCCCNc1nc(Nc2ccccc2Cl)c2cnn(C)c2n1
REMARK SMILES IDX 5 1 4 2 3 3 2 4 1 5 6 6 7 8 8 9 24 10 9 11 23 12 18 13 21 14
REMARK SMILES IDX 19 15 20 16 22 17 10 18 11 20 12 21 16 22 13 23 15 24 14 25
REMARK SMILES IDX 17 26
REMARK H PARENT 6 7 10 19
ROOT
ATOM      1  C   UNL     1       7.848  43.718  49.572  1.00  0.00     0.116 C 
ENDROOT
BRANCH   1   2
ATOM      2  C   UNL     1       6.664  42.887  49.066  1.00  0.00     0.021 C 
BRANCH   2   3
ATOM      3  C   UNL     1       6.233  41.801  50.057  1.00  0.00     0.002 C 
BRANCH   3   4
ATOM      4  C   UNL     1       4.840  42.039  50.646  1.00  0.00    -0.003 C 
ATOM      5  C   UNL     1       3.771  41.119  50.074  1.00  0.00     0.004 C 
ENDBRANCH   3   4
ENDBRANCH   2   3
ENDBRANCH   1   2
BRANCH   1   6
ATOM      6  N   UNL     1       7.520  45.133  49.551  1.00  0.00    -0.354 N 
ATOM      7  H   UNL     1       8.257  45.755  49.238  1.00  0.00     0.163 HD
BRANCH   6   8
ATOM      8  C   UNL     1       7.092  45.648  50.771  1.00  0.00     0.226 A 
ATOM      9  N   UNL     1       5.777  45.813  51.001  1.00  0.00    -0.195 NA
ATOM     10  N   UNL     1       8.075  45.938  51.630  1.00  0.00    -0.193 NA
ATOM     11  C   UNL     1       5.341  46.324  52.181  1.00  0.00     0.147 A 
ATOM     12  C   UNL     1       7.623  46.443  52.789  1.00  0.00     0.165 A 
ATOM     13  C   UNL     1       6.303  46.661  53.136  1.00  0.00     0.082 A 
ATOM     14  N   UNL     1       8.372  46.845  53.860  1.00  0.00    -0.250 N 
ATOM     15  C   UNL     1       6.377  47.194  54.440  1.00  0.00     0.149 A 
ATOM     16  N   UNL     1       7.632  47.305  54.893  1.00  0.00    -0.179 NA
ATOM     17  C   UNL     1       9.809  46.822  53.974  1.00  0.00     0.176 C 
BRANCH  11  18
ATOM     18  N   UNL     1       3.940  46.455  52.307  1.00  0.00    -0.338 N 
ATOM     19  H   UNL     1       3.842  46.998  53.168  1.00  0.00     0.168 HD
BRANCH  18  20
ATOM     20  C   UNL     1       3.029  45.373  52.299  1.00  0.00     0.058 A 
ATOM     21  C   UNL     1       2.425  45.011  51.087  1.00  0.00     0.027 A 
ATOM     22  C   UNL     1       2.746  44.611  53.446  1.00  0.00     0.064 A 
ATOM     23  C   UNL     1       1.554  43.921  51.021  1.00  0.00     0.002 A 
ATOM     24  C   UNL     1       1.876  43.520  53.380  1.00  0.00     0.023 A 
ATOM     25  C   UNL     1       1.280  43.175  52.166  1.00  0.00     0.002 A 
ATOM     26  Cl  UNL     1       3.447  45.006  54.976  1.00  0.00    -0.082 Cl
ENDBRANCH  18  20
ENDBRANCH  11  18
ENDBRANCH   6   8
ENDBRANCH   1   6
TORSDOF 7
ENDMDL
MODEL 13
REMARK VINA RESULT:    -7.837      2.726      6.615
REMARK INTER + INTRA:         -12.109
REMARK INTER:                 -11.411
REMARK INTRA:                  -0.698
REMARK UNBOUND:                -1.065
REMARK SMILES CCCCCNc1nc(Nc2ccccc2Cl)c2cnn(C)c2n1
REMARK SMILES IDX 5 1 4 2 3 3 2 4 1 5 6 6 7 8 8 9 24 10 9 11 23 12 18 13 21 14
REMARK SMILES IDX 19 15 20 16 22 17 10 18 11 20 12 21 16 22 13 23 15 24 14 25
REMARK SMILES IDX 17 26
REMARK H PARENT 6 7 10 19
ROOT
ATOM      1  C   UNL     1       5.984  41.759  49.748  1.00  0.00     0.116 C 
ENDROOT
BRANCH   1   2
ATOM      2  C   UNL     1       5.420  41.191  48.441  1.00  0.00     0.021 C 
BRANCH   2   3
ATOM      3  C   UNL     1       5.790  42.034  47.217  1.00  0.00     0.002 C 
BRANCH   3   4
ATOM      4  C   UNL     1       5.118  41.555  45.927  1.00  0.00    -0.003 C 
ATOM      5  C   UNL     1       5.227  42.548  44.779  1.00  0.00     0.004 C 
ENDBRANCH   3   4
ENDBRANCH   2   3
ENDBRANCH   1   2
BRANCH   1   6
ATOM      6  N   UNL     1       5.013  41.625  50.820  1.00  0.00    -0.354 N 
ATOM      7  H   UNL     1       4.147  41.157  50.579  1.00  0.00     0.163 HD
BRANCH   6   8
ATOM      8  C   UNL     1       4.634  42.825  51.413  1.00  0.00     0.226 A 
ATOM      9  N   UNL     1       5.395  43.922  51.246  1.00  0.00    -0.195 NA
ATOM     10  N   UNL     1       3.499  42.766  52.117  1.00  0.00    -0.193 NA
ATOM     11  C   UNL     1       5.047  45.099  51.824  1.00  0.00     0.147 A 
ATOM     12  C   UNL     1       3.173  43.939  52.682  1.00  0.00     0.165 A 
ATOM     13  C   UNL     1       3.875  45.126  52.586  1.00  0.00     0.082 A 
ATOM     14  N   UNL     1       2.085  44.203  53.468  1.00  0.00    -0.250 N 
ATOM     15  C   UNL     1       3.115  46.036  53.350  1.00  0.00     0.149 A 
ATOM     16  N   UNL     1       2.019  45.486  53.886  1.00  0.00    -0.179 NA
ATOM     17  C   UNL     1       1.057  43.275  53.866  1.00  0.00     0.176 C 
BRANCH  11  18
ATOM     18  N   UNL     1       5.924  46.180  51.582  1.00  0.00    -0.338 N 
ATOM     19  H   UNL     1       5.919  46.249  50.561  1.00  0.00     0.168 HD
BRANCH  18  20
ATOM     20  C   UNL     1       7.247  46.266  52.076  1.00  0.00     0.058 A 
ATOM     21  C   UNL     1       8.312  46.065  51.186  1.00  0.00     0.027 A 
ATOM     22  C   UNL     1       7.539  46.601  53.410  1.00  0.00     0.064 A 
ATOM     23  C   UNL     1       9.635  46.185  51.617  1.00  0.00     0.002 A 
ATOM     24  C   UNL     1       8.862  46.722  53.841  1.00  0.00     0.023 A 
ATOM     25  C   UNL     1       9.910  46.515  52.943  1.00  0.00     0.002 A 
ATOM     26  Cl  UNL     1       6.277  46.854  54.563  1.00  0.00    -0.082 Cl
ENDBRANCH  18  20
ENDBRANCH  11  18
ENDBRANCH   6   8
ENDBRANCH   1   6
TORSDOF 7
ENDMDL
MODEL 14
REMARK VINA RESULT:    -7.800      2.630      6.638
REMARK INTER + INTRA:         -12.058
REMARK INTER:                 -11.235
REMARK INTRA:                  -0.822
REMARK UNBOUND:                -1.065
REMARK SMILES CCCCCNc1nc(Nc2ccccc2Cl)c2cnn(C)c2n1
REMARK SMILES IDX 5 1 4 2 3 3 2 4 1 5 6 6 7 8 8 9 24 10 9 11 23 12 18 13 21 14
REMARK SMILES IDX 19 15 20 16 22 17 10 18 11 20 12 21 16 22 13 23 15 24 14 25
REMARK SMILES IDX 17 26
REMARK H PARENT 6 7 10 19
ROOT
ATOM      1  C   UNL     1       8.631  45.972  51.195  1.00  0.00     0.116 C 
ENDROOT
BRANCH   1   2
ATOM      2  C   UNL     1       9.681  46.785  51.960  1.00  0.00     0.021 C 
BRANCH   2   3
ATOM      3  C   UNL     1       9.808  46.363  53.428  1.00  0.00     0.002 C 
BRANCH   3   4
ATOM      4  C   UNL     1       9.578  47.515  54.410  1.00  0.00    -0.003 C 
ATOM      5  C   UNL     1      10.522  47.495  55.603  1.00  0.00     0.004 C 
ENDBRANCH   3   4
ENDBRANCH   2   3
ENDBRANCH   1   2
BRANCH   1   6
ATOM      6  N   UNL     1       7.335  46.627  51.262  1.00  0.00    -0.354 N 
ATOM      7  H   UNL     1       7.193  47.250  52.049  1.00  0.00     0.163 HD
BRANCH   6   8
ATOM      8  C   UNL     1       6.247  45.759  51.275  1.00  0.00     0.226 A 
ATOM      9  N   UNL     1       5.047  46.201  51.693  1.00  0.00    -0.195 NA
ATOM     10  N   UNL     1       6.516  44.520  50.849  1.00  0.00    -0.193 NA
ATOM     11  C   UNL     1       3.976  45.367  51.723  1.00  0.00     0.147 A 
ATOM     12  C   UNL     1       5.445  43.712  50.887  1.00  0.00     0.165 A 
ATOM     13  C   UNL     1       4.169  44.049  51.299  1.00  0.00     0.082 A 
ATOM     14  N   UNL     1       5.394  42.393  50.530  1.00  0.00    -0.250 N 
ATOM     15  C   UNL     1       3.433  42.856  51.144  1.00  0.00     0.149 A 
ATOM     16  N   UNL     1       4.168  41.842  50.670  1.00  0.00    -0.179 NA
ATOM     17  C   UNL     1       6.483  41.583  50.042  1.00  0.00     0.176 C 
BRANCH  11  18
ATOM     18  N   UNL     1       2.770  45.940  52.183  1.00  0.00    -0.338 N 
ATOM     19  H   UNL     1       2.984  46.940  52.189  1.00  0.00     0.168 HD
BRANCH  18  20
ATOM     20  C   UNL     1       2.110  45.570  53.379  1.00  0.00     0.058 A 
ATOM     21  C   UNL     1       2.807  45.672  54.591  1.00  0.00     0.027 A 
ATOM     22  C   UNL     1       0.767  45.157  53.407  1.00  0.00     0.064 A 
ATOM     23  C   UNL     1       2.183  45.361  55.801  1.00  0.00     0.002 A 
ATOM     24  C   UNL     1       0.142  44.847  54.618  1.00  0.00     0.023 A 
ATOM     25  C   UNL     1       0.851  44.951  55.815  1.00  0.00     0.002 A 
ATOM     26  Cl  UNL     1      -0.150  44.999  51.950  1.00  0.00    -0.082 Cl
ENDBRANCH  18  20
ENDBRANCH  11  18
ENDBRANCH   6   8
ENDBRANCH   1   6
TORSDOF 7
ENDMDL
MODEL 15
REMARK VINA RESULT:    -7.784      2.474      5.324
REMARK INTER + INTRA:         -12.035
REMARK INTER:                 -11.096
REMARK INTRA:                  -0.939
REMARK UNBOUND:                -1.065
REMARK SMILES CCCCCNc1nc(Nc2ccccc2Cl)c2cnn(C)c2n1
REMARK SMILES IDX 5 1 4 2 3 3 2 4 1 5 6 6 7 8 8 9 24 10 9 11 23 12 18 13 21 14
REMARK SMILES IDX 19 15 20 16 22 17 10 18 11 20 12 21 16 22 13 23 15 24 14 25
REMARK SMILES IDX 17 26
REMARK H PARENT 6 7 10 19
ROOT
ATOM      1  C   UNL     1       1.192  44.592  53.558  1.00  0.00     0.116 C 
ENDROOT
BRANCH   1   2
ATOM      2  C   UNL     1       0.155  43.488  53.790  1.00  0.00     0.021 C 
BRANCH   2   3
ATOM      3  C   UNL     1       0.084  42.485  52.634  1.00  0.00     0.002 C 
BRANCH   3   4
ATOM      4  C   UNL     1       0.075  43.150  51.256  1.00  0.00    -0.003 C 
ATOM      5  C   UNL     1      -1.286  43.699  50.854  1.00  0.00     0.004 C 
ENDBRANCH   3   4
ENDBRANCH   2   3
ENDBRANCH   1   2
BRANCH   1   6
ATOM      6  N   UNL     1       2.505  44.156  54.001  1.00  0.00    -0.354 N 
ATOM      7  H   UNL     1       2.889  44.647  54.801  1.00  0.00     0.163 HD
BRANCH   6   8
ATOM      8  C   UNL     1       3.494  44.209  53.024  1.00  0.00     0.226 A 
ATOM      9  N   UNL     1       4.274  45.301  52.922  1.00  0.00    -0.195 NA
ATOM     10  N   UNL     1       3.577  43.120  52.253  1.00  0.00    -0.193 NA
ATOM     11  C   UNL     1       5.238  45.376  51.969  1.00  0.00     0.147 A 
ATOM     12  C   UNL     1       4.533  43.214  51.316  1.00  0.00     0.165 A 
ATOM     13  C   UNL     1       5.389  44.281  51.113  1.00  0.00     0.082 A 
ATOM     14  N   UNL     1       4.859  42.280  50.373  1.00  0.00    -0.250 N 
ATOM     15  C   UNL     1       6.187  43.877  50.023  1.00  0.00     0.149 A 
ATOM     16  N   UNL     1       5.877  42.657  49.568  1.00  0.00    -0.179 NA
ATOM     17  C   UNL     1       4.238  40.994  50.174  1.00  0.00     0.176 C 
BRANCH  11  18
ATOM     18  N   UNL     1       5.990  46.571  51.956  1.00  0.00    -0.338 N 
ATOM     19  H   UNL     1       5.932  46.863  50.978  1.00  0.00     0.168 HD
BRANCH  18  20
ATOM     20  C   UNL     1       7.319  46.688  52.427  1.00  0.00     0.058 A 
ATOM     21  C   UNL     1       8.369  46.633  51.500  1.00  0.00     0.027 A 
ATOM     22  C   UNL     1       7.628  46.913  53.780  1.00  0.00     0.064 A 
ATOM     23  C   UNL     1       9.695  46.789  51.911  1.00  0.00     0.002 A 
ATOM     24  C   UNL     1       8.953  47.071  54.192  1.00  0.00     0.023 A 
ATOM     25  C   UNL     1       9.986  47.009  53.256  1.00  0.00     0.002 A 
ATOM     26  Cl  UNL     1       6.385  46.983  54.980  1.00  0.00    -0.082 Cl
ENDBRANCH  18  20
ENDBRANCH  11  18
ENDBRANCH   6   8
ENDBRANCH   1   6
TORSDOF 7
ENDMDL
MODEL 16
REMARK VINA RESULT:    -7.694      1.825      5.744
REMARK INTER + INTRA:         -11.907
REMARK INTER:                 -11.067
REMARK INTRA:                  -0.840
REMARK UNBOUND:                -1.065
REMARK SMILES CCCCCNc1nc(Nc2ccccc2Cl)c2cnn(C)c2n1
REMARK SMILES IDX 5 1 4 2 3 3 2 4 1 5 6 6 7 8 8 9 24 10 9 11 23 12 18 13 21 14
REMARK SMILES IDX 19 15 20 16 22 17 10 18 11 20 12 21 16 22 13 23 15 24 14 25
REMARK SMILES IDX 17 26
REMARK H PARENT 6 7 10 19
ROOT
ATOM      1  C   UNL     1       3.907  42.027  51.311  1.00  0.00     0.116 C 
ENDROOT
BRANCH   1   2
ATOM      2  C   UNL     1       3.875  41.020  50.155  1.00  0.00     0.021 C 
BRANCH   2   3
ATOM      3  C   UNL     1       5.026  41.216  49.163  1.00  0.00     0.002 C 
BRANCH   3   4
ATOM      4  C   UNL     1       6.385  41.402  49.842  1.00  0.00    -0.003 C 
ATOM      5  C   UNL     1       7.116  42.663  49.406  1.00  0.00     0.004 C 
ENDBRANCH   3   4
ENDBRANCH   2   3
ENDBRANCH   1   2
BRANCH   1   6
ATOM      6  N   UNL     1       3.951  43.385  50.799  1.00  0.00    -0.354 N 
ATOM      7  H   UNL     1       4.644  43.568  50.083  1.00  0.00     0.163 HD
BRANCH   6   8
ATOM      8  C   UNL     1       4.152  44.364  51.768  1.00  0.00     0.226 A 
ATOM      9  N   UNL     1       5.102  45.299  51.585  1.00  0.00    -0.195 NA
ATOM     10  N   UNL     1       3.343  44.274  52.829  1.00  0.00    -0.193 NA
ATOM     11  C   UNL     1       5.320  46.255  52.523  1.00  0.00     0.147 A 
ATOM     12  C   UNL     1       3.575  45.227  53.744  1.00  0.00     0.165 A 
ATOM     13  C   UNL     1       4.521  46.232  53.670  1.00  0.00     0.082 A 
ATOM     14  N   UNL     1       2.929  45.400  54.937  1.00  0.00    -0.250 N 
ATOM     15  C   UNL     1       4.351  46.952  54.871  1.00  0.00     0.149 A 
ATOM     16  N   UNL     1       3.380  46.458  55.647  1.00  0.00    -0.179 NA
ATOM     17  C   UNL     1       1.862  44.591  55.472  1.00  0.00     0.176 C 
BRANCH  11  18
ATOM     18  N   UNL     1       6.345  47.180  52.223  1.00  0.00    -0.338 N 
ATOM     19  H   UNL     1       6.324  47.216  51.201  1.00  0.00     0.168 HD
BRANCH  18  20
ATOM     20  C   UNL     1       7.678  47.078  52.685  1.00  0.00     0.058 A 
ATOM     21  C   UNL     1       8.002  47.629  53.933  1.00  0.00     0.027 A 
ATOM     22  C   UNL     1       8.680  46.399  51.970  1.00  0.00     0.064 A 
ATOM     23  C   UNL     1       9.294  47.514  54.451  1.00  0.00     0.002 A 
ATOM     24  C   UNL     1       9.972  46.282  52.488  1.00  0.00     0.023 A 
ATOM     25  C   UNL     1      10.277  46.840  53.731  1.00  0.00     0.002 A 
ATOM     26  Cl  UNL     1       8.355  45.704  50.421  1.00  0.00    -0.082 Cl
ENDBRANCH  18  20
ENDBRANCH  11  18
ENDBRANCH   6   8
ENDBRANCH   1   6
TORSDOF 7
ENDMDL
MODEL 17
REMARK VINA RESULT:    -7.624      3.486      7.410
REMARK INTER + INTRA:         -11.809
REMARK INTER:                 -10.505
REMARK INTRA:                  -1.305
REMARK UNBOUND:                -1.065
REMARK SMILES CCCCCNc1nc(Nc2ccccc2Cl)c2cnn(C)c2n1
REMARK SMILES IDX 5 1 4 2 3 3 2 4 1 5 6 6 7 8 8 9 24 10 9 11 23 12 18 13 21 14
REMARK SMILES IDX 19 15 20 16 22 17 10 18 11 20 12 21 16 22 13 23 15 24 14 25
REMARK SMILES IDX 17 26
REMARK H PARENT 6 7 10 19
ROOT
ATOM      1  C   UNL     1       4.735  41.545  50.830  1.00  0.00     0.116 C 
ENDROOT
BRANCH   1   2
ATOM      2  C   UNL     1       5.591  41.545  49.558  1.00  0.00     0.021 C 
BRANCH   2   3
ATOM      3  C   UNL     1       6.426  42.820  49.403  1.00  0.00     0.002 C 
BRANCH   3   4
ATOM      4  C   UNL     1       6.050  43.915  50.405  1.00  0.00    -0.003 C 
ATOM      5  C   UNL     1       7.012  45.094  50.407  1.00  0.00     0.004 C 
ENDBRANCH   3   4
ENDBRANCH   2   3
ENDBRANCH   1   2
BRANCH   1   6
ATOM      6  N   UNL     1       3.322  41.539  50.491  1.00  0.00    -0.354 N 
ATOM      7  H   UNL     1       3.100  41.678  49.512  1.00  0.00     0.163 HD
BRANCH   6   8
ATOM      8  C   UNL     1       2.556  42.474  51.181  1.00  0.00     0.226 A 
ATOM      9  N   UNL     1       3.082  43.115  52.241  1.00  0.00    -0.195 NA
ATOM     10  N   UNL     1       1.321  42.650  50.699  1.00  0.00    -0.193 NA
ATOM     11  C   UNL     1       2.347  44.022  52.933  1.00  0.00     0.147 A 
ATOM     12  C   UNL     1       0.611  43.548  51.398  1.00  0.00     0.165 A 
ATOM     13  C   UNL     1       1.040  44.264  52.501  1.00  0.00     0.082 A 
ATOM     14  N   UNL     1      -0.678  43.941  51.167  1.00  0.00    -0.250 N 
ATOM     15  C   UNL     1      -0.073  45.058  52.848  1.00  0.00     0.149 A 
ATOM     16  N   UNL     1      -1.123  44.873  52.038  1.00  0.00    -0.179 NA
ATOM     17  C   UNL     1      -1.557  43.467  50.127  1.00  0.00     0.176 C 
BRANCH  11  18
ATOM     18  N   UNL     1       3.002  44.629  54.028  1.00  0.00    -0.338 N 
ATOM     19  H   UNL     1       2.264  45.203  54.442  1.00  0.00     0.168 HD
BRANCH  18  20
ATOM     20  C   UNL     1       4.207  45.365  53.935  1.00  0.00     0.058 A 
ATOM     21  C   UNL     1       5.364  44.840  54.529  1.00  0.00     0.027 A 
ATOM     22  C   UNL     1       4.304  46.574  53.225  1.00  0.00     0.064 A 
ATOM     23  C   UNL     1       6.586  45.509  54.424  1.00  0.00     0.002 A 
ATOM     24  C   UNL     1       5.526  47.242  53.119  1.00  0.00     0.023 A 
ATOM     25  C   UNL     1       6.668  46.708  53.719  1.00  0.00     0.002 A 
ATOM     26  Cl  UNL     1       2.917  47.284  52.476  1.00  0.00    -0.082 Cl
ENDBRANCH  18  20
ENDBRANCH  11  18
ENDBRANCH   6   8
ENDBRANCH   1   6
TORSDOF 7
ENDMDL
MODEL 18
REMARK VINA RESULT:    -7.575      2.661      6.132
REMARK INTER + INTRA:         -11.739
REMARK INTER:                 -11.122
REMARK INTRA:                  -0.617
REMARK UNBOUND:                -1.065
REMARK SMILES CCCCCNc1nc(Nc2ccccc2Cl)c2cnn(C)c2n1
REMARK SMILES IDX 5 1 4 2 3 3 2 4 1 5 6 6 7 8 8 9 24 10 9 11 23 12 18 13 21 14
REMARK SMILES IDX 19 15 20 16 22 17 10 18 11 20 12 21 16 22 13 23 15 24 14 25
REMARK SMILES IDX 17 26
REMARK H PARENT 6 7 10 19
ROOT
ATOM      1  C   UNL     1       5.792  45.271  55.220  1.00  0.00     0.116 C 
ENDROOT
BRANCH   1   2
ATOM      2  C   UNL     1       6.410  46.503  54.549  1.00  0.00     0.021 C 
BRANCH   2   3
ATOM      3  C   UNL     1       7.567  46.151  53.609  1.00  0.00     0.002 C 
BRANCH   3   4
ATOM      4  C   UNL     1       8.875  46.860  53.968  1.00  0.00    -0.003 C 
ATOM      5  C   UNL     1       9.908  46.834  52.851  1.00  0.00     0.004 C 
ENDBRANCH   3   4
ENDBRANCH   2   3
ENDBRANCH   1   2
BRANCH   1   6
ATOM      6  N   UNL     1       4.482  45.591  55.760  1.00  0.00    -0.354 N 
ATOM      7  H   UNL     1       4.304  45.280  56.708  1.00  0.00     0.163 HD
BRANCH   6   8
ATOM      8  C   UNL     1       3.412  45.115  55.007  1.00  0.00     0.226 A 
ATOM      9  N   UNL     1       3.625  44.660  53.759  1.00  0.00    -0.195 NA
ATOM     10  N   UNL     1       2.229  45.156  55.629  1.00  0.00    -0.193 NA
ATOM     11  C   UNL     1       2.594  44.201  53.006  1.00  0.00     0.147 A 
ATOM     12  C   UNL     1       1.223  44.699  54.867  1.00  0.00     0.165 A 
ATOM     13  C   UNL     1       1.318  44.214  53.577  1.00  0.00     0.082 A 
ATOM     14  N   UNL     1      -0.099  44.622  55.208  1.00  0.00    -0.250 N 
ATOM     15  C   UNL     1      -0.008  43.870  53.242  1.00  0.00     0.149 A 
ATOM     16  N   UNL     1      -0.879  44.108  54.230  1.00  0.00    -0.179 NA
ATOM     17  C   UNL     1      -0.699  45.021  56.456  1.00  0.00     0.176 C 
BRANCH  11  18
ATOM     18  N   UNL     1       2.937  43.753  51.711  1.00  0.00    -0.338 N 
ATOM     19  H   UNL     1       2.671  42.766  51.736  1.00  0.00     0.168 HD
BRANCH  18  20
ATOM     20  C   UNL     1       4.215  43.904  51.121  1.00  0.00     0.058 A 
ATOM     21  C   UNL     1       4.756  45.193  51.011  1.00  0.00     0.027 A 
ATOM     22  C   UNL     1       4.986  42.811  50.692  1.00  0.00     0.064 A 
ATOM     23  C   UNL     1       6.033  45.387  50.478  1.00  0.00     0.002 A 
ATOM     24  C   UNL     1       6.264  43.005  50.160  1.00  0.00     0.023 A 
ATOM     25  C   UNL     1       6.786  44.295  50.054  1.00  0.00     0.002 A 
ATOM     26  Cl  UNL     1       4.378  41.195  50.789  1.00  0.00    -0.082 Cl
ENDBRANCH  18  20
ENDBRANCH  11  18
ENDBRANCH   6   8
ENDBRANCH   1   6
TORSDOF 7
ENDMDL
MODEL 19
REMARK VINA RESULT:    -7.561      1.884      4.941
REMARK INTER + INTRA:         -11.720
REMARK INTER:                 -10.914
REMARK INTRA:                  -0.806
REMARK UNBOUND:                -1.065
REMARK SMILES CCCCCNc1nc(Nc2ccccc2Cl)c2cnn(C)c2n1
REMARK SMILES IDX 5 1 4 2 3 3 2 4 1 5 6 6 7 8 8 9 24 10 9 11 23 12 18 13 21 14
REMARK SMILES IDX 19 15 20 16 22 17 10 18 11 20 12 21 16 22 13 23 15 24 14 25
REMARK SMILES IDX 17 26
REMARK H PARENT 6 7 10 19
ROOT
ATOM      1  C   UNL     1       3.222  45.669  54.498  1.00  0.00     0.116 C 
ENDROOT
BRANCH   1   2
ATOM      2  C   UNL     1       2.187  44.914  55.341  1.00  0.00     0.021 C 
BRANCH   2   3
ATOM      3  C   UNL     1       1.150  44.175  54.489  1.00  0.00     0.002 C 
BRANCH   3   4
ATOM      4  C   UNL     1      -0.294  44.545  54.838  1.00  0.00    -0.003 C 
ATOM      5  C   UNL     1      -0.489  44.929  56.297  1.00  0.00     0.004 C 
ENDBRANCH   3   4
ENDBRANCH   2   3
ENDBRANCH   1   2
BRANCH   1   6
ATOM      6  N   UNL     1       2.882  45.591  53.088  1.00  0.00    -0.354 N 
ATOM      7  H   UNL     1       2.075  45.023  52.857  1.00  0.00     0.163 HD
BRANCH   6   8
ATOM      8  C   UNL     1       3.907  45.130  52.269  1.00  0.00     0.226 A 
ATOM      9  N   UNL     1       4.949  45.934  51.987  1.00  0.00    -0.195 NA
ATOM     10  N   UNL     1       3.750  43.878  51.827  1.00  0.00    -0.193 NA
ATOM     11  C   UNL     1       5.954  45.506  51.182  1.00  0.00     0.147 A 
ATOM     12  C   UNL     1       4.752  43.474  51.032  1.00  0.00     0.165 A 
ATOM     13  C   UNL     1       5.866  44.209  50.669  1.00  0.00     0.082 A 
ATOM     14  N   UNL     1       4.879  42.260  50.416  1.00  0.00    -0.250 N 
ATOM     15  C   UNL     1       6.596  43.334  49.837  1.00  0.00     0.149 A 
ATOM     16  N   UNL     1       6.007  42.142  49.681  1.00  0.00    -0.179 NA
ATOM     17  C   UNL     1       3.959  41.152  50.483  1.00  0.00     0.176 C 
BRANCH  11  18
ATOM     18  N   UNL     1       6.991  46.438  50.954  1.00  0.00    -0.338 N 
ATOM     19  H   UNL     1       7.374  46.133  50.056  1.00  0.00     0.168 HD
BRANCH  18  20
ATOM     20  C   UNL     1       8.036  46.715  51.867  1.00  0.00     0.058 A 
ATOM     21  C   UNL     1       7.785  47.595  52.929  1.00  0.00     0.027 A 
ATOM     22  C   UNL     1       9.298  46.102  51.785  1.00  0.00     0.064 A 
ATOM     23  C   UNL     1       8.771  47.865  53.881  1.00  0.00     0.002 A 
ATOM     24  C   UNL     1      10.284  46.370  52.738  1.00  0.00     0.023 A 
ATOM     25  C   UNL     1      10.019  47.251  53.787  1.00  0.00     0.002 A 
ATOM     26  Cl  UNL     1       9.680  45.013  50.498  1.00  0.00    -0.082 Cl
ENDBRANCH  18  20
ENDBRANCH  11  18
ENDBRANCH   6   8
ENDBRANCH   1   6
TORSDOF 7
ENDMDL
