MODEL 1
REMARK VINA RESULT:    -7.814      0.000      0.000
REMARK INTER + INTRA:         -11.819
REMARK INTER:                 -10.555
REMARK INTRA:                  -1.264
REMARK UNBOUND:                -1.264
REMARK SMILES C[NH+](C)CCCNc1nc(-c2ccc(Cl)cc2)nc2c1CCC2
REMARK SMILES IDX 6 1 5 2 4 3 2 4 1 5 3 6 7 8 8 10 9 11 20 12 10 13 19 14
REMARK SMILES IDX 21 15 18 16 23 17 22 18 11 19 12 20 17 21 13 22 16 23 14 24
REMARK SMILES IDX 15 25
REMARK H PARENT 2 7 7 9
ROOT
ATOM      1  C   UNL     1       4.722  45.082  55.320  1.00  0.00     0.120 C 
ENDROOT
BRANCH   1   2
ATOM      2  C   UNL     1       3.560  46.075  55.349  1.00  0.00     0.082 C 
BRANCH   2   3
ATOM      3  C   UNL     1       2.425  45.588  54.456  1.00  0.00     0.263 C 
BRANCH   3   4
ATOM      4  N   UNL     1       2.750  45.819  52.991  1.00  0.00    -0.340 N 
ATOM      5  C   UNL     1       1.623  45.354  52.103  1.00  0.00     0.332 C 
ATOM      6  C   UNL     1       3.130  47.239  52.671  1.00  0.00     0.332 C 
ATOM      7  H   UNL     1       3.559  45.227  52.757  1.00  0.00     0.347 HD
ENDBRANCH   3   4
ENDBRANCH   2   3
ENDBRANCH   1   2
BRANCH   1   8
ATOM      8  N   UNL     1       5.929  45.777  54.895  1.00  0.00    -0.369 N 
ATOM      9  H   UNL     1       6.744  45.564  55.467  1.00  0.00     0.162 HD
BRANCH   8  10
ATOM     10  C   UNL     1       6.281  45.540  53.550  1.00  0.00     0.133 A 
ATOM     11  N   UNL     1       5.714  44.530  52.866  1.00  0.00    -0.211 NA
ATOM     12  C   UNL     1       7.174  46.376  52.932  1.00  0.00     0.016 A 
ATOM     13  C   UNL     1       6.076  44.347  51.568  1.00  0.00     0.161 A 
ATOM     14  C   UNL     1       7.484  46.110  51.615  1.00  0.00     0.050 A 
ATOM     15  C   UNL     1       7.936  47.551  53.440  1.00  0.00     0.042 C 
ATOM     16  N   UNL     1       6.968  45.107  50.904  1.00  0.00    -0.233 NA
ATOM     17  C   UNL     1       8.509  47.077  51.094  1.00  0.00     0.057 C 
ATOM     18  C   UNL     1       8.388  48.206  52.125  1.00  0.00     0.011 C 
BRANCH  13  19
ATOM     19  C   UNL     1       5.450  43.225  50.834  1.00  0.00     0.019 A 
ATOM     20  C   UNL     1       6.093  42.615  49.738  1.00  0.00     0.013 A 
ATOM     21  C   UNL     1       4.186  42.718  51.199  1.00  0.00     0.013 A 
ATOM     22  C   UNL     1       5.505  41.554  49.039  1.00  0.00     0.021 A 
ATOM     23  C   UNL     1       3.594  41.657  50.505  1.00  0.00     0.021 A 
ATOM     24  C   UNL     1       4.257  41.079  49.427  1.00  0.00     0.041 A 
ATOM     25  Cl  UNL     1       3.530  39.775  48.575  1.00  0.00    -0.084 Cl
ENDBRANCH  13  19
ENDBRANCH   8  10
ENDBRANCH   1   8
TORSDOF 6
ENDMDL
MODEL 2
REMARK VINA RESULT:    -7.795      0.112      1.010
REMARK INTER + INTRA:         -11.793
REMARK INTER:                 -10.543
REMARK INTRA:                  -1.251
REMARK UNBOUND:                -1.264
REMARK SMILES C[NH+](C)CCCNc1nc(-c2ccc(Cl)cc2)nc2c1CCC2
REMARK SMILES IDX 6 1 5 2 4 3 2 4 1 5 3 6 7 8 8 10 9 11 20 12 10 13 19 14
REMARK SMILES IDX 21 15 18 16 23 17 22 18 11 19 12 20 17 21 13 22 16 23 14 24
REMARK SMILES IDX 15 25
REMARK H PARENT 2 7 7 9
ROOT
ATOM      1  C   UNL     1       4.677  45.148  55.342  1.00  0.00     0.120 C 
ENDROOT
BRANCH   1   2
ATOM      2  C   UNL     1       3.532  46.139  55.127  1.00  0.00     0.082 C 
BRANCH   2   3
ATOM      3  C   UNL     1       2.444  45.510  54.265  1.00  0.00     0.263 C 
BRANCH   3   4
ATOM      4  N   UNL     1       2.684  45.795  52.794  1.00  0.00    -0.340 N 
ATOM      5  C   UNL     1       1.489  45.405  51.961  1.00  0.00     0.332 C 
ATOM      6  C   UNL     1       3.093  47.216  52.510  1.00  0.00     0.332 C 
ATOM      7  H   UNL     1       3.457  45.189  52.484  1.00  0.00     0.347 HD
ENDBRANCH   3   4
ENDBRANCH   2   3
ENDBRANCH   1   2
BRANCH   1   8
ATOM      8  N   UNL     1       5.929  45.779  54.948  1.00  0.00    -0.369 N 
ATOM      9  H   UNL     1       6.723  45.500  55.522  1.00  0.00     0.162 HD
BRANCH   8  10
ATOM     10  C   UNL     1       6.281  45.558  53.601  1.00  0.00     0.133 A 
ATOM     11  N   UNL     1       5.717  44.553  52.906  1.00  0.00    -0.211 NA
ATOM     12  C   UNL     1       7.170  46.404  52.991  1.00  0.00     0.016 A 
ATOM     13  C   UNL     1       6.079  44.387  51.606  1.00  0.00     0.161 A 
ATOM     14  C   UNL     1       7.480  46.154  51.672  1.00  0.00     0.050 A 
ATOM     15  C   UNL     1       7.929  47.577  53.512  1.00  0.00     0.042 C 
ATOM     16  N   UNL     1       6.968  45.157  50.950  1.00  0.00    -0.233 NA
ATOM     17  C   UNL     1       8.502  47.130  51.161  1.00  0.00     0.057 C 
ATOM     18  C   UNL     1       8.377  48.248  52.204  1.00  0.00     0.011 C 
BRANCH  13  19
ATOM     19  C   UNL     1       5.457  43.271  50.860  1.00  0.00     0.019 A 
ATOM     20  C   UNL     1       4.197  42.754  51.226  1.00  0.00     0.013 A 
ATOM     21  C   UNL     1       6.095  42.677  49.752  1.00  0.00     0.013 A 
ATOM     22  C   UNL     1       3.604  41.699  50.524  1.00  0.00     0.021 A 
ATOM     23  C   UNL     1       5.507  41.621  49.046  1.00  0.00     0.021 A 
ATOM     24  C   UNL     1       4.262  41.137  49.435  1.00  0.00     0.041 A 
ATOM     25  Cl  UNL     1       3.539  39.841  48.568  1.00  0.00    -0.084 Cl
ENDBRANCH  13  19
ENDBRANCH   8  10
ENDBRANCH   1   8
TORSDOF 6
ENDMDL
MODEL 3
REMARK VINA RESULT:    -7.604      2.423      5.194
REMARK INTER + INTRA:         -11.535
REMARK INTER:                 -10.775
REMARK INTRA:                  -0.760
REMARK UNBOUND:                -1.264
REMARK SMILES C[NH+](C)CCCNc1nc(-c2ccc(Cl)cc2)nc2c1CCC2
REMARK SMILES IDX 6 1 5 2 4 3 2 4 1 5 3 6 7 8 8 10 9 11 20 12 10 13 19 14
REMARK SMILES IDX 21 15 18 16 23 17 22 18 11 19 12 20 17 21 13 22 16 23 14 24
REMARK SMILES IDX 15 25
REMARK H PARENT 2 7 7 9
ROOT
ATOM      1  C   UNL     1       8.076  44.056  49.741  1.00  0.00     0.120 C 
ENDROOT
BRANCH   1   2
ATOM      2  C   UNL     1       6.957  43.151  49.223  1.00  0.00     0.082 C 
BRANCH   2   3
ATOM      3  C   UNL     1       6.863  41.889  50.070  1.00  0.00     0.263 C 
BRANCH   3   4
ATOM      4  N   UNL     1       5.522  41.204  49.877  1.00  0.00    -0.340 N 
ATOM      5  C   UNL     1       4.470  41.799  50.779  1.00  0.00     0.332 C 
ATOM      6  C   UNL     1       5.052  41.185  48.447  1.00  0.00     0.332 C 
ATOM      7  H   UNL     1       5.630  40.224  50.174  1.00  0.00     0.347 HD
ENDBRANCH   3   4
ENDBRANCH   2   3
ENDBRANCH   1   2
BRANCH   1   8
ATOM      8  N   UNL     1       7.548  45.400  49.932  1.00  0.00    -0.369 N 
ATOM      9  H   UNL     1       6.712  45.590  49.382  1.00  0.00     0.162 HD
BRANCH   8  10
ATOM     10  C   UNL     1       7.253  45.713  51.275  1.00  0.00     0.133 A 
ATOM     11  N   UNL     1       6.044  45.426  51.791  1.00  0.00    -0.211 NA
ATOM     12  C   UNL     1       8.225  46.271  52.064  1.00  0.00     0.016 A 
ATOM     13  C   UNL     1       5.811  45.736  53.095  1.00  0.00     0.161 A 
ATOM     14  C   UNL     1       7.895  46.554  53.371  1.00  0.00     0.050 A 
ATOM     15  C   UNL     1       9.625  46.682  51.759  1.00  0.00     0.042 C 
ATOM     16  N   UNL     1       6.705  46.313  53.920  1.00  0.00    -0.233 NA
ATOM     17  C   UNL     1       9.042  47.207  54.091  1.00  0.00     0.057 C 
ATOM     18  C   UNL     1      10.210  46.826  53.172  1.00  0.00     0.011 C 
BRANCH  13  19
ATOM     19  C   UNL     1       4.473  45.423  53.643  1.00  0.00     0.019 A 
ATOM     20  C   UNL     1       4.073  45.885  54.914  1.00  0.00     0.013 A 
ATOM     21  C   UNL     1       3.541  44.650  52.921  1.00  0.00     0.013 A 
ATOM     22  C   UNL     1       2.808  45.592  55.438  1.00  0.00     0.021 A 
ATOM     23  C   UNL     1       2.275  44.354  53.439  1.00  0.00     0.021 A 
ATOM     24  C   UNL     1       1.914  44.828  54.696  1.00  0.00     0.041 A 
ATOM     25  Cl  UNL     1       0.359  44.464  55.333  1.00  0.00    -0.084 Cl
ENDBRANCH  13  19
ENDBRANCH   8  10
ENDBRANCH   1   8
TORSDOF 6
ENDMDL
MODEL 4
REMARK VINA RESULT:    -7.577      2.714      6.003
REMARK INTER + INTRA:         -11.498
REMARK INTER:                 -10.822
REMARK INTRA:                  -0.677
REMARK UNBOUND:                -1.264
REMARK SMILES C[NH+](C)CCCNc1nc(-c2ccc(Cl)cc2)nc2c1CCC2
REMARK SMILES IDX 6 1 5 2 4 3 2 4 1 5 3 6 7 8 8 10 9 11 20 12 10 13 19 14
REMARK SMILES IDX 21 15 18 16 23 17 22 18 11 19 12 20 17 21 13 22 16 23 14 24
REMARK SMILES IDX 15 25
REMARK H PARENT 2 7 7 9
ROOT
ATOM      1  C   UNL     1       8.637  45.694  51.055  1.00  0.00     0.120 C 
ENDROOT
BRANCH   1   2
ATOM      2  C   UNL     1       9.060  47.024  51.680  1.00  0.00     0.082 C 
BRANCH   2   3
ATOM      3  C   UNL     1       9.907  46.779  52.923  1.00  0.00     0.263 C 
BRANCH   3   4
ATOM      4  N   UNL     1       9.367  47.556  54.110  1.00  0.00    -0.340 N 
ATOM      5  C   UNL     1       7.956  47.138  54.439  1.00  0.00     0.332 C 
ATOM      6  C   UNL     1      10.244  47.484  55.331  1.00  0.00     0.332 C 
ATOM      7  H   UNL     1       9.313  48.546  53.832  1.00  0.00     0.347 HD
ENDBRANCH   3   4
ENDBRANCH   2   3
ENDBRANCH   1   2
BRANCH   1   8
ATOM      8  N   UNL     1       7.330  45.857  50.433  1.00  0.00    -0.369 N 
ATOM      9  H   UNL     1       7.358  45.825  49.416  1.00  0.00     0.162 HD
BRANCH   8  10
ATOM     10  C   UNL     1       6.373  44.915  50.862  1.00  0.00     0.133 A 
ATOM     11  N   UNL     1       5.542  45.203  51.880  1.00  0.00    -0.211 NA
ATOM     12  C   UNL     1       6.267  43.717  50.202  1.00  0.00     0.016 A 
ATOM     13  C   UNL     1       4.628  44.267  52.250  1.00  0.00     0.161 A 
ATOM     14  C   UNL     1       5.313  42.829  50.651  1.00  0.00     0.050 A 
ATOM     15  C   UNL     1       7.040  43.149  49.062  1.00  0.00     0.042 C 
ATOM     16  N   UNL     1       4.486  43.059  51.671  1.00  0.00    -0.233 NA
ATOM     17  C   UNL     1       5.352  41.549  49.866  1.00  0.00     0.057 C 
ATOM     18  C   UNL     1       6.119  42.003  48.617  1.00  0.00     0.011 C 
BRANCH  13  19
ATOM     19  C   UNL     1       3.729  44.597  53.378  1.00  0.00     0.019 A 
ATOM     20  C   UNL     1       2.395  44.141  53.412  1.00  0.00     0.013 A 
ATOM     21  C   UNL     1       4.166  45.379  54.466  1.00  0.00     0.013 A 
ATOM     22  C   UNL     1       1.540  44.451  54.476  1.00  0.00     0.021 A 
ATOM     23  C   UNL     1       3.316  45.691  55.533  1.00  0.00     0.021 A 
ATOM     24  C   UNL     1       2.005  45.225  55.533  1.00  0.00     0.041 A 
ATOM     25  Cl  UNL     1       0.961  45.608  56.844  1.00  0.00    -0.084 Cl
ENDBRANCH  13  19
ENDBRANCH   8  10
ENDBRANCH   1   8
TORSDOF 6
ENDMDL
MODEL 5
REMARK VINA RESULT:    -7.346      2.726      5.698
REMARK INTER + INTRA:         -11.187
REMARK INTER:                 -10.466
REMARK INTRA:                  -0.721
REMARK UNBOUND:                -1.264
REMARK SMILES C[NH+](C)CCCNc1nc(-c2ccc(Cl)cc2)nc2c1CCC2
REMARK SMILES IDX 6 1 5 2 4 3 2 4 1 5 3 6 7 8 8 10 9 11 20 12 10 13 19 14
REMARK SMILES IDX 21 15 18 16 23 17 22 18 11 19 12 20 17 21 13 22 16 23 14 24
REMARK SMILES IDX 15 25
REMARK H PARENT 2 7 7 9
ROOT
ATOM      1  C   UNL     1       6.236  46.962  52.710  1.00  0.00     0.120 C 
ENDROOT
BRANCH   1   2
ATOM      2  C   UNL     1       7.524  47.784  52.758  1.00  0.00     0.082 C 
BRANCH   2   3
ATOM      3  C   UNL     1       8.432  47.414  51.592  1.00  0.00     0.263 C 
BRANCH   3   4
ATOM      4  N   UNL     1       9.812  47.016  52.083  1.00  0.00    -0.340 N 
ATOM      5  C   UNL     1       9.894  47.076  53.588  1.00  0.00     0.332 C 
ATOM      6  C   UNL     1      10.271  45.675  51.577  1.00  0.00     0.332 C 
ATOM      7  H   UNL     1      10.479  47.717  51.733  1.00  0.00     0.347 HD
ENDBRANCH   3   4
ENDBRANCH   2   3
ENDBRANCH   1   2
BRANCH   1   8
ATOM      8  N   UNL     1       6.184  46.237  51.447  1.00  0.00    -0.369 N 
ATOM      9  H   UNL     1       7.102  45.979  51.089  1.00  0.00     0.162 HD
BRANCH   8  10
ATOM     10  C   UNL     1       5.401  45.065  51.493  1.00  0.00     0.133 A 
ATOM     11  N   UNL     1       4.267  45.033  52.216  1.00  0.00    -0.211 NA
ATOM     12  C   UNL     1       5.783  43.972  50.760  1.00  0.00     0.016 A 
ATOM     13  C   UNL     1       3.539  43.884  52.221  1.00  0.00     0.161 A 
ATOM     14  C   UNL     1       4.985  42.851  50.830  1.00  0.00     0.050 A 
ATOM     15  C   UNL     1       6.967  43.739  49.886  1.00  0.00     0.042 C 
ATOM     16  N   UNL     1       3.867  42.762  51.551  1.00  0.00    -0.233 NA
ATOM     17  C   UNL     1       5.558  41.726  50.016  1.00  0.00     0.057 C 
ATOM     18  C   UNL     1       6.520  42.495  49.102  1.00  0.00     0.011 C 
BRANCH  13  19
ATOM     19  C   UNL     1       2.300  43.862  53.029  1.00  0.00     0.019 A 
ATOM     20  C   UNL     1       2.039  44.849  54.002  1.00  0.00     0.013 A 
ATOM     21  C   UNL     1       1.326  42.856  52.861  1.00  0.00     0.013 A 
ATOM     22  C   UNL     1       0.868  44.834  54.769  1.00  0.00     0.021 A 
ATOM     23  C   UNL     1       0.154  42.835  53.625  1.00  0.00     0.021 A 
ATOM     24  C   UNL     1      -0.070  43.826  54.576  1.00  0.00     0.041 A 
ATOM     25  Cl  UNL     1      -1.511  43.801  55.514  1.00  0.00    -0.084 Cl
ENDBRANCH  13  19
ENDBRANCH   8  10
ENDBRANCH   1   8
TORSDOF 6
ENDMDL
MODEL 6
REMARK VINA RESULT:    -7.325      2.805      5.502
REMARK INTER + INTRA:         -11.158
REMARK INTER:                  -9.869
REMARK INTRA:                  -1.289
REMARK UNBOUND:                -1.264
REMARK SMILES C[NH+](C)CCCNc1nc(-c2ccc(Cl)cc2)nc2c1CCC2
REMARK SMILES IDX 6 1 5 2 4 3 2 4 1 5 3 6 7 8 8 10 9 11 20 12 10 13 19 14
REMARK SMILES IDX 21 15 18 16 23 17 22 18 11 19 12 20 17 21 13 22 16 23 14 24
REMARK SMILES IDX 15 25
REMARK H PARENT 2 7 7 9
ROOT
ATOM      1  C   UNL     1       1.509  43.109  52.358  1.00  0.00     0.120 C 
ENDROOT
BRANCH   1   2
ATOM      2  C   UNL     1       1.095  43.768  53.674  1.00  0.00     0.082 C 
BRANCH   2   3
ATOM      3  C   UNL     1       1.211  45.284  53.566  1.00  0.00     0.263 C 
BRANCH   3   4
ATOM      4  N   UNL     1       2.658  45.727  53.682  1.00  0.00    -0.340 N 
ATOM      5  C   UNL     1       2.929  46.935  52.820  1.00  0.00     0.332 C 
ATOM      6  C   UNL     1       3.106  45.970  55.098  1.00  0.00     0.332 C 
ATOM      7  H   UNL     1       3.245  44.970  53.303  1.00  0.00     0.347 HD
ENDBRANCH   3   4
ENDBRANCH   2   3
ENDBRANCH   1   2
BRANCH   1   8
ATOM      8  N   UNL     1       2.693  42.293  52.589  1.00  0.00    -0.369 N 
ATOM      9  H   UNL     1       2.576  41.319  52.315  1.00  0.00     0.162 HD
BRANCH   8  10
ATOM     10  C   UNL     1       3.853  42.777  51.951  1.00  0.00     0.133 A 
ATOM     11  N   UNL     1       4.595  43.742  52.525  1.00  0.00    -0.211 NA
ATOM     12  C   UNL     1       4.244  42.226  50.758  1.00  0.00     0.016 A 
ATOM     13  C   UNL     1       5.711  44.169  51.877  1.00  0.00     0.161 A 
ATOM     14  C   UNL     1       5.387  42.725  50.173  1.00  0.00     0.050 A 
ATOM     15  C   UNL     1       3.626  41.163  49.916  1.00  0.00     0.042 C 
ATOM     16  N   UNL     1       6.139  43.697  50.691  1.00  0.00    -0.233 NA
ATOM     17  C   UNL     1       5.656  42.059  48.854  1.00  0.00     0.057 C 
ATOM     18  C   UNL     1       4.796  40.797  48.989  1.00  0.00     0.011 C 
BRANCH  13  19
ATOM     19  C   UNL     1       6.509  45.237  52.519  1.00  0.00     0.019 A 
ATOM     20  C   UNL     1       7.384  46.051  51.771  1.00  0.00     0.013 A 
ATOM     21  C   UNL     1       6.429  45.487  53.904  1.00  0.00     0.013 A 
ATOM     22  C   UNL     1       8.141  47.062  52.373  1.00  0.00     0.021 A 
ATOM     23  C   UNL     1       7.184  46.497  54.512  1.00  0.00     0.021 A 
ATOM     24  C   UNL     1       8.037  47.281  53.742  1.00  0.00     0.041 A 
ATOM     25  Cl  UNL     1       8.964  48.522  54.488  1.00  0.00    -0.084 Cl
ENDBRANCH  13  19
ENDBRANCH   8  10
ENDBRANCH   1   8
TORSDOF 6
ENDMDL
MODEL 7
REMARK VINA RESULT:    -7.316      2.791      6.045
REMARK INTER + INTRA:         -11.147
REMARK INTER:                 -10.493
REMARK INTRA:                  -0.654
REMARK UNBOUND:                -1.264
REMARK SMILES C[NH+](C)CCCNc1nc(-c2ccc(Cl)cc2)nc2c1CCC2
REMARK SMILES IDX 6 1 5 2 4 3 2 4 1 5 3 6 7 8 8 10 9 11 20 12 10 13 19 14
REMARK SMILES IDX 21 15 18 16 23 17 22 18 11 19 12 20 17 21 13 22 16 23 14 24
REMARK SMILES IDX 15 25
REMARK H PARENT 2 7 7 9
ROOT
ATOM      1  C   UNL     1       6.234  46.768  52.036  1.00  0.00     0.120 C 
ENDROOT
BRANCH   1   2
ATOM      2  C   UNL     1       7.389  47.053  52.997  1.00  0.00     0.082 C 
BRANCH   2   3
ATOM      3  C   UNL     1       8.514  47.779  52.271  1.00  0.00     0.263 C 
BRANCH   3   4
ATOM      4  N   UNL     1       9.869  47.246  52.699  1.00  0.00    -0.340 N 
ATOM      5  C   UNL     1       9.912  46.992  54.185  1.00  0.00     0.332 C 
ATOM      6  C   UNL     1      10.309  46.025  51.936  1.00  0.00     0.332 C 
ATOM      7  H   UNL     1      10.563  47.984  52.517  1.00  0.00     0.347 HD
ENDBRANCH   3   4
ENDBRANCH   2   3
ENDBRANCH   1   2
BRANCH   1   8
ATOM      8  N   UNL     1       6.492  45.512  51.345  1.00  0.00    -0.369 N 
ATOM      9  H   UNL     1       7.383  45.086  51.594  1.00  0.00     0.162 HD
BRANCH   8  10
ATOM     10  C   UNL     1       5.489  44.539  51.535  1.00  0.00     0.133 A 
ATOM     11  N   UNL     1       4.472  44.767  52.385  1.00  0.00    -0.211 NA
ATOM     12  C   UNL     1       5.537  43.375  50.812  1.00  0.00     0.016 A 
ATOM     13  C   UNL     1       3.522  43.804  52.526  1.00  0.00     0.161 A 
ATOM     14  C   UNL     1       4.533  42.455  51.025  1.00  0.00     0.050 A 
ATOM     15  C   UNL     1       6.528  42.873  49.819  1.00  0.00     0.042 C 
ATOM     16  N   UNL     1       3.519  42.625  51.875  1.00  0.00    -0.233 NA
ATOM     17  C   UNL     1       4.749  41.216  50.204  1.00  0.00     0.057 C 
ATOM     18  C   UNL     1       5.733  41.740  49.150  1.00  0.00     0.011 C 
BRANCH  13  19
ATOM     19  C   UNL     1       2.415  44.068  53.472  1.00  0.00     0.019 A 
ATOM     20  C   UNL     1       1.147  43.477  53.302  1.00  0.00     0.013 A 
ATOM     21  C   UNL     1       2.581  44.920  54.583  1.00  0.00     0.013 A 
ATOM     22  C   UNL     1       0.096  43.722  54.193  1.00  0.00     0.021 A 
ATOM     23  C   UNL     1       1.534  45.170  55.478  1.00  0.00     0.021 A 
ATOM     24  C   UNL     1       0.295  44.569  55.279  1.00  0.00     0.041 A 
ATOM     25  Cl  UNL     1      -0.990  44.875  56.378  1.00  0.00    -0.084 Cl
ENDBRANCH  13  19
ENDBRANCH   8  10
ENDBRANCH   1   8
TORSDOF 6
ENDMDL
MODEL 8
REMARK VINA RESULT:    -7.289      3.249      6.895
REMARK INTER + INTRA:         -11.109
REMARK INTER:                 -10.542
REMARK INTRA:                  -0.567
REMARK UNBOUND:                -1.264
REMARK SMILES C[NH+](C)CCCNc1nc(-c2ccc(Cl)cc2)nc2c1CCC2
REMARK SMILES IDX 6 1 5 2 4 3 2 4 1 5 3 6 7 8 8 10 9 11 20 12 10 13 19 14
REMARK SMILES IDX 21 15 18 16 23 17 22 18 11 19 12 20 17 21 13 22 16 23 14 24
REMARK SMILES IDX 15 25
REMARK H PARENT 2 7 7 9
ROOT
ATOM      1  C   UNL     1       4.031  41.209  50.465  1.00  0.00     0.120 C 
ENDROOT
BRANCH   1   2
ATOM      2  C   UNL     1       3.815  40.739  49.026  1.00  0.00     0.082 C 
BRANCH   2   3
ATOM      3  C   UNL     1       5.012  41.116  48.162  1.00  0.00     0.263 C 
BRANCH   3   4
ATOM      4  N   UNL     1       4.772  40.744  46.710  1.00  0.00    -0.340 N 
ATOM      5  C   UNL     1       3.326  40.387  46.470  1.00  0.00     0.332 C 
ATOM      6  C   UNL     1       5.233  41.791  45.732  1.00  0.00     0.332 C 
ATOM      7  H   UNL     1       5.312  39.889  46.517  1.00  0.00     0.347 HD
ENDBRANCH   3   4
ENDBRANCH   2   3
ENDBRANCH   1   2
BRANCH   1   8
ATOM      8  N   UNL     1       2.835  41.906  50.920  1.00  0.00    -0.369 N 
ATOM      9  H   UNL     1       2.125  41.285  51.304  1.00  0.00     0.162 HD
BRANCH   8  10
ATOM     10  C   UNL     1       3.088  42.907  51.880  1.00  0.00     0.133 A 
ATOM     11  N   UNL     1       4.262  43.564  51.886  1.00  0.00    -0.211 NA
ATOM     12  C   UNL     1       2.109  43.236  52.782  1.00  0.00     0.016 A 
ATOM     13  C   UNL     1       4.456  44.529  52.824  1.00  0.00     0.161 A 
ATOM     14  C   UNL     1       2.398  44.224  53.698  1.00  0.00     0.050 A 
ATOM     15  C   UNL     1       0.742  42.684  52.995  1.00  0.00     0.042 C 
ATOM     16  N   UNL     1       3.554  44.884  53.759  1.00  0.00    -0.233 NA
ATOM     17  C   UNL     1       1.251  44.436  54.646  1.00  0.00     0.057 C 
ATOM     18  C   UNL     1       0.107  43.783  53.861  1.00  0.00     0.011 C 
BRANCH  13  19
ATOM     19  C   UNL     1       5.756  45.235  52.822  1.00  0.00     0.019 A 
ATOM     20  C   UNL     1       6.358  45.669  54.020  1.00  0.00     0.013 A 
ATOM     21  C   UNL     1       6.449  45.502  51.624  1.00  0.00     0.013 A 
ATOM     22  C   UNL     1       7.588  46.338  54.024  1.00  0.00     0.021 A 
ATOM     23  C   UNL     1       7.679  46.169  51.621  1.00  0.00     0.021 A 
ATOM     24  C   UNL     1       8.244  46.584  52.823  1.00  0.00     0.041 A 
ATOM     25  Cl  UNL     1       9.755  47.403  52.820  1.00  0.00    -0.084 Cl
ENDBRANCH  13  19
ENDBRANCH   8  10
ENDBRANCH   1   8
TORSDOF 6
ENDMDL
MODEL 9
REMARK VINA RESULT:    -7.266      2.920      6.591
REMARK INTER + INTRA:         -11.078
REMARK INTER:                 -10.489
REMARK INTRA:                  -0.589
REMARK UNBOUND:                -1.264
REMARK SMILES C[NH+](C)CCCNc1nc(-c2ccc(Cl)cc2)nc2c1CCC2
REMARK SMILES IDX 6 1 5 2 4 3 2 4 1 5 3 6 7 8 8 10 9 11 20 12 10 13 19 14
REMARK SMILES IDX 21 15 18 16 23 17 22 18 11 19 12 20 17 21 13 22 16 23 14 24
REMARK SMILES IDX 15 25
REMARK H PARENT 2 7 7 9
ROOT
ATOM      1  C   UNL     1       2.939  42.288  50.490  1.00  0.00     0.120 C 
ENDROOT
BRANCH   1   2
ATOM      2  C   UNL     1       3.989  41.177  50.430  1.00  0.00     0.082 C 
BRANCH   2   3
ATOM      3  C   UNL     1       4.329  40.850  48.981  1.00  0.00     0.263 C 
BRANCH   3   4
ATOM      4  N   UNL     1       5.784  41.163  48.681  1.00  0.00    -0.340 N 
ATOM      5  C   UNL     1       5.914  42.020  47.447  1.00  0.00     0.332 C 
ATOM      6  C   UNL     1       6.523  41.777  49.839  1.00  0.00     0.332 C 
ATOM      7  H   UNL     1       6.252  40.273  48.460  1.00  0.00     0.347 HD
ENDBRANCH   3   4
ENDBRANCH   2   3
ENDBRANCH   1   2
BRANCH   1   8
ATOM      8  N   UNL     1       2.312  42.276  51.805  1.00  0.00    -0.369 N 
ATOM      9  H   UNL     1       2.446  41.402  52.311  1.00  0.00     0.162 HD
BRANCH   8  10
ATOM     10  C   UNL     1       2.735  43.324  52.648  1.00  0.00     0.133 A 
ATOM     11  N   UNL     1       3.960  43.862  52.505  1.00  0.00    -0.211 NA
ATOM     12  C   UNL     1       1.870  43.820  53.589  1.00  0.00     0.016 A 
ATOM     13  C   UNL     1       4.318  44.878  53.334  1.00  0.00     0.161 A 
ATOM     14  C   UNL     1       2.322  44.848  54.386  1.00  0.00     0.050 A 
ATOM     15  C   UNL     1       0.481  43.423  53.955  1.00  0.00     0.042 C 
ATOM     16  N   UNL     1       3.535  45.396  54.299  1.00  0.00    -0.233 NA
ATOM     17  C   UNL     1       1.284  45.248  55.396  1.00  0.00     0.057 C 
ATOM     18  C   UNL     1       0.023  44.647  54.764  1.00  0.00     0.011 C 
BRANCH  13  19
ATOM     19  C   UNL     1       5.672  45.452  53.168  1.00  0.00     0.019 A 
ATOM     20  C   UNL     1       6.413  45.918  54.273  1.00  0.00     0.013 A 
ATOM     21  C   UNL     1       6.280  45.555  51.900  1.00  0.00     0.013 A 
ATOM     22  C   UNL     1       7.694  46.462  54.122  1.00  0.00     0.021 A 
ATOM     23  C   UNL     1       7.560  46.098  51.743  1.00  0.00     0.021 A 
ATOM     24  C   UNL     1       8.262  46.548  52.856  1.00  0.00     0.041 A 
ATOM     25  Cl  UNL     1       9.836  47.214  52.664  1.00  0.00    -0.084 Cl
ENDBRANCH  13  19
ENDBRANCH   8  10
ENDBRANCH   1   8
TORSDOF 6
ENDMDL
MODEL 10
REMARK VINA RESULT:    -7.191      2.600      5.304
REMARK INTER + INTRA:         -10.977
REMARK INTER:                  -9.791
REMARK INTRA:                  -1.186
REMARK UNBOUND:                -1.264
REMARK SMILES C[NH+](C)CCCNc1nc(-c2ccc(Cl)cc2)nc2c1CCC2
REMARK SMILES IDX 6 1 5 2 4 3 2 4 1 5 3 6 7 8 8 10 9 11 20 12 10 13 19 14
REMARK SMILES IDX 21 15 18 16 23 17 22 18 11 19 12 20 17 21 13 22 16 23 14 24
REMARK SMILES IDX 15 25
REMARK H PARENT 2 7 7 9
ROOT
ATOM      1  C   UNL     1       7.312  45.880  51.695  1.00  0.00     0.120 C 
ENDROOT
BRANCH   1   2
ATOM      2  C   UNL     1       7.220  47.142  52.555  1.00  0.00     0.082 C 
BRANCH   2   3
ATOM      3  C   UNL     1       7.017  46.770  54.018  1.00  0.00     0.263 C 
BRANCH   3   4
ATOM      4  N   UNL     1       5.593  46.309  54.269  1.00  0.00    -0.340 N 
ATOM      5  C   UNL     1       5.546  45.235  55.327  1.00  0.00     0.332 C 
ATOM      6  C   UNL     1       4.642  47.427  54.601  1.00  0.00     0.332 C 
ATOM      7  H   UNL     1       5.254  45.869  53.402  1.00  0.00     0.347 HD
ENDBRANCH   3   4
ENDBRANCH   2   3
ENDBRANCH   1   2
BRANCH   1   8
ATOM      8  N   UNL     1       6.141  45.810  50.831  1.00  0.00    -0.369 N 
ATOM      9  H   UNL     1       6.368  45.799  49.839  1.00  0.00     0.162 HD
BRANCH   8  10
ATOM     10  C   UNL     1       5.307  44.703  51.089  1.00  0.00     0.133 A 
ATOM     11  N   UNL     1       4.242  44.827  51.902  1.00  0.00    -0.211 NA
ATOM     12  C   UNL     1       5.566  43.509  50.468  1.00  0.00     0.016 A 
ATOM     13  C   UNL     1       3.461  43.734  52.111  1.00  0.00     0.161 A 
ATOM     14  C   UNL     1       4.721  42.455  50.744  1.00  0.00     0.050 A 
ATOM     15  C   UNL     1       6.653  43.099  49.535  1.00  0.00     0.042 C 
ATOM     16  N   UNL     1       3.670  42.522  51.562  1.00  0.00    -0.233 NA
ATOM     17  C   UNL     1       5.161  41.207  50.033  1.00  0.00     0.057 C 
ATOM     18  C   UNL     1       6.075  41.800  48.953  1.00  0.00     0.011 C 
BRANCH  13  19
ATOM     19  C   UNL     1       2.300  43.885  53.015  1.00  0.00     0.019 A 
ATOM     20  C   UNL     1       1.276  42.917  53.066  1.00  0.00     0.013 A 
ATOM     21  C   UNL     1       2.167  45.002  53.865  1.00  0.00     0.013 A 
ATOM     22  C   UNL     1       0.176  43.055  53.919  1.00  0.00     0.021 A 
ATOM     23  C   UNL     1       1.069  45.146  54.721  1.00  0.00     0.021 A 
ATOM     24  C   UNL     1       0.077  44.171  54.745  1.00  0.00     0.041 A 
ATOM     25  Cl  UNL     1      -1.271  44.347  55.796  1.00  0.00    -0.084 Cl
ENDBRANCH  13  19
ENDBRANCH   8  10
ENDBRANCH   1   8
TORSDOF 6
ENDMDL
MODEL 11
REMARK VINA RESULT:    -7.030      2.972      5.728
REMARK INTER + INTRA:         -10.760
REMARK INTER:                  -9.993
REMARK INTRA:                  -0.768
REMARK UNBOUND:                -1.264
REMARK SMILES C[NH+](C)CCCNc1nc(-c2ccc(Cl)cc2)nc2c1CCC2
REMARK SMILES IDX 6 1 5 2 4 3 2 4 1 5 3 6 7 8 8 10 9 11 20 12 10 13 19 14
REMARK SMILES IDX 21 15 18 16 23 17 22 18 11 19 12 20 17 21 13 22 16 23 14 24
REMARK SMILES IDX 15 25
REMARK H PARENT 2 7 7 9
ROOT
ATOM      1  C   UNL     1       1.521  43.231  52.532  1.00  0.00     0.120 C 
ENDROOT
BRANCH   1   2
ATOM      2  C   UNL     1       0.711  43.149  53.826  1.00  0.00     0.082 C 
BRANCH   2   3
ATOM      3  C   UNL     1       0.572  44.532  54.451  1.00  0.00     0.263 C 
BRANCH   3   4
ATOM      4  N   UNL     1       1.540  44.705  55.608  1.00  0.00    -0.340 N 
ATOM      5  C   UNL     1       2.793  45.420  55.168  1.00  0.00     0.332 C 
ATOM      6  C   UNL     1       0.934  45.379  56.810  1.00  0.00     0.332 C 
ATOM      7  H   UNL     1       1.839  43.765  55.904  1.00  0.00     0.347 HD
ENDBRANCH   3   4
ENDBRANCH   2   3
ENDBRANCH   1   2
BRANCH   1   8
ATOM      8  N   UNL     1       2.660  42.329  52.627  1.00  0.00    -0.369 N 
ATOM      9  H   UNL     1       2.471  41.396  52.266  1.00  0.00     0.162 HD
BRANCH   8  10
ATOM     10  C   UNL     1       3.822  42.805  51.985  1.00  0.00     0.133 A 
ATOM     11  N   UNL     1       4.576  43.759  52.561  1.00  0.00    -0.211 NA
ATOM     12  C   UNL     1       4.200  42.256  50.788  1.00  0.00     0.016 A 
ATOM     13  C   UNL     1       5.693  44.178  51.909  1.00  0.00     0.161 A 
ATOM     14  C   UNL     1       5.345  42.747  50.199  1.00  0.00     0.050 A 
ATOM     15  C   UNL     1       3.567  41.205  49.943  1.00  0.00     0.042 C 
ATOM     16  N   UNL     1       6.110  43.708  50.718  1.00  0.00    -0.233 NA
ATOM     17  C   UNL     1       5.601  42.086  48.874  1.00  0.00     0.057 C 
ATOM     18  C   UNL     1       4.728  40.831  49.008  1.00  0.00     0.011 C 
BRANCH  13  19
ATOM     19  C   UNL     1       6.505  45.234  52.552  1.00  0.00     0.019 A 
ATOM     20  C   UNL     1       6.406  45.499  53.933  1.00  0.00     0.013 A 
ATOM     21  C   UNL     1       7.412  46.021  51.813  1.00  0.00     0.013 A 
ATOM     22  C   UNL     1       7.172  46.497  54.547  1.00  0.00     0.021 A 
ATOM     23  C   UNL     1       8.181  47.020  52.421  1.00  0.00     0.021 A 
ATOM     24  C   UNL     1       8.057  47.253  53.787  1.00  0.00     0.041 A 
ATOM     25  Cl  UNL     1       9.001  48.480  54.534  1.00  0.00    -0.084 Cl
ENDBRANCH  13  19
ENDBRANCH   8  10
ENDBRANCH   1   8
TORSDOF 6
ENDMDL
MODEL 12
REMARK VINA RESULT:    -6.959      3.343      6.362
REMARK INTER + INTRA:         -10.664
REMARK INTER:                 -10.006
REMARK INTRA:                  -0.659
REMARK UNBOUND:                -1.264
REMARK SMILES C[NH+](C)CCCNc1nc(-c2ccc(Cl)cc2)nc2c1CCC2
REMARK SMILES IDX 6 1 5 2 4 3 2 4 1 5 3 6 7 8 8 10 9 11 20 12 10 13 19 14
REMARK SMILES IDX 21 15 18 16 23 17 22 18 11 19 12 20 17 21 13 22 16 23 14 24
REMARK SMILES IDX 15 25
REMARK H PARENT 2 7 7 9
ROOT
ATOM      1  C   UNL     1       3.649  40.817  49.659  1.00  0.00     0.120 C 
ENDROOT
BRANCH   1   2
ATOM      2  C   UNL     1       3.603  40.245  48.242  1.00  0.00     0.082 C 
BRANCH   2   3
ATOM      3  C   UNL     1       4.626  40.945  47.356  1.00  0.00     0.263 C 
BRANCH   3   4
ATOM      4  N   UNL     1       4.388  40.622  45.892  1.00  0.00    -0.340 N 
ATOM      5  C   UNL     1       2.916  40.634  45.563  1.00  0.00     0.332 C 
ATOM      6  C   UNL     1       5.154  41.505  44.944  1.00  0.00     0.332 C 
ATOM      7  H   UNL     1       4.707  39.656  45.733  1.00  0.00     0.347 HD
ENDBRANCH   3   4
ENDBRANCH   2   3
ENDBRANCH   1   2
BRANCH   1   8
ATOM      8  N   UNL     1       5.010  41.248  49.952  1.00  0.00    -0.369 N 
ATOM      9  H   UNL     1       5.604  41.303  49.127  1.00  0.00     0.162 HD
BRANCH   8  10
ATOM     10  C   UNL     1       5.084  42.491  50.613  1.00  0.00     0.133 A 
ATOM     11  N   UNL     1       4.225  42.787  51.605  1.00  0.00    -0.211 NA
ATOM     12  C   UNL     1       6.070  43.378  50.267  1.00  0.00     0.016 A 
ATOM     13  C   UNL     1       4.343  43.994  52.221  1.00  0.00     0.161 A 
ATOM     14  C   UNL     1       6.110  44.578  50.944  1.00  0.00     0.050 A 
ATOM     15  C   UNL     1       7.137  43.308  49.229  1.00  0.00     0.042 C 
ATOM     16  N   UNL     1       5.265  44.927  51.914  1.00  0.00    -0.233 NA
ATOM     17  C   UNL     1       7.207  45.460  50.420  1.00  0.00     0.057 C 
ATOM     18  C   UNL     1       8.080  44.430  49.692  1.00  0.00     0.011 C 
BRANCH  13  19
ATOM     19  C   UNL     1       3.383  44.307  53.302  1.00  0.00     0.019 A 
ATOM     20  C   UNL     1       2.074  43.784  53.297  1.00  0.00     0.013 A 
ATOM     21  C   UNL     1       3.736  45.141  54.383  1.00  0.00     0.013 A 
ATOM     22  C   UNL     1       1.162  44.077  54.318  1.00  0.00     0.021 A 
ATOM     23  C   UNL     1       2.828  45.438  55.406  1.00  0.00     0.021 A 
ATOM     24  C   UNL     1       1.544  44.903  55.369  1.00  0.00     0.041 A 
ATOM     25  Cl  UNL     1       0.429  45.267  56.626  1.00  0.00    -0.084 Cl
ENDBRANCH  13  19
ENDBRANCH   8  10
ENDBRANCH   1   8
TORSDOF 6
ENDMDL
MODEL 13
REMARK VINA RESULT:    -6.950      2.880      5.626
REMARK INTER + INTRA:         -10.653
REMARK INTER:                 -10.009
REMARK INTRA:                  -0.643
REMARK UNBOUND:                -1.264
REMARK SMILES C[NH+](C)CCCNc1nc(-c2ccc(Cl)cc2)nc2c1CCC2
REMARK SMILES IDX 6 1 5 2 4 3 2 4 1 5 3 6 7 8 8 10 9 11 20 12 10 13 19 14
REMARK SMILES IDX 21 15 18 16 23 17 22 18 11 19 12 20 17 21 13 22 16 23 14 24
REMARK SMILES IDX 15 25
REMARK H PARENT 2 7 7 9
ROOT
ATOM      1  C   UNL     1       6.150  41.803  50.033  1.00  0.00     0.120 C 
ENDROOT
BRANCH   1   2
ATOM      2  C   UNL     1       5.368  41.173  48.880  1.00  0.00     0.082 C 
BRANCH   2   3
ATOM      3  C   UNL     1       5.762  41.819  47.558  1.00  0.00     0.263 C 
BRANCH   3   4
ATOM      4  N   UNL     1       5.134  41.086  46.386  1.00  0.00    -0.340 N 
ATOM      5  C   UNL     1       3.804  40.485  46.769  1.00  0.00     0.332 C 
ATOM      6  C   UNL     1       5.003  41.927  45.145  1.00  0.00     0.332 C 
ATOM      7  H   UNL     1       5.747  40.293  46.153  1.00  0.00     0.347 HD
ENDBRANCH   3   4
ENDBRANCH   2   3
ENDBRANCH   1   2
BRANCH   1   8
ATOM      8  N   UNL     1       6.383  43.210  49.734  1.00  0.00    -0.369 N 
ATOM      9  H   UNL     1       6.012  43.500  48.831  1.00  0.00     0.162 HD
BRANCH   8  10
ATOM     10  C   UNL     1       5.871  44.092  50.707  1.00  0.00     0.133 A 
ATOM     11  N   UNL     1       4.692  43.839  51.303  1.00  0.00    -0.211 NA
ATOM     12  C   UNL     1       6.608  45.189  51.073  1.00  0.00     0.016 A 
ATOM     13  C   UNL     1       4.245  44.713  52.243  1.00  0.00     0.161 A 
ATOM     14  C   UNL     1       6.072  46.021  52.033  1.00  0.00     0.050 A 
ATOM     15  C   UNL     1       7.922  45.699  50.590  1.00  0.00     0.042 C 
ATOM     16  N   UNL     1       4.897  45.826  52.632  1.00  0.00    -0.233 NA
ATOM     17  C   UNL     1       6.967  47.200  52.290  1.00  0.00     0.057 C 
ATOM     18  C   UNL     1       8.290  46.686  51.708  1.00  0.00     0.011 C 
BRANCH  13  19
ATOM     19  C   UNL     1       2.941  44.425  52.881  1.00  0.00     0.019 A 
ATOM     20  C   UNL     1       2.326  43.162  52.759  1.00  0.00     0.013 A 
ATOM     21  C   UNL     1       2.258  45.398  53.639  1.00  0.00     0.013 A 
ATOM     22  C   UNL     1       1.093  42.883  53.359  1.00  0.00     0.021 A 
ATOM     23  C   UNL     1       1.025  45.126  54.242  1.00  0.00     0.021 A 
ATOM     24  C   UNL     1       0.448  43.868  54.100  1.00  0.00     0.041 A 
ATOM     25  Cl  UNL     1      -1.066  43.532  54.841  1.00  0.00    -0.084 Cl
ENDBRANCH  13  19
ENDBRANCH   8  10
ENDBRANCH   1   8
TORSDOF 6
ENDMDL
MODEL 14
REMARK VINA RESULT:    -6.915      3.052      6.059
REMARK INTER + INTRA:         -10.605
REMARK INTER:                  -9.847
REMARK INTRA:                  -0.757
REMARK UNBOUND:                -1.264
REMARK SMILES C[NH+](C)CCCNc1nc(-c2ccc(Cl)cc2)nc2c1CCC2
REMARK SMILES IDX 6 1 5 2 4 3 2 4 1 5 3 6 7 8 8 10 9 11 20 12 10 13 19 14
REMARK SMILES IDX 21 15 18 16 23 17 22 18 11 19 12 20 17 21 13 22 16 23 14 24
REMARK SMILES IDX 15 25
REMARK H PARENT 2 7 7 9
ROOT
ATOM      1  C   UNL     1       6.935  46.690  54.574  1.00  0.00     0.120 C 
ENDROOT
BRANCH   1   2
ATOM      2  C   UNL     1       8.210  47.462  54.231  1.00  0.00     0.082 C 
BRANCH   2   3
ATOM      3  C   UNL     1       9.287  46.508  53.732  1.00  0.00     0.263 C 
BRANCH   3   4
ATOM      4  N   UNL     1       9.806  46.938  52.372  1.00  0.00    -0.340 N 
ATOM      5  C   UNL     1      10.308  45.756  51.581  1.00  0.00     0.332 C 
ATOM      6  C   UNL     1       8.814  47.736  51.569  1.00  0.00     0.332 C 
ATOM      7  H   UNL     1      10.625  47.543  52.530  1.00  0.00     0.347 HD
ENDBRANCH   3   4
ENDBRANCH   2   3
ENDBRANCH   1   2
BRANCH   1   8
ATOM      8  N   UNL     1       5.902  47.027  53.604  1.00  0.00    -0.369 N 
ATOM      9  H   UNL     1       6.272  47.321  52.702  1.00  0.00     0.162 HD
BRANCH   8  10
ATOM     10  C   UNL     1       4.981  45.986  53.366  1.00  0.00     0.133 A 
ATOM     11  N   UNL     1       3.844  45.905  54.082  1.00  0.00    -0.211 NA
ATOM     12  C   UNL     1       5.234  45.080  52.369  1.00  0.00     0.016 A 
ATOM     13  C   UNL     1       2.982  44.890  53.808  1.00  0.00     0.161 A 
ATOM     14  C   UNL     1       4.304  44.083  52.167  1.00  0.00     0.050 A 
ATOM     15  C   UNL     1       6.389  44.937  51.438  1.00  0.00     0.042 C 
ATOM     16  N   UNL     1       3.177  43.947  52.867  1.00  0.00    -0.233 NA
ATOM     17  C   UNL     1       4.743  43.144  51.080  1.00  0.00     0.057 C 
ATOM     18  C   UNL     1       5.801  44.000  50.372  1.00  0.00     0.011 C 
BRANCH  13  19
ATOM     19  C   UNL     1       1.741  44.812  54.611  1.00  0.00     0.019 A 
ATOM     20  C   UNL     1       0.535  44.340  54.055  1.00  0.00     0.013 A 
ATOM     21  C   UNL     1       1.712  45.203  55.965  1.00  0.00     0.013 A 
ATOM     22  C   UNL     1      -0.642  44.264  54.809  1.00  0.00     0.021 A 
ATOM     23  C   UNL     1       0.539  45.129  56.725  1.00  0.00     0.021 A 
ATOM     24  C   UNL     1      -0.634  44.658  56.143  1.00  0.00     0.041 A 
ATOM     25  Cl  UNL     1      -2.075  44.567  57.076  1.00  0.00    -0.084 Cl
ENDBRANCH  13  19
ENDBRANCH   8  10
ENDBRANCH   1   8
TORSDOF 6
ENDMDL
MODEL 15
REMARK VINA RESULT:    -6.754      2.367      5.312
REMARK INTER + INTRA:         -10.387
REMARK INTER:                  -9.394
REMARK INTRA:                  -0.993
REMARK UNBOUND:                -1.264
REMARK SMILES C[NH+](C)CCCNc1nc(-c2ccc(Cl)cc2)nc2c1CCC2
REMARK SMILES IDX 6 1 5 2 4 3 2 4 1 5 3 6 7 8 8 10 9 11 20 12 10 13 19 14
REMARK SMILES IDX 21 15 18 16 23 17 22 18 11 19 12 20 17 21 13 22 16 23 14 24
REMARK SMILES IDX 15 25
REMARK H PARENT 2 7 7 9
ROOT
ATOM      1  C   UNL     1       1.953  45.600  55.306  1.00  0.00     0.120 C 
ENDROOT
BRANCH   1   2
ATOM      2  C   UNL     1       3.355  45.888  55.844  1.00  0.00     0.082 C 
BRANCH   2   3
ATOM      3  C   UNL     1       4.172  46.652  54.809  1.00  0.00     0.263 C 
BRANCH   3   4
ATOM      4  N   UNL     1       5.423  45.882  54.428  1.00  0.00    -0.340 N 
ATOM      5  C   UNL     1       6.622  46.795  54.350  1.00  0.00     0.332 C 
ATOM      6  C   UNL     1       5.706  44.705  55.322  1.00  0.00     0.332 C 
ATOM      7  H   UNL     1       5.283  45.515  53.477  1.00  0.00     0.347 HD
ENDBRANCH   3   4
ENDBRANCH   2   3
ENDBRANCH   1   2
BRANCH   1   8
ATOM      8  N   UNL     1       1.865  44.192  54.944  1.00  0.00    -0.369 N 
ATOM      9  H   UNL     1       1.005  43.745  55.257  1.00  0.00     0.162 HD
BRANCH   8  10
ATOM     10  C   UNL     1       1.991  43.949  53.561  1.00  0.00     0.133 A 
ATOM     11  N   UNL     1       3.199  43.990  52.970  1.00  0.00    -0.211 NA
ATOM     12  C   UNL     1       0.876  43.627  52.831  1.00  0.00     0.016 A 
ATOM     13  C   UNL     1       3.271  43.738  51.635  1.00  0.00     0.161 A 
ATOM     14  C   UNL     1       1.047  43.392  51.484  1.00  0.00     0.050 A 
ATOM     15  C   UNL     1      -0.557  43.510  53.223  1.00  0.00     0.042 C 
ATOM     16  N   UNL     1       2.218  43.446  50.849  1.00  0.00    -0.233 NA
ATOM     17  C   UNL     1      -0.266  43.104  50.813  1.00  0.00     0.057 C 
ATOM     18  C   UNL     1      -1.132  42.737  52.025  1.00  0.00     0.011 C 
BRANCH  13  19
ATOM     19  C   UNL     1       4.606  43.797  51.000  1.00  0.00     0.019 A 
ATOM     20  C   UNL     1       5.358  44.989  50.979  1.00  0.00     0.013 A 
ATOM     21  C   UNL     1       5.184  42.665  50.389  1.00  0.00     0.013 A 
ATOM     22  C   UNL     1       6.621  45.050  50.379  1.00  0.00     0.021 A 
ATOM     23  C   UNL     1       6.446  42.720  49.787  1.00  0.00     0.021 A 
ATOM     24  C   UNL     1       7.160  43.914  49.786  1.00  0.00     0.041 A 
ATOM     25  Cl  UNL     1       8.711  43.982  49.048  1.00  0.00    -0.084 Cl
ENDBRANCH  13  19
ENDBRANCH   8  10
ENDBRANCH   1   8
TORSDOF 6
ENDMDL
MODEL 16
REMARK VINA RESULT:    -6.736      3.391      5.744
REMARK INTER + INTRA:         -10.363
REMARK INTER:                  -9.604
REMARK INTRA:                  -0.759
REMARK UNBOUND:                -1.264
REMARK SMILES C[NH+](C)CCCNc1nc(-c2ccc(Cl)cc2)nc2c1CCC2
REMARK SMILES IDX 6 1 5 2 4 3 2 4 1 5 3 6 7 8 8 10 9 11 20 12 10 13 19 14
REMARK SMILES IDX 21 15 18 16 23 17 22 18 11 19 12 20 17 21 13 22 16 23 14 24
REMARK SMILES IDX 15 25
REMARK H PARENT 2 7 7 9
ROOT
ATOM      1  C   UNL     1       1.529  45.797  56.049  1.00  0.00     0.120 C 
ENDROOT
BRANCH   1   2
ATOM      2  C   UNL     1       0.593  45.544  57.231  1.00  0.00     0.082 C 
BRANCH   2   3
ATOM      3  C   UNL     1      -0.710  44.918  56.749  1.00  0.00     0.263 C 
BRANCH   3   4
ATOM      4  N   UNL     1      -1.544  45.924  55.979  1.00  0.00    -0.340 N 
ATOM      5  C   UNL     1      -2.463  45.236  55.000  1.00  0.00     0.332 C 
ATOM      6  C   UNL     1      -2.314  46.873  56.857  1.00  0.00     0.332 C 
ATOM      7  H   UNL     1      -0.898  46.491  55.411  1.00  0.00     0.347 HD
ENDBRANCH   3   4
ENDBRANCH   2   3
ENDBRANCH   1   2
BRANCH   1   8
ATOM      8  N   UNL     1       2.186  44.548  55.688  1.00  0.00    -0.369 N 
ATOM      9  H   UNL     1       1.595  43.728  55.814  1.00  0.00     0.162 HD
BRANCH   8  10
ATOM     10  C   UNL     1       2.674  44.521  54.366  1.00  0.00     0.133 A 
ATOM     11  N   UNL     1       3.921  44.945  54.092  1.00  0.00    -0.211 NA
ATOM     12  C   UNL     1       1.882  44.018  53.367  1.00  0.00     0.016 A 
ATOM     13  C   UNL     1       4.352  44.889  52.803  1.00  0.00     0.161 A 
ATOM     14  C   UNL     1       2.402  44.004  52.091  1.00  0.00     0.050 A 
ATOM     15  C   UNL     1       0.489  43.487  53.388  1.00  0.00     0.042 C 
ATOM     16  N   UNL     1       3.621  44.437  51.766  1.00  0.00    -0.233 NA
ATOM     17  C   UNL     1       1.402  43.474  51.103  1.00  0.00     0.057 C 
ATOM     18  C   UNL     1       0.429  42.749  52.042  1.00  0.00     0.011 C 
BRANCH  13  19
ATOM     19  C   UNL     1       5.723  45.368  52.518  1.00  0.00     0.019 A 
ATOM     20  C   UNL     1       6.538  45.909  53.533  1.00  0.00     0.013 A 
ATOM     21  C   UNL     1       6.273  45.303  51.222  1.00  0.00     0.013 A 
ATOM     22  C   UNL     1       7.835  46.364  53.269  1.00  0.00     0.021 A 
ATOM     23  C   UNL     1       7.569  45.756  50.952  1.00  0.00     0.021 A 
ATOM     24  C   UNL     1       8.345  46.284  51.978  1.00  0.00     0.041 A 
ATOM     25  Cl  UNL     1       9.938  46.841  51.647  1.00  0.00    -0.084 Cl
ENDBRANCH  13  19
ENDBRANCH   8  10
ENDBRANCH   1   8
TORSDOF 6
ENDMDL
MODEL 17
REMARK VINA RESULT:    -6.691      2.865      6.478
REMARK INTER + INTRA:         -10.302
REMARK INTER:                  -9.661
REMARK INTRA:                  -0.640
REMARK UNBOUND:                -1.264
REMARK SMILES C[NH+](C)CCCNc1nc(-c2ccc(Cl)cc2)nc2c1CCC2
REMARK SMILES IDX 6 1 5 2 4 3 2 4 1 5 3 6 7 8 8 10 9 11 20 12 10 13 19 14
REMARK SMILES IDX 21 15 18 16 23 17 22 18 11 19 12 20 17 21 13 22 16 23 14 24
REMARK SMILES IDX 15 25
REMARK H PARENT 2 7 7 9
ROOT
ATOM      1  C   UNL     1       1.635  42.589  52.023  1.00  0.00     0.120 C 
ENDROOT
BRANCH   1   2
ATOM      2  C   UNL     1       2.663  42.464  50.898  1.00  0.00     0.082 C 
BRANCH   2   3
ATOM      3  C   UNL     1       3.964  41.879  51.433  1.00  0.00     0.263 C 
BRANCH   3   4
ATOM      4  N   UNL     1       4.710  41.129  50.345  1.00  0.00    -0.340 N 
ATOM      5  C   UNL     1       3.805  40.814  49.180  1.00  0.00     0.332 C 
ATOM      6  C   UNL     1       5.960  41.825  49.877  1.00  0.00     0.332 C 
ATOM      7  H   UNL     1       4.997  40.221  50.736  1.00  0.00     0.347 HD
ENDBRANCH   3   4
ENDBRANCH   2   3
ENDBRANCH   1   2
BRANCH   1   8
ATOM      8  N   UNL     1       1.310  43.996  52.214  1.00  0.00    -0.369 N 
ATOM      9  H   UNL     1       0.327  44.162  52.420  1.00  0.00     0.162 HD
BRANCH   8  10
ATOM     10  C   UNL     1       2.068  44.625  53.222  1.00  0.00     0.133 A 
ATOM     11  N   UNL     1       3.343  44.987  52.990  1.00  0.00    -0.211 NA
ATOM     12  C   UNL     1       1.481  44.905  54.429  1.00  0.00     0.016 A 
ATOM     13  C   UNL     1       4.031  45.601  53.990  1.00  0.00     0.161 A 
ATOM     14  C   UNL     1       2.257  45.526  55.383  1.00  0.00     0.050 A 
ATOM     15  C   UNL     1       0.111  44.625  54.945  1.00  0.00     0.042 C 
ATOM     16  N   UNL     1       3.531  45.880  55.209  1.00  0.00    -0.233 NA
ATOM     17  C   UNL     1       1.493  45.719  56.662  1.00  0.00     0.057 C 
ATOM     18  C   UNL     1       0.052  45.563  56.161  1.00  0.00     0.011 C 
BRANCH  13  19
ATOM     19  C   UNL     1       5.434  45.984  53.721  1.00  0.00     0.019 A 
ATOM     20  C   UNL     1       6.254  46.530  54.730  1.00  0.00     0.013 A 
ATOM     21  C   UNL     1       6.013  45.818  52.446  1.00  0.00     0.013 A 
ATOM     22  C   UNL     1       7.582  46.894  54.481  1.00  0.00     0.021 A 
ATOM     23  C   UNL     1       7.341  46.180  52.191  1.00  0.00     0.021 A 
ATOM     24  C   UNL     1       8.121  46.716  53.211  1.00  0.00     0.041 A 
ATOM     25  Cl  UNL     1       9.751  47.160  52.898  1.00  0.00    -0.084 Cl
ENDBRANCH  13  19
ENDBRANCH   8  10
ENDBRANCH   1   8
TORSDOF 6
ENDMDL
MODEL 18
REMARK VINA RESULT:    -6.518      1.819      5.045
REMARK INTER + INTRA:         -10.069
REMARK INTER:                  -9.629
REMARK INTRA:                  -0.440
REMARK UNBOUND:                -1.264
REMARK SMILES C[NH+](C)CCCNc1nc(-c2ccc(Cl)cc2)nc2c1CCC2
REMARK SMILES IDX 6 1 5 2 4 3 2 4 1 5 3 6 7 8 8 10 9 11 20 12 10 13 19 14
REMARK SMILES IDX 21 15 18 16 23 17 22 18 11 19 12 20 17 21 13 22 16 23 14 24
REMARK SMILES IDX 15 25
REMARK H PARENT 2 7 7 9
ROOT
ATOM      1  C   UNL     1       4.751  47.325  54.724  1.00  0.00     0.120 C 
ENDROOT
BRANCH   1   2
ATOM      2  C   UNL     1       6.135  46.694  54.571  1.00  0.00     0.082 C 
BRANCH   2   3
ATOM      3  C   UNL     1       6.833  47.242  53.332  1.00  0.00     0.263 C 
BRANCH   3   4
ATOM      4  N   UNL     1       8.105  46.469  53.038  1.00  0.00    -0.340 N 
ATOM      5  C   UNL     1       8.180  46.076  51.583  1.00  0.00     0.332 C 
ATOM      6  C   UNL     1       9.360  47.182  53.464  1.00  0.00     0.332 C 
ATOM      7  H   UNL     1       8.061  45.588  53.569  1.00  0.00     0.347 HD
ENDBRANCH   3   4
ENDBRANCH   2   3
ENDBRANCH   1   2
BRANCH   1   8
ATOM      8  N   UNL     1       3.901  46.423  55.488  1.00  0.00    -0.369 N 
ATOM      9  H   UNL     1       3.203  46.903  56.053  1.00  0.00     0.162 HD
BRANCH   8  10
ATOM     10  C   UNL     1       3.226  45.469  54.699  1.00  0.00     0.133 A 
ATOM     11  N   UNL     1       3.863  44.845  53.691  1.00  0.00    -0.211 NA
ATOM     12  C   UNL     1       1.926  45.151  54.995  1.00  0.00     0.016 A 
ATOM     13  C   UNL     1       3.174  43.925  52.965  1.00  0.00     0.161 A 
ATOM     14  C   UNL     1       1.307  44.210  54.201  1.00  0.00     0.050 A 
ATOM     15  C   UNL     1       0.997  45.674  56.036  1.00  0.00     0.042 C 
ATOM     16  N   UNL     1       1.888  43.584  53.177  1.00  0.00    -0.233 NA
ATOM     17  C   UNL     1      -0.123  44.006  54.615  1.00  0.00     0.057 C 
ATOM     18  C   UNL     1      -0.097  44.595  56.031  1.00  0.00     0.011 C 
BRANCH  13  19
ATOM     19  C   UNL     1       3.887  43.255  51.855  1.00  0.00     0.019 A 
ATOM     20  C   UNL     1       3.416  42.047  51.302  1.00  0.00     0.013 A 
ATOM     21  C   UNL     1       5.066  43.796  51.303  1.00  0.00     0.013 A 
ATOM     22  C   UNL     1       4.087  41.409  50.252  1.00  0.00     0.021 A 
ATOM     23  C   UNL     1       5.741  43.163  50.253  1.00  0.00     0.021 A 
ATOM     24  C   UNL     1       5.247  41.971  49.731  1.00  0.00     0.041 A 
ATOM     25  Cl  UNL     1       6.076  41.194  48.441  1.00  0.00    -0.084 Cl
ENDBRANCH  13  19
ENDBRANCH   8  10
ENDBRANCH   1   8
TORSDOF 6
ENDMDL
MODEL 19
REMARK VINA RESULT:    -6.506      3.509      6.460
REMARK INTER + INTRA:         -10.052
REMARK INTER:                  -9.328
REMARK INTRA:                  -0.724
REMARK UNBOUND:                -1.264
REMARK SMILES C[NH+](C)CCCNc1nc(-c2ccc(Cl)cc2)nc2c1CCC2
REMARK SMILES IDX 6 1 5 2 4 3 2 4 1 5 3 6 7 8 8 10 9 11 20 12 10 13 19 14
REMARK SMILES IDX 21 15 18 16 23 17 22 18 11 19 12 20 17 21 13 22 16 23 14 24
REMARK SMILES IDX 15 25
REMARK H PARENT 2 7 7 9
ROOT
ATOM      1  C   UNL     1       1.049  43.373  50.967  1.00  0.00     0.120 C 
ENDROOT
BRANCH   1   2
ATOM      2  C   UNL     1      -0.450  43.083  51.050  1.00  0.00     0.082 C 
BRANCH   2   3
ATOM      3  C   UNL     1      -1.243  44.383  51.017  1.00  0.00     0.263 C 
BRANCH   3   4
ATOM      4  N   UNL     1      -2.004  44.523  49.712  1.00  0.00    -0.340 N 
ATOM      5  C   UNL     1      -2.469  43.180  49.206  1.00  0.00     0.332 C 
ATOM      6  C   UNL     1      -3.152  45.494  49.781  1.00  0.00     0.332 C 
ATOM      7  H   UNL     1      -1.346  44.880  49.006  1.00  0.00     0.347 HD
ENDBRANCH   3   4
ENDBRANCH   2   3
ENDBRANCH   1   2
BRANCH   1   8
ATOM      8  N   UNL     1       1.715  42.754  52.105  1.00  0.00    -0.369 N 
ATOM      9  H   UNL     1       2.441  42.091  51.840  1.00  0.00     0.162 HD
BRANCH   8  10
ATOM     10  C   UNL     1       2.290  43.677  53.002  1.00  0.00     0.133 A 
ATOM     11  N   UNL     1       3.529  44.156  52.786  1.00  0.00    -0.211 NA
ATOM     12  C   UNL     1       1.558  44.118  54.074  1.00  0.00     0.016 A 
ATOM     13  C   UNL     1       4.037  45.053  53.672  1.00  0.00     0.161 A 
ATOM     14  C   UNL     1       2.157  45.025  54.921  1.00  0.00     0.050 A 
ATOM     15  C   UNL     1       0.188  43.765  54.542  1.00  0.00     0.042 C 
ATOM     16  N   UNL     1       3.390  45.508  54.763  1.00  0.00    -0.233 NA
ATOM     17  C   UNL     1       1.254  45.372  56.070  1.00  0.00     0.057 C 
ATOM     18  C   UNL     1      -0.102  44.917  55.516  1.00  0.00     0.011 C 
BRANCH  13  19
ATOM     19  C   UNL     1       5.404  45.562  53.424  1.00  0.00     0.019 A 
ATOM     20  C   UNL     1       6.192  46.090  54.467  1.00  0.00     0.013 A 
ATOM     21  C   UNL     1       5.978  45.539  52.136  1.00  0.00     0.013 A 
ATOM     22  C   UNL     1       7.486  46.572  54.238  1.00  0.00     0.021 A 
ATOM     23  C   UNL     1       7.271  46.020  51.901  1.00  0.00     0.021 A 
ATOM     24  C   UNL     1       8.020  46.534  52.955  1.00  0.00     0.041 A 
ATOM     25  Cl  UNL     1       9.609  47.124  52.667  1.00  0.00    -0.084 Cl
ENDBRANCH  13  19
ENDBRANCH   8  10
ENDBRANCH   1   8
TORSDOF 6
ENDMDL
MODEL 20
REMARK VINA RESULT:    -6.422      3.257      6.346
REMARK INTER + INTRA:          -9.938
REMARK INTER:                  -9.266
REMARK INTRA:                  -0.672
REMARK UNBOUND:                -1.264
REMARK SMILES C[NH+](C)CCCNc1nc(-c2ccc(Cl)cc2)nc2c1CCC2
REMARK SMILES IDX 6 1 5 2 4 3 2 4 1 5 3 6 7 8 8 10 9 11 20 12 10 13 19 14
REMARK SMILES IDX 21 15 18 16 23 17 22 18 11 19 12 20 17 21 13 22 16 23 14 24
REMARK SMILES IDX 15 25
REMARK H PARENT 2 7 7 9
ROOT
ATOM      1  C   UNL     1       3.805  42.287  51.381  1.00  0.00     0.120 C 
ENDROOT
BRANCH   1   2
ATOM      2  C   UNL     1       4.944  41.449  50.799  1.00  0.00     0.082 C 
BRANCH   2   3
ATOM      3  C   UNL     1       4.745  41.255  49.301  1.00  0.00     0.263 C 
BRANCH   3   4
ATOM      4  N   UNL     1       6.013  41.589  48.537  1.00  0.00    -0.340 N 
ATOM      5  C   UNL     1       5.718  41.864  47.083  1.00  0.00     0.332 C 
ATOM      6  C   UNL     1       6.807  42.715  49.142  1.00  0.00     0.332 C 
ATOM      7  H   UNL     1       6.613  40.752  48.552  1.00  0.00     0.347 HD
ENDBRANCH   3   4
ENDBRANCH   2   3
ENDBRANCH   1   2
BRANCH   1   8
ATOM      8  N   UNL     1       4.159  43.697  51.290  1.00  0.00    -0.369 N 
ATOM      9  H   UNL     1       3.660  44.195  50.555  1.00  0.00     0.162 HD
BRANCH   8  10
ATOM     10  C   UNL     1       3.971  44.411  52.491  1.00  0.00     0.133 A 
ATOM     11  N   UNL     1       2.812  44.313  53.167  1.00  0.00    -0.211 NA
ATOM     12  C   UNL     1       4.997  45.174  52.987  1.00  0.00     0.016 A 
ATOM     13  C   UNL     1       2.682  45.012  54.326  1.00  0.00     0.161 A 
ATOM     14  C   UNL     1       4.771  45.850  54.166  1.00  0.00     0.050 A 
ATOM     15  C   UNL     1       6.361  45.453  52.456  1.00  0.00     0.042 C 
ATOM     16  N   UNL     1       3.632  45.804  54.858  1.00  0.00    -0.233 NA
ATOM     17  C   UNL     1       5.963  46.678  54.553  1.00  0.00     0.057 C 
ATOM     18  C   UNL     1       7.058  46.018  53.704  1.00  0.00     0.011 C 
BRANCH  13  19
ATOM     19  C   UNL     1       1.397  44.900  55.052  1.00  0.00     0.019 A 
ATOM     20  C   UNL     1       0.271  44.289  54.464  1.00  0.00     0.013 A 
ATOM     21  C   UNL     1       1.244  45.398  56.362  1.00  0.00     0.013 A 
ATOM     22  C   UNL     1      -0.946  44.181  55.145  1.00  0.00     0.021 A 
ATOM     23  C   UNL     1       0.029  45.293  57.049  1.00  0.00     0.021 A 
ATOM     24  C   UNL     1      -1.062  44.683  56.437  1.00  0.00     0.041 A 
ATOM     25  Cl  UNL     1      -2.554  44.553  57.281  1.00  0.00    -0.084 Cl
ENDBRANCH  13  19
ENDBRANCH   8  10
ENDBRANCH   1   8
TORSDOF 6
ENDMDL
