MODEL 1
REMARK VINA RESULT:    -8.761      0.000      0.000
REMARK INTER + INTRA:         -13.490
REMARK INTER:                 -12.091
REMARK INTRA:                  -1.399
REMARK UNBOUND:                -1.399
REMARK SMILES Cc1ccc(Nc2nc(NC[C@@H]3CCCO3)nc(N)c2[N+](=O)[O-])cc1
REMARK SMILES IDX 7 1 8 2 9 3 17 4 18 5 20 6 6 7 5 9 2 10 3 11 25 12 4 13
REMARK SMILES IDX 24 14 1 15 21 16 22 17 23 18 10 19 11 21 12 22 13 23 16 24
REMARK SMILES IDX 14 25 15 26 19 27
REMARK H PARENT 6 8 10 20 19 28 19 29
ROOT
ATOM      1  C   UNL     1       6.706  44.943  50.661  1.00  0.00     0.217 A 
ATOM      2  N   UNL     1       5.545  44.931  51.341  1.00  0.00    -0.188 NA
ATOM      3  C   UNL     1       4.768  43.844  51.237  1.00  0.00     0.227 A 
ATOM      4  N   UNL     1       5.088  42.766  50.513  1.00  0.00    -0.189 NA
ATOM      5  C   UNL     1       6.256  42.761  49.852  1.00  0.00     0.210 A 
ATOM      6  C   UNL     1       7.100  43.850  49.920  1.00  0.00     0.353 A 
ENDROOT
BRANCH   1   7
ATOM      7  N   UNL     1       7.449  46.132  50.790  1.00  0.00    -0.334 N 
ATOM      8  H   UNL     1       8.100  46.122  50.002  1.00  0.00     0.168 HD
BRANCH   7   9
ATOM      9  C   UNL     1       8.165  46.539  51.942  1.00  0.00     0.040 A 
ATOM     10  C   UNL     1       9.682  47.182  54.232  1.00  0.00    -0.051 A 
ATOM     11  C   UNL     1       8.284  47.205  54.276  1.00  0.00     0.005 A 
ATOM     12  C   UNL     1      10.315  46.791  53.048  1.00  0.00     0.005 A 
ATOM     13  C   UNL     1       7.532  46.879  53.143  1.00  0.00     0.026 A 
ATOM     14  C   UNL     1       9.561  46.466  51.918  1.00  0.00     0.026 A 
ATOM     15  C   UNL     1      10.487  47.504  55.455  1.00  0.00     0.044 C 
ENDBRANCH   7   9
ENDBRANCH   1   7
BRANCH   6  16
ATOM     16  N   UNL     1       8.370  43.807  49.270  1.00  0.00     0.070 N 
ATOM     17  O   UNL     1       9.373  43.787  50.000  1.00  0.00    -0.258 OA
ATOM     18  O   UNL     1       8.384  43.880  48.034  1.00  0.00    -0.258 OA
ENDBRANCH   6  16
BRANCH   3  19
ATOM     19  N   UNL     1       3.546  43.798  51.887  1.00  0.00    -0.351 N 
ATOM     20  H   UNL     1       3.734  43.463  52.832  1.00  0.00     0.163 HD
BRANCH  19  21
ATOM     21  C   UNL     1       2.793  45.045  51.861  1.00  0.00     0.148 C 
BRANCH  21  22
ATOM     22  C   UNL     1       2.874  45.717  53.237  1.00  0.00     0.137 C 
ATOM     23  C   UNL     1       3.705  46.990  53.235  1.00  0.00     0.036 C 
ATOM     24  O   UNL     1       3.510  44.836  54.190  1.00  0.00    -0.376 OA
ATOM     25  C   UNL     1       4.133  47.072  54.678  1.00  0.00     0.031 C 
ATOM     26  C   UNL     1       4.384  45.618  55.017  1.00  0.00     0.160 C 
ENDBRANCH  21  22
ENDBRANCH  19  21
ENDBRANCH   3  19
BRANCH   5  27
ATOM     27  N   UNL     1       6.542  41.581  49.150  1.00  0.00    -0.378 N 
ATOM     28  H   UNL     1       5.805  40.890  49.263  1.00  0.00     0.158 HD
ATOM     29  H   UNL     1       7.411  41.163  49.484  1.00  0.00     0.158 HD
ENDBRANCH   5  27
TORSDOF 7
ENDMDL
MODEL 2
REMARK VINA RESULT:    -8.708      0.855      1.053
REMARK INTER + INTRA:         -13.417
REMARK INTER:                 -12.082
REMARK INTRA:                  -1.335
REMARK UNBOUND:                -1.399
REMARK SMILES Cc1ccc(Nc2nc(NC[C@@H]3CCCO3)nc(N)c2[N+](=O)[O-])cc1
REMARK SMILES IDX 7 1 8 2 9 3 17 4 18 5 20 6 6 7 5 9 2 10 3 11 25 12 4 13
REMARK SMILES IDX 24 14 1 15 21 16 22 17 23 18 10 19 11 21 12 22 13 23 16 24
REMARK SMILES IDX 14 25 15 26 19 27
REMARK H PARENT 6 8 10 20 19 28 19 29
ROOT
ATOM      1  C   UNL     1       6.153  44.477  50.809  1.00  0.00     0.217 A 
ATOM      2  N   UNL     1       5.252  44.492  51.810  1.00  0.00    -0.188 NA
ATOM      3  C   UNL     1       4.420  43.448  51.921  1.00  0.00     0.227 A 
ATOM      4  N   UNL     1       4.445  42.385  51.109  1.00  0.00    -0.189 NA
ATOM      5  C   UNL     1       5.356  42.351  50.125  1.00  0.00     0.210 A 
ATOM      6  C   UNL     1       6.242  43.396  49.958  1.00  0.00     0.353 A 
ENDROOT
BRANCH   1   7
ATOM      7  N   UNL     1       6.965  45.624  50.734  1.00  0.00    -0.334 N 
ATOM      8  H   UNL     1       7.568  45.466  49.924  1.00  0.00     0.168 HD
BRANCH   7   9
ATOM      9  C   UNL     1       7.769  46.138  51.781  1.00  0.00     0.040 A 
ATOM     10  C   UNL     1       9.452  46.990  53.878  1.00  0.00    -0.051 A 
ATOM     11  C   UNL     1       8.062  47.090  53.997  1.00  0.00     0.005 A 
ATOM     12  C   UNL     1       9.992  46.420  52.721  1.00  0.00     0.005 A 
ATOM     13  C   UNL     1       7.227  46.660  52.961  1.00  0.00     0.026 A 
ATOM     14  C   UNL     1       9.156  45.992  51.688  1.00  0.00     0.026 A 
ATOM     15  C   UNL     1      10.345  47.425  55.001  1.00  0.00     0.044 C 
ENDBRANCH   7   9
ENDBRANCH   1   7
BRANCH   6  16
ATOM     16  N   UNL     1       7.251  43.320  48.952  1.00  0.00     0.070 N 
ATOM     17  O   UNL     1       6.879  43.032  47.804  1.00  0.00    -0.258 OA
ATOM     18  O   UNL     1       8.428  43.462  49.310  1.00  0.00    -0.258 OA
ENDBRANCH   6  16
BRANCH   3  19
ATOM     19  N   UNL     1       3.451  43.432  52.910  1.00  0.00    -0.351 N 
ATOM     20  H   UNL     1       3.947  43.467  53.801  1.00  0.00     0.163 HD
BRANCH  19  21
ATOM     21  C   UNL     1       2.432  44.467  52.783  1.00  0.00     0.148 C 
BRANCH  21  22
ATOM     22  C   UNL     1       2.667  45.547  53.846  1.00  0.00     0.137 C 
ATOM     23  C   UNL     1       3.402  46.764  53.311  1.00  0.00     0.036 C 
ATOM     24  O   UNL     1       3.491  45.028  54.914  1.00  0.00    -0.376 OA
ATOM     25  C   UNL     1       4.028  47.313  54.568  1.00  0.00     0.031 C 
ATOM     26  C   UNL     1       4.422  46.049  55.304  1.00  0.00     0.160 C 
ENDBRANCH  21  22
ENDBRANCH  19  21
ENDBRANCH   3  19
BRANCH   5  27
ATOM     27  N   UNL     1       5.350  41.188  49.342  1.00  0.00    -0.378 N 
ATOM     28  H   UNL     1       6.050  41.229  48.605  1.00  0.00     0.158 HD
ATOM     29  H   UNL     1       4.442  41.055  48.897  1.00  0.00     0.158 HD
ENDBRANCH   5  27
TORSDOF 7
ENDMDL
MODEL 3
REMARK VINA RESULT:    -8.578      1.078      1.600
REMARK INTER + INTRA:         -13.236
REMARK INTER:                 -11.805
REMARK INTRA:                  -1.432
REMARK UNBOUND:                -1.399
REMARK SMILES Cc1ccc(Nc2nc(NC[C@@H]3CCCO3)nc(N)c2[N+](=O)[O-])cc1
REMARK SMILES IDX 7 1 8 2 9 3 17 4 18 5 20 6 6 7 5 9 2 10 3 11 25 12 4 13
REMARK SMILES IDX 24 14 1 15 21 16 22 17 23 18 10 19 11 21 12 22 13 23 16 24
REMARK SMILES IDX 14 25 15 26 19 27
REMARK H PARENT 6 8 10 20 19 28 19 29
ROOT
ATOM      1  C   UNL     1       6.156  44.493  50.675  1.00  0.00     0.217 A 
ATOM      2  N   UNL     1       4.999  44.283  51.331  1.00  0.00    -0.188 NA
ATOM      3  C   UNL     1       4.384  43.105  51.156  1.00  0.00     0.227 A 
ATOM      4  N   UNL     1       4.862  42.121  50.386  1.00  0.00    -0.189 NA
ATOM      5  C   UNL     1       6.028  42.315  49.750  1.00  0.00     0.210 A 
ATOM      6  C   UNL     1       6.709  43.506  49.889  1.00  0.00     0.353 A 
ENDROOT
BRANCH   1   7
ATOM      7  N   UNL     1       6.722  45.766  50.878  1.00  0.00    -0.334 N 
ATOM      8  H   UNL     1       7.136  46.017  49.978  1.00  0.00     0.168 HD
BRANCH   7   9
ATOM      9  C   UNL     1       7.649  46.106  51.894  1.00  0.00     0.040 A 
ATOM     10  C   UNL     1       9.393  46.942  53.948  1.00  0.00    -0.051 A 
ATOM     11  C   UNL     1       9.881  46.680  52.663  1.00  0.00     0.005 A 
ATOM     12  C   UNL     1       8.021  46.826  54.186  1.00  0.00     0.005 A 
ATOM     13  C   UNL     1       9.016  46.273  51.643  1.00  0.00     0.026 A 
ATOM     14  C   UNL     1       7.158  46.420  53.165  1.00  0.00     0.026 A 
ATOM     15  C   UNL     1      10.318  47.405  55.034  1.00  0.00     0.044 C 
ENDBRANCH   7   9
ENDBRANCH   1   7
BRANCH   6  16
ATOM     16  N   UNL     1       7.981  43.676  49.264  1.00  0.00     0.070 N 
ATOM     17  O   UNL     1       8.934  43.047  49.751  1.00  0.00    -0.258 OA
ATOM     18  O   UNL     1       8.061  44.497  48.341  1.00  0.00    -0.258 OA
ENDBRANCH   6  16
BRANCH   3  19
ATOM     19  N   UNL     1       3.173  42.854  51.778  1.00  0.00    -0.351 N 
ATOM     20  H   UNL     1       3.375  42.244  52.570  1.00  0.00     0.163 HD
BRANCH  19  21
ATOM     21  C   UNL     1       2.420  44.045  52.153  1.00  0.00     0.148 C 
BRANCH  21  22
ATOM     22  C   UNL     1       2.242  44.076  53.676  1.00  0.00     0.137 C 
ATOM     23  C   UNL     1       0.961  44.764  54.116  1.00  0.00     0.036 C 
ATOM     24  O   UNL     1       3.318  44.819  54.291  1.00  0.00    -0.376 OA
ATOM     25  C   UNL     1       1.321  45.205  55.512  1.00  0.00     0.031 C 
ATOM     26  C   UNL     1       2.769  45.617  55.351  1.00  0.00     0.160 C 
ENDBRANCH  21  22
ENDBRANCH  19  21
ENDBRANCH   3  19
BRANCH   5  27
ATOM     27  N   UNL     1       6.487  41.225  48.996  1.00  0.00    -0.378 N 
ATOM     28  H   UNL     1       7.497  41.122  49.064  1.00  0.00     0.158 HD
ATOM     29  H   UNL     1       6.254  41.343  48.010  1.00  0.00     0.158 HD
ENDBRANCH   5  27
TORSDOF 7
ENDMDL
MODEL 4
REMARK VINA RESULT:    -8.532      1.499      2.117
REMARK INTER + INTRA:         -13.174
REMARK INTER:                 -12.076
REMARK INTRA:                  -1.098
REMARK UNBOUND:                -1.399
REMARK SMILES Cc1ccc(Nc2nc(NC[C@@H]3CCCO3)nc(N)c2[N+](=O)[O-])cc1
REMARK SMILES IDX 7 1 8 2 9 3 17 4 18 5 20 6 6 7 5 9 2 10 3 11 25 12 4 13
REMARK SMILES IDX 24 14 1 15 21 16 22 17 23 18 10 19 11 21 12 22 13 23 16 24
REMARK SMILES IDX 14 25 15 26 19 27
REMARK H PARENT 6 8 10 20 19 28 19 29
ROOT
ATOM      1  C   UNL     1       6.068  44.507  50.939  1.00  0.00     0.217 A 
ATOM      2  N   UNL     1       5.168  44.550  51.939  1.00  0.00    -0.188 NA
ATOM      3  C   UNL     1       4.326  43.515  52.070  1.00  0.00     0.227 A 
ATOM      4  N   UNL     1       4.341  42.437  51.279  1.00  0.00    -0.189 NA
ATOM      5  C   UNL     1       5.252  42.377  50.295  1.00  0.00     0.210 A 
ATOM      6  C   UNL     1       6.147  43.410  50.109  1.00  0.00     0.353 A 
ENDROOT
BRANCH   1   7
ATOM      7  N   UNL     1       6.891  45.645  50.842  1.00  0.00    -0.334 N 
ATOM      8  H   UNL     1       7.481  45.474  50.026  1.00  0.00     0.168 HD
BRANCH   7   9
ATOM      9  C   UNL     1       7.714  46.161  51.874  1.00  0.00     0.040 A 
ATOM     10  C   UNL     1       9.445  47.021  53.929  1.00  0.00    -0.051 A 
ATOM     11  C   UNL     1       8.058  47.038  54.113  1.00  0.00     0.005 A 
ATOM     12  C   UNL     1       9.960  46.530  52.726  1.00  0.00     0.005 A 
ATOM     13  C   UNL     1       7.200  46.604  53.098  1.00  0.00     0.026 A 
ATOM     14  C   UNL     1       9.101  46.097  51.713  1.00  0.00     0.026 A 
ATOM     15  C   UNL     1      10.364  47.460  55.029  1.00  0.00     0.044 C 
ENDBRANCH   7   9
ENDBRANCH   1   7
BRANCH   6  16
ATOM     16  N   UNL     1       7.156  43.305  49.105  1.00  0.00     0.070 N 
ATOM     17  O   UNL     1       6.780  43.012  47.959  1.00  0.00    -0.258 OA
ATOM     18  O   UNL     1       8.335  43.430  49.462  1.00  0.00    -0.258 OA
ENDBRANCH   6  16
BRANCH   3  19
ATOM     19  N   UNL     1       3.358  43.528  53.059  1.00  0.00    -0.351 N 
ATOM     20  H   UNL     1       3.529  42.710  53.643  1.00  0.00     0.163 HD
BRANCH  19  21
ATOM     21  C   UNL     1       3.280  44.767  53.823  1.00  0.00     0.148 C 
BRANCH  21  22
ATOM     22  C   UNL     1       1.824  45.246  53.871  1.00  0.00     0.137 C 
ATOM     23  C   UNL     1       0.842  44.144  54.234  1.00  0.00     0.036 C 
ATOM     24  O   UNL     1       1.411  45.727  52.572  1.00  0.00    -0.376 OA
ATOM     25  C   UNL     1      -0.433  44.664  53.620  1.00  0.00     0.031 C 
ATOM     26  C   UNL     1       0.066  45.287  52.333  1.00  0.00     0.160 C 
ENDBRANCH  21  22
ENDBRANCH  19  21
ENDBRANCH   3  19
BRANCH   5  27
ATOM     27  N   UNL     1       5.235  41.199  49.535  1.00  0.00    -0.378 N 
ATOM     28  H   UNL     1       5.637  40.417  50.047  1.00  0.00     0.158 HD
ATOM     29  H   UNL     1       5.774  41.314  48.676  1.00  0.00     0.158 HD
ENDBRANCH   5  27
TORSDOF 7
ENDMDL
MODEL 5
REMARK VINA RESULT:    -8.364      2.438      5.392
REMARK INTER + INTRA:         -12.942
REMARK INTER:                 -11.680
REMARK INTRA:                  -1.263
REMARK UNBOUND:                -1.399
REMARK SMILES Cc1ccc(Nc2nc(NC[C@@H]3CCCO3)nc(N)c2[N+](=O)[O-])cc1
REMARK SMILES IDX 7 1 8 2 9 3 17 4 18 5 20 6 6 7 5 9 2 10 3 11 25 12 4 13
REMARK SMILES IDX 24 14 1 15 21 16 22 17 23 18 10 19 11 21 12 22 13 23 16 24
REMARK SMILES IDX 14 25 15 26 19 27
REMARK H PARENT 6 8 10 20 19 28 19 29
ROOT
ATOM      1  C   UNL     1       5.685  44.571  51.079  1.00  0.00     0.217 A 
ATOM      2  N   UNL     1       6.179  43.797  50.095  1.00  0.00    -0.188 NA
ATOM      3  C   UNL     1       5.661  42.570  49.942  1.00  0.00     0.227 A 
ATOM      4  N   UNL     1       4.671  42.080  50.696  1.00  0.00    -0.189 NA
ATOM      5  C   UNL     1       4.157  42.856  51.663  1.00  0.00     0.210 A 
ATOM      6  C   UNL     1       4.647  44.128  51.871  1.00  0.00     0.353 A 
ENDROOT
BRANCH   1   7
ATOM      7  N   UNL     1       6.305  45.829  51.202  1.00  0.00    -0.334 N 
ATOM      8  H   UNL     1       6.631  46.055  50.260  1.00  0.00     0.168 HD
BRANCH   7   9
ATOM      9  C   UNL     1       7.341  46.156  52.112  1.00  0.00     0.040 A 
ATOM     10  C   UNL     1       9.313  46.971  53.957  1.00  0.00    -0.051 A 
ATOM     11  C   UNL     1       9.663  46.630  52.646  1.00  0.00     0.005 A 
ATOM     12  C   UNL     1       7.965  46.944  54.325  1.00  0.00     0.005 A 
ATOM     13  C   UNL     1       8.685  46.234  51.729  1.00  0.00     0.026 A 
ATOM     14  C   UNL     1       6.989  46.547  53.407  1.00  0.00     0.026 A 
ATOM     15  C   UNL     1      10.359  47.423  54.931  1.00  0.00     0.044 C 
ENDBRANCH   7   9
ENDBRANCH   1   7
BRANCH   6  16
ATOM     16  N   UNL     1       4.048  44.971  52.855  1.00  0.00     0.070 N 
ATOM     17  O   UNL     1       3.578  46.049  52.460  1.00  0.00    -0.258 OA
ATOM     18  O   UNL     1       4.116  44.608  54.037  1.00  0.00    -0.258 OA
ENDBRANCH   6  16
BRANCH   3  19
ATOM     19  N   UNL     1       6.159  41.721  48.969  1.00  0.00    -0.351 N 
ATOM     20  H   UNL     1       5.628  40.853  49.042  1.00  0.00     0.163 HD
BRANCH  19  21
ATOM     21  C   UNL     1       6.165  42.274  47.620  1.00  0.00     0.148 C 
BRANCH  21  22
ATOM     22  C   UNL     1       5.494  41.283  46.661  1.00  0.00     0.137 C 
ATOM     23  C   UNL     1       5.068  41.915  45.347  1.00  0.00     0.036 C 
ATOM     24  O   UNL     1       4.286  40.752  47.251  1.00  0.00    -0.376 OA
ATOM     25  C   UNL     1       3.960  40.990  44.913  1.00  0.00     0.031 C 
ATOM     26  C   UNL     1       3.282  40.669  46.229  1.00  0.00     0.160 C 
ENDBRANCH  21  22
ENDBRANCH  19  21
ENDBRANCH   3  19
BRANCH   5  27
ATOM     27  N   UNL     1       3.095  42.291  52.384  1.00  0.00    -0.378 N 
ATOM     28  H   UNL     1       2.290  42.114  51.787  1.00  0.00     0.158 HD
ATOM     29  H   UNL     1       2.792  42.915  53.132  1.00  0.00     0.158 HD
ENDBRANCH   5  27
TORSDOF 7
ENDMDL
MODEL 6
REMARK VINA RESULT:    -8.347      1.696      2.647
REMARK INTER + INTRA:         -12.918
REMARK INTER:                 -11.760
REMARK INTRA:                  -1.159
REMARK UNBOUND:                -1.399
REMARK SMILES Cc1ccc(Nc2nc(NC[C@@H]3CCCO3)nc(N)c2[N+](=O)[O-])cc1
REMARK SMILES IDX 7 1 8 2 9 3 17 4 18 5 20 6 6 7 5 9 2 10 3 11 25 12 4 13
REMARK SMILES IDX 24 14 1 15 21 16 22 17 23 18 10 19 11 21 12 22 13 23 16 24
REMARK SMILES IDX 14 25 15 26 19 27
REMARK H PARENT 6 8 10 20 19 28 19 29
ROOT
ATOM      1  C   UNL     1       6.199  44.427  50.828  1.00  0.00     0.217 A 
ATOM      2  N   UNL     1       5.208  44.260  51.724  1.00  0.00    -0.188 NA
ATOM      3  C   UNL     1       4.516  43.113  51.688  1.00  0.00     0.227 A 
ATOM      4  N   UNL     1       4.766  42.119  50.828  1.00  0.00    -0.189 NA
ATOM      5  C   UNL     1       5.768  42.268  49.949  1.00  0.00     0.210 A 
ATOM      6  C   UNL     1       6.518  43.426  49.936  1.00  0.00     0.353 A 
ENDROOT
BRANCH   1   7
ATOM      7  N   UNL     1       6.854  45.671  50.903  1.00  0.00    -0.334 N 
ATOM      8  H   UNL     1       7.346  45.764  50.012  1.00  0.00     0.168 HD
BRANCH   7   9
ATOM      9  C   UNL     1       7.736  46.080  51.933  1.00  0.00     0.040 A 
ATOM     10  C   UNL     1       9.380  47.046  54.013  1.00  0.00    -0.051 A 
ATOM     11  C   UNL     1       9.909  46.810  52.739  1.00  0.00     0.005 A 
ATOM     12  C   UNL     1       8.014  46.837  54.226  1.00  0.00     0.005 A 
ATOM     13  C   UNL     1       9.093  46.339  51.706  1.00  0.00     0.026 A 
ATOM     14  C   UNL     1       7.201  46.367  53.193  1.00  0.00     0.026 A 
ATOM     15  C   UNL     1      10.250  47.578  55.111  1.00  0.00     0.044 C 
ENDBRANCH   7   9
ENDBRANCH   1   7
BRANCH   6  16
ATOM     16  N   UNL     1       7.626  43.548  49.044  1.00  0.00     0.070 N 
ATOM     17  O   UNL     1       7.387  43.423  47.833  1.00  0.00    -0.258 OA
ATOM     18  O   UNL     1       8.751  43.683  49.542  1.00  0.00    -0.258 OA
ENDBRANCH   6  16
BRANCH   3  19
ATOM     19  N   UNL     1       3.463  42.908  52.563  1.00  0.00    -0.351 N 
ATOM     20  H   UNL     1       3.806  42.275  53.286  1.00  0.00     0.163 HD
BRANCH  19  21
ATOM     21  C   UNL     1       2.872  44.126  53.104  1.00  0.00     0.148 C 
BRANCH  21  22
ATOM     22  C   UNL     1       1.344  44.034  53.012  1.00  0.00     0.137 C 
ATOM     23  C   UNL     1       0.801  42.669  53.400  1.00  0.00     0.036 C 
ATOM     24  O   UNL     1       0.908  44.259  51.653  1.00  0.00    -0.376 OA
ATOM     25  C   UNL     1      -0.512  42.647  52.659  1.00  0.00     0.031 C 
ATOM     26  C   UNL     1      -0.155  43.340  51.361  1.00  0.00     0.160 C 
ENDBRANCH  21  22
ENDBRANCH  19  21
ENDBRANCH   3  19
BRANCH   5  27
ATOM     27  N   UNL     1       5.998  41.169  49.109  1.00  0.00    -0.378 N 
ATOM     28  H   UNL     1       5.128  40.783  48.751  1.00  0.00     0.158 HD
ATOM     29  H   UNL     1       6.482  40.424  49.612  1.00  0.00     0.158 HD
ENDBRANCH   5  27
TORSDOF 7
ENDMDL
MODEL 7
REMARK VINA RESULT:    -8.215      2.887      5.193
REMARK INTER + INTRA:         -12.736
REMARK INTER:                 -11.491
REMARK INTRA:                  -1.245
REMARK UNBOUND:                -1.399
REMARK SMILES Cc1ccc(Nc2nc(NC[C@@H]3CCCO3)nc(N)c2[N+](=O)[O-])cc1
REMARK SMILES IDX 7 1 8 2 9 3 17 4 18 5 20 6 6 7 5 9 2 10 3 11 25 12 4 13
REMARK SMILES IDX 24 14 1 15 21 16 22 17 23 18 10 19 11 21 12 22 13 23 16 24
REMARK SMILES IDX 14 25 15 26 19 27
REMARK H PARENT 6 8 10 20 19 28 19 29
ROOT
ATOM      1  C   UNL     1       4.462  45.992  52.704  1.00  0.00     0.217 A 
ATOM      2  N   UNL     1       3.982  44.807  52.280  1.00  0.00    -0.188 NA
ATOM      3  C   UNL     1       3.224  44.098  53.128  1.00  0.00     0.227 A 
ATOM      4  N   UNL     1       2.901  44.507  54.360  1.00  0.00    -0.189 NA
ATOM      5  C   UNL     1       3.354  45.698  54.779  1.00  0.00     0.210 A 
ATOM      6  C   UNL     1       4.139  46.475  53.953  1.00  0.00     0.353 A 
ENDROOT
BRANCH   1   7
ATOM      7  N   UNL     1       5.279  46.659  51.773  1.00  0.00    -0.334 N 
ATOM      8  H   UNL     1       4.893  46.414  50.859  1.00  0.00     0.168 HD
BRANCH   7   9
ATOM      9  C   UNL     1       6.690  46.560  51.690  1.00  0.00     0.040 A 
ATOM     10  C   UNL     1       9.482  46.175  51.567  1.00  0.00    -0.051 A 
ATOM     11  C   UNL     1       8.933  47.128  52.431  1.00  0.00     0.005 A 
ATOM     12  C   UNL     1       8.622  45.384  50.799  1.00  0.00     0.005 A 
ATOM     13  C   UNL     1       7.549  47.314  52.498  1.00  0.00     0.026 A 
ATOM     14  C   UNL     1       7.240  45.571  50.867  1.00  0.00     0.026 A 
ATOM     15  C   UNL     1      10.965  45.957  51.517  1.00  0.00     0.044 C 
ENDBRANCH   7   9
ENDBRANCH   1   7
BRANCH   6  16
ATOM     16  N   UNL     1       4.559  47.770  54.383  1.00  0.00     0.070 N 
ATOM     17  O   UNL     1       4.006  48.745  53.851  1.00  0.00    -0.258 OA
ATOM     18  O   UNL     1       5.499  47.831  55.187  1.00  0.00    -0.258 OA
ENDBRANCH   6  16
BRANCH   3  19
ATOM     19  N   UNL     1       2.738  42.856  52.754  1.00  0.00    -0.351 N 
ATOM     20  H   UNL     1       1.848  42.736  53.237  1.00  0.00     0.163 HD
BRANCH  19  21
ATOM     21  C   UNL     1       2.639  42.647  51.315  1.00  0.00     0.148 C 
BRANCH  21  22
ATOM     22  C   UNL     1       3.719  41.654  50.869  1.00  0.00     0.137 C 
ATOM     23  C   UNL     1       5.021  42.324  50.467  1.00  0.00     0.036 C 
ATOM     24  O   UNL     1       3.277  40.922  49.703  1.00  0.00    -0.376 OA
ATOM     25  C   UNL     1       5.614  41.296  49.537  1.00  0.00     0.031 C 
ATOM     26  C   UNL     1       4.389  40.787  48.806  1.00  0.00     0.160 C 
ENDBRANCH  21  22
ENDBRANCH  19  21
ENDBRANCH   3  19
BRANCH   5  27
ATOM     27  N   UNL     1       2.940  46.078  56.064  1.00  0.00    -0.378 N 
ATOM     28  H   UNL     1       3.388  45.516  56.783  1.00  0.00     0.158 HD
ATOM     29  H   UNL     1       1.931  45.966  56.167  1.00  0.00     0.158 HD
ENDBRANCH   5  27
TORSDOF 7
ENDMDL
MODEL 8
REMARK VINA RESULT:    -8.094      2.997      6.354
REMARK INTER + INTRA:         -12.569
REMARK INTER:                 -11.666
REMARK INTRA:                  -0.903
REMARK UNBOUND:                -1.399
REMARK SMILES Cc1ccc(Nc2nc(NC[C@@H]3CCCO3)nc(N)c2[N+](=O)[O-])cc1
REMARK SMILES IDX 7 1 8 2 9 3 17 4 18 5 20 6 6 7 5 9 2 10 3 11 25 12 4 13
REMARK SMILES IDX 24 14 1 15 21 16 22 17 23 18 10 19 11 21 12 22 13 23 16 24
REMARK SMILES IDX 14 25 15 26 19 27
REMARK H PARENT 6 8 10 20 19 28 19 29
ROOT
ATOM      1  C   UNL     1       3.032  44.442  53.240  1.00  0.00     0.217 A 
ATOM      2  N   UNL     1       4.083  45.226  53.544  1.00  0.00    -0.188 NA
ATOM      3  C   UNL     1       4.014  45.964  54.660  1.00  0.00     0.227 A 
ATOM      4  N   UNL     1       2.971  45.952  55.498  1.00  0.00    -0.189 NA
ATOM      5  C   UNL     1       1.930  45.155  55.214  1.00  0.00     0.210 A 
ATOM      6  C   UNL     1       1.941  44.370  54.080  1.00  0.00     0.353 A 
ENDROOT
BRANCH   1   7
ATOM      7  N   UNL     1       3.163  43.727  52.035  1.00  0.00    -0.334 N 
ATOM      8  H   UNL     1       2.918  42.764  52.272  1.00  0.00     0.168 HD
BRANCH   7   9
ATOM      9  C   UNL     1       4.317  43.694  51.214  1.00  0.00     0.040 A 
ATOM     10  C   UNL     1       6.695  43.510  49.708  1.00  0.00    -0.051 A 
ATOM     11  C   UNL     1       6.212  44.755  50.124  1.00  0.00     0.005 A 
ATOM     12  C   UNL     1       6.005  42.355  50.088  1.00  0.00     0.005 A 
ATOM     13  C   UNL     1       5.038  44.846  50.878  1.00  0.00     0.026 A 
ATOM     14  C   UNL     1       4.832  42.448  50.840  1.00  0.00     0.026 A 
ATOM     15  C   UNL     1       7.970  43.412  48.924  1.00  0.00     0.044 C 
ENDBRANCH   7   9
ENDBRANCH   1   7
BRANCH   6  16
ATOM     16  N   UNL     1       0.860  43.474  53.822  1.00  0.00     0.070 N 
ATOM     17  O   UNL     1       1.155  42.294  53.580  1.00  0.00    -0.258 OA
ATOM     18  O   UNL     1      -0.281  43.952  53.775  1.00  0.00    -0.258 OA
ENDBRANCH   6  16
BRANCH   3  19
ATOM     19  N   UNL     1       5.053  46.815  54.998  1.00  0.00    -0.351 N 
ATOM     20  H   UNL     1       4.826  47.200  55.915  1.00  0.00     0.163 HD
BRANCH  19  21
ATOM     21  C   UNL     1       6.378  46.211  54.945  1.00  0.00     0.148 C 
BRANCH  21  22
ATOM     22  C   UNL     1       7.305  47.089  54.095  1.00  0.00     0.137 C 
ATOM     23  C   UNL     1       7.971  46.333  52.958  1.00  0.00     0.036 C 
ATOM     24  O   UNL     1       8.382  47.612  54.904  1.00  0.00    -0.376 OA
ATOM     25  C   UNL     1       9.203  47.170  52.722  1.00  0.00     0.031 C 
ATOM     26  C   UNL     1       9.591  47.566  54.131  1.00  0.00     0.160 C 
ENDBRANCH  21  22
ENDBRANCH  19  21
ENDBRANCH   3  19
BRANCH   5  27
ATOM     27  N   UNL     1       0.893  45.163  56.159  1.00  0.00    -0.378 N 
ATOM     28  H   UNL     1      -0.015  45.278  55.716  1.00  0.00     0.158 HD
ATOM     29  H   UNL     1       1.012  45.930  56.821  1.00  0.00     0.158 HD
ENDBRANCH   5  27
TORSDOF 7
ENDMDL
MODEL 9
REMARK VINA RESULT:    -8.069      2.697      6.506
REMARK INTER + INTRA:         -12.535
REMARK INTER:                 -11.330
REMARK INTRA:                  -1.205
REMARK UNBOUND:                -1.399
REMARK SMILES Cc1ccc(Nc2nc(NC[C@@H]3CCCO3)nc(N)c2[N+](=O)[O-])cc1
REMARK SMILES IDX 7 1 8 2 9 3 17 4 18 5 20 6 6 7 5 9 2 10 3 11 25 12 4 13
REMARK SMILES IDX 24 14 1 15 21 16 22 17 23 18 10 19 11 21 12 22 13 23 16 24
REMARK SMILES IDX 14 25 15 26 19 27
REMARK H PARENT 6 8 10 20 19 28 19 29
ROOT
ATOM      1  C   UNL     1       4.336  43.818  52.317  1.00  0.00     0.217 A 
ATOM      2  N   UNL     1       4.943  44.979  52.625  1.00  0.00    -0.188 NA
ATOM      3  C   UNL     1       5.950  45.388  51.840  1.00  0.00     0.227 A 
ATOM      4  N   UNL     1       6.372  44.721  50.760  1.00  0.00    -0.189 NA
ATOM      5  C   UNL     1       5.755  43.575  50.433  1.00  0.00     0.210 A 
ATOM      6  C   UNL     1       4.711  43.101  51.201  1.00  0.00     0.353 A 
ENDROOT
BRANCH   1   7
ATOM      7  N   UNL     1       3.316  43.436  53.208  1.00  0.00    -0.334 N 
ATOM      8  H   UNL     1       3.341  42.414  53.214  1.00  0.00     0.168 HD
BRANCH   7   9
ATOM      9  C   UNL     1       1.959  43.838  53.133  1.00  0.00     0.040 A 
ATOM     10  C   UNL     1      -0.781  44.468  52.905  1.00  0.00    -0.051 A 
ATOM     11  C   UNL     1       0.188  45.289  52.319  1.00  0.00     0.005 A 
ATOM     12  C   UNL     1      -0.373  43.307  53.568  1.00  0.00     0.005 A 
ATOM     13  C   UNL     1       1.546  44.972  52.425  1.00  0.00     0.026 A 
ATOM     14  C   UNL     1       0.984  42.993  53.672  1.00  0.00     0.026 A 
ATOM     15  C   UNL     1      -2.238  44.794  52.767  1.00  0.00     0.044 C 
ENDBRANCH   7   9
ENDBRANCH   1   7
BRANCH   6  16
ATOM     16  N   UNL     1       4.017  41.918  50.806  1.00  0.00     0.070 N 
ATOM     17  O   UNL     1       2.812  42.039  50.536  1.00  0.00    -0.258 OA
ATOM     18  O   UNL     1       4.639  40.849  50.843  1.00  0.00    -0.258 OA
ENDBRANCH   6  16
BRANCH   3  19
ATOM     19  N   UNL     1       6.632  46.557  52.135  1.00  0.00    -0.351 N 
ATOM     20  H   UNL     1       6.763  46.567  53.147  1.00  0.00     0.163 HD
BRANCH  19  21
ATOM     21  C   UNL     1       7.874  46.743  51.396  1.00  0.00     0.148 C 
BRANCH  21  22
ATOM     22  C   UNL     1       8.926  47.370  52.318  1.00  0.00     0.137 C 
ATOM     23  C   UNL     1       9.804  46.343  53.013  1.00  0.00     0.036 C 
ATOM     24  O   UNL     1       8.285  48.118  53.376  1.00  0.00    -0.376 OA
ATOM     25  C   UNL     1      10.252  47.106  54.233  1.00  0.00     0.031 C 
ATOM     26  C   UNL     1       9.005  47.884  54.596  1.00  0.00     0.160 C 
ENDBRANCH  21  22
ENDBRANCH  19  21
ENDBRANCH   3  19
BRANCH   5  27
ATOM     27  N   UNL     1       6.223  42.954  49.266  1.00  0.00    -0.378 N 
ATOM     28  H   UNL     1       6.512  43.637  48.569  1.00  0.00     0.158 HD
ATOM     29  H   UNL     1       5.495  42.375  48.847  1.00  0.00     0.158 HD
ENDBRANCH   5  27
TORSDOF 7
ENDMDL
MODEL 10
REMARK VINA RESULT:    -8.065      3.331      6.433
REMARK INTER + INTRA:         -12.529
REMARK INTER:                 -11.515
REMARK INTRA:                  -1.014
REMARK UNBOUND:                -1.399
REMARK SMILES Cc1ccc(Nc2nc(NC[C@@H]3CCCO3)nc(N)c2[N+](=O)[O-])cc1
REMARK SMILES IDX 7 1 8 2 9 3 17 4 18 5 20 6 6 7 5 9 2 10 3 11 25 12 4 13
REMARK SMILES IDX 24 14 1 15 21 16 22 17 23 18 10 19 11 21 12 22 13 23 16 24
REMARK SMILES IDX 14 25 15 26 19 27
REMARK H PARENT 6 8 10 20 19 28 19 29
ROOT
ATOM      1  C   UNL     1       2.432  43.645  53.299  1.00  0.00     0.217 A 
ATOM      2  N   UNL     1       3.358  44.449  53.853  1.00  0.00    -0.188 NA
ATOM      3  C   UNL     1       2.933  45.463  54.619  1.00  0.00     0.227 A 
ATOM      4  N   UNL     1       1.644  45.710  54.881  1.00  0.00    -0.189 NA
ATOM      5  C   UNL     1       0.716  44.897  54.352  1.00  0.00     0.210 A 
ATOM      6  C   UNL     1       1.091  43.836  53.555  1.00  0.00     0.353 A 
ENDROOT
BRANCH   1   7
ATOM      7  N   UNL     1       2.953  42.628  52.478  1.00  0.00    -0.334 N 
ATOM      8  H   UNL     1       3.199  41.872  53.120  1.00  0.00     0.168 HD
BRANCH   7   9
ATOM      9  C   UNL     1       4.015  42.776  51.552  1.00  0.00     0.040 A 
ATOM     10  C   UNL     1       6.231  42.947  49.814  1.00  0.00    -0.051 A 
ATOM     11  C   UNL     1       5.699  44.099  50.405  1.00  0.00     0.005 A 
ATOM     12  C   UNL     1       5.675  41.706  50.134  1.00  0.00     0.005 A 
ATOM     13  C   UNL     1       4.606  44.013  51.272  1.00  0.00     0.026 A 
ATOM     14  C   UNL     1       4.583  41.622  51.001  1.00  0.00     0.026 A 
ATOM     15  C   UNL     1       7.421  43.038  48.907  1.00  0.00     0.044 C 
ENDBRANCH   7   9
ENDBRANCH   1   7
BRANCH   6  16
ATOM     16  N   UNL     1       0.101  42.938  53.053  1.00  0.00     0.070 N 
ATOM     17  O   UNL     1      -0.542  42.287  53.891  1.00  0.00    -0.258 OA
ATOM     18  O   UNL     1       0.014  42.808  51.825  1.00  0.00    -0.258 OA
ENDBRANCH   6  16
BRANCH   3  19
ATOM     19  N   UNL     1       3.844  46.340  55.182  1.00  0.00    -0.351 N 
ATOM     20  H   UNL     1       3.552  46.481  56.149  1.00  0.00     0.163 HD
BRANCH  19  21
ATOM     21  C   UNL     1       5.239  45.934  55.060  1.00  0.00     0.148 C 
BRANCH  21  22
ATOM     22  C   UNL     1       6.034  47.044  54.363  1.00  0.00     0.137 C 
ATOM     23  C   UNL     1       6.209  46.811  52.872  1.00  0.00     0.036 C 
ATOM     24  O   UNL     1       7.370  47.123  54.907  1.00  0.00    -0.376 OA
ATOM     25  C   UNL     1       7.456  47.608  52.587  1.00  0.00     0.031 C 
ATOM     26  C   UNL     1       8.287  47.351  53.827  1.00  0.00     0.160 C 
ENDBRANCH  21  22
ENDBRANCH  19  21
ENDBRANCH   3  19
BRANCH   5  27
ATOM     27  N   UNL     1      -0.609  45.192  54.704  1.00  0.00    -0.378 N 
ATOM     28  H   UNL     1      -0.687  46.113  55.129  1.00  0.00     0.158 HD
ATOM     29  H   UNL     1      -0.966  44.512  55.375  1.00  0.00     0.158 HD
ENDBRANCH   5  27
TORSDOF 7
ENDMDL
MODEL 11
REMARK VINA RESULT:    -8.001      2.303      5.266
REMARK INTER + INTRA:         -12.441
REMARK INTER:                 -11.435
REMARK INTRA:                  -1.006
REMARK UNBOUND:                -1.399
REMARK SMILES Cc1ccc(Nc2nc(NC[C@@H]3CCCO3)nc(N)c2[N+](=O)[O-])cc1
REMARK SMILES IDX 7 1 8 2 9 3 17 4 18 5 20 6 6 7 5 9 2 10 3 11 25 12 4 13
REMARK SMILES IDX 24 14 1 15 21 16 22 17 23 18 10 19 11 21 12 22 13 23 16 24
REMARK SMILES IDX 14 25 15 26 19 27
REMARK H PARENT 6 8 10 20 19 28 19 29
ROOT
ATOM      1  C   UNL     1       6.926  46.206  52.344  1.00  0.00     0.217 A 
ATOM      2  N   UNL     1       5.759  46.340  53.001  1.00  0.00    -0.188 NA
ATOM      3  C   UNL     1       5.789  46.856  54.237  1.00  0.00     0.227 A 
ATOM      4  N   UNL     1       6.908  47.263  54.848  1.00  0.00    -0.189 NA
ATOM      5  C   UNL     1       8.073  47.155  54.189  1.00  0.00     0.210 A 
ATOM      6  C   UNL     1       8.107  46.633  52.913  1.00  0.00     0.353 A 
ENDROOT
BRANCH   1   7
ATOM      7  N   UNL     1       6.818  45.623  51.068  1.00  0.00    -0.334 N 
ATOM      8  H   UNL     1       6.490  46.376  50.461  1.00  0.00     0.168 HD
BRANCH   7   9
ATOM      9  C   UNL     1       6.078  44.456  50.752  1.00  0.00     0.040 A 
ATOM     10  C   UNL     1       4.599  42.095  50.310  1.00  0.00    -0.051 A 
ATOM     11  C   UNL     1       5.833  42.290  49.681  1.00  0.00     0.005 A 
ATOM     12  C   UNL     1       4.131  43.070  51.196  1.00  0.00     0.005 A 
ATOM     13  C   UNL     1       6.570  43.456  49.906  1.00  0.00     0.026 A 
ATOM     14  C   UNL     1       4.869  44.235  51.420  1.00  0.00     0.026 A 
ATOM     15  C   UNL     1       3.823  40.831  50.090  1.00  0.00     0.044 C 
ENDBRANCH   7   9
ENDBRANCH   1   7
BRANCH   6  16
ATOM     16  N   UNL     1       9.340  46.586  52.195  1.00  0.00     0.070 N 
ATOM     17  O   UNL     1      10.238  45.874  52.669  1.00  0.00    -0.258 OA
ATOM     18  O   UNL     1       9.455  47.322  51.206  1.00  0.00    -0.258 OA
ENDBRANCH   6  16
BRANCH   3  19
ATOM     19  N   UNL     1       4.620  46.979  54.969  1.00  0.00    -0.351 N 
ATOM     20  H   UNL     1       4.042  47.660  54.477  1.00  0.00     0.163 HD
BRANCH  19  21
ATOM     21  C   UNL     1       3.927  45.724  55.230  1.00  0.00     0.148 C 
BRANCH  21  22
ATOM     22  C   UNL     1       2.532  45.771  54.595  1.00  0.00     0.137 C 
ATOM     23  C   UNL     1       2.098  44.441  54.003  1.00  0.00     0.036 C 
ATOM     24  O   UNL     1       2.510  46.713  53.500  1.00  0.00    -0.376 OA
ATOM     25  C   UNL     1       1.095  44.885  52.969  1.00  0.00     0.031 C 
ATOM     26  C   UNL     1       1.733  46.151  52.433  1.00  0.00     0.160 C 
ENDBRANCH  21  22
ENDBRANCH  19  21
ENDBRANCH   3  19
BRANCH   5  27
ATOM     27  N   UNL     1       9.195  47.641  54.875  1.00  0.00    -0.378 N 
ATOM     28  H   UNL     1       9.931  47.926  54.233  1.00  0.00     0.158 HD
ATOM     29  H   UNL     1       9.583  46.924  55.489  1.00  0.00     0.158 HD
ENDBRANCH   5  27
TORSDOF 7
ENDMDL
MODEL 12
REMARK VINA RESULT:    -7.982      2.322      6.069
REMARK INTER + INTRA:         -12.415
REMARK INTER:                 -11.329
REMARK INTRA:                  -1.086
REMARK UNBOUND:                -1.399
REMARK SMILES Cc1ccc(Nc2nc(NC[C@@H]3CCCO3)nc(N)c2[N+](=O)[O-])cc1
REMARK SMILES IDX 7 1 8 2 9 3 17 4 18 5 20 6 6 7 5 9 2 10 3 11 25 12 4 13
REMARK SMILES IDX 24 14 1 15 21 16 22 17 23 18 10 19 11 21 12 22 13 23 16 24
REMARK SMILES IDX 14 25 15 26 19 27
REMARK H PARENT 6 8 10 20 19 28 19 29
ROOT
ATOM      1  C   UNL     1       5.057  43.532  51.486  1.00  0.00     0.217 A 
ATOM      2  N   UNL     1       5.436  44.750  51.917  1.00  0.00    -0.188 NA
ATOM      3  C   UNL     1       6.498  45.320  51.332  1.00  0.00     0.227 A 
ATOM      4  N   UNL     1       7.189  44.760  50.332  1.00  0.00    -0.189 NA
ATOM      5  C   UNL     1       6.801  43.558  49.880  1.00  0.00     0.210 A 
ATOM      6  C   UNL     1       5.716  42.919  50.442  1.00  0.00     0.353 A 
ENDROOT
BRANCH   1   7
ATOM      7  N   UNL     1       3.959  42.982  52.173  1.00  0.00    -0.334 N 
ATOM      8  H   UNL     1       3.897  42.018  51.841  1.00  0.00     0.168 HD
BRANCH   7   9
ATOM      9  C   UNL     1       2.648  43.519  52.202  1.00  0.00     0.040 A 
ATOM     10  C   UNL     1       0.069  44.655  52.084  1.00  0.00    -0.051 A 
ATOM     11  C   UNL     1       0.949  44.995  53.117  1.00  0.00     0.005 A 
ATOM     12  C   UNL     1       0.504  43.777  51.087  1.00  0.00     0.005 A 
ATOM     13  C   UNL     1       2.230  44.438  53.171  1.00  0.00     0.026 A 
ATOM     14  C   UNL     1       1.785  43.222  51.143  1.00  0.00     0.026 A 
ATOM     15  C   UNL     1      -1.295  45.274  52.011  1.00  0.00     0.044 C 
ENDBRANCH   7   9
ENDBRANCH   1   7
BRANCH   6  16
ATOM     16  N   UNL     1       5.269  41.672  49.908  1.00  0.00     0.070 N 
ATOM     17  O   UNL     1       5.275  41.556  48.673  1.00  0.00    -0.258 OA
ATOM     18  O   UNL     1       4.830  40.832  50.705  1.00  0.00    -0.258 OA
ENDBRANCH   6  16
BRANCH   3  19
ATOM     19  N   UNL     1       6.951  46.555  51.765  1.00  0.00    -0.351 N 
ATOM     20  H   UNL     1       6.930  46.530  52.784  1.00  0.00     0.163 HD
BRANCH  19  21
ATOM     21  C   UNL     1       8.248  46.951  51.231  1.00  0.00     0.148 C 
BRANCH  21  22
ATOM     22  C   UNL     1       9.114  47.517  52.363  1.00  0.00     0.137 C 
ATOM     23  C   UNL     1       9.888  46.449  53.117  1.00  0.00     0.036 C 
ATOM     24  O   UNL     1       8.285  48.171  53.350  1.00  0.00    -0.376 OA
ATOM     25  C   UNL     1      10.105  47.119  54.450  1.00  0.00     0.031 C 
ATOM     26  C   UNL     1       8.795  47.851  54.653  1.00  0.00     0.160 C 
ENDBRANCH  21  22
ENDBRANCH  19  21
ENDBRANCH   3  19
BRANCH   5  27
ATOM     27  N   UNL     1       7.546  43.054  48.805  1.00  0.00    -0.378 N 
ATOM     28  H   UNL     1       7.295  43.508  47.930  1.00  0.00     0.158 HD
ATOM     29  H   UNL     1       7.384  42.053  48.689  1.00  0.00     0.158 HD
ENDBRANCH   5  27
TORSDOF 7
ENDMDL
MODEL 13
REMARK VINA RESULT:    -7.844      3.272      5.218
REMARK INTER + INTRA:         -12.224
REMARK INTER:                 -11.239
REMARK INTRA:                  -0.986
REMARK UNBOUND:                -1.399
REMARK SMILES Cc1ccc(Nc2nc(NC[C@@H]3CCCO3)nc(N)c2[N+](=O)[O-])cc1
REMARK SMILES IDX 7 1 8 2 9 3 17 4 18 5 20 6 6 7 5 9 2 10 3 11 25 12 4 13
REMARK SMILES IDX 24 14 1 15 21 16 22 17 23 18 10 19 11 21 12 22 13 23 16 24
REMARK SMILES IDX 14 25 15 26 19 27
REMARK H PARENT 6 8 10 20 19 28 19 29
ROOT
ATOM      1  C   UNL     1       4.124  45.840  52.627  1.00  0.00     0.217 A 
ATOM      2  N   UNL     1       3.536  44.683  52.268  1.00  0.00    -0.188 NA
ATOM      3  C   UNL     1       2.798  44.042  53.185  1.00  0.00     0.227 A 
ATOM      4  N   UNL     1       2.596  44.495  54.427  1.00  0.00    -0.189 NA
ATOM      5  C   UNL     1       3.158  45.660  54.785  1.00  0.00     0.210 A 
ATOM      6  C   UNL     1       3.929  46.367  53.886  1.00  0.00     0.353 A 
ENDROOT
BRANCH   1   7
ATOM      7  N   UNL     1       4.912  46.433  51.624  1.00  0.00    -0.334 N 
ATOM      8  H   UNL     1       4.558  46.046  50.748  1.00  0.00     0.168 HD
BRANCH   7   9
ATOM      9  C   UNL     1       6.328  46.417  51.567  1.00  0.00     0.040 A 
ATOM     10  C   UNL     1       9.140  46.201  51.507  1.00  0.00    -0.051 A 
ATOM     11  C   UNL     1       8.518  47.177  52.293  1.00  0.00     0.005 A 
ATOM     12  C   UNL     1       8.344  45.306  50.787  1.00  0.00     0.005 A 
ATOM     13  C   UNL     1       7.124  47.280  52.329  1.00  0.00     0.026 A 
ATOM     14  C   UNL     1       6.951  45.409  50.824  1.00  0.00     0.026 A 
ATOM     15  C   UNL     1      10.634  46.075  51.492  1.00  0.00     0.044 C 
ENDBRANCH   7   9
ENDBRANCH   1   7
BRANCH   6  16
ATOM     16  N   UNL     1       4.465  47.638  54.253  1.00  0.00     0.070 N 
ATOM     17  O   UNL     1       3.975  48.635  53.700  1.00  0.00    -0.258 OA
ATOM     18  O   UNL     1       5.431  47.650  55.027  1.00  0.00    -0.258 OA
ENDBRANCH   6  16
BRANCH   3  19
ATOM     19  N   UNL     1       2.204  42.830  52.877  1.00  0.00    -0.351 N 
ATOM     20  H   UNL     1       2.907  42.111  53.051  1.00  0.00     0.163 HD
BRANCH  19  21
ATOM     21  C   UNL     1       0.944  42.576  53.562  1.00  0.00     0.148 C 
BRANCH  21  22
ATOM     22  C   UNL     1      -0.154  42.306  52.527  1.00  0.00     0.137 C 
ATOM     23  C   UNL     1      -0.032  43.171  51.284  1.00  0.00     0.036 C 
ATOM     24  O   UNL     1      -1.454  42.601  53.084  1.00  0.00    -0.376 OA
ATOM     25  C   UNL     1      -1.454  43.182  50.784  1.00  0.00     0.031 C 
ATOM     26  C   UNL     1      -2.243  43.250  52.075  1.00  0.00     0.160 C 
ENDBRANCH  21  22
ENDBRANCH  19  21
ENDBRANCH   3  19
BRANCH   5  27
ATOM     27  N   UNL     1       2.866  46.091  56.087  1.00  0.00    -0.378 N 
ATOM     28  H   UNL     1       1.870  46.255  56.213  1.00  0.00     0.158 HD
ATOM     29  H   UNL     1       3.351  46.964  56.297  1.00  0.00     0.158 HD
ENDBRANCH   5  27
TORSDOF 7
ENDMDL
MODEL 14
REMARK VINA RESULT:    -7.819      2.653      5.685
REMARK INTER + INTRA:         -12.189
REMARK INTER:                 -10.541
REMARK INTRA:                  -1.647
REMARK UNBOUND:                -1.399
REMARK SMILES Cc1ccc(Nc2nc(NC[C@@H]3CCCO3)nc(N)c2[N+](=O)[O-])cc1
REMARK SMILES IDX 7 1 8 2 9 3 17 4 18 5 20 6 6 7 5 9 2 10 3 11 25 12 4 13
REMARK SMILES IDX 24 14 1 15 21 16 22 17 23 18 10 19 11 21 12 22 13 23 16 24
REMARK SMILES IDX 14 25 15 26 19 27
REMARK H PARENT 6 8 10 20 19 28 19 29
ROOT
ATOM      1  C   UNL     1       7.058  46.133  51.452  1.00  0.00     0.217 A 
ATOM      2  N   UNL     1       6.812  45.113  50.610  1.00  0.00    -0.188 NA
ATOM      3  C   UNL     1       7.862  44.484  50.063  1.00  0.00     0.227 A 
ATOM      4  N   UNL     1       9.136  44.797  50.320  1.00  0.00    -0.189 NA
ATOM      5  C   UNL     1       9.389  45.797  51.179  1.00  0.00     0.210 A 
ATOM      6  C   UNL     1       8.352  46.484  51.775  1.00  0.00     0.353 A 
ENDROOT
BRANCH   1   7
ATOM      7  N   UNL     1       5.907  46.768  51.956  1.00  0.00    -0.334 N 
ATOM      8  H   UNL     1       6.207  47.197  52.834  1.00  0.00     0.168 HD
BRANCH   7   9
ATOM      9  C   UNL     1       4.652  46.150  52.179  1.00  0.00     0.040 A 
ATOM     10  C   UNL     1       2.245  44.751  52.634  1.00  0.00    -0.051 A 
ATOM     11  C   UNL     1       2.402  45.545  51.493  1.00  0.00     0.005 A 
ATOM     12  C   UNL     1       3.317  44.627  53.523  1.00  0.00     0.005 A 
ATOM     13  C   UNL     1       3.597  46.232  51.262  1.00  0.00     0.026 A 
ATOM     14  C   UNL     1       4.511  45.314  53.291  1.00  0.00     0.026 A 
ATOM     15  C   UNL     1       0.972  43.993  52.865  1.00  0.00     0.044 C 
ENDBRANCH   7   9
ENDBRANCH   1   7
BRANCH   6  16
ATOM     16  N   UNL     1       8.630  47.499  52.739  1.00  0.00     0.070 N 
ATOM     17  O   UNL     1       8.085  48.600  52.568  1.00  0.00    -0.258 OA
ATOM     18  O   UNL     1       9.458  47.239  53.623  1.00  0.00    -0.258 OA
ENDBRANCH   6  16
BRANCH   3  19
ATOM     19  N   UNL     1       7.661  43.453  49.161  1.00  0.00    -0.351 N 
ATOM     20  H   UNL     1       8.564  43.275  48.719  1.00  0.00     0.163 HD
BRANCH  19  21
ATOM     21  C   UNL     1       7.058  42.253  49.728  1.00  0.00     0.148 C 
BRANCH  21  22
ATOM     22  C   UNL     1       5.534  42.329  49.578  1.00  0.00     0.137 C 
ATOM     23  C   UNL     1       4.802  42.369  50.909  1.00  0.00     0.036 C 
ATOM     24  O   UNL     1       5.038  41.158  48.892  1.00  0.00    -0.376 OA
ATOM     25  C   UNL     1       3.451  41.823  50.525  1.00  0.00     0.031 C 
ATOM     26  C   UNL     1       3.816  40.747  49.524  1.00  0.00     0.160 C 
ENDBRANCH  21  22
ENDBRANCH  19  21
ENDBRANCH   3  19
BRANCH   5  27
ATOM     27  N   UNL     1      10.746  46.041  51.433  1.00  0.00    -0.378 N 
ATOM     28  H   UNL     1      10.926  47.029  51.591  1.00  0.00     0.158 HD
ATOM     29  H   UNL     1      11.321  45.745  50.643  1.00  0.00     0.158 HD
ENDBRANCH   5  27
TORSDOF 7
ENDMDL
MODEL 15
REMARK VINA RESULT:    -7.699      3.758      6.816
REMARK INTER + INTRA:         -12.024
REMARK INTER:                 -10.479
REMARK INTRA:                  -1.545
REMARK UNBOUND:                -1.399
REMARK SMILES Cc1ccc(Nc2nc(NC[C@@H]3CCCO3)nc(N)c2[N+](=O)[O-])cc1
REMARK SMILES IDX 7 1 8 2 9 3 17 4 18 5 20 6 6 7 5 9 2 10 3 11 25 12 4 13
REMARK SMILES IDX 24 14 1 15 21 16 22 17 23 18 10 19 11 21 12 22 13 23 16 24
REMARK SMILES IDX 14 25 15 26 19 27
REMARK H PARENT 6 8 10 20 19 28 19 29
ROOT
ATOM      1  C   UNL     1       1.681  44.928  55.318  1.00  0.00     0.217 A 
ATOM      2  N   UNL     1       1.957  44.107  54.287  1.00  0.00    -0.188 NA
ATOM      3  C   UNL     1       0.964  43.344  53.810  1.00  0.00     0.227 A 
ATOM      4  N   UNL     1      -0.287  43.366  54.283  1.00  0.00    -0.189 NA
ATOM      5  C   UNL     1      -0.575  44.200  55.295  1.00  0.00     0.210 A 
ATOM      6  C   UNL     1       0.404  45.011  55.830  1.00  0.00     0.353 A 
ENDROOT
BRANCH   1   7
ATOM      7  N   UNL     1       2.782  45.667  55.789  1.00  0.00    -0.334 N 
ATOM      8  H   UNL     1       2.402  46.587  56.021  1.00  0.00     0.168 HD
BRANCH   7   9
ATOM      9  C   UNL     1       4.003  45.863  55.098  1.00  0.00     0.040 A 
ATOM     10  C   UNL     1       6.336  46.251  53.558  1.00  0.00    -0.051 A 
ATOM     11  C   UNL     1       6.237  45.169  54.440  1.00  0.00     0.005 A 
ATOM     12  C   UNL     1       5.243  47.112  53.420  1.00  0.00     0.005 A 
ATOM     13  C   UNL     1       5.078  44.972  55.197  1.00  0.00     0.026 A 
ATOM     14  C   UNL     1       4.086  46.913  54.178  1.00  0.00     0.026 A 
ATOM     15  C   UNL     1       7.568  46.445  52.726  1.00  0.00     0.044 C 
ENDBRANCH   7   9
ENDBRANCH   1   7
BRANCH   6  16
ATOM     16  N   UNL     1       0.073  45.944  56.858  1.00  0.00     0.070 N 
ATOM     17  O   UNL     1       0.765  45.915  57.887  1.00  0.00    -0.258 OA
ATOM     18  O   UNL     1      -0.929  46.652  56.688  1.00  0.00    -0.258 OA
ENDBRANCH   6  16
BRANCH   3  19
ATOM     19  N   UNL     1       1.205  42.456  52.775  1.00  0.00    -0.351 N 
ATOM     20  H   UNL     1       0.308  42.028  52.546  1.00  0.00     0.163 HD
BRANCH  19  21
ATOM     21  C   UNL     1       1.874  43.035  51.617  1.00  0.00     0.148 C 
BRANCH  21  22
ATOM     22  C   UNL     1       3.392  42.891  51.781  1.00  0.00     0.137 C 
ATOM     23  C   UNL     1       4.165  44.106  51.296  1.00  0.00     0.036 C 
ATOM     24  O   UNL     1       3.879  41.778  50.998  1.00  0.00    -0.376 OA
ATOM     25  C   UNL     1       5.510  43.501  50.982  1.00  0.00     0.031 C 
ATOM     26  C   UNL     1       5.124  42.159  50.394  1.00  0.00     0.160 C 
ENDBRANCH  21  22
ENDBRANCH  19  21
ENDBRANCH   3  19
BRANCH   5  27
ATOM     27  N   UNL     1      -1.914  44.198  55.710  1.00  0.00    -0.378 N 
ATOM     28  H   UNL     1      -2.290  45.142  55.764  1.00  0.00     0.158 HD
ATOM     29  H   UNL     1      -2.007  43.777  56.634  1.00  0.00     0.158 HD
ENDBRANCH   5  27
TORSDOF 7
ENDMDL
MODEL 16
REMARK VINA RESULT:    -7.649      2.421      6.670
REMARK INTER + INTRA:         -11.955
REMARK INTER:                 -10.826
REMARK INTRA:                  -1.129
REMARK UNBOUND:                -1.399
REMARK SMILES Cc1ccc(Nc2nc(NC[C@@H]3CCCO3)nc(N)c2[N+](=O)[O-])cc1
REMARK SMILES IDX 7 1 8 2 9 3 17 4 18 5 20 6 6 7 5 9 2 10 3 11 25 12 4 13
REMARK SMILES IDX 24 14 1 15 21 16 22 17 23 18 10 19 11 21 12 22 13 23 16 24
REMARK SMILES IDX 14 25 15 26 19 27
REMARK H PARENT 6 8 10 20 19 28 19 29
ROOT
ATOM      1  C   UNL     1       3.673  43.488  52.799  1.00  0.00     0.217 A 
ATOM      2  N   UNL     1       4.693  44.309  53.112  1.00  0.00    -0.188 NA
ATOM      3  C   UNL     1       4.396  45.534  53.567  1.00  0.00     0.227 A 
ATOM      4  N   UNL     1       3.148  45.980  53.746  1.00  0.00    -0.189 NA
ATOM      5  C   UNL     1       2.126  45.159  53.459  1.00  0.00     0.210 A 
ATOM      6  C   UNL     1       2.367  43.885  52.987  1.00  0.00     0.353 A 
ENDROOT
BRANCH   1   7
ATOM      7  N   UNL     1       4.064  42.235  52.293  1.00  0.00    -0.334 N 
ATOM      8  H   UNL     1       4.795  41.910  52.929  1.00  0.00     0.168 HD
BRANCH   7   9
ATOM      9  C   UNL     1       4.493  41.975  50.968  1.00  0.00     0.040 A 
ATOM     10  C   UNL     1       5.334  41.645  48.295  1.00  0.00    -0.051 A 
ATOM     11  C   UNL     1       4.224  40.947  48.783  1.00  0.00     0.005 A 
ATOM     12  C   UNL     1       5.993  42.543  49.141  1.00  0.00     0.005 A 
ATOM     13  C   UNL     1       3.803  41.116  50.105  1.00  0.00     0.026 A 
ATOM     14  C   UNL     1       5.570  42.710  50.462  1.00  0.00     0.026 A 
ATOM     15  C   UNL     1       5.768  41.484  46.869  1.00  0.00     0.044 C 
ENDBRANCH   7   9
ENDBRANCH   1   7
BRANCH   6  16
ATOM     16  N   UNL     1       1.276  42.995  52.751  1.00  0.00     0.070 N 
ATOM     17  O   UNL     1       1.014  42.731  51.567  1.00  0.00    -0.258 OA
ATOM     18  O   UNL     1       0.619  42.621  53.731  1.00  0.00    -0.258 OA
ENDBRANCH   6  16
BRANCH   3  19
ATOM     19  N   UNL     1       5.409  46.429  53.868  1.00  0.00    -0.351 N 
ATOM     20  H   UNL     1       5.932  46.024  54.644  1.00  0.00     0.163 HD
BRANCH  19  21
ATOM     21  C   UNL     1       6.255  46.796  52.739  1.00  0.00     0.148 C 
BRANCH  21  22
ATOM     22  C   UNL     1       7.697  46.360  53.022  1.00  0.00     0.137 C 
ATOM     23  C   UNL     1       8.460  47.339  53.898  1.00  0.00     0.036 C 
ATOM     24  O   UNL     1       8.446  46.272  51.788  1.00  0.00    -0.376 OA
ATOM     25  C   UNL     1       9.886  47.045  53.508  1.00  0.00     0.031 C 
ATOM     26  C   UNL     1       9.762  46.796  52.019  1.00  0.00     0.160 C 
ENDBRANCH  21  22
ENDBRANCH  19  21
ENDBRANCH   3  19
BRANCH   5  27
ATOM     27  N   UNL     1       0.849  45.680  53.712  1.00  0.00    -0.378 N 
ATOM     28  H   UNL     1       0.236  45.576  52.906  1.00  0.00     0.158 HD
ATOM     29  H   UNL     1       0.900  46.674  53.933  1.00  0.00     0.158 HD
ENDBRANCH   5  27
TORSDOF 7
ENDMDL
MODEL 17
REMARK VINA RESULT:    -7.623      2.338      5.372
REMARK INTER + INTRA:         -11.918
REMARK INTER:                 -10.740
REMARK INTRA:                  -1.178
REMARK UNBOUND:                -1.399
REMARK SMILES Cc1ccc(Nc2nc(NC[C@@H]3CCCO3)nc(N)c2[N+](=O)[O-])cc1
REMARK SMILES IDX 7 1 8 2 9 3 17 4 18 5 20 6 6 7 5 9 2 10 3 11 25 12 4 13
REMARK SMILES IDX 24 14 1 15 21 16 22 17 23 18 10 19 11 21 12 22 13 23 16 24
REMARK SMILES IDX 14 25 15 26 19 27
REMARK H PARENT 6 8 10 20 19 28 19 29
ROOT
ATOM      1  C   UNL     1       2.937  44.003  52.728  1.00  0.00     0.217 A 
ATOM      2  N   UNL     1       3.764  43.038  52.285  1.00  0.00    -0.188 NA
ATOM      3  C   UNL     1       3.326  42.238  51.304  1.00  0.00     0.227 A 
ATOM      4  N   UNL     1       2.125  42.355  50.726  1.00  0.00    -0.189 NA
ATOM      5  C   UNL     1       1.305  43.331  51.146  1.00  0.00     0.210 A 
ATOM      6  C   UNL     1       1.698  44.188  52.153  1.00  0.00     0.353 A 
ENDROOT
BRANCH   1   7
ATOM      7  N   UNL     1       3.453  44.777  53.785  1.00  0.00    -0.334 N 
ATOM      8  H   UNL     1       2.706  45.434  54.019  1.00  0.00     0.168 HD
BRANCH   7   9
ATOM      9  C   UNL     1       4.673  45.496  53.764  1.00  0.00     0.040 A 
ATOM     10  C   UNL     1       7.127  46.872  53.542  1.00  0.00    -0.051 A 
ATOM     11  C   UNL     1       6.938  45.911  54.541  1.00  0.00     0.005 A 
ATOM     12  C   UNL     1       6.095  47.107  52.628  1.00  0.00     0.005 A 
ATOM     13  C   UNL     1       5.725  45.223  54.647  1.00  0.00     0.026 A 
ATOM     14  C   UNL     1       4.884  46.419  52.735  1.00  0.00     0.026 A 
ATOM     15  C   UNL     1       8.437  47.588  53.412  1.00  0.00     0.044 C 
ENDBRANCH   7   9
ENDBRANCH   1   7
BRANCH   6  16
ATOM     16  N   UNL     1       0.848  45.265  52.545  1.00  0.00     0.070 N 
ATOM     17  O   UNL     1       1.342  46.403  52.535  1.00  0.00    -0.258 OA
ATOM     18  O   UNL     1      -0.289  44.981  52.946  1.00  0.00    -0.258 OA
ENDBRANCH   6  16
BRANCH   3  19
ATOM     19  N   UNL     1       4.124  41.206  50.839  1.00  0.00    -0.351 N 
ATOM     20  H   UNL     1       3.496  40.435  50.611  1.00  0.00     0.163 HD
BRANCH  19  21
ATOM     21  C   UNL     1       5.008  41.566  49.737  1.00  0.00     0.148 C 
BRANCH  21  22
ATOM     22  C   UNL     1       6.130  42.471  50.260  1.00  0.00     0.137 C 
ATOM     23  C   UNL     1       5.831  43.952  50.096  1.00  0.00     0.036 C 
ATOM     24  O   UNL     1       7.351  42.233  49.523  1.00  0.00    -0.376 OA
ATOM     25  C   UNL     1       7.220  44.538  50.072  1.00  0.00     0.031 C 
ATOM     26  C   UNL     1       7.989  43.496  49.286  1.00  0.00     0.160 C 
ENDBRANCH  21  22
ENDBRANCH  19  21
ENDBRANCH   3  19
BRANCH   5  27
ATOM     27  N   UNL     1       0.082  43.419  50.467  1.00  0.00    -0.378 N 
ATOM     28  H   UNL     1       0.209  43.721  49.503  1.00  0.00     0.158 HD
ATOM     29  H   UNL     1      -0.537  44.092  50.920  1.00  0.00     0.158 HD
ENDBRANCH   5  27
TORSDOF 7
ENDMDL
