MODEL 1
REMARK VINA RESULT:    -8.005      0.000      0.000
REMARK INTER + INTRA:         -11.649
REMARK INTER:                 -10.813
REMARK INTRA:                  -0.836
REMARK UNBOUND:                -0.836
REMARK SMILES COCCNc1nc(Nc2ccccc2)c2cnn(C)c2n1
REMARK SMILES IDX 4 1 3 2 2 3 1 4 5 5 6 7 7 8 22 9 8 10 21 11 16 12 19 13
REMARK SMILES IDX 17 14 18 15 20 16 9 17 10 19 11 20 15 21 12 22 14 23 13 24
REMARK H PARENT 5 6 9 18
ROOT
ATOM      1  C   UNL     1       2.205  45.456  54.399  1.00  0.00     0.144 C 
ENDROOT
BRANCH   1   2
ATOM      2  C   UNL     1       0.815  45.335  53.756  1.00  0.00     0.181 C 
BRANCH   2   3
ATOM      3  O   UNL     1       0.827  45.688  52.366  1.00  0.00    -0.383 OA
ATOM      4  C   UNL     1       0.425  44.624  51.512  1.00  0.00     0.194 C 
ENDBRANCH   2   3
ENDBRANCH   1   2
BRANCH   1   5
ATOM      5  N   UNL     1       2.957  44.231  54.165  1.00  0.00    -0.352 N 
ATOM      6  H   UNL     1       2.369  43.422  53.970  1.00  0.00     0.163 HD
BRANCH   5   7
ATOM      7  C   UNL     1       3.894  44.308  53.144  1.00  0.00     0.226 A 
ATOM      8  N   UNL     1       4.706  45.382  53.077  1.00  0.00    -0.195 NA
ATOM      9  N   UNL     1       3.895  43.272  52.297  1.00  0.00    -0.193 NA
ATOM     10  C   UNL     1       5.625  45.481  52.083  1.00  0.00     0.147 A 
ATOM     11  C   UNL     1       4.835  43.376  51.347  1.00  0.00     0.165 A 
ATOM     12  C   UNL     1       5.720  44.423  51.177  1.00  0.00     0.082 A 
ATOM     13  N   UNL     1       5.122  42.476  50.358  1.00  0.00    -0.250 N 
ATOM     14  C   UNL     1       6.510  44.039  50.074  1.00  0.00     0.149 A 
ATOM     15  N   UNL     1       6.142  42.861  49.555  1.00  0.00    -0.179 NA
ATOM     16  C   UNL     1       4.473  41.212  50.122  1.00  0.00     0.176 C 
BRANCH  10  17
ATOM     17  N   UNL     1       6.446  46.617  52.090  1.00  0.00    -0.339 N 
ATOM     18  H   UNL     1       6.428  47.015  51.154  1.00  0.00     0.168 HD
BRANCH  17  19
ATOM     19  C   UNL     1       7.699  46.803  52.704  1.00  0.00     0.040 A 
ATOM     20  C   UNL     1       8.852  46.512  51.960  1.00  0.00     0.026 A 
ATOM     21  C   UNL     1       7.855  47.248  54.022  1.00  0.00     0.026 A 
ATOM     22  C   UNL     1      10.125  46.676  52.511  1.00  0.00     0.002 A 
ATOM     23  C   UNL     1       9.128  47.413  54.576  1.00  0.00     0.002 A 
ATOM     24  C   UNL     1      10.263  47.129  53.821  1.00  0.00     0.000 A 
ENDBRANCH  17  19
ENDBRANCH  10  17
ENDBRANCH   5   7
ENDBRANCH   1   5
TORSDOF 6
ENDMDL
MODEL 2
REMARK VINA RESULT:    -7.953      1.129      1.841
REMARK INTER + INTRA:         -11.578
REMARK INTER:                 -10.894
REMARK INTRA:                  -0.684
REMARK UNBOUND:                -0.836
REMARK SMILES COCCNc1nc(Nc2ccccc2)c2cnn(C)c2n1
REMARK SMILES IDX 4 1 3 2 2 3 1 4 5 5 6 7 7 8 22 9 8 10 21 11 16 12 19 13
REMARK SMILES IDX 17 14 18 15 20 16 9 17 10 19 11 20 15 21 12 22 14 23 13 24
REMARK H PARENT 5 6 9 18
ROOT
ATOM      1  C   UNL     1       1.397  44.466  53.643  1.00  0.00     0.144 C 
ENDROOT
BRANCH   1   2
ATOM      2  C   UNL     1       0.541  44.875  54.851  1.00  0.00     0.181 C 
BRANCH   2   3
ATOM      3  O   UNL     1       1.303  44.926  56.065  1.00  0.00    -0.383 OA
ATOM      4  C   UNL     1       0.556  45.398  57.179  1.00  0.00     0.194 C 
ENDBRANCH   2   3
ENDBRANCH   1   2
BRANCH   1   5
ATOM      5  N   UNL     1       2.754  44.175  54.086  1.00  0.00    -0.352 N 
ATOM      6  H   UNL     1       2.853  43.261  54.524  1.00  0.00     0.163 HD
BRANCH   5   7
ATOM      7  C   UNL     1       3.721  44.260  53.095  1.00  0.00     0.226 A 
ATOM      8  N   UNL     1       4.522  45.343  53.049  1.00  0.00    -0.195 NA
ATOM      9  N   UNL     1       3.761  43.222  52.253  1.00  0.00    -0.193 NA
ATOM     10  C   UNL     1       5.470  45.451  52.084  1.00  0.00     0.147 A 
ATOM     11  C   UNL     1       4.729  43.334  51.331  1.00  0.00     0.165 A 
ATOM     12  C   UNL     1       5.606  44.391  51.185  1.00  0.00     0.082 A 
ATOM     13  N   UNL     1       5.057  42.434  50.355  1.00  0.00    -0.250 N 
ATOM     14  C   UNL     1       6.434  44.012  50.109  1.00  0.00     0.149 A 
ATOM     15  N   UNL     1       6.097  42.828  49.583  1.00  0.00    -0.179 NA
ATOM     16  C   UNL     1       4.431  41.161  50.104  1.00  0.00     0.176 C 
BRANCH  10  17
ATOM     17  N   UNL     1       6.277  46.596  52.112  1.00  0.00    -0.339 N 
ATOM     18  H   UNL     1       6.135  47.094  51.236  1.00  0.00     0.168 HD
BRANCH  17  19
ATOM     19  C   UNL     1       7.598  46.741  52.576  1.00  0.00     0.040 A 
ATOM     20  C   UNL     1       7.794  47.136  53.907  1.00  0.00     0.026 A 
ATOM     21  C   UNL     1       8.726  46.526  51.775  1.00  0.00     0.026 A 
ATOM     22  C   UNL     1       9.080  47.298  54.428  1.00  0.00     0.002 A 
ATOM     23  C   UNL     1      10.015  46.687  52.294  1.00  0.00     0.002 A 
ATOM     24  C   UNL     1      10.191  47.071  53.621  1.00  0.00     0.000 A 
ENDBRANCH  17  19
ENDBRANCH  10  17
ENDBRANCH   5   7
ENDBRANCH   1   5
TORSDOF 6
ENDMDL
MODEL 3
REMARK VINA RESULT:    -7.857      1.845      5.222
REMARK INTER + INTRA:         -11.449
REMARK INTER:                 -10.810
REMARK INTRA:                  -0.639
REMARK UNBOUND:                -0.836
REMARK SMILES COCCNc1nc(Nc2ccccc2)c2cnn(C)c2n1
REMARK SMILES IDX 4 1 3 2 2 3 1 4 5 5 6 7 7 8 22 9 8 10 21 11 16 12 19 13
REMARK SMILES IDX 17 14 18 15 20 16 9 17 10 19 11 20 15 21 12 22 14 23 13 24
REMARK H PARENT 5 6 9 18
ROOT
ATOM      1  C   UNL     1       4.046  45.794  55.392  1.00  0.00     0.144 C 
ENDROOT
BRANCH   1   2
ATOM      2  C   UNL     1       2.579  45.824  54.936  1.00  0.00     0.181 C 
BRANCH   2   3
ATOM      3  O   UNL     1       2.407  45.271  53.625  1.00  0.00    -0.383 OA
ATOM      4  C   UNL     1       2.031  46.236  52.651  1.00  0.00     0.194 C 
ENDBRANCH   2   3
ENDBRANCH   1   2
BRANCH   1   5
ATOM      5  N   UNL     1       4.722  47.000  54.935  1.00  0.00    -0.352 N 
ATOM      6  H   UNL     1       5.023  47.611  55.692  1.00  0.00     0.163 HD
BRANCH   5   7
ATOM      7  C   UNL     1       5.827  46.778  54.126  1.00  0.00     0.226 A 
ATOM      8  N   UNL     1       5.651  46.226  52.910  1.00  0.00    -0.195 NA
ATOM      9  N   UNL     1       6.999  47.145  54.657  1.00  0.00    -0.193 NA
ATOM     10  C   UNL     1       6.719  45.992  52.105  1.00  0.00     0.147 A 
ATOM     11  C   UNL     1       8.034  46.939  53.830  1.00  0.00     0.165 A 
ATOM     12  C   UNL     1       7.978  46.383  52.566  1.00  0.00     0.082 A 
ATOM     13  N   UNL     1       9.350  47.238  54.051  1.00  0.00    -0.250 N 
ATOM     14  C   UNL     1       9.311  46.418  52.109  1.00  0.00     0.149 A 
ATOM     15  N   UNL     1      10.160  46.921  53.013  1.00  0.00    -0.179 NA
ATOM     16  C   UNL     1       9.914  47.845  55.230  1.00  0.00     0.176 C 
BRANCH  10  17
ATOM     17  N   UNL     1       6.456  45.434  50.847  1.00  0.00    -0.339 N 
ATOM     18  H   UNL     1       5.929  46.119  50.311  1.00  0.00     0.168 HD
BRANCH  17  19
ATOM     19  C   UNL     1       6.070  44.120  50.521  1.00  0.00     0.040 A 
ATOM     20  C   UNL     1       4.922  43.594  51.132  1.00  0.00     0.026 A 
ATOM     21  C   UNL     1       6.781  43.304  49.633  1.00  0.00     0.026 A 
ATOM     22  C   UNL     1       4.488  42.297  50.851  1.00  0.00     0.002 A 
ATOM     23  C   UNL     1       6.348  42.005  49.350  1.00  0.00     0.002 A 
ATOM     24  C   UNL     1       5.200  41.503  49.957  1.00  0.00     0.000 A 
ENDBRANCH  17  19
ENDBRANCH  10  17
ENDBRANCH   5   7
ENDBRANCH   1   5
TORSDOF 6
ENDMDL
MODEL 4
REMARK VINA RESULT:    -7.803      1.695      2.309
REMARK INTER + INTRA:         -11.376
REMARK INTER:                 -10.599
REMARK INTRA:                  -0.776
REMARK UNBOUND:                -0.836
REMARK SMILES COCCNc1nc(Nc2ccccc2)c2cnn(C)c2n1
REMARK SMILES IDX 4 1 3 2 2 3 1 4 5 5 6 7 7 8 22 9 8 10 21 11 16 12 19 13
REMARK SMILES IDX 17 14 18 15 20 16 9 17 10 19 11 20 15 21 12 22 14 23 13 24
REMARK H PARENT 5 6 9 18
ROOT
ATOM      1  C   UNL     1       3.111  46.162  53.766  1.00  0.00     0.144 C 
ENDROOT
BRANCH   1   2
ATOM      2  C   UNL     1       3.301  45.175  54.928  1.00  0.00     0.181 C 
BRANCH   2   3
ATOM      3  O   UNL     1       4.481  45.457  55.693  1.00  0.00    -0.383 OA
ATOM      4  C   UNL     1       5.666  44.918  55.121  1.00  0.00     0.194 C 
ENDBRANCH   2   3
ENDBRANCH   1   2
BRANCH   1   5
ATOM      5  N   UNL     1       2.732  45.430  52.565  1.00  0.00    -0.352 N 
ATOM      6  H   UNL     1       2.159  45.971  51.922  1.00  0.00     0.163 HD
BRANCH   5   7
ATOM      7  C   UNL     1       3.795  44.920  51.834  1.00  0.00     0.226 A 
ATOM      8  N   UNL     1       4.885  45.687  51.634  1.00  0.00    -0.195 NA
ATOM      9  N   UNL     1       3.624  43.672  51.382  1.00  0.00    -0.193 NA
ATOM     10  C   UNL     1       5.933  45.211  50.916  1.00  0.00     0.147 A 
ATOM     11  C   UNL     1       4.687  43.211  50.707  1.00  0.00     0.165 A 
ATOM     12  C   UNL     1       5.854  43.901  50.440  1.00  0.00     0.082 A 
ATOM     13  N   UNL     1       4.847  41.971  50.153  1.00  0.00    -0.250 N 
ATOM     14  C   UNL     1       6.656  42.975  49.742  1.00  0.00     0.149 A 
ATOM     15  N   UNL     1       6.045  41.800  49.545  1.00  0.00    -0.179 NA
ATOM     16  C   UNL     1       3.902  40.883  50.174  1.00  0.00     0.176 C 
BRANCH  10  17
ATOM     17  N   UNL     1       7.038  46.060  50.767  1.00  0.00    -0.339 N 
ATOM     18  H   UNL     1       7.446  45.877  49.853  1.00  0.00     0.168 HD
BRANCH  17  19
ATOM     19  C   UNL     1       8.025  46.408  51.709  1.00  0.00     0.040 A 
ATOM     20  C   UNL     1       7.638  47.158  52.829  1.00  0.00     0.026 A 
ATOM     21  C   UNL     1       9.374  46.058  51.579  1.00  0.00     0.026 A 
ATOM     22  C   UNL     1       8.569  47.535  53.800  1.00  0.00     0.002 A 
ATOM     23  C   UNL     1      10.308  46.434  52.550  1.00  0.00     0.002 A 
ATOM     24  C   UNL     1       9.905  47.170  53.661  1.00  0.00     0.000 A 
ENDBRANCH  17  19
ENDBRANCH  10  17
ENDBRANCH   5   7
ENDBRANCH   1   5
TORSDOF 6
ENDMDL
MODEL 5
REMARK VINA RESULT:    -7.783      2.292      3.119
REMARK INTER + INTRA:         -11.349
REMARK INTER:                 -10.716
REMARK INTRA:                  -0.633
REMARK UNBOUND:                -0.836
REMARK SMILES COCCNc1nc(Nc2ccccc2)c2cnn(C)c2n1
REMARK SMILES IDX 4 1 3 2 2 3 1 4 5 5 6 7 7 8 22 9 8 10 21 11 16 12 19 13
REMARK SMILES IDX 17 14 18 15 20 16 9 17 10 19 11 20 15 21 12 22 14 23 13 24
REMARK H PARENT 5 6 9 18
ROOT
ATOM      1  C   UNL     1       1.545  45.312  56.312  1.00  0.00     0.144 C 
ENDROOT
BRANCH   1   2
ATOM      2  C   UNL     1       0.569  46.074  57.221  1.00  0.00     0.181 C 
BRANCH   2   3
ATOM      3  O   UNL     1       1.166  46.440  58.473  1.00  0.00    -0.383 OA
ATOM      4  C   UNL     1       0.484  47.498  59.134  1.00  0.00     0.194 C 
ENDBRANCH   2   3
ENDBRANCH   1   2
BRANCH   1   5
ATOM      5  N   UNL     1       2.796  46.051  56.215  1.00  0.00    -0.352 N 
ATOM      6  H   UNL     1       3.453  45.842  56.964  1.00  0.00     0.163 HD
BRANCH   5   7
ATOM      7  C   UNL     1       3.478  45.888  55.018  1.00  0.00     0.226 A 
ATOM      8  N   UNL     1       4.473  46.742  54.705  1.00  0.00    -0.195 NA
ATOM      9  N   UNL     1       3.061  44.864  54.264  1.00  0.00    -0.193 NA
ATOM     10  C   UNL     1       5.148  46.605  53.536  1.00  0.00     0.147 A 
ATOM     11  C   UNL     1       3.767  44.727  53.132  1.00  0.00     0.165 A 
ATOM     12  C   UNL     1       4.803  45.536  52.707  1.00  0.00     0.082 A 
ATOM     13  N   UNL     1       3.621  43.765  52.171  1.00  0.00    -0.250 N 
ATOM     14  C   UNL     1       5.224  44.956  51.493  1.00  0.00     0.149 A 
ATOM     15  N   UNL     1       4.498  43.886  51.147  1.00  0.00    -0.179 NA
ATOM     16  C   UNL     1       2.671  42.682  52.167  1.00  0.00     0.176 C 
BRANCH  10  17
ATOM     17  N   UNL     1       6.182  47.518  53.290  1.00  0.00    -0.339 N 
ATOM     18  H   UNL     1       5.842  48.192  52.608  1.00  0.00     0.168 HD
BRANCH  17  19
ATOM     19  C   UNL     1       7.560  47.278  53.132  1.00  0.00     0.040 A 
ATOM     20  C   UNL     1       8.363  47.234  54.281  1.00  0.00     0.026 A 
ATOM     21  C   UNL     1       8.174  47.097  51.887  1.00  0.00     0.026 A 
ATOM     22  C   UNL     1       9.737  47.000  54.191  1.00  0.00     0.002 A 
ATOM     23  C   UNL     1       9.550  46.863  51.794  1.00  0.00     0.002 A 
ATOM     24  C   UNL     1      10.330  46.812  52.946  1.00  0.00     0.000 A 
ENDBRANCH  17  19
ENDBRANCH  10  17
ENDBRANCH   5   7
ENDBRANCH   1   5
TORSDOF 6
ENDMDL
MODEL 6
REMARK VINA RESULT:    -7.762      2.112      4.117
REMARK INTER + INTRA:         -11.320
REMARK INTER:                 -10.640
REMARK INTRA:                  -0.680
REMARK UNBOUND:                -0.836
REMARK SMILES COCCNc1nc(Nc2ccccc2)c2cnn(C)c2n1
REMARK SMILES IDX 4 1 3 2 2 3 1 4 5 5 6 7 7 8 22 9 8 10 21 11 16 12 19 13
REMARK SMILES IDX 17 14 18 15 20 16 9 17 10 19 11 20 15 21 12 22 14 23 13 24
REMARK H PARENT 5 6 9 18
ROOT
ATOM      1  C   UNL     1       5.670  41.543  50.093  1.00  0.00     0.144 C 
ENDROOT
BRANCH   1   2
ATOM      2  C   UNL     1       5.269  41.214  48.647  1.00  0.00     0.181 C 
BRANCH   2   3
ATOM      3  O   UNL     1       4.000  40.550  48.573  1.00  0.00    -0.383 OA
ATOM      4  C   UNL     1       3.536  40.369  47.241  1.00  0.00     0.194 C 
ENDBRANCH   2   3
ENDBRANCH   1   2
BRANCH   1   5
ATOM      5  N   UNL     1       4.491  41.954  50.842  1.00  0.00    -0.352 N 
ATOM      6  H   UNL     1       4.343  41.420  51.696  1.00  0.00     0.163 HD
BRANCH   5   7
ATOM      7  C   UNL     1       4.461  43.296  51.191  1.00  0.00     0.226 A 
ATOM      8  N   UNL     1       5.565  44.048  51.010  1.00  0.00    -0.195 NA
ATOM      9  N   UNL     1       3.297  43.725  51.693  1.00  0.00    -0.193 NA
ATOM     10  C   UNL     1       5.560  45.362  51.352  1.00  0.00     0.147 A 
ATOM     11  C   UNL     1       3.305  45.033  51.988  1.00  0.00     0.165 A 
ATOM     12  C   UNL     1       4.370  45.900  51.847  1.00  0.00     0.082 A 
ATOM     13  N   UNL     1       2.271  45.782  52.478  1.00  0.00    -0.250 N 
ATOM     14  C   UNL     1       3.861  47.150  52.257  1.00  0.00     0.149 A 
ATOM     15  N   UNL     1       2.587  47.086  52.661  1.00  0.00    -0.179 NA
ATOM     16  C   UNL     1       0.939  45.326  52.785  1.00  0.00     0.176 C 
BRANCH  10  17
ATOM     17  N   UNL     1       6.738  46.083  51.117  1.00  0.00    -0.339 N 
ATOM     18  H   UNL     1       7.131  45.752  50.239  1.00  0.00     0.168 HD
BRANCH  17  19
ATOM     19  C   UNL     1       7.748  46.455  52.024  1.00  0.00     0.040 A 
ATOM     20  C   UNL     1       9.083  46.361  51.606  1.00  0.00     0.026 A 
ATOM     21  C   UNL     1       7.491  46.898  53.326  1.00  0.00     0.026 A 
ATOM     22  C   UNL     1      10.132  46.714  52.459  1.00  0.00     0.002 A 
ATOM     23  C   UNL     1       8.538  47.253  54.182  1.00  0.00     0.002 A 
ATOM     24  C   UNL     1       9.858  47.163  53.748  1.00  0.00     0.000 A 
ENDBRANCH  17  19
ENDBRANCH  10  17
ENDBRANCH   5   7
ENDBRANCH   1   5
TORSDOF 6
ENDMDL
MODEL 7
REMARK VINA RESULT:    -7.723      2.073      4.211
REMARK INTER + INTRA:         -11.268
REMARK INTER:                 -10.540
REMARK INTRA:                  -0.728
REMARK UNBOUND:                -0.836
REMARK SMILES COCCNc1nc(Nc2ccccc2)c2cnn(C)c2n1
REMARK SMILES IDX 4 1 3 2 2 3 1 4 5 5 6 7 7 8 22 9 8 10 21 11 16 12 19 13
REMARK SMILES IDX 17 14 18 15 20 16 9 17 10 19 11 20 15 21 12 22 14 23 13 24
REMARK H PARENT 5 6 9 18
ROOT
ATOM      1  C   UNL     1       5.904  41.562  50.018  1.00  0.00     0.144 C 
ENDROOT
BRANCH   1   2
ATOM      2  C   UNL     1       5.379  41.161  48.631  1.00  0.00     0.181 C 
BRANCH   2   3
ATOM      3  O   UNL     1       4.000  40.769  48.665  1.00  0.00    -0.383 OA
ATOM      4  C   UNL     1       3.533  40.242  47.430  1.00  0.00     0.194 C 
ENDBRANCH   2   3
ENDBRANCH   1   2
BRANCH   1   5
ATOM      5  N   UNL     1       4.781  41.879  50.890  1.00  0.00    -0.352 N 
ATOM      6  H   UNL     1       4.788  41.364  51.768  1.00  0.00     0.163 HD
BRANCH   5   7
ATOM      7  C   UNL     1       4.652  43.223  51.207  1.00  0.00     0.226 A 
ATOM      8  N   UNL     1       5.693  44.052  50.997  1.00  0.00    -0.195 NA
ATOM      9  N   UNL     1       3.462  43.574  51.710  1.00  0.00    -0.193 NA
ATOM     10  C   UNL     1       5.591  45.370  51.307  1.00  0.00     0.147 A 
ATOM     11  C   UNL     1       3.373  44.885  51.974  1.00  0.00     0.165 A 
ATOM     12  C   UNL     1       4.368  45.828  51.801  1.00  0.00     0.082 A 
ATOM     13  N   UNL     1       2.289  45.566  52.456  1.00  0.00    -0.250 N 
ATOM     14  C   UNL     1       3.768  47.045  52.186  1.00  0.00     0.149 A 
ATOM     15  N   UNL     1       2.506  46.894  52.605  1.00  0.00    -0.179 NA
ATOM     16  C   UNL     1       0.999  45.017  52.788  1.00  0.00     0.176 C 
BRANCH  10  17
ATOM     17  N   UNL     1       6.708  46.173  51.043  1.00  0.00    -0.339 N 
ATOM     18  H   UNL     1       6.998  45.991  50.085  1.00  0.00     0.168 HD
BRANCH  17  19
ATOM     19  C   UNL     1       7.813  46.458  51.868  1.00  0.00     0.040 A 
ATOM     20  C   UNL     1       7.583  47.135  53.074  1.00  0.00     0.026 A 
ATOM     21  C   UNL     1       9.130  46.115  51.540  1.00  0.00     0.026 A 
ATOM     22  C   UNL     1       8.636  47.448  53.936  1.00  0.00     0.002 A 
ATOM     23  C   UNL     1      10.187  46.426  52.402  1.00  0.00     0.002 A 
ATOM     24  C   UNL     1       9.939  47.090  53.600  1.00  0.00     0.000 A 
ENDBRANCH  17  19
ENDBRANCH  10  17
ENDBRANCH   5   7
ENDBRANCH   1   5
TORSDOF 6
ENDMDL
MODEL 8
REMARK VINA RESULT:    -7.661      2.201      4.304
REMARK INTER + INTRA:         -11.184
REMARK INTER:                 -10.495
REMARK INTRA:                  -0.689
REMARK UNBOUND:                -0.836
REMARK SMILES COCCNc1nc(Nc2ccccc2)c2cnn(C)c2n1
REMARK SMILES IDX 4 1 3 2 2 3 1 4 5 5 6 7 7 8 22 9 8 10 21 11 16 12 19 13
REMARK SMILES IDX 17 14 18 15 20 16 9 17 10 19 11 20 15 21 12 22 14 23 13 24
REMARK H PARENT 5 6 9 18
ROOT
ATOM      1  C   UNL     1       5.889  41.579  49.853  1.00  0.00     0.144 C 
ENDROOT
BRANCH   1   2
ATOM      2  C   UNL     1       5.312  41.232  48.473  1.00  0.00     0.181 C 
BRANCH   2   3
ATOM      3  O   UNL     1       5.908  42.007  47.424  1.00  0.00    -0.383 OA
ATOM      4  C   UNL     1       5.436  41.659  46.129  1.00  0.00     0.194 C 
ENDBRANCH   2   3
ENDBRANCH   1   2
BRANCH   1   5
ATOM      5  N   UNL     1       4.808  41.652  50.827  1.00  0.00    -0.352 N 
ATOM      6  H   UNL     1       4.887  40.968  51.577  1.00  0.00     0.163 HD
BRANCH   5   7
ATOM      7  C   UNL     1       4.643  42.894  51.423  1.00  0.00     0.226 A 
ATOM      8  N   UNL     1       5.538  43.869  51.169  1.00  0.00    -0.195 NA
ATOM      9  N   UNL     1       3.575  43.001  52.222  1.00  0.00    -0.193 NA
ATOM     10  C   UNL     1       5.400  45.089  51.748  1.00  0.00     0.147 A 
ATOM     11  C   UNL     1       3.440  44.225  52.752  1.00  0.00     0.165 A 
ATOM     12  C   UNL     1       4.288  45.299  52.566  1.00  0.00     0.082 A 
ATOM     13  N   UNL     1       2.442  44.671  53.574  1.00  0.00    -0.250 N 
ATOM     14  C   UNL     1       3.694  46.346  53.300  1.00  0.00     0.149 A 
ATOM     15  N   UNL     1       2.576  45.969  53.934  1.00  0.00    -0.179 NA
ATOM     16  C   UNL     1       1.310  43.917  54.051  1.00  0.00     0.176 C 
BRANCH  10  17
ATOM     17  N   UNL     1       6.358  46.058  51.421  1.00  0.00    -0.339 N 
ATOM     18  H   UNL     1       6.526  45.999  50.420  1.00  0.00     0.168 HD
BRANCH  17  19
ATOM     19  C   UNL     1       7.526  46.424  52.117  1.00  0.00     0.040 A 
ATOM     20  C   UNL     1       8.766  46.136  51.530  1.00  0.00     0.026 A 
ATOM     21  C   UNL     1       7.514  47.044  53.372  1.00  0.00     0.026 A 
ATOM     22  C   UNL     1       9.961  46.472  52.169  1.00  0.00     0.002 A 
ATOM     23  C   UNL     1       8.709  47.382  54.015  1.00  0.00     0.002 A 
ATOM     24  C   UNL     1       9.932  47.099  53.412  1.00  0.00     0.000 A 
ENDBRANCH  17  19
ENDBRANCH  10  17
ENDBRANCH   5   7
ENDBRANCH   1   5
TORSDOF 6
ENDMDL
MODEL 9
REMARK VINA RESULT:    -7.573      2.151      4.272
REMARK INTER + INTRA:         -11.065
REMARK INTER:                 -10.277
REMARK INTRA:                  -0.788
REMARK UNBOUND:                -0.836
REMARK SMILES COCCNc1nc(Nc2ccccc2)c2cnn(C)c2n1
REMARK SMILES IDX 4 1 3 2 2 3 1 4 5 5 6 7 7 8 22 9 8 10 21 11 16 12 19 13
REMARK SMILES IDX 17 14 18 15 20 16 9 17 10 19 11 20 15 21 12 22 14 23 13 24
REMARK H PARENT 5 6 9 18
ROOT
ATOM      1  C   UNL     1       4.701  41.607  50.932  1.00  0.00     0.144 C 
ENDROOT
BRANCH   1   2
ATOM      2  C   UNL     1       5.533  41.547  49.642  1.00  0.00     0.181 C 
BRANCH   2   3
ATOM      3  O   UNL     1       6.912  41.867  49.870  1.00  0.00    -0.383 OA
ATOM      4  C   UNL     1       7.301  43.113  49.306  1.00  0.00     0.194 C 
ENDBRANCH   2   3
ENDBRANCH   1   2
BRANCH   1   5
ATOM      5  N   UNL     1       3.742  42.700  50.840  1.00  0.00    -0.352 N 
ATOM      6  H   UNL     1       2.778  42.410  50.989  1.00  0.00     0.163 HD
BRANCH   5   7
ATOM      7  C   UNL     1       3.986  43.762  51.699  1.00  0.00     0.226 A 
ATOM      8  N   UNL     1       4.970  44.635  51.403  1.00  0.00    -0.195 NA
ATOM      9  N   UNL     1       3.193  43.813  52.776  1.00  0.00    -0.193 NA
ATOM     10  C   UNL     1       5.230  45.676  52.233  1.00  0.00     0.147 A 
ATOM     11  C   UNL     1       3.445  44.870  53.561  1.00  0.00     0.165 A 
ATOM     12  C   UNL     1       4.422  45.827  53.361  1.00  0.00     0.082 A 
ATOM     13  N   UNL     1       2.793  45.230  54.707  1.00  0.00    -0.250 N 
ATOM     14  C   UNL     1       4.253  46.728  54.433  1.00  0.00     0.149 A 
ATOM     15  N   UNL     1       3.274  46.364  55.270  1.00  0.00    -0.179 NA
ATOM     16  C   UNL     1       1.686  44.547  55.326  1.00  0.00     0.176 C 
BRANCH  10  17
ATOM     17  N   UNL     1       6.254  46.552  51.849  1.00  0.00    -0.339 N 
ATOM     18  H   UNL     1       6.254  46.600  50.833  1.00  0.00     0.168 HD
BRANCH  17  19
ATOM     19  C   UNL     1       7.557  46.679  52.369  1.00  0.00     0.040 A 
ATOM     20  C   UNL     1       8.634  46.279  51.565  1.00  0.00     0.026 A 
ATOM     21  C   UNL     1       7.832  47.167  53.652  1.00  0.00     0.026 A 
ATOM     22  C   UNL     1       9.950  46.379  52.022  1.00  0.00     0.002 A 
ATOM     23  C   UNL     1       9.149  47.268  54.112  1.00  0.00     0.002 A 
ATOM     24  C   UNL     1      10.207  46.876  53.296  1.00  0.00     0.000 A 
ENDBRANCH  17  19
ENDBRANCH  10  17
ENDBRANCH   5   7
ENDBRANCH   1   5
TORSDOF 6
ENDMDL
MODEL 10
REMARK VINA RESULT:    -7.310      2.040      4.383
REMARK INTER + INTRA:         -10.710
REMARK INTER:                 -10.213
REMARK INTRA:                  -0.498
REMARK UNBOUND:                -0.836
REMARK SMILES COCCNc1nc(Nc2ccccc2)c2cnn(C)c2n1
REMARK SMILES IDX 4 1 3 2 2 3 1 4 5 5 6 7 7 8 22 9 8 10 21 11 16 12 19 13
REMARK SMILES IDX 17 14 18 15 20 16 9 17 10 19 11 20 15 21 12 22 14 23 13 24
REMARK H PARENT 5 6 9 18
ROOT
ATOM      1  C   UNL     1       4.692  41.507  49.887  1.00  0.00     0.144 C 
ENDROOT
BRANCH   1   2
ATOM      2  C   UNL     1       6.201  41.550  49.598  1.00  0.00     0.181 C 
BRANCH   2   3
ATOM      3  O   UNL     1       6.557  42.637  48.733  1.00  0.00    -0.383 OA
ATOM      4  C   UNL     1       7.750  43.302  49.127  1.00  0.00     0.194 C 
ENDBRANCH   2   3
ENDBRANCH   1   2
BRANCH   1   5
ATOM      5  N   UNL     1       4.467  41.677  51.316  1.00  0.00    -0.352 N 
ATOM      6  H   UNL     1       5.208  41.288  51.895  1.00  0.00     0.163 HD
BRANCH   5   7
ATOM      7  C   UNL     1       4.279  42.990  51.723  1.00  0.00     0.226 A 
ATOM      8  N   UNL     1       5.210  43.915  51.415  1.00  0.00    -0.195 NA
ATOM      9  N   UNL     1       3.151  43.214  52.408  1.00  0.00    -0.193 NA
ATOM     10  C   UNL     1       5.050  45.203  51.810  1.00  0.00     0.147 A 
ATOM     11  C   UNL     1       2.997  44.500  52.755  1.00  0.00     0.165 A 
ATOM     12  C   UNL     1       3.879  45.532  52.497  1.00  0.00     0.082 A 
ATOM     13  N   UNL     1       1.945  45.063  53.422  1.00  0.00    -0.250 N 
ATOM     14  C   UNL     1       3.248  46.674  53.030  1.00  0.00     0.149 A 
ATOM     15  N   UNL     1       2.075  46.397  53.613  1.00  0.00    -0.179 NA
ATOM     16  C   UNL     1       0.763  44.391  53.901  1.00  0.00     0.176 C 
BRANCH  10  17
ATOM     17  N   UNL     1       6.050  46.110  51.437  1.00  0.00    -0.339 N 
ATOM     18  H   UNL     1       6.196  46.012  50.435  1.00  0.00     0.168 HD
BRANCH  17  19
ATOM     19  C   UNL     1       7.249  46.435  52.101  1.00  0.00     0.040 A 
ATOM     20  C   UNL     1       7.181  46.797  53.454  1.00  0.00     0.026 A 
ATOM     21  C   UNL     1       8.502  46.431  51.478  1.00  0.00     0.026 A 
ATOM     22  C   UNL     1       8.333  47.130  54.169  1.00  0.00     0.002 A 
ATOM     23  C   UNL     1       9.658  46.765  52.191  1.00  0.00     0.002 A 
ATOM     24  C   UNL     1       9.573  47.111  53.537  1.00  0.00     0.000 A 
ENDBRANCH  17  19
ENDBRANCH  10  17
ENDBRANCH   5   7
ENDBRANCH   1   5
TORSDOF 6
ENDMDL
MODEL 11
REMARK VINA RESULT:    -7.177      2.700      6.260
REMARK INTER + INTRA:         -10.531
REMARK INTER:                  -9.872
REMARK INTRA:                  -0.659
REMARK UNBOUND:                -0.836
REMARK SMILES COCCNc1nc(Nc2ccccc2)c2cnn(C)c2n1
REMARK SMILES IDX 4 1 3 2 2 3 1 4 5 5 6 7 7 8 22 9 8 10 21 11 16 12 19 13
REMARK SMILES IDX 17 14 18 15 20 16 9 17 10 19 11 20 15 21 12 22 14 23 13 24
REMARK H PARENT 5 6 9 18
ROOT
ATOM      1  C   UNL     1       9.918  47.194  53.122  1.00  0.00     0.144 C 
ENDROOT
BRANCH   1   2
ATOM      2  C   UNL     1       9.545  46.824  54.566  1.00  0.00     0.181 C 
BRANCH   2   3
ATOM      3  O   UNL     1       9.860  47.872  55.494  1.00  0.00    -0.383 OA
ATOM      4  C   UNL     1      11.019  47.604  56.273  1.00  0.00     0.194 C 
ENDBRANCH   2   3
ENDBRANCH   1   2
BRANCH   1   5
ATOM      5  N   UNL     1       8.820  47.931  52.511  1.00  0.00    -0.352 N 
ATOM      6  H   UNL     1       9.086  48.434  51.667  1.00  0.00     0.163 HD
BRANCH   5   7
ATOM      7  C   UNL     1       7.708  47.163  52.195  1.00  0.00     0.226 A 
ATOM      8  N   UNL     1       6.513  47.486  52.728  1.00  0.00    -0.195 NA
ATOM      9  N   UNL     1       7.944  46.140  51.366  1.00  0.00    -0.193 NA
ATOM     10  C   UNL     1       5.414  46.744  52.438  1.00  0.00     0.147 A 
ATOM     11  C   UNL     1       6.837  45.444  51.066  1.00  0.00     0.165 A 
ATOM     12  C   UNL     1       5.564  45.680  51.547  1.00  0.00     0.082 A 
ATOM     13  N   UNL     1       6.730  44.373  50.224  1.00  0.00    -0.250 N 
ATOM     14  C   UNL     1       4.764  44.708  50.912  1.00  0.00     0.149 A 
ATOM     15  N   UNL     1       5.468  43.893  50.116  1.00  0.00    -0.179 NA
ATOM     16  C   UNL     1       7.790  43.753  49.470  1.00  0.00     0.176 C 
BRANCH  10  17
ATOM     17  N   UNL     1       4.203  47.153  53.013  1.00  0.00    -0.339 N 
ATOM     18  H   UNL     1       4.389  47.992  53.558  1.00  0.00     0.168 HD
BRANCH  17  19
ATOM     19  C   UNL     1       3.191  46.372  53.602  1.00  0.00     0.040 A 
ATOM     20  C   UNL     1       1.998  46.183  52.888  1.00  0.00     0.026 A 
ATOM     21  C   UNL     1       3.305  45.788  54.869  1.00  0.00     0.026 A 
ATOM     22  C   UNL     1       0.956  45.419  53.417  1.00  0.00     0.002 A 
ATOM     23  C   UNL     1       2.262  45.022  55.401  1.00  0.00     0.002 A 
ATOM     24  C   UNL     1       1.089  44.836  54.675  1.00  0.00     0.000 A 
ENDBRANCH  17  19
ENDBRANCH  10  17
ENDBRANCH   5   7
ENDBRANCH   1   5
TORSDOF 6
ENDMDL
MODEL 12
REMARK VINA RESULT:    -7.067      2.822      7.027
REMARK INTER + INTRA:         -10.381
REMARK INTER:                  -9.758
REMARK INTRA:                  -0.623
REMARK UNBOUND:                -0.836
REMARK SMILES COCCNc1nc(Nc2ccccc2)c2cnn(C)c2n1
REMARK SMILES IDX 4 1 3 2 2 3 1 4 5 5 6 7 7 8 22 9 8 10 21 11 16 12 19 13
REMARK SMILES IDX 17 14 18 15 20 16 9 17 10 19 11 20 15 21 12 22 14 23 13 24
REMARK H PARENT 5 6 9 18
ROOT
ATOM      1  C   UNL     1       7.796  46.760  51.851  1.00  0.00     0.144 C 
ENDROOT
BRANCH   1   2
ATOM      2  C   UNL     1       9.257  46.684  52.319  1.00  0.00     0.181 C 
BRANCH   2   3
ATOM      3  O   UNL     1       9.366  46.326  53.703  1.00  0.00    -0.383 OA
ATOM      4  C   UNL     1       9.852  47.382  54.522  1.00  0.00     0.194 C 
ENDBRANCH   2   3
ENDBRANCH   1   2
BRANCH   1   5
ATOM      5  N   UNL     1       7.643  46.006  50.614  1.00  0.00    -0.352 N 
ATOM      6  H   UNL     1       8.519  45.637  50.250  1.00  0.00     0.163 HD
BRANCH   5   7
ATOM      7  C   UNL     1       6.751  44.945  50.685  1.00  0.00     0.226 A 
ATOM      8  N   UNL     1       6.865  43.930  49.806  1.00  0.00    -0.195 NA
ATOM      9  N   UNL     1       5.832  45.043  51.652  1.00  0.00    -0.193 NA
ATOM     10  C   UNL     1       5.999  42.886  49.853  1.00  0.00     0.147 A 
ATOM     11  C   UNL     1       5.011  43.983  51.702  1.00  0.00     0.165 A 
ATOM     12  C   UNL     1       5.032  42.888  50.859  1.00  0.00     0.082 A 
ATOM     13  N   UNL     1       3.997  43.756  52.590  1.00  0.00    -0.250 N 
ATOM     14  C   UNL     1       4.004  42.054  51.345  1.00  0.00     0.149 A 
ATOM     15  N   UNL     1       3.354  42.581  52.390  1.00  0.00    -0.179 NA
ATOM     16  C   UNL     1       3.587  44.612  53.674  1.00  0.00     0.176 C 
BRANCH  10  17
ATOM     17  N   UNL     1       6.193  41.859  48.919  1.00  0.00    -0.339 N 
ATOM     18  H   UNL     1       7.172  41.875  48.643  1.00  0.00     0.168 HD
BRANCH  17  19
ATOM     19  C   UNL     1       5.365  41.459  47.853  1.00  0.00     0.040 A 
ATOM     20  C   UNL     1       5.673  41.920  46.565  1.00  0.00     0.026 A 
ATOM     21  C   UNL     1       4.242  40.639  48.014  1.00  0.00     0.026 A 
ATOM     22  C   UNL     1       4.890  41.559  45.465  1.00  0.00     0.002 A 
ATOM     23  C   UNL     1       3.457  40.277  46.915  1.00  0.00     0.002 A 
ATOM     24  C   UNL     1       3.782  40.735  45.641  1.00  0.00     0.000 A 
ENDBRANCH  17  19
ENDBRANCH  10  17
ENDBRANCH   5   7
ENDBRANCH   1   5
TORSDOF 6
ENDMDL
MODEL 13
REMARK VINA RESULT:    -7.065      2.411      6.099
REMARK INTER + INTRA:         -10.378
REMARK INTER:                  -9.676
REMARK INTRA:                  -0.702
REMARK UNBOUND:                -0.836
REMARK SMILES COCCNc1nc(Nc2ccccc2)c2cnn(C)c2n1
REMARK SMILES IDX 4 1 3 2 2 3 1 4 5 5 6 7 7 8 22 9 8 10 21 11 16 12 19 13
REMARK SMILES IDX 17 14 18 15 20 16 9 17 10 19 11 20 15 21 12 22 14 23 13 24
REMARK H PARENT 5 6 9 18
ROOT
ATOM      1  C   UNL     1       1.549  43.020  52.486  1.00  0.00     0.144 C 
ENDROOT
BRANCH   1   2
ATOM      2  C   UNL     1       1.029  43.654  53.785  1.00  0.00     0.181 C 
BRANCH   2   3
ATOM      3  O   UNL     1       2.031  44.441  54.445  1.00  0.00    -0.383 OA
ATOM      4  C   UNL     1       1.628  44.907  55.726  1.00  0.00     0.194 C 
ENDBRANCH   2   3
ENDBRANCH   1   2
BRANCH   1   5
ATOM      5  N   UNL     1       2.776  42.286  52.762  1.00  0.00    -0.352 N 
ATOM      6  H   UNL     1       2.668  41.275  52.706  1.00  0.00     0.163 HD
BRANCH   5   7
ATOM      7  C   UNL     1       3.853  42.626  51.955  1.00  0.00     0.226 A 
ATOM      8  N   UNL     1       4.212  41.799  50.954  1.00  0.00    -0.195 NA
ATOM      9  N   UNL     1       4.449  43.783  52.266  1.00  0.00    -0.193 NA
ATOM     10  C   UNL     1       5.267  42.109  50.158  1.00  0.00     0.147 A 
ATOM     11  C   UNL     1       5.464  44.085  51.444  1.00  0.00     0.165 A 
ATOM     12  C   UNL     1       5.922  43.320  50.389  1.00  0.00     0.082 A 
ATOM     13  N   UNL     1       6.248  45.205  51.466  1.00  0.00    -0.250 N 
ATOM     14  C   UNL     1       6.967  44.084  49.830  1.00  0.00     0.149 A 
ATOM     15  N   UNL     1       7.187  45.228  50.490  1.00  0.00    -0.179 NA
ATOM     16  C   UNL     1       6.154  46.312  52.383  1.00  0.00     0.176 C 
BRANCH  10  17
ATOM     17  N   UNL     1       5.568  41.210  49.126  1.00  0.00    -0.339 N 
ATOM     18  H   UNL     1       6.575  41.064  49.130  1.00  0.00     0.168 HD
BRANCH  17  19
ATOM     19  C   UNL     1       5.045  41.148  47.821  1.00  0.00     0.040 A 
ATOM     20  C   UNL     1       3.872  40.409  47.610  1.00  0.00     0.026 A 
ATOM     21  C   UNL     1       5.643  41.771  46.719  1.00  0.00     0.026 A 
ATOM     22  C   UNL     1       3.303  40.308  46.339  1.00  0.00     0.002 A 
ATOM     23  C   UNL     1       5.076  41.671  45.445  1.00  0.00     0.002 A 
ATOM     24  C   UNL     1       3.904  40.942  45.255  1.00  0.00     0.000 A 
ENDBRANCH  17  19
ENDBRANCH  10  17
ENDBRANCH   5   7
ENDBRANCH   1   5
TORSDOF 6
ENDMDL
MODEL 14
REMARK VINA RESULT:    -7.009      2.237      6.476
REMARK INTER + INTRA:         -10.303
REMARK INTER:                  -9.650
REMARK INTRA:                  -0.653
REMARK UNBOUND:                -0.836
REMARK SMILES COCCNc1nc(Nc2ccccc2)c2cnn(C)c2n1
REMARK SMILES IDX 4 1 3 2 2 3 1 4 5 5 6 7 7 8 22 9 8 10 21 11 16 12 19 13
REMARK SMILES IDX 17 14 18 15 20 16 9 17 10 19 11 20 15 21 12 22 14 23 13 24
REMARK H PARENT 5 6 9 18
ROOT
ATOM      1  C   UNL     1       7.174  46.991  52.787  1.00  0.00     0.144 C 
ENDROOT
BRANCH   1   2
ATOM      2  C   UNL     1       7.275  46.791  54.307  1.00  0.00     0.181 C 
BRANCH   2   3
ATOM      3  O   UNL     1       8.163  47.734  54.921  1.00  0.00    -0.383 OA
ATOM      4  C   UNL     1       9.522  47.558  54.542  1.00  0.00     0.194 C 
ENDBRANCH   2   3
ENDBRANCH   1   2
BRANCH   1   5
ATOM      5  N   UNL     1       5.806  46.739  52.355  1.00  0.00    -0.352 N 
ATOM      6  H   UNL     1       5.492  47.360  51.611  1.00  0.00     0.163 HD
BRANCH   5   7
ATOM      7  C   UNL     1       5.557  45.441  51.934  1.00  0.00     0.226 A 
ATOM      8  N   UNL     1       4.553  44.746  52.504  1.00  0.00    -0.195 NA
ATOM      9  N   UNL     1       6.372  44.992  50.973  1.00  0.00    -0.193 NA
ATOM     10  C   UNL     1       4.297  43.471  52.113  1.00  0.00     0.147 A 
ATOM     11  C   UNL     1       6.077  43.745  50.578  1.00  0.00     0.165 A 
ATOM     12  C   UNL     1       5.076  42.938  51.084  1.00  0.00     0.082 A 
ATOM     13  N   UNL     1       6.688  43.015  49.596  1.00  0.00    -0.250 N 
ATOM     14  C   UNL     1       5.159  41.756  50.319  1.00  0.00     0.149 A 
ATOM     15  N   UNL     1       6.150  41.785  49.421  1.00  0.00    -0.179 NA
ATOM     16  C   UNL     1       7.790  43.432  48.766  1.00  0.00     0.176 C 
BRANCH  10  17
ATOM     17  N   UNL     1       3.225  42.819  52.736  1.00  0.00    -0.339 N 
ATOM     18  H   UNL     1       3.510  41.860  52.914  1.00  0.00     0.168 HD
BRANCH  17  19
ATOM     19  C   UNL     1       1.848  42.902  52.452  1.00  0.00     0.040 A 
ATOM     20  C   UNL     1       0.940  42.615  53.482  1.00  0.00     0.026 A 
ATOM     21  C   UNL     1       1.339  43.240  51.193  1.00  0.00     0.026 A 
ATOM     22  C   UNL     1      -0.438  42.679  53.264  1.00  0.00     0.002 A 
ATOM     23  C   UNL     1      -0.041  43.305  50.973  1.00  0.00     0.002 A 
ATOM     24  C   UNL     1      -0.929  43.027  52.008  1.00  0.00     0.000 A 
ENDBRANCH  17  19
ENDBRANCH  10  17
ENDBRANCH   5   7
ENDBRANCH   1   5
TORSDOF 6
ENDMDL
MODEL 15
REMARK VINA RESULT:    -7.002      2.380      6.422
REMARK INTER + INTRA:         -10.294
REMARK INTER:                  -9.561
REMARK INTRA:                  -0.732
REMARK UNBOUND:                -0.836
REMARK SMILES COCCNc1nc(Nc2ccccc2)c2cnn(C)c2n1
REMARK SMILES IDX 4 1 3 2 2 3 1 4 5 5 6 7 7 8 22 9 8 10 21 11 16 12 19 13
REMARK SMILES IDX 17 14 18 15 20 16 9 17 10 19 11 20 15 21 12 22 14 23 13 24
REMARK H PARENT 5 6 9 18
ROOT
ATOM      1  C   UNL     1       8.031  43.679  49.548  1.00  0.00     0.144 C 
ENDROOT
BRANCH   1   2
ATOM      2  C   UNL     1       6.822  42.830  49.129  1.00  0.00     0.181 C 
BRANCH   2   3
ATOM      3  O   UNL     1       6.548  41.776  50.062  1.00  0.00    -0.383 OA
ATOM      4  C   UNL     1       5.160  41.576  50.295  1.00  0.00     0.194 C 
ENDBRANCH   2   3
ENDBRANCH   1   2
BRANCH   1   5
ATOM      5  N   UNL     1       7.661  45.088  49.541  1.00  0.00    -0.352 N 
ATOM      6  H   UNL     1       6.936  45.316  48.863  1.00  0.00     0.163 HD
BRANCH   5   7
ATOM      7  C   UNL     1       7.245  45.587  50.767  1.00  0.00     0.226 A 
ATOM      8  N   UNL     1       5.929  45.606  51.057  1.00  0.00    -0.195 NA
ATOM      9  N   UNL     1       8.228  46.016  51.566  1.00  0.00    -0.193 NA
ATOM     10  C   UNL     1       5.499  46.096  52.247  1.00  0.00     0.147 A 
ATOM     11  C   UNL     1       7.782  46.462  52.750  1.00  0.00     0.165 A 
ATOM     12  C   UNL     1       6.464  46.530  53.158  1.00  0.00     0.082 A 
ATOM     13  N   UNL     1       8.526  46.930  53.797  1.00  0.00    -0.250 N 
ATOM     14  C   UNL     1       6.531  47.030  54.475  1.00  0.00     0.149 A 
ATOM     15  N   UNL     1       7.783  47.295  54.869  1.00  0.00    -0.179 NA
ATOM     16  C   UNL     1       9.961  47.047  53.858  1.00  0.00     0.176 C 
BRANCH  10  17
ATOM     17  N   UNL     1       4.118  46.066  52.485  1.00  0.00    -0.339 N 
ATOM     18  H   UNL     1       3.954  46.482  53.398  1.00  0.00     0.168 HD
BRANCH  17  19
ATOM     19  C   UNL     1       3.192  45.040  52.213  1.00  0.00     0.040 A 
ATOM     20  C   UNL     1       3.386  43.793  52.824  1.00  0.00     0.026 A 
ATOM     21  C   UNL     1       2.098  45.196  51.354  1.00  0.00     0.026 A 
ATOM     22  C   UNL     1       2.503  42.735  52.596  1.00  0.00     0.002 A 
ATOM     23  C   UNL     1       1.213  44.138  51.123  1.00  0.00     0.002 A 
ATOM     24  C   UNL     1       1.414  42.909  51.746  1.00  0.00     0.000 A 
ENDBRANCH  17  19
ENDBRANCH  10  17
ENDBRANCH   5   7
ENDBRANCH   1   5
TORSDOF 6
ENDMDL
MODEL 16
REMARK VINA RESULT:    -6.918      2.465      6.125
REMARK INTER + INTRA:         -10.181
REMARK INTER:                  -9.970
REMARK INTRA:                  -0.210
REMARK UNBOUND:                -0.836
REMARK SMILES COCCNc1nc(Nc2ccccc2)c2cnn(C)c2n1
REMARK SMILES IDX 4 1 3 2 2 3 1 4 5 5 6 7 7 8 22 9 8 10 21 11 16 12 19 13
REMARK SMILES IDX 17 14 18 15 20 16 9 17 10 19 11 20 15 21 12 22 14 23 13 24
REMARK H PARENT 5 6 9 18
ROOT
ATOM      1  C   UNL     1       5.617  46.945  54.331  1.00  0.00     0.144 C 
ENDROOT
BRANCH   1   2
ATOM      2  C   UNL     1       7.109  46.591  54.230  1.00  0.00     0.181 C 
BRANCH   2   3
ATOM      3  O   UNL     1       7.939  47.535  54.921  1.00  0.00    -0.383 OA
ATOM      4  C   UNL     1       9.160  47.810  54.246  1.00  0.00     0.194 C 
ENDBRANCH   2   3
ENDBRANCH   1   2
BRANCH   1   5
ATOM      5  N   UNL     1       4.967  46.040  55.269  1.00  0.00    -0.352 N 
ATOM      6  H   UNL     1       4.689  46.486  56.141  1.00  0.00     0.163 HD
BRANCH   5   7
ATOM      7  C   UNL     1       3.848  45.389  54.769  1.00  0.00     0.226 A 
ATOM      8  N   UNL     1       3.976  44.596  53.688  1.00  0.00    -0.195 NA
ATOM      9  N   UNL     1       2.711  45.627  55.435  1.00  0.00    -0.193 NA
ATOM     10  C   UNL     1       2.893  43.956  53.178  1.00  0.00     0.147 A 
ATOM     11  C   UNL     1       1.663  44.955  54.935  1.00  0.00     0.165 A 
ATOM     12  C   UNL     1       1.673  44.117  53.837  1.00  0.00     0.082 A 
ATOM     13  N   UNL     1       0.379  44.948  55.403  1.00  0.00    -0.250 N 
ATOM     14  C   UNL     1       0.349  43.641  53.748  1.00  0.00     0.149 A 
ATOM     15  N   UNL     1      -0.454  44.155  54.688  1.00  0.00    -0.179 NA
ATOM     16  C   UNL     1      -0.132  45.665  56.544  1.00  0.00     0.176 C 
BRANCH  10  17
ATOM     17  N   UNL     1       3.109  43.133  52.064  1.00  0.00    -0.339 N 
ATOM     18  H   UNL     1       2.689  42.229  52.264  1.00  0.00     0.168 HD
BRANCH  17  19
ATOM     19  C   UNL     1       4.262  42.999  51.268  1.00  0.00     0.040 A 
ATOM     20  C   UNL     1       4.625  41.716  50.834  1.00  0.00     0.026 A 
ATOM     21  C   UNL     1       5.075  44.078  50.900  1.00  0.00     0.026 A 
ATOM     22  C   UNL     1       5.758  41.516  50.043  1.00  0.00     0.002 A 
ATOM     23  C   UNL     1       6.211  43.881  50.107  1.00  0.00     0.002 A 
ATOM     24  C   UNL     1       6.550  42.601  49.677  1.00  0.00     0.000 A 
ENDBRANCH  17  19
ENDBRANCH  10  17
ENDBRANCH   5   7
ENDBRANCH   1   5
TORSDOF 6
ENDMDL
MODEL 17
REMARK VINA RESULT:    -6.894      2.381      5.551
REMARK INTER + INTRA:         -10.148
REMARK INTER:                 -10.145
REMARK INTRA:                  -0.003
REMARK UNBOUND:                -0.836
REMARK SMILES COCCNc1nc(Nc2ccccc2)c2cnn(C)c2n1
REMARK SMILES IDX 4 1 3 2 2 3 1 4 5 5 6 7 7 8 22 9 8 10 21 11 16 12 19 13
REMARK SMILES IDX 17 14 18 15 20 16 9 17 10 19 11 20 15 21 12 22 14 23 13 24
REMARK H PARENT 5 6 9 18
ROOT
ATOM      1  C   UNL     1       6.859  46.771  54.551  1.00  0.00     0.144 C 
ENDROOT
BRANCH   1   2
ATOM      2  C   UNL     1       7.518  47.464  53.348  1.00  0.00     0.181 C 
BRANCH   2   3
ATOM      3  O   UNL     1       8.654  48.251  53.730  1.00  0.00    -0.383 OA
ATOM      4  C   UNL     1       9.600  47.532  54.511  1.00  0.00     0.194 C 
ENDBRANCH   2   3
ENDBRANCH   1   2
BRANCH   1   5
ATOM      5  N   UNL     1       5.458  47.162  54.629  1.00  0.00    -0.352 N 
ATOM      6  H   UNL     1       5.248  48.028  54.138  1.00  0.00     0.163 HD
BRANCH   5   7
ATOM      7  C   UNL     1       4.561  46.207  54.174  1.00  0.00     0.226 A 
ATOM      8  N   UNL     1       4.833  45.538  53.036  1.00  0.00    -0.195 NA
ATOM      9  N   UNL     1       3.474  46.042  54.938  1.00  0.00    -0.193 NA
ATOM     10  C   UNL     1       3.965  44.605  52.568  1.00  0.00     0.147 A 
ATOM     11  C   UNL     1       2.650  45.090  54.475  1.00  0.00     0.165 A 
ATOM     12  C   UNL     1       2.822  44.342  53.327  1.00  0.00     0.082 A 
ATOM     13  N   UNL     1       1.483  44.654  55.038  1.00  0.00    -0.250 N 
ATOM     14  C   UNL     1       1.714  43.471  53.308  1.00  0.00     0.149 A 
ATOM     15  N   UNL     1       0.880  43.665  54.337  1.00  0.00    -0.179 NA
ATOM     16  C   UNL     1       0.880  45.126  56.259  1.00  0.00     0.176 C 
BRANCH  10  17
ATOM     17  N   UNL     1       4.325  43.938  51.390  1.00  0.00    -0.339 N 
ATOM     18  H   UNL     1       3.947  42.995  51.443  1.00  0.00     0.168 HD
BRANCH  17  19
ATOM     19  C   UNL     1       5.548  43.963  50.693  1.00  0.00     0.040 A 
ATOM     20  C   UNL     1       5.979  42.785  50.065  1.00  0.00     0.026 A 
ATOM     21  C   UNL     1       6.364  45.097  50.606  1.00  0.00     0.026 A 
ATOM     22  C   UNL     1       7.182  42.745  49.358  1.00  0.00     0.002 A 
ATOM     23  C   UNL     1       7.569  45.060  49.899  1.00  0.00     0.002 A 
ATOM     24  C   UNL     1       7.977  43.884  49.273  1.00  0.00     0.000 A 
ENDBRANCH  17  19
ENDBRANCH  10  17
ENDBRANCH   5   7
ENDBRANCH   1   5
TORSDOF 6
ENDMDL
MODEL 18
REMARK VINA RESULT:    -6.849      2.241      5.686
REMARK INTER + INTRA:         -10.087
REMARK INTER:                  -9.283
REMARK INTRA:                  -0.803
REMARK UNBOUND:                -0.836
REMARK SMILES COCCNc1nc(Nc2ccccc2)c2cnn(C)c2n1
REMARK SMILES IDX 4 1 3 2 2 3 1 4 5 5 6 7 7 8 22 9 8 10 21 11 16 12 19 13
REMARK SMILES IDX 17 14 18 15 20 16 9 17 10 19 11 20 15 21 12 22 14 23 13 24
REMARK H PARENT 5 6 9 18
ROOT
ATOM      1  C   UNL     1       6.453  41.868  49.852  1.00  0.00     0.144 C 
ENDROOT
BRANCH   1   2
ATOM      2  C   UNL     1       5.198  41.308  49.164  1.00  0.00     0.181 C 
BRANCH   2   3
ATOM      3  O   UNL     1       4.256  40.773  50.103  1.00  0.00    -0.383 OA
ATOM      4  C   UNL     1       3.728  41.751  50.990  1.00  0.00     0.194 C 
ENDBRANCH   2   3
ENDBRANCH   1   2
BRANCH   1   5
ATOM      5  N   UNL     1       6.810  43.143  49.245  1.00  0.00    -0.352 N 
ATOM      6  H   UNL     1       6.255  43.375  48.424  1.00  0.00     0.163 HD
BRANCH   5   7
ATOM      7  C   UNL     1       6.747  44.233  50.101  1.00  0.00     0.226 A 
ATOM      8  N   UNL     1       5.544  44.663  50.531  1.00  0.00    -0.195 NA
ATOM      9  N   UNL     1       7.930  44.769  50.423  1.00  0.00    -0.193 NA
ATOM     10  C   UNL     1       5.459  45.732  51.363  1.00  0.00     0.147 A 
ATOM     11  C   UNL     1       7.822  45.800  51.274  1.00  0.00     0.165 A 
ATOM     12  C   UNL     1       6.651  46.328  51.781  1.00  0.00     0.082 A 
ATOM     13  N   UNL     1       8.836  46.536  51.823  1.00  0.00    -0.250 N 
ATOM     14  C   UNL     1       7.076  47.360  52.642  1.00  0.00     0.149 A 
ATOM     15  N   UNL     1       8.406  47.508  52.662  1.00  0.00    -0.179 NA
ATOM     16  C   UNL     1      10.249  46.362  51.605  1.00  0.00     0.176 C 
BRANCH  10  17
ATOM     17  N   UNL     1       4.176  46.108  51.783  1.00  0.00    -0.339 N 
ATOM     18  H   UNL     1       4.080  47.108  51.622  1.00  0.00     0.168 HD
BRANCH  17  19
ATOM     19  C   UNL     1       3.460  45.701  52.925  1.00  0.00     0.040 A 
ATOM     20  C   UNL     1       3.837  46.230  54.168  1.00  0.00     0.026 A 
ATOM     21  C   UNL     1       2.402  44.785  52.887  1.00  0.00     0.026 A 
ATOM     22  C   UNL     1       3.166  45.866  55.338  1.00  0.00     0.002 A 
ATOM     23  C   UNL     1       1.729  44.419  54.057  1.00  0.00     0.002 A 
ATOM     24  C   UNL     1       2.110  44.961  55.281  1.00  0.00     0.000 A 
ENDBRANCH  17  19
ENDBRANCH  10  17
ENDBRANCH   5   7
ENDBRANCH   1   5
TORSDOF 6
ENDMDL
MODEL 19
REMARK VINA RESULT:    -6.785      2.125      6.054
REMARK INTER + INTRA:         -10.001
REMARK INTER:                  -9.666
REMARK INTRA:                  -0.335
REMARK UNBOUND:                -0.836
REMARK SMILES COCCNc1nc(Nc2ccccc2)c2cnn(C)c2n1
REMARK SMILES IDX 4 1 3 2 2 3 1 4 5 5 6 7 7 8 22 9 8 10 21 11 16 12 19 13
REMARK SMILES IDX 17 14 18 15 20 16 9 17 10 19 11 20 15 21 12 22 14 23 13 24
REMARK H PARENT 5 6 9 18
ROOT
ATOM      1  C   UNL     1       6.642  47.148  52.783  1.00  0.00     0.144 C 
ENDROOT
BRANCH   1   2
ATOM      2  C   UNL     1       6.909  46.699  54.227  1.00  0.00     0.181 C 
BRANCH   2   3
ATOM      3  O   UNL     1       7.835  47.562  54.902  1.00  0.00    -0.383 OA
ATOM      4  C   UNL     1       9.130  47.568  54.313  1.00  0.00     0.194 C 
ENDBRANCH   2   3
ENDBRANCH   1   2
BRANCH   1   5
ATOM      5  N   UNL     1       5.240  46.925  52.457  1.00  0.00    -0.352 N 
ATOM      6  H   UNL     1       4.916  47.465  51.656  1.00  0.00     0.163 HD
BRANCH   5   7
ATOM      7  C   UNL     1       4.899  45.601  52.220  1.00  0.00     0.226 A 
ATOM      8  N   UNL     1       3.840  45.069  52.862  1.00  0.00    -0.195 NA
ATOM      9  N   UNL     1       5.688  44.961  51.349  1.00  0.00    -0.193 NA
ATOM     10  C   UNL     1       3.494  43.774  52.651  1.00  0.00     0.147 A 
ATOM     11  C   UNL     1       5.305  43.695  51.130  1.00  0.00     0.165 A 
ATOM     12  C   UNL     1       4.242  43.044  51.725  1.00  0.00     0.082 A 
ATOM     13  N   UNL     1       5.870  42.790  50.274  1.00  0.00    -0.250 N 
ATOM     14  C   UNL     1       4.244  41.762  51.138  1.00  0.00     0.149 A 
ATOM     15  N   UNL     1       5.243  41.590  50.265  1.00  0.00    -0.179 NA
ATOM     16  C   UNL     1       7.008  43.003  49.416  1.00  0.00     0.176 C 
BRANCH  10  17
ATOM     17  N   UNL     1       2.371  43.298  53.339  1.00  0.00    -0.339 N 
ATOM     18  H   UNL     1       1.847  42.705  52.700  1.00  0.00     0.168 HD
BRANCH  17  19
ATOM     19  C   UNL     1       1.514  43.981  54.224  1.00  0.00     0.040 A 
ATOM     20  C   UNL     1       0.137  43.970  53.956  1.00  0.00     0.026 A 
ATOM     21  C   UNL     1       1.966  44.685  55.346  1.00  0.00     0.026 A 
ATOM     22  C   UNL     1      -0.764  44.629  54.795  1.00  0.00     0.002 A 
ATOM     23  C   UNL     1       1.065  45.345  56.188  1.00  0.00     0.002 A 
ATOM     24  C   UNL     1      -0.300  45.315  55.913  1.00  0.00     0.000 A 
ENDBRANCH  17  19
ENDBRANCH  10  17
ENDBRANCH   5   7
ENDBRANCH   1   5
TORSDOF 6
ENDMDL
MODEL 20
REMARK VINA RESULT:    -6.777      2.819      4.270
REMARK INTER + INTRA:          -9.990
REMARK INTER:                  -9.340
REMARK INTRA:                  -0.650
REMARK UNBOUND:                -0.836
REMARK SMILES COCCNc1nc(Nc2ccccc2)c2cnn(C)c2n1
REMARK SMILES IDX 4 1 3 2 2 3 1 4 5 5 6 7 7 8 22 9 8 10 21 11 16 12 19 13
REMARK SMILES IDX 17 14 18 15 20 16 9 17 10 19 11 20 15 21 12 22 14 23 13 24
REMARK H PARENT 5 6 9 18
ROOT
ATOM      1  C   UNL     1       0.534  45.113  56.994  1.00  0.00     0.144 C 
ENDROOT
BRANCH   1   2
ATOM      2  C   UNL     1      -0.207  46.415  57.331  1.00  0.00     0.181 C 
BRANCH   2   3
ATOM      3  O   UNL     1      -0.010  46.816  58.694  1.00  0.00    -0.383 OA
ATOM      4  C   UNL     1      -0.685  48.021  59.030  1.00  0.00     0.194 C 
ENDBRANCH   2   3
ENDBRANCH   1   2
BRANCH   1   5
ATOM      5  N   UNL     1       1.837  45.429  56.426  1.00  0.00    -0.352 N 
ATOM      6  H   UNL     1       2.606  44.924  56.862  1.00  0.00     0.163 HD
BRANCH   5   7
ATOM      7  C   UNL     1       1.941  45.225  55.057  1.00  0.00     0.226 A 
ATOM      8  N   UNL     1       2.767  46.008  54.336  1.00  0.00    -0.195 NA
ATOM      9  N   UNL     1       1.179  44.237  54.573  1.00  0.00    -0.193 NA
ATOM     10  C   UNL     1       2.878  45.831  52.995  1.00  0.00     0.147 A 
ATOM     11  C   UNL     1       1.334  44.058  53.253  1.00  0.00     0.165 A 
ATOM     12  C   UNL     1       2.147  44.794  52.413  1.00  0.00     0.082 A 
ATOM     13  N   UNL     1       0.734  43.114  52.465  1.00  0.00    -0.250 N 
ATOM     14  C   UNL     1       1.980  44.193  51.148  1.00  0.00     0.149 A 
ATOM     15  N   UNL     1       1.106  43.179  51.165  1.00  0.00    -0.179 NA
ATOM     16  C   UNL     1      -0.200  42.101  52.885  1.00  0.00     0.176 C 
BRANCH  10  17
ATOM     17  N   UNL     1       3.772  46.671  52.316  1.00  0.00    -0.339 N 
ATOM     18  H   UNL     1       3.259  47.122  51.563  1.00  0.00     0.168 HD
BRANCH  17  19
ATOM     19  C   UNL     1       5.112  46.435  51.955  1.00  0.00     0.040 A 
ATOM     20  C   UNL     1       6.118  47.116  52.657  1.00  0.00     0.026 A 
ATOM     21  C   UNL     1       5.493  45.570  50.923  1.00  0.00     0.026 A 
ATOM     22  C   UNL     1       7.467  46.926  52.347  1.00  0.00     0.002 A 
ATOM     23  C   UNL     1       6.843  45.379  50.610  1.00  0.00     0.002 A 
ATOM     24  C   UNL     1       7.829  46.054  51.324  1.00  0.00     0.000 A 
ENDBRANCH  17  19
ENDBRANCH  10  17
ENDBRANCH   5   7
ENDBRANCH   1   5
TORSDOF 6
ENDMDL
