MODEL 1
REMARK VINA RESULT:    -8.654      0.000      0.000
REMARK INTER + INTRA:         -12.994
REMARK INTER:                 -11.942
REMARK INTRA:                  -1.052
REMARK UNBOUND:                -1.052
REMARK SMILES OCCCNc1nc(Nc2ccccc2)nc2ccccc12
REMARK SMILES IDX 4 1 3 2 2 3 1 4 5 6 6 8 7 9 22 10 8 11 21 12 17 13 16 14
REMARK SMILES IDX 20 15 18 16 19 17 9 18 10 20 11 21 15 22 12 23 14 24 13 25
REMARK H PARENT 1 5 5 7 9 19
ROOT
ATOM      1  C   UNL     1       2.130  44.418  53.189  1.00  0.00     0.117 C 
ENDROOT
BRANCH   1   2
ATOM      2  C   UNL     1       1.842  44.606  54.679  1.00  0.00     0.049 C 
BRANCH   2   3
ATOM      3  C   UNL     1       2.880  45.493  55.349  1.00  0.00     0.158 C 
BRANCH   3   4
ATOM      4  O   UNL     1       4.048  44.738  55.635  1.00  0.00    -0.396 OA
ATOM      5  H   UNL     1       3.885  44.264  56.470  1.00  0.00     0.210 HD
ENDBRANCH   3   4
ENDBRANCH   2   3
ENDBRANCH   1   2
BRANCH   1   6
ATOM      6  N   UNL     1       3.154  43.382  53.032  1.00  0.00    -0.369 N 
ATOM      7  H   UNL     1       2.754  42.530  52.644  1.00  0.00     0.162 HD
BRANCH   6   8
ATOM      8  C   UNL     1       4.255  43.751  52.221  1.00  0.00     0.139 A 
ATOM      9  N   UNL     1       4.934  44.872  52.515  1.00  0.00    -0.195 NA
ATOM     10  C   UNL     1       4.621  42.923  51.148  1.00  0.00     0.043 A 
ATOM     11  C   UNL     1       5.969  45.216  51.735  1.00  0.00     0.229 A 
ATOM     12  C   UNL     1       3.987  41.700  50.799  1.00  0.00     0.014 A 
ATOM     13  C   UNL     1       5.708  43.372  50.397  1.00  0.00     0.078 A 
ATOM     14  N   UNL     1       6.365  44.499  50.679  1.00  0.00    -0.213 NA
ATOM     15  C   UNL     1       4.424  40.956  49.706  1.00  0.00     0.001 A 
ATOM     16  C   UNL     1       6.126  42.613  49.308  1.00  0.00     0.029 A 
ATOM     17  C   UNL     1       5.496  41.416  48.955  1.00  0.00     0.002 A 
BRANCH  11  18
ATOM     18  N   UNL     1       6.605  46.397  52.108  1.00  0.00    -0.324 N 
ATOM     19  H   UNL     1       6.038  47.176  51.809  1.00  0.00     0.170 HD
BRANCH  18  20
ATOM     20  C   UNL     1       7.791  46.696  52.786  1.00  0.00     0.041 A 
ATOM     21  C   UNL     1       9.014  46.433  52.146  1.00  0.00     0.026 A 
ATOM     22  C   UNL     1       7.840  47.240  54.073  1.00  0.00     0.026 A 
ATOM     23  C   UNL     1      10.236  46.704  52.766  1.00  0.00     0.002 A 
ATOM     24  C   UNL     1       9.062  47.513  54.700  1.00  0.00     0.002 A 
ATOM     25  C   UNL     1      10.260  47.245  54.047  1.00  0.00     0.000 A 
ENDBRANCH  18  20
ENDBRANCH  11  18
ENDBRANCH   6   8
ENDBRANCH   1   6
TORSDOF 7
ENDMDL
MODEL 2
REMARK VINA RESULT:    -8.630      0.117      1.030
REMARK INTER + INTRA:         -12.961
REMARK INTER:                 -11.883
REMARK INTRA:                  -1.078
REMARK UNBOUND:                -1.052
REMARK SMILES OCCCNc1nc(Nc2ccccc2)nc2ccccc12
REMARK SMILES IDX 4 1 3 2 2 3 1 4 5 6 6 8 7 9 22 10 8 11 21 12 17 13 16 14
REMARK SMILES IDX 20 15 18 16 19 17 9 18 10 20 11 21 15 22 12 23 14 24 13 25
REMARK H PARENT 1 5 5 7 9 19
ROOT
ATOM      1  C   UNL     1       2.052  44.312  53.145  1.00  0.00     0.117 C 
ENDROOT
BRANCH   1   2
ATOM      2  C   UNL     1       1.667  44.455  54.619  1.00  0.00     0.049 C 
BRANCH   2   3
ATOM      3  C   UNL     1       2.614  45.383  55.365  1.00  0.00     0.158 C 
BRANCH   3   4
ATOM      4  O   UNL     1       3.860  44.735  55.571  1.00  0.00    -0.396 OA
ATOM      5  H   UNL     1       3.765  44.174  56.360  1.00  0.00     0.210 HD
ENDBRANCH   3   4
ENDBRANCH   2   3
ENDBRANCH   1   2
BRANCH   1   6
ATOM      6  N   UNL     1       3.115  43.310  53.030  1.00  0.00    -0.369 N 
ATOM      7  H   UNL     1       2.749  42.433  52.666  1.00  0.00     0.162 HD
BRANCH   6   8
ATOM      8  C   UNL     1       4.208  43.693  52.216  1.00  0.00     0.139 A 
ATOM      9  N   UNL     1       4.888  44.810  52.522  1.00  0.00    -0.195 NA
ATOM     10  C   UNL     1       4.569  42.881  51.129  1.00  0.00     0.043 A 
ATOM     11  C   UNL     1       5.917  45.168  51.741  1.00  0.00     0.229 A 
ATOM     12  C   UNL     1       3.934  41.664  50.766  1.00  0.00     0.014 A 
ATOM     13  C   UNL     1       5.649  43.345  50.376  1.00  0.00     0.078 A 
ATOM     14  N   UNL     1       6.307  44.468  50.671  1.00  0.00    -0.213 NA
ATOM     15  C   UNL     1       4.364  40.937  49.658  1.00  0.00     0.001 A 
ATOM     16  C   UNL     1       6.060  42.603  49.274  1.00  0.00     0.029 A 
ATOM     17  C   UNL     1       5.431  41.410  48.907  1.00  0.00     0.002 A 
BRANCH  11  18
ATOM     18  N   UNL     1       6.553  46.345  52.126  1.00  0.00    -0.324 N 
ATOM     19  H   UNL     1       5.948  47.123  51.915  1.00  0.00     0.170 HD
BRANCH  18  20
ATOM     20  C   UNL     1       7.782  46.639  52.727  1.00  0.00     0.041 A 
ATOM     21  C   UNL     1       7.780  47.204  54.013  1.00  0.00     0.026 A 
ATOM     22  C   UNL     1       9.022  46.411  52.123  1.00  0.00     0.026 A 
ATOM     23  C   UNL     1       8.970  47.526  54.672  1.00  0.00     0.002 A 
ATOM     24  C   UNL     1      10.218  46.732  52.777  1.00  0.00     0.002 A 
ATOM     25  C   UNL     1      10.192  47.289  54.051  1.00  0.00     0.000 A 
ENDBRANCH  18  20
ENDBRANCH  11  18
ENDBRANCH   6   8
ENDBRANCH   1   6
TORSDOF 7
ENDMDL
MODEL 3
REMARK VINA RESULT:    -8.515      2.168      6.506
REMARK INTER + INTRA:         -12.802
REMARK INTER:                 -12.213
REMARK INTRA:                  -0.590
REMARK UNBOUND:                -1.052
REMARK SMILES OCCCNc1nc(Nc2ccccc2)nc2ccccc12
REMARK SMILES IDX 4 1 3 2 2 3 1 4 5 6 6 8 7 9 22 10 8 11 21 12 17 13 16 14
REMARK SMILES IDX 20 15 18 16 19 17 9 18 10 20 11 21 15 22 12 23 14 24 13 25
REMARK H PARENT 1 5 5 7 9 19
ROOT
ATOM      1  C   UNL     1       5.937  44.053  50.351  1.00  0.00     0.117 C 
ENDROOT
BRANCH   1   2
ATOM      2  C   UNL     1       6.700  43.066  49.467  1.00  0.00     0.049 C 
BRANCH   2   3
ATOM      3  C   UNL     1       6.213  41.638  49.661  1.00  0.00     0.158 C 
BRANCH   3   4
ATOM      4  O   UNL     1       7.297  40.808  50.051  1.00  0.00    -0.396 OA
ATOM      5  H   UNL     1       6.916  39.996  50.428  1.00  0.00     0.210 HD
ENDBRANCH   3   4
ENDBRANCH   2   3
ENDBRANCH   1   2
BRANCH   1   6
ATOM      6  N   UNL     1       6.684  45.312  50.408  1.00  0.00    -0.369 N 
ATOM      7  H   UNL     1       6.371  45.954  49.683  1.00  0.00     0.162 HD
BRANCH   6   8
ATOM      8  C   UNL     1       6.612  45.992  51.648  1.00  0.00     0.139 A 
ATOM      9  N   UNL     1       5.406  46.227  52.193  1.00  0.00    -0.195 NA
ATOM     10  C   UNL     1       7.800  46.377  52.287  1.00  0.00     0.043 A 
ATOM     11  C   UNL     1       5.348  46.878  53.362  1.00  0.00     0.229 A 
ATOM     12  C   UNL     1       9.112  46.126  51.804  1.00  0.00     0.014 A 
ATOM     13  C   UNL     1       7.631  47.053  53.497  1.00  0.00     0.078 A 
ATOM     14  N   UNL     1       6.430  47.306  54.022  1.00  0.00    -0.213 NA
ATOM     15  C   UNL     1      10.230  46.562  52.513  1.00  0.00     0.001 A 
ATOM     16  C   UNL     1       8.761  47.480  54.186  1.00  0.00     0.029 A 
ATOM     17  C   UNL     1      10.053  47.245  53.707  1.00  0.00     0.002 A 
BRANCH  11  18
ATOM     18  N   UNL     1       4.059  47.089  53.844  1.00  0.00    -0.324 N 
ATOM     19  H   UNL     1       3.952  48.067  54.064  1.00  0.00     0.170 HD
BRANCH  18  20
ATOM     20  C   UNL     1       2.948  46.265  54.052  1.00  0.00     0.041 A 
ATOM     21  C   UNL     1       2.830  45.597  55.283  1.00  0.00     0.026 A 
ATOM     22  C   UNL     1       1.940  46.057  53.106  1.00  0.00     0.026 A 
ATOM     23  C   UNL     1       1.749  44.756  55.558  1.00  0.00     0.002 A 
ATOM     24  C   UNL     1       0.853  45.216  53.375  1.00  0.00     0.002 A 
ATOM     25  C   UNL     1       0.757  44.566  54.601  1.00  0.00     0.000 A 
ENDBRANCH  18  20
ENDBRANCH  11  18
ENDBRANCH   6   8
ENDBRANCH   1   6
TORSDOF 7
ENDMDL
MODEL 4
REMARK VINA RESULT:    -8.234      1.156      1.397
REMARK INTER + INTRA:         -12.414
REMARK INTER:                 -11.559
REMARK INTRA:                  -0.855
REMARK UNBOUND:                -1.052
REMARK SMILES OCCCNc1nc(Nc2ccccc2)nc2ccccc12
REMARK SMILES IDX 4 1 3 2 2 3 1 4 5 6 6 8 7 9 22 10 8 11 21 12 17 13 16 14
REMARK SMILES IDX 20 15 18 16 19 17 9 18 10 20 11 21 15 22 12 23 14 24 13 25
REMARK H PARENT 1 5 5 7 9 19
ROOT
ATOM      1  C   UNL     1       2.682  44.626  53.286  1.00  0.00     0.117 C 
ENDROOT
BRANCH   1   2
ATOM      2  C   UNL     1       1.226  44.237  53.022  1.00  0.00     0.049 C 
BRANCH   2   3
ATOM      3  C   UNL     1       1.091  42.770  52.642  1.00  0.00     0.158 C 
BRANCH   3   4
ATOM      4  O   UNL     1       1.295  41.955  53.786  1.00  0.00    -0.396 OA
ATOM      5  H   UNL     1       0.516  42.063  54.358  1.00  0.00     0.210 HD
ENDBRANCH   3   4
ENDBRANCH   2   3
ENDBRANCH   1   2
BRANCH   1   6
ATOM      6  N   UNL     1       3.542  43.486  52.957  1.00  0.00    -0.369 N 
ATOM      7  H   UNL     1       2.994  42.710  52.592  1.00  0.00     0.162 HD
BRANCH   6   8
ATOM      8  C   UNL     1       4.570  43.766  52.024  1.00  0.00     0.139 A 
ATOM      9  N   UNL     1       5.325  44.864  52.196  1.00  0.00    -0.195 NA
ATOM     10  C   UNL     1       4.789  42.876  50.961  1.00  0.00     0.043 A 
ATOM     11  C   UNL     1       6.290  45.123  51.303  1.00  0.00     0.229 A 
ATOM     12  C   UNL     1       4.069  41.673  50.734  1.00  0.00     0.014 A 
ATOM     13  C   UNL     1       5.813  43.240  50.085  1.00  0.00     0.078 A 
ATOM     14  N   UNL     1       6.544  44.344  50.247  1.00  0.00    -0.213 NA
ATOM     15  C   UNL     1       4.359  40.862  49.639  1.00  0.00     0.001 A 
ATOM     16  C   UNL     1       6.084  42.416  48.997  1.00  0.00     0.029 A 
ATOM     17  C   UNL     1       5.369  41.237  48.765  1.00  0.00     0.002 A 
BRANCH  11  18
ATOM     18  N   UNL     1       7.012  46.287  51.554  1.00  0.00    -0.324 N 
ATOM     19  H   UNL     1       6.688  47.009  50.928  1.00  0.00     0.170 HD
BRANCH  18  20
ATOM     20  C   UNL     1       8.022  46.634  52.457  1.00  0.00     0.041 A 
ATOM     21  C   UNL     1       9.357  46.387  52.097  1.00  0.00     0.026 A 
ATOM     22  C   UNL     1       7.788  47.210  53.709  1.00  0.00     0.026 A 
ATOM     23  C   UNL     1      10.416  46.705  52.951  1.00  0.00     0.002 A 
ATOM     24  C   UNL     1       8.844  47.531  54.570  1.00  0.00     0.002 A 
ATOM     25  C   UNL     1      10.158  47.279  54.192  1.00  0.00     0.000 A 
ENDBRANCH  18  20
ENDBRANCH  11  18
ENDBRANCH   6   8
ENDBRANCH   1   6
TORSDOF 7
ENDMDL
MODEL 5
REMARK VINA RESULT:    -7.829      1.835      4.406
REMARK INTER + INTRA:         -11.856
REMARK INTER:                 -11.114
REMARK INTRA:                  -0.742
REMARK UNBOUND:                -1.052
REMARK SMILES OCCCNc1nc(Nc2ccccc2)nc2ccccc12
REMARK SMILES IDX 4 1 3 2 2 3 1 4 5 6 6 8 7 9 22 10 8 11 21 12 17 13 16 14
REMARK SMILES IDX 20 15 18 16 19 17 9 18 10 20 11 21 15 22 12 23 14 24 13 25
REMARK H PARENT 1 5 5 7 9 19
ROOT
ATOM      1  C   UNL     1       5.500  43.020  50.605  1.00  0.00     0.117 C 
ENDROOT
BRANCH   1   2
ATOM      2  C   UNL     1       5.641  41.590  50.081  1.00  0.00     0.049 C 
BRANCH   2   3
ATOM      3  C   UNL     1       4.372  41.110  49.394  1.00  0.00     0.158 C 
BRANCH   3   4
ATOM      4  O   UNL     1       3.554  40.415  50.323  1.00  0.00    -0.396 OA
ATOM      5  H   UNL     1       3.665  39.464  50.147  1.00  0.00     0.210 HD
ENDBRANCH   3   4
ENDBRANCH   2   3
ENDBRANCH   1   2
BRANCH   1   6
ATOM      6  N   UNL     1       4.211  43.147  51.290  1.00  0.00    -0.369 N 
ATOM      7  H   UNL     1       3.977  42.291  51.787  1.00  0.00     0.162 HD
BRANCH   6   8
ATOM      8  C   UNL     1       4.129  44.219  52.212  1.00  0.00     0.139 A 
ATOM      9  N   UNL     1       5.093  45.154  52.210  1.00  0.00    -0.195 NA
ATOM     10  C   UNL     1       3.032  44.288  53.084  1.00  0.00     0.043 A 
ATOM     11  C   UNL     1       5.011  46.159  53.093  1.00  0.00     0.229 A 
ATOM     12  C   UNL     1       1.949  43.369  53.119  1.00  0.00     0.014 A 
ATOM     13  C   UNL     1       3.043  45.370  53.966  1.00  0.00     0.078 A 
ATOM     14  N   UNL     1       4.016  46.284  53.977  1.00  0.00    -0.213 NA
ATOM     15  C   UNL     1       0.910  43.523  54.033  1.00  0.00     0.001 A 
ATOM     16  C   UNL     1       1.996  45.502  54.872  1.00  0.00     0.029 A 
ATOM     17  C   UNL     1       0.935  44.593  54.916  1.00  0.00     0.002 A 
BRANCH  11  18
ATOM     18  N   UNL     1       6.059  47.074  53.027  1.00  0.00    -0.324 N 
ATOM     19  H   UNL     1       5.674  48.006  53.016  1.00  0.00     0.170 HD
BRANCH  18  20
ATOM     20  C   UNL     1       7.453  46.961  52.993  1.00  0.00     0.041 A 
ATOM     21  C   UNL     1       8.168  47.128  54.192  1.00  0.00     0.026 A 
ATOM     22  C   UNL     1       8.189  46.696  51.835  1.00  0.00     0.026 A 
ATOM     23  C   UNL     1       9.561  47.033  54.231  1.00  0.00     0.002 A 
ATOM     24  C   UNL     1       9.585  46.599  51.867  1.00  0.00     0.002 A 
ATOM     25  C   UNL     1      10.271  46.767  53.065  1.00  0.00     0.000 A 
ENDBRANCH  18  20
ENDBRANCH  11  18
ENDBRANCH   6   8
ENDBRANCH   1   6
TORSDOF 7
ENDMDL
MODEL 6
REMARK VINA RESULT:    -7.822      1.908      4.390
REMARK INTER + INTRA:         -11.846
REMARK INTER:                 -11.237
REMARK INTRA:                  -0.609
REMARK UNBOUND:                -1.052
REMARK SMILES OCCCNc1nc(Nc2ccccc2)nc2ccccc12
REMARK SMILES IDX 4 1 3 2 2 3 1 4 5 6 6 8 7 9 22 10 8 11 21 12 17 13 16 14
REMARK SMILES IDX 20 15 18 16 19 17 9 18 10 20 11 21 15 22 12 23 14 24 13 25
REMARK H PARENT 1 5 5 7 9 19
ROOT
ATOM      1  C   UNL     1       4.338  41.635  51.093  1.00  0.00     0.117 C 
ENDROOT
BRANCH   1   2
ATOM      2  C   UNL     1       4.905  41.219  49.734  1.00  0.00     0.049 C 
BRANCH   2   3
ATOM      3  C   UNL     1       6.310  41.760  49.516  1.00  0.00     0.158 C 
BRANCH   3   4
ATOM      4  O   UNL     1       7.264  40.849  50.039  1.00  0.00    -0.396 OA
ATOM      5  H   UNL     1       6.964  40.600  50.931  1.00  0.00     0.210 HD
ENDBRANCH   3   4
ENDBRANCH   2   3
ENDBRANCH   1   2
BRANCH   1   6
ATOM      6  N   UNL     1       3.464  42.796  50.905  1.00  0.00    -0.369 N 
ATOM      7  H   UNL     1       2.490  42.546  51.062  1.00  0.00     0.162 HD
BRANCH   6   8
ATOM      8  C   UNL     1       3.765  43.907  51.729  1.00  0.00     0.139 A 
ATOM      9  N   UNL     1       4.811  44.688  51.415  1.00  0.00    -0.195 NA
ATOM     10  C   UNL     1       2.946  44.177  52.837  1.00  0.00     0.043 A 
ATOM     11  C   UNL     1       5.092  45.732  52.207  1.00  0.00     0.229 A 
ATOM     12  C   UNL     1       1.796  43.432  53.211  1.00  0.00     0.014 A 
ATOM     13  C   UNL     1       3.325  45.284  53.599  1.00  0.00     0.078 A 
ATOM     14  N   UNL     1       4.381  46.042  53.296  1.00  0.00    -0.213 NA
ATOM     15  C   UNL     1       1.055  43.779  54.338  1.00  0.00     0.001 A 
ATOM     16  C   UNL     1       2.571  45.610  54.721  1.00  0.00     0.029 A 
ATOM     17  C   UNL     1       1.447  44.872  55.099  1.00  0.00     0.002 A 
BRANCH  11  18
ATOM     18  N   UNL     1       6.200  46.477  51.811  1.00  0.00    -0.324 N 
ATOM     19  H   UNL     1       5.945  47.032  51.009  1.00  0.00     0.170 HD
BRANCH  18  20
ATOM     20  C   UNL     1       7.508  46.610  52.288  1.00  0.00     0.041 A 
ATOM     21  C   UNL     1       7.698  47.076  53.600  1.00  0.00     0.026 A 
ATOM     22  C   UNL     1       8.649  46.313  51.537  1.00  0.00     0.026 A 
ATOM     23  C   UNL     1       8.977  47.236  54.141  1.00  0.00     0.002 A 
ATOM     24  C   UNL     1       9.933  46.472  52.072  1.00  0.00     0.002 A 
ATOM     25  C   UNL     1      10.097  46.933  53.374  1.00  0.00     0.000 A 
ENDBRANCH  18  20
ENDBRANCH  11  18
ENDBRANCH   6   8
ENDBRANCH   1   6
TORSDOF 7
ENDMDL
MODEL 7
REMARK VINA RESULT:    -7.814      1.911      4.285
REMARK INTER + INTRA:         -11.835
REMARK INTER:                 -11.302
REMARK INTRA:                  -0.533
REMARK UNBOUND:                -1.052
REMARK SMILES OCCCNc1nc(Nc2ccccc2)nc2ccccc12
REMARK SMILES IDX 4 1 3 2 2 3 1 4 5 6 6 8 7 9 22 10 8 11 21 12 17 13 16 14
REMARK SMILES IDX 20 15 18 16 19 17 9 18 10 20 11 21 15 22 12 23 14 24 13 25
REMARK H PARENT 1 5 5 7 9 19
ROOT
ATOM      1  C   UNL     1       4.340  41.548  51.084  1.00  0.00     0.117 C 
ENDROOT
BRANCH   1   2
ATOM      2  C   UNL     1       5.024  41.461  49.719  1.00  0.00     0.049 C 
BRANCH   2   3
ATOM      3  C   UNL     1       6.486  41.874  49.791  1.00  0.00     0.158 C 
BRANCH   3   4
ATOM      4  O   UNL     1       7.288  40.750  50.121  1.00  0.00    -0.396 OA
ATOM      5  H   UNL     1       6.720  39.962  50.055  1.00  0.00     0.210 HD
ENDBRANCH   3   4
ENDBRANCH   2   3
ENDBRANCH   1   2
BRANCH   1   6
ATOM      6  N   UNL     1       3.336  42.614  51.043  1.00  0.00    -0.369 N 
ATOM      7  H   UNL     1       2.428  42.271  51.349  1.00  0.00     0.162 HD
BRANCH   6   8
ATOM      8  C   UNL     1       3.649  43.758  51.817  1.00  0.00     0.139 A 
ATOM      9  N   UNL     1       4.718  44.499  51.480  1.00  0.00    -0.195 NA
ATOM     10  C   UNL     1       2.821  44.100  52.897  1.00  0.00     0.043 A 
ATOM     11  C   UNL     1       5.011  45.575  52.224  1.00  0.00     0.229 A 
ATOM     12  C   UNL     1       1.650  43.399  53.290  1.00  0.00     0.014 A 
ATOM     13  C   UNL     1       3.215  45.234  53.610  1.00  0.00     0.078 A 
ATOM     14  N   UNL     1       4.292  45.953  53.286  1.00  0.00    -0.213 NA
ATOM     15  C   UNL     1       0.902  43.817  54.387  1.00  0.00     0.001 A 
ATOM     16  C   UNL     1       2.453  45.632  54.703  1.00  0.00     0.029 A 
ATOM     17  C   UNL     1       1.307  44.937  55.100  1.00  0.00     0.002 A 
BRANCH  11  18
ATOM     18  N   UNL     1       6.141  46.274  51.809  1.00  0.00    -0.324 N 
ATOM     19  H   UNL     1       5.974  46.636  50.882  1.00  0.00     0.170 HD
BRANCH  18  20
ATOM     20  C   UNL     1       7.376  46.570  52.395  1.00  0.00     0.041 A 
ATOM     21  C   UNL     1       8.534  46.466  51.605  1.00  0.00     0.026 A 
ATOM     22  C   UNL     1       7.537  46.960  53.727  1.00  0.00     0.026 A 
ATOM     23  C   UNL     1       9.801  46.744  52.125  1.00  0.00     0.002 A 
ATOM     24  C   UNL     1       8.803  47.239  54.255  1.00  0.00     0.002 A 
ATOM     25  C   UNL     1       9.935  47.131  53.454  1.00  0.00     0.000 A 
ENDBRANCH  18  20
ENDBRANCH  11  18
ENDBRANCH   6   8
ENDBRANCH   1   6
TORSDOF 7
ENDMDL
MODEL 8
REMARK VINA RESULT:    -7.717      1.298      5.829
REMARK INTER + INTRA:         -11.701
REMARK INTER:                 -10.990
REMARK INTRA:                  -0.711
REMARK UNBOUND:                -1.052
REMARK SMILES OCCCNc1nc(Nc2ccccc2)nc2ccccc12
REMARK SMILES IDX 4 1 3 2 2 3 1 4 5 6 6 8 7 9 22 10 8 11 21 12 17 13 16 14
REMARK SMILES IDX 20 15 18 16 19 17 9 18 10 20 11 21 15 22 12 23 14 24 13 25
REMARK H PARENT 1 5 5 7 9 19
ROOT
ATOM      1  C   UNL     1       3.865  47.174  53.222  1.00  0.00     0.117 C 
ENDROOT
BRANCH   1   2
ATOM      2  C   UNL     1       3.068  46.146  54.028  1.00  0.00     0.049 C 
BRANCH   2   3
ATOM      3  C   UNL     1       3.583  46.022  55.453  1.00  0.00     0.158 C 
BRANCH   3   4
ATOM      4  O   UNL     1       4.401  44.868  55.571  1.00  0.00    -0.396 OA
ATOM      5  H   UNL     1       4.588  44.743  56.518  1.00  0.00     0.210 HD
ENDBRANCH   3   4
ENDBRANCH   2   3
ENDBRANCH   1   2
BRANCH   1   6
ATOM      6  N   UNL     1       5.193  47.320  53.823  1.00  0.00    -0.369 N 
ATOM      7  H   UNL     1       5.219  46.904  54.752  1.00  0.00     0.162 HD
BRANCH   6   8
ATOM      8  C   UNL     1       6.253  46.762  53.069  1.00  0.00     0.139 A 
ATOM      9  N   UNL     1       5.964  46.053  51.965  1.00  0.00    -0.195 NA
ATOM     10  C   UNL     1       7.576  46.985  53.481  1.00  0.00     0.043 A 
ATOM     11  C   UNL     1       6.974  45.522  51.263  1.00  0.00     0.229 A 
ATOM     12  C   UNL     1       7.968  47.759  54.605  1.00  0.00     0.014 A 
ATOM     13  C   UNL     1       8.553  46.385  52.685  1.00  0.00     0.078 A 
ATOM     14  N   UNL     1       8.260  45.662  51.602  1.00  0.00    -0.213 NA
ATOM     15  C   UNL     1       9.313  47.910  54.934  1.00  0.00     0.001 A 
ATOM     16  C   UNL     1       9.890  46.549  53.033  1.00  0.00     0.029 A 
ATOM     17  C   UNL     1      10.278  47.300  54.146  1.00  0.00     0.002 A 
BRANCH  11  18
ATOM     18  N   UNL     1       6.581  44.795  50.143  1.00  0.00    -0.324 N 
ATOM     19  H   UNL     1       6.807  45.327  49.317  1.00  0.00     0.170 HD
BRANCH  18  20
ATOM     20  C   UNL     1       5.988  43.543  49.950  1.00  0.00     0.041 A 
ATOM     21  C   UNL     1       4.981  43.134  50.842  1.00  0.00     0.026 A 
ATOM     22  C   UNL     1       6.336  42.661  48.923  1.00  0.00     0.026 A 
ATOM     23  C   UNL     1       4.348  41.895  50.711  1.00  0.00     0.002 A 
ATOM     24  C   UNL     1       5.706  41.419  48.786  1.00  0.00     0.002 A 
ATOM     25  C   UNL     1       4.712  41.035  49.680  1.00  0.00     0.000 A 
ENDBRANCH  18  20
ENDBRANCH  11  18
ENDBRANCH   6   8
ENDBRANCH   1   6
TORSDOF 7
ENDMDL
MODEL 9
REMARK VINA RESULT:    -7.713      2.179      5.811
REMARK INTER + INTRA:         -11.696
REMARK INTER:                 -11.305
REMARK INTRA:                  -0.391
REMARK UNBOUND:                -1.052
REMARK SMILES OCCCNc1nc(Nc2ccccc2)nc2ccccc12
REMARK SMILES IDX 4 1 3 2 2 3 1 4 5 6 6 8 7 9 22 10 8 11 21 12 17 13 16 14
REMARK SMILES IDX 20 15 18 16 19 17 9 18 10 20 11 21 15 22 12 23 14 24 13 25
REMARK H PARENT 1 5 5 7 9 19
ROOT
ATOM      1  C   UNL     1       9.495  46.835  52.690  1.00  0.00     0.117 C 
ENDROOT
BRANCH   1   2
ATOM      2  C   UNL     1       9.092  47.327  54.081  1.00  0.00     0.049 C 
BRANCH   2   3
ATOM      3  C   UNL     1      10.272  47.343  55.040  1.00  0.00     0.158 C 
BRANCH   3   4
ATOM      4  O   UNL     1      10.033  48.277  56.083  1.00  0.00    -0.396 OA
ATOM      5  H   UNL     1      10.010  49.161  55.676  1.00  0.00     0.210 HD
ENDBRANCH   3   4
ENDBRANCH   2   3
ENDBRANCH   1   2
BRANCH   1   6
ATOM      6  N   UNL     1       8.502  47.301  51.718  1.00  0.00    -0.369 N 
ATOM      7  H   UNL     1       8.897  47.326  50.780  1.00  0.00     0.162 HD
BRANCH   6   8
ATOM      8  C   UNL     1       7.313  46.534  51.667  1.00  0.00     0.139 A 
ATOM      9  N   UNL     1       6.253  46.927  52.392  1.00  0.00    -0.195 NA
ATOM     10  C   UNL     1       7.267  45.399  50.841  1.00  0.00     0.043 A 
ATOM     11  C   UNL     1       5.135  46.189  52.343  1.00  0.00     0.229 A 
ATOM     12  C   UNL     1       8.324  44.943  50.010  1.00  0.00     0.014 A 
ATOM     13  C   UNL     1       6.060  44.698  50.866  1.00  0.00     0.078 A 
ATOM     14  N   UNL     1       5.017  45.080  51.606  1.00  0.00    -0.213 NA
ATOM     15  C   UNL     1       8.178  43.796  49.234  1.00  0.00     0.001 A 
ATOM     16  C   UNL     1       5.938  43.554  50.084  1.00  0.00     0.029 A 
ATOM     17  C   UNL     1       6.980  43.096  49.273  1.00  0.00     0.002 A 
BRANCH  11  18
ATOM     18  N   UNL     1       4.093  46.665  53.135  1.00  0.00    -0.324 N 
ATOM     19  H   UNL     1       4.211  47.659  53.259  1.00  0.00     0.170 HD
BRANCH  18  20
ATOM     20  C   UNL     1       2.978  46.075  53.739  1.00  0.00     0.041 A 
ATOM     21  C   UNL     1       3.105  45.590  55.051  1.00  0.00     0.026 A 
ATOM     22  C   UNL     1       1.735  45.931  53.115  1.00  0.00     0.026 A 
ATOM     23  C   UNL     1       2.033  44.987  55.715  1.00  0.00     0.002 A 
ATOM     24  C   UNL     1       0.657  45.328  53.774  1.00  0.00     0.002 A 
ATOM     25  C   UNL     1       0.806  44.856  55.073  1.00  0.00     0.000 A 
ENDBRANCH  18  20
ENDBRANCH  11  18
ENDBRANCH   6   8
ENDBRANCH   1   6
TORSDOF 7
ENDMDL
MODEL 10
REMARK VINA RESULT:    -7.588      2.178      6.316
REMARK INTER + INTRA:         -11.523
REMARK INTER:                 -10.924
REMARK INTRA:                  -0.599
REMARK UNBOUND:                -1.052
REMARK SMILES OCCCNc1nc(Nc2ccccc2)nc2ccccc12
REMARK SMILES IDX 4 1 3 2 2 3 1 4 5 6 6 8 7 9 22 10 8 11 21 12 17 13 16 14
REMARK SMILES IDX 20 15 18 16 19 17 9 18 10 20 11 21 15 22 12 23 14 24 13 25
REMARK H PARENT 1 5 5 7 9 19
ROOT
ATOM      1  C   UNL     1       7.639  46.986  53.609  1.00  0.00     0.117 C 
ENDROOT
BRANCH   1   2
ATOM      2  C   UNL     1       9.114  47.351  53.441  1.00  0.00     0.049 C 
BRANCH   2   3
ATOM      3  C   UNL     1       9.801  47.567  54.781  1.00  0.00     0.158 C 
BRANCH   3   4
ATOM      4  O   UNL     1       9.129  48.584  55.508  1.00  0.00    -0.396 OA
ATOM      5  H   UNL     1       8.298  48.771  55.038  1.00  0.00     0.210 HD
ENDBRANCH   3   4
ENDBRANCH   2   3
ENDBRANCH   1   2
BRANCH   1   6
ATOM      6  N   UNL     1       6.971  47.106  52.310  1.00  0.00    -0.369 N 
ATOM      7  H   UNL     1       7.649  47.243  51.564  1.00  0.00     0.162 HD
BRANCH   6   8
ATOM      8  C   UNL     1       6.155  46.005  51.956  1.00  0.00     0.139 A 
ATOM      9  N   UNL     1       4.946  45.878  52.529  1.00  0.00    -0.195 NA
ATOM     10  C   UNL     1       6.620  45.090  50.998  1.00  0.00     0.043 A 
ATOM     11  C   UNL     1       4.185  44.827  52.192  1.00  0.00     0.229 A 
ATOM     12  C   UNL     1       7.861  45.176  50.313  1.00  0.00     0.014 A 
ATOM     13  C   UNL     1       5.755  44.030  50.722  1.00  0.00     0.078 A 
ATOM     14  N   UNL     1       4.565  43.896  51.312  1.00  0.00    -0.213 NA
ATOM     15  C   UNL     1       8.233  44.207  49.385  1.00  0.00     0.001 A 
ATOM     16  C   UNL     1       6.148  43.073  49.793  1.00  0.00     0.029 A 
ATOM     17  C   UNL     1       7.374  43.148  49.126  1.00  0.00     0.002 A 
BRANCH  11  18
ATOM     18  N   UNL     1       2.956  44.771  52.844  1.00  0.00    -0.324 N 
ATOM     19  H   UNL     1       2.973  45.415  53.620  1.00  0.00     0.170 HD
BRANCH  18  20
ATOM     20  C   UNL     1       1.772  44.056  52.636  1.00  0.00     0.041 A 
ATOM     21  C   UNL     1       1.400  43.088  53.584  1.00  0.00     0.026 A 
ATOM     22  C   UNL     1       0.930  44.240  51.535  1.00  0.00     0.026 A 
ATOM     23  C   UNL     1       0.232  42.334  53.438  1.00  0.00     0.002 A 
ATOM     24  C   UNL     1      -0.241  43.488  51.383  1.00  0.00     0.002 A 
ATOM     25  C   UNL     1      -0.591  42.536  52.334  1.00  0.00     0.000 A 
ENDBRANCH  18  20
ENDBRANCH  11  18
ENDBRANCH   6   8
ENDBRANCH   1   6
TORSDOF 7
ENDMDL
MODEL 11
REMARK VINA RESULT:    -7.520      2.546      4.314
REMARK INTER + INTRA:         -11.430
REMARK INTER:                 -10.759
REMARK INTRA:                  -0.671
REMARK UNBOUND:                -1.052
REMARK SMILES OCCCNc1nc(Nc2ccccc2)nc2ccccc12
REMARK SMILES IDX 4 1 3 2 2 3 1 4 5 6 6 8 7 9 22 10 8 11 21 12 17 13 16 14
REMARK SMILES IDX 20 15 18 16 19 17 9 18 10 20 11 21 15 22 12 23 14 24 13 25
REMARK H PARENT 1 5 5 7 9 19
ROOT
ATOM      1  C   UNL     1       6.000  41.492  49.461  1.00  0.00     0.117 C 
ENDROOT
BRANCH   1   2
ATOM      2  C   UNL     1       5.101  41.166  48.267  1.00  0.00     0.049 C 
BRANCH   2   3
ATOM      3  C   UNL     1       3.801  40.506  48.700  1.00  0.00     0.158 C 
BRANCH   3   4
ATOM      4  O   UNL     1       3.053  40.120  47.556  1.00  0.00    -0.396 OA
ATOM      5  H   UNL     1       2.859  39.171  47.647  1.00  0.00     0.210 HD
ENDBRANCH   3   4
ENDBRANCH   2   3
ENDBRANCH   1   2
BRANCH   1   6
ATOM      6  N   UNL     1       5.155  41.800  50.618  1.00  0.00    -0.369 N 
ATOM      7  H   UNL     1       5.543  41.396  51.469  1.00  0.00     0.162 HD
BRANCH   6   8
ATOM      8  C   UNL     1       4.944  43.180  50.851  1.00  0.00     0.139 A 
ATOM      9  N   UNL     1       5.994  44.017  50.802  1.00  0.00    -0.195 NA
ATOM     10  C   UNL     1       3.642  43.640  51.101  1.00  0.00     0.043 A 
ATOM     11  C   UNL     1       5.785  45.321  51.032  1.00  0.00     0.229 A 
ATOM     12  C   UNL     1       2.475  42.831  51.125  1.00  0.00     0.014 A 
ATOM     13  C   UNL     1       3.532  45.012  51.333  1.00  0.00     0.078 A 
ATOM     14  N   UNL     1       4.582  45.836  51.306  1.00  0.00    -0.213 NA
ATOM     15  C   UNL     1       1.226  43.387  51.394  1.00  0.00     0.001 A 
ATOM     16  C   UNL     1       2.275  45.544  51.601  1.00  0.00     0.029 A 
ATOM     17  C   UNL     1       1.126  44.749  51.636  1.00  0.00     0.002 A 
BRANCH  11  18
ATOM     18  N   UNL     1       6.930  46.109  50.973  1.00  0.00    -0.324 N 
ATOM     19  H   UNL     1       7.000  46.508  50.049  1.00  0.00     0.170 HD
BRANCH  18  20
ATOM     20  C   UNL     1       7.930  46.450  51.889  1.00  0.00     0.041 A 
ATOM     21  C   UNL     1       7.550  47.039  53.107  1.00  0.00     0.026 A 
ATOM     22  C   UNL     1       9.296  46.246  51.670  1.00  0.00     0.026 A 
ATOM     23  C   UNL     1       8.496  47.407  54.068  1.00  0.00     0.002 A 
ATOM     24  C   UNL     1      10.248  46.613  52.628  1.00  0.00     0.002 A 
ATOM     25  C   UNL     1       9.849  47.194  53.827  1.00  0.00     0.000 A 
ENDBRANCH  18  20
ENDBRANCH  11  18
ENDBRANCH   6   8
ENDBRANCH   1   6
TORSDOF 7
ENDMDL
MODEL 12
REMARK VINA RESULT:    -7.470      2.277      5.902
REMARK INTER + INTRA:         -11.361
REMARK INTER:                 -10.333
REMARK INTRA:                  -1.027
REMARK UNBOUND:                -1.052
REMARK SMILES OCCCNc1nc(Nc2ccccc2)nc2ccccc12
REMARK SMILES IDX 4 1 3 2 2 3 1 4 5 6 6 8 7 9 22 10 8 11 21 12 17 13 16 14
REMARK SMILES IDX 20 15 18 16 19 17 9 18 10 20 11 21 15 22 12 23 14 24 13 25
REMARK H PARENT 1 5 5 7 9 19
ROOT
ATOM      1  C   UNL     1       4.764  46.597  53.722  1.00  0.00     0.117 C 
ENDROOT
BRANCH   1   2
ATOM      2  C   UNL     1       5.942  46.122  54.574  1.00  0.00     0.049 C 
BRANCH   2   3
ATOM      3  C   UNL     1       5.571  44.929  55.442  1.00  0.00     0.158 C 
BRANCH   3   4
ATOM      4  O   UNL     1       4.169  44.712  55.386  1.00  0.00    -0.396 OA
ATOM      5  H   UNL     1       3.740  45.515  55.729  1.00  0.00     0.210 HD
ENDBRANCH   3   4
ENDBRANCH   2   3
ENDBRANCH   1   2
BRANCH   1   6
ATOM      6  N   UNL     1       5.103  46.425  52.307  1.00  0.00    -0.369 N 
ATOM      7  H   UNL     1       6.056  46.729  52.123  1.00  0.00     0.162 HD
BRANCH   6   8
ATOM      8  C   UNL     1       4.968  45.102  51.820  1.00  0.00     0.139 A 
ATOM      9  N   UNL     1       3.893  44.382  52.180  1.00  0.00    -0.195 NA
ATOM     10  C   UNL     1       5.946  44.591  50.953  1.00  0.00     0.043 A 
ATOM     11  C   UNL     1       3.779  43.128  51.720  1.00  0.00     0.229 A 
ATOM     12  C   UNL     1       7.084  45.301  50.486  1.00  0.00     0.014 A 
ATOM     13  C   UNL     1       5.737  43.275  50.534  1.00  0.00     0.078 A 
ATOM     14  N   UNL     1       4.679  42.555  50.914  1.00  0.00    -0.213 NA
ATOM     15  C   UNL     1       8.003  44.695  49.633  1.00  0.00     0.001 A 
ATOM     16  C   UNL     1       6.669  42.691  49.682  1.00  0.00     0.029 A 
ATOM     17  C   UNL     1       7.796  43.383  49.231  1.00  0.00     0.002 A 
BRANCH  11  18
ATOM     18  N   UNL     1       2.642  42.453  52.155  1.00  0.00    -0.324 N 
ATOM     19  H   UNL     1       2.865  41.474  52.252  1.00  0.00     0.170 HD
BRANCH  18  20
ATOM     20  C   UNL     1       1.339  42.844  52.480  1.00  0.00     0.041 A 
ATOM     21  C   UNL     1       0.427  43.069  51.435  1.00  0.00     0.026 A 
ATOM     22  C   UNL     1       0.882  43.032  53.788  1.00  0.00     0.026 A 
ATOM     23  C   UNL     1      -0.890  43.464  51.687  1.00  0.00     0.002 A 
ATOM     24  C   UNL     1      -0.436  43.427  54.047  1.00  0.00     0.002 A 
ATOM     25  C   UNL     1      -1.322  43.644  52.998  1.00  0.00     0.000 A 
ENDBRANCH  18  20
ENDBRANCH  11  18
ENDBRANCH   6   8
ENDBRANCH   1   6
TORSDOF 7
ENDMDL
MODEL 13
REMARK VINA RESULT:    -7.458      2.057      2.929
REMARK INTER + INTRA:         -11.344
REMARK INTER:                 -10.844
REMARK INTRA:                  -0.500
REMARK UNBOUND:                -1.052
REMARK SMILES OCCCNc1nc(Nc2ccccc2)nc2ccccc12
REMARK SMILES IDX 4 1 3 2 2 3 1 4 5 6 6 8 7 9 22 10 8 11 21 12 17 13 16 14
REMARK SMILES IDX 20 15 18 16 19 17 9 18 10 20 11 21 15 22 12 23 14 24 13 25
REMARK H PARENT 1 5 5 7 9 19
ROOT
ATOM      1  C   UNL     1       1.082  45.552  55.714  1.00  0.00     0.117 C 
ENDROOT
BRANCH   1   2
ATOM      2  C   UNL     1       0.398  45.329  57.063  1.00  0.00     0.049 C 
BRANCH   2   3
ATOM      3  C   UNL     1       0.561  46.527  57.986  1.00  0.00     0.158 C 
BRANCH   3   4
ATOM      4  O   UNL     1       1.922  46.663  58.364  1.00  0.00    -0.396 OA
ATOM      5  H   UNL     1       1.973  46.494  59.321  1.00  0.00     0.210 HD
ENDBRANCH   3   4
ENDBRANCH   2   3
ENDBRANCH   1   2
BRANCH   1   6
ATOM      6  N   UNL     1       2.422  44.962  55.759  1.00  0.00    -0.369 N 
ATOM      7  H   UNL     1       2.375  43.969  55.982  1.00  0.00     0.162 HD
BRANCH   6   8
ATOM      8  C   UNL     1       3.176  45.102  54.569  1.00  0.00     0.139 A 
ATOM      9  N   UNL     1       4.192  45.981  54.541  1.00  0.00    -0.195 NA
ATOM     10  C   UNL     1       2.858  44.302  53.460  1.00  0.00     0.043 A 
ATOM     11  C   UNL     1       4.893  46.112  53.407  1.00  0.00     0.229 A 
ATOM     12  C   UNL     1       1.833  43.319  53.422  1.00  0.00     0.014 A 
ATOM     13  C   UNL     1       3.645  44.520  52.328  1.00  0.00     0.078 A 
ATOM     14  N   UNL     1       4.638  45.411  52.298  1.00  0.00    -0.213 NA
ATOM     15  C   UNL     1       1.592  42.584  52.264  1.00  0.00     0.001 A 
ATOM     16  C   UNL     1       3.384  43.774  51.183  1.00  0.00     0.029 A 
ATOM     17  C   UNL     1       2.369  42.815  51.138  1.00  0.00     0.002 A 
BRANCH  11  18
ATOM     18  N   UNL     1       5.917  47.054  53.466  1.00  0.00    -0.324 N 
ATOM     19  H   UNL     1       5.521  47.946  53.721  1.00  0.00     0.170 HD
BRANCH  18  20
ATOM     20  C   UNL     1       7.301  47.005  53.272  1.00  0.00     0.041 A 
ATOM     21  C   UNL     1       8.141  47.190  54.383  1.00  0.00     0.026 A 
ATOM     22  C   UNL     1       7.910  46.786  52.032  1.00  0.00     0.026 A 
ATOM     23  C   UNL     1       9.533  47.157  54.262  1.00  0.00     0.002 A 
ATOM     24  C   UNL     1       9.304  46.752  51.904  1.00  0.00     0.002 A 
ATOM     25  C   UNL     1      10.115  46.937  53.018  1.00  0.00     0.000 A 
ENDBRANCH  18  20
ENDBRANCH  11  18
ENDBRANCH   6   8
ENDBRANCH   1   6
TORSDOF 7
ENDMDL
MODEL 14
REMARK VINA RESULT:    -7.418      2.133      6.235
REMARK INTER + INTRA:         -11.288
REMARK INTER:                 -10.583
REMARK INTRA:                  -0.705
REMARK UNBOUND:                -1.052
REMARK SMILES OCCCNc1nc(Nc2ccccc2)nc2ccccc12
REMARK SMILES IDX 4 1 3 2 2 3 1 4 5 6 6 8 7 9 22 10 8 11 21 12 17 13 16 14
REMARK SMILES IDX 20 15 18 16 19 17 9 18 10 20 11 21 15 22 12 23 14 24 13 25
REMARK H PARENT 1 5 5 7 9 19
ROOT
ATOM      1  C   UNL     1       7.598  47.199  53.721  1.00  0.00     0.117 C 
ENDROOT
BRANCH   1   2
ATOM      2  C   UNL     1       9.092  47.523  53.679  1.00  0.00     0.049 C 
BRANCH   2   3
ATOM      3  C   UNL     1       9.898  46.401  53.042  1.00  0.00     0.158 C 
BRANCH   3   4
ATOM      4  O   UNL     1      10.134  46.696  51.673  1.00  0.00    -0.396 OA
ATOM      5  H   UNL     1      10.578  47.561  51.638  1.00  0.00     0.210 HD
ENDBRANCH   3   4
ENDBRANCH   2   3
ENDBRANCH   1   2
BRANCH   1   6
ATOM      6  N   UNL     1       7.132  46.943  52.356  1.00  0.00    -0.369 N 
ATOM      7  H   UNL     1       7.917  46.822  51.720  1.00  0.00     0.162 HD
BRANCH   6   8
ATOM      8  C   UNL     1       6.286  45.815  52.217  1.00  0.00     0.139 A 
ATOM      9  N   UNL     1       5.256  45.665  53.067  1.00  0.00    -0.195 NA
ATOM     10  C   UNL     1       6.531  44.901  51.181  1.00  0.00     0.043 A 
ATOM     11  C   UNL     1       4.468  44.590  52.932  1.00  0.00     0.229 A 
ATOM     12  C   UNL     1       7.566  45.010  50.215  1.00  0.00     0.014 A 
ATOM     13  C   UNL     1       5.656  43.814  51.131  1.00  0.00     0.078 A 
ATOM     14  N   UNL     1       4.648  43.657  51.992  1.00  0.00    -0.213 NA
ATOM     15  C   UNL     1       7.730  44.039  49.230  1.00  0.00     0.001 A 
ATOM     16  C   UNL     1       5.840  42.856  50.140  1.00  0.00     0.029 A 
ATOM     17  C   UNL     1       6.865  42.955  49.195  1.00  0.00     0.002 A 
BRANCH  11  18
ATOM     18  N   UNL     1       3.435  44.511  53.863  1.00  0.00    -0.324 N 
ATOM     19  H   UNL     1       3.786  44.809  54.760  1.00  0.00     0.170 HD
BRANCH  18  20
ATOM     20  C   UNL     1       2.088  44.139  53.798  1.00  0.00     0.041 A 
ATOM     21  C   UNL     1       1.141  44.934  54.465  1.00  0.00     0.026 A 
ATOM     22  C   UNL     1       1.619  43.015  53.112  1.00  0.00     0.026 A 
ATOM     23  C   UNL     1      -0.221  44.621  54.445  1.00  0.00     0.002 A 
ATOM     24  C   UNL     1       0.257  42.694  53.089  1.00  0.00     0.002 A 
ATOM     25  C   UNL     1      -0.664  43.497  53.755  1.00  0.00     0.000 A 
ENDBRANCH  18  20
ENDBRANCH  11  18
ENDBRANCH   6   8
ENDBRANCH   1   6
TORSDOF 7
ENDMDL
MODEL 15
REMARK VINA RESULT:    -7.365      2.023      6.594
REMARK INTER + INTRA:         -11.216
REMARK INTER:                 -10.185
REMARK INTRA:                  -1.031
REMARK UNBOUND:                -1.052
REMARK SMILES OCCCNc1nc(Nc2ccccc2)nc2ccccc12
REMARK SMILES IDX 4 1 3 2 2 3 1 4 5 6 6 8 7 9 22 10 8 11 21 12 17 13 16 14
REMARK SMILES IDX 20 15 18 16 19 17 9 18 10 20 11 21 15 22 12 23 14 24 13 25
REMARK H PARENT 1 5 5 7 9 19
ROOT
ATOM      1  C   UNL     1       6.157  41.852  49.914  1.00  0.00     0.117 C 
ENDROOT
BRANCH   1   2
ATOM      2  C   UNL     1       5.335  41.185  48.811  1.00  0.00     0.049 C 
BRANCH   2   3
ATOM      3  C   UNL     1       3.933  40.831  49.284  1.00  0.00     0.158 C 
BRANCH   3   4
ATOM      4  O   UNL     1       3.889  40.832  50.703  1.00  0.00    -0.396 OA
ATOM      5  H   UNL     1       4.278  39.992  51.003  1.00  0.00     0.210 HD
ENDBRANCH   3   4
ENDBRANCH   2   3
ENDBRANCH   1   2
BRANCH   1   6
ATOM      6  N   UNL     1       6.027  43.306  49.788  1.00  0.00    -0.369 N 
ATOM      7  H   UNL     1       5.354  43.549  49.064  1.00  0.00     0.162 HD
BRANCH   6   8
ATOM      8  C   UNL     1       5.646  43.976  50.976  1.00  0.00     0.139 A 
ATOM      9  N   UNL     1       4.619  43.493  51.695  1.00  0.00    -0.195 NA
ATOM     10  C   UNL     1       6.369  45.108  51.384  1.00  0.00     0.043 A 
ATOM     11  C   UNL     1       4.262  44.140  52.813  1.00  0.00     0.229 A 
ATOM     12  C   UNL     1       7.493  45.654  50.709  1.00  0.00     0.014 A 
ATOM     13  C   UNL     1       5.913  45.710  52.558  1.00  0.00     0.078 A 
ATOM     14  N   UNL     1       4.877  45.241  53.256  1.00  0.00    -0.213 NA
ATOM     15  C   UNL     1       8.134  46.791  51.193  1.00  0.00     0.001 A 
ATOM     16  C   UNL     1       6.569  46.846  53.022  1.00  0.00     0.029 A 
ATOM     17  C   UNL     1       7.668  47.392  52.354  1.00  0.00     0.002 A 
BRANCH  11  18
ATOM     18  N   UNL     1       3.181  43.576  53.486  1.00  0.00    -0.324 N 
ATOM     19  H   UNL     1       3.498  42.754  53.975  1.00  0.00     0.170 HD
BRANCH  18  20
ATOM     20  C   UNL     1       1.830  43.915  53.621  1.00  0.00     0.041 A 
ATOM     21  C   UNL     1       1.428  44.617  54.770  1.00  0.00     0.026 A 
ATOM     22  C   UNL     1       0.845  43.594  52.683  1.00  0.00     0.026 A 
ATOM     23  C   UNL     1       0.095  44.986  54.972  1.00  0.00     0.002 A 
ATOM     24  C   UNL     1      -0.492  43.960  52.879  1.00  0.00     0.002 A 
ATOM     25  C   UNL     1      -0.867  44.656  54.024  1.00  0.00     0.000 A 
ENDBRANCH  18  20
ENDBRANCH  11  18
ENDBRANCH   6   8
ENDBRANCH   1   6
TORSDOF 7
ENDMDL
MODEL 16
REMARK VINA RESULT:    -7.334      2.262      6.062
REMARK INTER + INTRA:         -11.173
REMARK INTER:                 -10.177
REMARK INTRA:                  -0.996
REMARK UNBOUND:                -1.052
REMARK SMILES OCCCNc1nc(Nc2ccccc2)nc2ccccc12
REMARK SMILES IDX 4 1 3 2 2 3 1 4 5 6 6 8 7 9 22 10 8 11 21 12 17 13 16 14
REMARK SMILES IDX 20 15 18 16 19 17 9 18 10 20 11 21 15 22 12 23 14 24 13 25
REMARK H PARENT 1 5 5 7 9 19
ROOT
ATOM      1  C   UNL     1       4.884  46.287  53.584  1.00  0.00     0.117 C 
ENDROOT
BRANCH   1   2
ATOM      2  C   UNL     1       6.068  45.793  54.417  1.00  0.00     0.049 C 
BRANCH   2   3
ATOM      3  C   UNL     1       5.617  44.930  55.586  1.00  0.00     0.158 C 
BRANCH   3   4
ATOM      4  O   UNL     1       4.209  44.753  55.539  1.00  0.00    -0.396 OA
ATOM      5  H   UNL     1       3.931  44.433  56.415  1.00  0.00     0.210 HD
ENDBRANCH   3   4
ENDBRANCH   2   3
ENDBRANCH   1   2
BRANCH   1   6
ATOM      6  N   UNL     1       5.052  45.825  52.204  1.00  0.00    -0.369 N 
ATOM      7  H   UNL     1       6.023  45.907  51.908  1.00  0.00     0.162 HD
BRANCH   6   8
ATOM      8  C   UNL     1       4.640  44.491  51.969  1.00  0.00     0.139 A 
ATOM      9  N   UNL     1       3.561  44.019  52.616  1.00  0.00    -0.195 NA
ATOM     10  C   UNL     1       5.351  43.708  51.047  1.00  0.00     0.043 A 
ATOM     11  C   UNL     1       3.184  42.752  52.393  1.00  0.00     0.229 A 
ATOM     12  C   UNL     1       6.470  44.144  50.288  1.00  0.00     0.014 A 
ATOM     13  C   UNL     1       4.881  42.403  50.890  1.00  0.00     0.078 A 
ATOM     14  N   UNL     1       3.824  41.931  51.554  1.00  0.00    -0.213 NA
ATOM     15  C   UNL     1       7.114  43.281  49.404  1.00  0.00     0.001 A 
ATOM     16  C   UNL     1       5.541  41.558  50.003  1.00  0.00     0.029 A 
ATOM     17  C   UNL     1       6.649  41.981  49.264  1.00  0.00     0.002 A 
BRANCH  11  18
ATOM     18  N   UNL     1       2.066  42.346  53.116  1.00  0.00    -0.324 N 
ATOM     19  H   UNL     1       2.288  41.488  53.599  1.00  0.00     0.170 HD
BRANCH  18  20
ATOM     20  C   UNL     1       0.783  42.868  53.306  1.00  0.00     0.041 A 
ATOM     21  C   UNL     1       0.566  43.733  54.393  1.00  0.00     0.026 A 
ATOM     22  C   UNL     1      -0.309  42.581  52.482  1.00  0.00     0.026 A 
ATOM     23  C   UNL     1      -0.691  44.289  54.645  1.00  0.00     0.002 A 
ATOM     24  C   UNL     1      -1.571  43.135  52.729  1.00  0.00     0.002 A 
ATOM     25  C   UNL     1      -1.762  43.989  53.810  1.00  0.00     0.000 A 
ENDBRANCH  18  20
ENDBRANCH  11  18
ENDBRANCH   6   8
ENDBRANCH   1   6
TORSDOF 7
ENDMDL
MODEL 17
REMARK VINA RESULT:    -7.309      1.999      5.994
REMARK INTER + INTRA:         -11.137
REMARK INTER:                 -10.566
REMARK INTRA:                  -0.571
REMARK UNBOUND:                -1.052
REMARK SMILES OCCCNc1nc(Nc2ccccc2)nc2ccccc12
REMARK SMILES IDX 4 1 3 2 2 3 1 4 5 6 6 8 7 9 22 10 8 11 21 12 17 13 16 14
REMARK SMILES IDX 20 15 18 16 19 17 9 18 10 20 11 21 15 22 12 23 14 24 13 25
REMARK H PARENT 1 5 5 7 9 19
ROOT
ATOM      1  C   UNL     1       7.021  47.244  52.413  1.00  0.00     0.117 C 
ENDROOT
BRANCH   1   2
ATOM      2  C   UNL     1       8.392  47.909  52.284  1.00  0.00     0.049 C 
BRANCH   2   3
ATOM      3  C   UNL     1       9.514  46.987  52.737  1.00  0.00     0.158 C 
BRANCH   3   4
ATOM      4  O   UNL     1      10.075  46.323  51.613  1.00  0.00    -0.396 OA
ATOM      5  H   UNL     1       9.480  46.483  50.860  1.00  0.00     0.210 HD
ENDBRANCH   3   4
ENDBRANCH   2   3
ENDBRANCH   1   2
BRANCH   1   6
ATOM      6  N   UNL     1       6.952  46.117  51.479  1.00  0.00    -0.369 N 
ATOM      7  H   UNL     1       7.852  45.647  51.410  1.00  0.00     0.162 HD
BRANCH   6   8
ATOM      8  C   UNL     1       5.977  45.140  51.796  1.00  0.00     0.139 A 
ATOM      9  N   UNL     1       5.184  45.334  52.862  1.00  0.00    -0.195 NA
ATOM     10  C   UNL     1       5.849  44.011  50.973  1.00  0.00     0.043 A 
ATOM     11  C   UNL     1       4.270  44.399  53.158  1.00  0.00     0.229 A 
ATOM     12  C   UNL     1       6.614  43.754  49.804  1.00  0.00     0.014 A 
ATOM     13  C   UNL     1       4.872  43.096  51.370  1.00  0.00     0.078 A 
ATOM     14  N   UNL     1       4.102  43.281  52.444  1.00  0.00    -0.213 NA
ATOM     15  C   UNL     1       6.415  42.593  49.061  1.00  0.00     0.001 A 
ATOM     16  C   UNL     1       4.692  41.943  50.613  1.00  0.00     0.029 A 
ATOM     17  C   UNL     1       5.451  41.682  49.469  1.00  0.00     0.002 A 
BRANCH  11  18
ATOM     18  N   UNL     1       3.502  44.678  54.286  1.00  0.00    -0.324 N 
ATOM     19  H   UNL     1       4.111  45.012  55.016  1.00  0.00     0.170 HD
BRANCH  18  20
ATOM     20  C   UNL     1       2.136  44.606  54.579  1.00  0.00     0.041 A 
ATOM     21  C   UNL     1       1.660  45.278  55.718  1.00  0.00     0.026 A 
ATOM     22  C   UNL     1       1.207  43.899  53.811  1.00  0.00     0.026 A 
ATOM     23  C   UNL     1       0.309  45.247  56.073  1.00  0.00     0.002 A 
ATOM     24  C   UNL     1      -0.148  43.863  54.161  1.00  0.00     0.002 A 
ATOM     25  C   UNL     1      -0.598  44.537  55.292  1.00  0.00     0.000 A 
ENDBRANCH  18  20
ENDBRANCH  11  18
ENDBRANCH   6   8
ENDBRANCH   1   6
TORSDOF 7
ENDMDL
MODEL 18
REMARK VINA RESULT:    -7.170      1.685      2.317
REMARK INTER + INTRA:         -10.946
REMARK INTER:                 -10.155
REMARK INTRA:                  -0.790
REMARK UNBOUND:                -1.052
REMARK SMILES OCCCNc1nc(Nc2ccccc2)nc2ccccc12
REMARK SMILES IDX 4 1 3 2 2 3 1 4 5 6 6 8 7 9 22 10 8 11 21 12 17 13 16 14
REMARK SMILES IDX 20 15 18 16 19 17 9 18 10 20 11 21 15 22 12 23 14 24 13 25
REMARK H PARENT 1 5 5 7 9 19
ROOT
ATOM      1  C   UNL     1       1.802  45.139  54.951  1.00  0.00     0.117 C 
ENDROOT
BRANCH   1   2
ATOM      2  C   UNL     1       0.416  44.584  55.285  1.00  0.00     0.049 C 
BRANCH   2   3
ATOM      3  C   UNL     1      -0.387  44.273  54.032  1.00  0.00     0.158 C 
BRANCH   3   4
ATOM      4  O   UNL     1      -1.201  45.386  53.693  1.00  0.00    -0.396 OA
ATOM      5  H   UNL     1      -0.995  45.621  52.771  1.00  0.00     0.210 HD
ENDBRANCH   3   4
ENDBRANCH   2   3
ENDBRANCH   1   2
BRANCH   1   6
ATOM      6  N   UNL     1       1.874  45.395  53.510  1.00  0.00    -0.369 N 
ATOM      7  H   UNL     1       1.569  46.341  53.293  1.00  0.00     0.162 HD
BRANCH   6   8
ATOM      8  C   UNL     1       3.155  45.211  52.936  1.00  0.00     0.139 A 
ATOM      9  N   UNL     1       4.115  46.117  53.182  1.00  0.00    -0.195 NA
ATOM     10  C   UNL     1       3.394  44.074  52.147  1.00  0.00     0.043 A 
ATOM     11  C   UNL     1       5.322  45.938  52.627  1.00  0.00     0.229 A 
ATOM     12  C   UNL     1       2.450  43.047  51.877  1.00  0.00     0.014 A 
ATOM     13  C   UNL     1       4.680  43.984  51.612  1.00  0.00     0.078 A 
ATOM     14  N   UNL     1       5.624  44.899  51.840  1.00  0.00    -0.213 NA
ATOM     15  C   UNL     1       2.786  41.963  51.071  1.00  0.00     0.001 A 
ATOM     16  C   UNL     1       4.992  42.892  50.809  1.00  0.00     0.029 A 
ATOM     17  C   UNL     1       4.062  41.886  50.532  1.00  0.00     0.002 A 
BRANCH  11  18
ATOM     18  N   UNL     1       6.249  46.932  52.926  1.00  0.00    -0.324 N 
ATOM     19  H   UNL     1       5.762  47.809  53.024  1.00  0.00     0.170 HD
BRANCH  18  20
ATOM     20  C   UNL     1       7.634  46.948  53.122  1.00  0.00     0.041 A 
ATOM     21  C   UNL     1       8.127  47.317  54.385  1.00  0.00     0.026 A 
ATOM     22  C   UNL     1       8.569  46.625  52.134  1.00  0.00     0.026 A 
ATOM     23  C   UNL     1       9.499  47.358  54.651  1.00  0.00     0.002 A 
ATOM     24  C   UNL     1       9.944  46.665  52.393  1.00  0.00     0.002 A 
ATOM     25  C   UNL     1      10.409  47.031  53.651  1.00  0.00     0.000 A 
ENDBRANCH  18  20
ENDBRANCH  11  18
ENDBRANCH   6   8
ENDBRANCH   1   6
TORSDOF 7
ENDMDL
MODEL 19
REMARK VINA RESULT:    -7.163      1.781      5.803
REMARK INTER + INTRA:         -10.937
REMARK INTER:                 -10.162
REMARK INTRA:                  -0.774
REMARK UNBOUND:                -1.052
REMARK SMILES OCCCNc1nc(Nc2ccccc2)nc2ccccc12
REMARK SMILES IDX 4 1 3 2 2 3 1 4 5 6 6 8 7 9 22 10 8 11 21 12 17 13 16 14
REMARK SMILES IDX 20 15 18 16 19 17 9 18 10 20 11 21 15 22 12 23 14 24 13 25
REMARK H PARENT 1 5 5 7 9 19
ROOT
ATOM      1  C   UNL     1       4.955  45.275  55.509  1.00  0.00     0.117 C 
ENDROOT
BRANCH   1   2
ATOM      2  C   UNL     1       3.678  46.109  55.404  1.00  0.00     0.049 C 
BRANCH   2   3
ATOM      3  C   UNL     1       2.445  45.238  55.217  1.00  0.00     0.158 C 
BRANCH   3   4
ATOM      4  O   UNL     1       2.768  44.111  54.416  1.00  0.00    -0.396 OA
ATOM      5  H   UNL     1       3.102  44.449  53.567  1.00  0.00     0.210 HD
ENDBRANCH   3   4
ENDBRANCH   2   3
ENDBRANCH   1   2
BRANCH   1   6
ATOM      6  N   UNL     1       6.081  46.067  55.008  1.00  0.00    -0.369 N 
ATOM      7  H   UNL     1       6.911  45.919  55.577  1.00  0.00     0.162 HD
BRANCH   6   8
ATOM      8  C   UNL     1       6.430  45.818  53.658  1.00  0.00     0.139 A 
ATOM      9  N   UNL     1       5.517  45.271  52.839  1.00  0.00    -0.195 NA
ATOM     10  C   UNL     1       7.711  46.173  53.208  1.00  0.00     0.043 A 
ATOM     11  C   UNL     1       5.861  45.031  51.566  1.00  0.00     0.229 A 
ATOM     12  C   UNL     1       8.716  46.797  53.994  1.00  0.00     0.014 A 
ATOM     13  C   UNL     1       7.971  45.878  51.868  1.00  0.00     0.078 A 
ATOM     14  N   UNL     1       7.068  45.312  51.064  1.00  0.00    -0.213 NA
ATOM     15  C   UNL     1       9.963  47.099  53.451  1.00  0.00     0.001 A 
ATOM     16  C   UNL     1       9.224  46.188  51.348  1.00  0.00     0.029 A 
ATOM     17  C   UNL     1      10.219  46.790  52.123  1.00  0.00     0.002 A 
BRANCH  11  18
ATOM     18  N   UNL     1       4.857  44.452  50.795  1.00  0.00    -0.324 N 
ATOM     19  H   UNL     1       5.237  44.225  49.888  1.00  0.00     0.170 HD
BRANCH  18  20
ATOM     20  C   UNL     1       3.516  44.127  51.022  1.00  0.00     0.041 A 
ATOM     21  C   UNL     1       2.577  45.171  51.094  1.00  0.00     0.026 A 
ATOM     22  C   UNL     1       3.044  42.822  51.188  1.00  0.00     0.026 A 
ATOM     23  C   UNL     1       1.221  44.920  51.322  1.00  0.00     0.002 A 
ATOM     24  C   UNL     1       1.687  42.564  51.416  1.00  0.00     0.002 A 
ATOM     25  C   UNL     1       0.776  43.612  51.483  1.00  0.00     0.000 A 
ENDBRANCH  18  20
ENDBRANCH  11  18
ENDBRANCH   6   8
ENDBRANCH   1   6
TORSDOF 7
ENDMDL
MODEL 20
REMARK VINA RESULT:    -7.128      2.312      6.622
REMARK INTER + INTRA:         -10.888
REMARK INTER:                 -10.280
REMARK INTRA:                  -0.608
REMARK UNBOUND:                -1.052
REMARK SMILES OCCCNc1nc(Nc2ccccc2)nc2ccccc12
REMARK SMILES IDX 4 1 3 2 2 3 1 4 5 6 6 8 7 9 22 10 8 11 21 12 17 13 16 14
REMARK SMILES IDX 20 15 18 16 19 17 9 18 10 20 11 21 15 22 12 23 14 24 13 25
REMARK H PARENT 1 5 5 7 9 19
ROOT
ATOM      1  C   UNL     1       5.153  42.262  50.795  1.00  0.00     0.117 C 
ENDROOT
BRANCH   1   2
ATOM      2  C   UNL     1       6.371  41.827  49.978  1.00  0.00     0.049 C 
BRANCH   2   3
ATOM      3  C   UNL     1       6.640  42.770  48.816  1.00  0.00     0.158 C 
BRANCH   3   4
ATOM      4  O   UNL     1       8.020  43.097  48.771  1.00  0.00    -0.396 OA
ATOM      5  H   UNL     1       8.130  43.944  49.237  1.00  0.00     0.210 HD
ENDBRANCH   3   4
ENDBRANCH   2   3
ENDBRANCH   1   2
BRANCH   1   6
ATOM      6  N   UNL     1       4.980  43.710  50.651  1.00  0.00    -0.369 N 
ATOM      7  H   UNL     1       4.077  43.928  50.234  1.00  0.00     0.162 HD
BRANCH   6   8
ATOM      8  C   UNL     1       5.089  44.445  51.856  1.00  0.00     0.139 A 
ATOM      9  N   UNL     1       4.217  44.203  52.848  1.00  0.00    -0.195 NA
ATOM     10  C   UNL     1       6.121  45.387  51.990  1.00  0.00     0.043 A 
ATOM     11  C   UNL     1       4.324  44.911  53.981  1.00  0.00     0.229 A 
ATOM     12  C   UNL     1       7.110  45.669  51.010  1.00  0.00     0.014 A 
ATOM     13  C   UNL     1       6.143  46.074  53.205  1.00  0.00     0.078 A 
ATOM     14  N   UNL     1       5.259  45.846  54.179  1.00  0.00    -0.213 NA
ATOM     15  C   UNL     1       8.088  46.634  51.239  1.00  0.00     0.001 A 
ATOM     16  C   UNL     1       7.128  47.033  53.411  1.00  0.00     0.029 A 
ATOM     17  C   UNL     1       8.095  47.322  52.444  1.00  0.00     0.002 A 
BRANCH  11  18
ATOM     18  N   UNL     1       3.372  44.603  54.948  1.00  0.00    -0.324 N 
ATOM     19  H   UNL     1       3.847  44.279  55.777  1.00  0.00     0.170 HD
BRANCH  18  20
ATOM     20  C   UNL     1       1.975  44.666  54.999  1.00  0.00     0.041 A 
ATOM     21  C   UNL     1       1.375  45.371  56.056  1.00  0.00     0.026 A 
ATOM     22  C   UNL     1       1.130  44.064  54.062  1.00  0.00     0.026 A 
ATOM     23  C   UNL     1      -0.015  45.473  56.170  1.00  0.00     0.002 A 
ATOM     24  C   UNL     1      -0.262  44.161  54.172  1.00  0.00     0.002 A 
ATOM     25  C   UNL     1      -0.835  44.866  55.225  1.00  0.00     0.000 A 
ENDBRANCH  18  20
ENDBRANCH  11  18
ENDBRANCH   6   8
ENDBRANCH   1   6
TORSDOF 7
ENDMDL
