MODEL 1
REMARK VINA RESULT:    -8.699      0.000      0.000
REMARK INTER + INTRA:         -12.514
REMARK INTER:                 -11.750
REMARK INTRA:                  -0.764
REMARK UNBOUND:                -0.764
REMARK SMILES COCCNc1nc(Nc2ccc(C)c(C)c2)c2nccnc2n1
REMARK SMILES IDX 5 1 4 3 3 4 2 5 1 6 6 7 7 8 24 9 8 10 23 11 18 12 22 13
REMARK SMILES IDX 19 14 21 15 20 16 9 17 10 19 11 20 17 21 12 22 15 23 13 24
REMARK SMILES IDX 16 25 14 26
REMARK H PARENT 5 2 9 18
ROOT
ATOM      1  N   UNL     1       2.206  42.656  53.203  1.00  0.00    -0.352 N 
ATOM      2  H   UNL     1       1.826  41.744  52.974  1.00  0.00     0.163 HD
ENDROOT
BRANCH   1   3
ATOM      3  C   UNL     1       1.219  43.727  53.274  1.00  0.00     0.144 C 
BRANCH   3   4
ATOM      4  C   UNL     1       1.144  44.371  54.667  1.00  0.00     0.181 C 
BRANCH   4   5
ATOM      5  O   UNL     1       1.751  45.670  54.664  1.00  0.00    -0.383 OA
ATOM      6  C   UNL     1       3.018  45.683  55.310  1.00  0.00     0.194 C 
ENDBRANCH   4   5
ENDBRANCH   3   4
ENDBRANCH   1   3
BRANCH   1   7
ATOM      7  C   UNL     1       3.266  42.860  52.333  1.00  0.00     0.226 A 
ATOM      8  N   UNL     1       3.836  44.058  52.399  1.00  0.00    -0.193 NA
ATOM      9  N   UNL     1       3.656  41.903  51.501  1.00  0.00    -0.191 NA
ATOM     10  C   UNL     1       4.872  44.304  51.568  1.00  0.00     0.164 A 
ATOM     11  C   UNL     1       4.654  42.161  50.666  1.00  0.00     0.185 A 
ATOM     12  C   UNL     1       5.339  43.383  50.627  1.00  0.00     0.150 A 
ATOM     13  N   UNL     1       4.995  41.176  49.828  1.00  0.00    -0.233 NA
ATOM     14  N   UNL     1       6.350  43.609  49.726  1.00  0.00    -0.247 NA
ATOM     15  C   UNL     1       5.993  41.403  48.946  1.00  0.00     0.133 A 
ATOM     16  C   UNL     1       6.660  42.602  48.892  1.00  0.00     0.132 A 
BRANCH  10  17
ATOM     17  N   UNL     1       5.407  45.603  51.701  1.00  0.00    -0.338 N 
ATOM     18  H   UNL     1       4.619  46.227  51.860  1.00  0.00     0.168 HD
BRANCH  17  19
ATOM     19  C   UNL     1       6.519  46.040  52.455  1.00  0.00     0.040 A 
ATOM     20  C   UNL     1       6.426  46.564  53.744  1.00  0.00     0.026 A 
ATOM     21  C   UNL     1       7.787  45.975  51.858  1.00  0.00     0.029 A 
ATOM     22  C   UNL     1       7.568  47.003  54.422  1.00  0.00     0.006 A 
ATOM     23  C   UNL     1       8.947  46.410  52.524  1.00  0.00    -0.046 A 
ATOM     24  C   UNL     1       8.834  46.930  53.825  1.00  0.00    -0.048 A 
ATOM     25  C   UNL     1      10.278  46.302  51.833  1.00  0.00     0.044 C 
ATOM     26  C   UNL     1      10.038  47.409  54.588  1.00  0.00     0.044 C 
ENDBRANCH  17  19
ENDBRANCH  10  17
ENDBRANCH   1   7
TORSDOF 6
ENDMDL
MODEL 2
REMARK VINA RESULT:    -8.585      0.908      1.321
REMARK INTER + INTRA:         -12.360
REMARK INTER:                 -11.590
REMARK INTRA:                  -0.770
REMARK UNBOUND:                -0.764
REMARK SMILES COCCNc1nc(Nc2ccc(C)c(C)c2)c2nccnc2n1
REMARK SMILES IDX 5 1 4 3 3 4 2 5 1 6 6 7 7 8 24 9 8 10 23 11 18 12 22 13
REMARK SMILES IDX 19 14 21 15 20 16 9 17 10 19 11 20 17 21 12 22 15 23 13 24
REMARK SMILES IDX 16 25 14 26
REMARK H PARENT 5 2 9 18
ROOT
ATOM      1  N   UNL     1       2.036  43.227  53.492  1.00  0.00    -0.352 N 
ATOM      2  H   UNL     1       1.281  42.807  52.960  1.00  0.00     0.163 HD
ENDROOT
BRANCH   1   3
ATOM      3  C   UNL     1       1.681  44.460  54.184  1.00  0.00     0.144 C 
BRANCH   3   4
ATOM      4  C   UNL     1       0.314  45.011  53.748  1.00  0.00     0.181 C 
BRANCH   4   5
ATOM      5  O   UNL     1       0.331  45.389  52.365  1.00  0.00    -0.383 OA
ATOM      6  C   UNL     1      -0.560  44.612  51.575  1.00  0.00     0.194 C 
ENDBRANCH   4   5
ENDBRANCH   3   4
ENDBRANCH   1   3
BRANCH   1   7
ATOM      7  C   UNL     1       3.118  43.301  52.629  1.00  0.00     0.226 A 
ATOM      8  N   UNL     1       3.784  44.451  52.645  1.00  0.00    -0.193 NA
ATOM      9  N   UNL     1       3.439  42.276  51.850  1.00  0.00    -0.191 NA
ATOM     10  C   UNL     1       4.845  44.571  51.819  1.00  0.00     0.164 A 
ATOM     11  C   UNL     1       4.463  42.411  51.019  1.00  0.00     0.185 A 
ATOM     12  C   UNL     1       5.246  43.570  50.930  1.00  0.00     0.150 A 
ATOM     13  N   UNL     1       4.732  41.361  50.234  1.00  0.00    -0.233 NA
ATOM     14  N   UNL     1       6.281  43.669  50.034  1.00  0.00    -0.247 NA
ATOM     15  C   UNL     1       5.755  41.463  49.357  1.00  0.00     0.133 A 
ATOM     16  C   UNL     1       6.517  42.600  49.254  1.00  0.00     0.132 A 
BRANCH  10  17
ATOM     17  N   UNL     1       5.483  45.827  51.897  1.00  0.00    -0.338 N 
ATOM     18  H   UNL     1       4.746  46.520  52.013  1.00  0.00     0.168 HD
BRANCH  17  19
ATOM     19  C   UNL     1       6.618  46.210  52.646  1.00  0.00     0.040 A 
ATOM     20  C   UNL     1       6.558  46.714  53.945  1.00  0.00     0.026 A 
ATOM     21  C   UNL     1       7.876  46.110  52.034  1.00  0.00     0.029 A 
ATOM     22  C   UNL     1       7.723  47.098  54.618  1.00  0.00     0.006 A 
ATOM     23  C   UNL     1       9.058  46.491  52.694  1.00  0.00    -0.046 A 
ATOM     24  C   UNL     1       8.978  46.991  54.006  1.00  0.00    -0.048 A 
ATOM     25  C   UNL     1      10.377  46.347  51.986  1.00  0.00     0.044 C 
ATOM     26  C   UNL     1      10.207  47.412  54.763  1.00  0.00     0.044 C 
ENDBRANCH  17  19
ENDBRANCH  10  17
ENDBRANCH   1   7
TORSDOF 6
ENDMDL
MODEL 3
REMARK VINA RESULT:    -8.444      2.015      4.441
REMARK INTER + INTRA:         -12.169
REMARK INTER:                 -11.340
REMARK INTRA:                  -0.829
REMARK UNBOUND:                -0.764
REMARK SMILES COCCNc1nc(Nc2ccc(C)c(C)c2)c2nccnc2n1
REMARK SMILES IDX 5 1 4 3 3 4 2 5 1 6 6 7 7 8 24 9 8 10 23 11 18 12 22 13
REMARK SMILES IDX 19 14 21 15 20 16 9 17 10 19 11 20 17 21 12 22 15 23 13 24
REMARK SMILES IDX 16 25 14 26
REMARK H PARENT 5 2 9 18
ROOT
ATOM      1  N   UNL     1       4.310  41.460  50.824  1.00  0.00    -0.352 N 
ATOM      2  H   UNL     1       4.095  40.652  51.399  1.00  0.00     0.163 HD
ENDROOT
BRANCH   1   3
ATOM      3  C   UNL     1       5.680  41.506  50.327  1.00  0.00     0.144 C 
BRANCH   3   4
ATOM      4  C   UNL     1       5.755  41.466  48.793  1.00  0.00     0.181 C 
BRANCH   4   5
ATOM      5  O   UNL     1       6.473  42.598  48.285  1.00  0.00    -0.383 OA
ATOM      6  C   UNL     1       7.357  43.162  49.246  1.00  0.00     0.194 C 
ENDBRANCH   4   5
ENDBRANCH   3   4
ENDBRANCH   1   3
BRANCH   1   7
ATOM      7  C   UNL     1       3.882  42.566  51.540  1.00  0.00     0.226 A 
ATOM      8  N   UNL     1       4.631  43.656  51.408  1.00  0.00    -0.193 NA
ATOM      9  N   UNL     1       2.798  42.506  52.302  1.00  0.00    -0.191 NA
ATOM     10  C   UNL     1       4.254  44.759  52.089  1.00  0.00     0.164 A 
ATOM     11  C   UNL     1       2.451  43.583  52.993  1.00  0.00     0.185 A 
ATOM     12  C   UNL     1       3.153  44.795  52.948  1.00  0.00     0.150 A 
ATOM     13  N   UNL     1       1.365  43.467  53.767  1.00  0.00    -0.233 NA
ATOM     14  N   UNL     1       2.767  45.875  53.704  1.00  0.00    -0.247 NA
ATOM     15  C   UNL     1       0.988  44.534  54.505  1.00  0.00     0.133 A 
ATOM     16  C   UNL     1       1.679  45.721  54.477  1.00  0.00     0.132 A 
BRANCH  10  17
ATOM     17  N   UNL     1       5.112  45.863  51.895  1.00  0.00    -0.338 N 
ATOM     18  H   UNL     1       4.515  46.685  51.822  1.00  0.00     0.168 HD
BRANCH  17  19
ATOM     19  C   UNL     1       6.304  46.200  52.573  1.00  0.00     0.040 A 
ATOM     20  C   UNL     1       6.350  46.638  53.896  1.00  0.00     0.026 A 
ATOM     21  C   UNL     1       7.511  46.122  51.861  1.00  0.00     0.029 A 
ATOM     22  C   UNL     1       7.567  46.979  54.495  1.00  0.00     0.006 A 
ATOM     23  C   UNL     1       8.744  46.462  52.446  1.00  0.00    -0.046 A 
ATOM     24  C   UNL     1       8.770  46.895  53.784  1.00  0.00    -0.048 A 
ATOM     25  C   UNL     1      10.003  46.345  51.633  1.00  0.00     0.044 C 
ATOM     26  C   UNL     1      10.058  47.269  54.464  1.00  0.00     0.044 C 
ENDBRANCH  17  19
ENDBRANCH  10  17
ENDBRANCH   1   7
TORSDOF 6
ENDMDL
MODEL 4
REMARK VINA RESULT:    -8.341      1.149      1.244
REMARK INTER + INTRA:         -12.030
REMARK INTER:                 -11.169
REMARK INTRA:                  -0.861
REMARK UNBOUND:                -0.764
REMARK SMILES COCCNc1nc(Nc2ccc(C)c(C)c2)c2nccnc2n1
REMARK SMILES IDX 5 1 4 3 3 4 2 5 1 6 6 7 7 8 24 9 8 10 23 11 18 12 22 13
REMARK SMILES IDX 19 14 21 15 20 16 9 17 10 19 11 20 17 21 12 22 15 23 13 24
REMARK SMILES IDX 16 25 14 26
REMARK H PARENT 5 2 9 18
ROOT
ATOM      1  N   UNL     1       1.328  45.223  52.235  1.00  0.00    -0.352 N 
ATOM      2  H   UNL     1       1.055  45.929  51.559  1.00  0.00     0.163 HD
ENDROOT
BRANCH   1   3
ATOM      3  C   UNL     1       1.295  45.664  53.624  1.00  0.00     0.144 C 
BRANCH   3   4
ATOM      4  C   UNL     1       1.644  44.540  54.611  1.00  0.00     0.181 C 
BRANCH   4   5
ATOM      5  O   UNL     1       2.425  45.040  55.704  1.00  0.00    -0.383 OA
ATOM      6  C   UNL     1       3.575  45.756  55.273  1.00  0.00     0.194 C 
ENDBRANCH   4   5
ENDBRANCH   3   4
ENDBRANCH   1   3
BRANCH   1   7
ATOM      7  C   UNL     1       2.535  44.709  51.786  1.00  0.00     0.226 A 
ATOM      8  N   UNL     1       3.529  45.586  51.691  1.00  0.00    -0.193 NA
ATOM      9  N   UNL     1       2.654  43.425  51.475  1.00  0.00    -0.191 NA
ATOM     10  C   UNL     1       4.723  45.131  51.256  1.00  0.00     0.164 A 
ATOM     11  C   UNL     1       3.820  42.991  51.018  1.00  0.00     0.185 A 
ATOM     12  C   UNL     1       4.948  43.809  50.865  1.00  0.00     0.150 A 
ATOM     13  N   UNL     1       3.885  41.695  50.692  1.00  0.00    -0.233 NA
ATOM     14  N   UNL     1       6.127  43.317  50.363  1.00  0.00    -0.247 NA
ATOM     15  C   UNL     1       5.050  41.216  50.203  1.00  0.00     0.133 A 
ATOM     16  C   UNL     1       6.155  42.014  50.037  1.00  0.00     0.132 A 
BRANCH  10  17
ATOM     17  N   UNL     1       5.715  46.133  51.179  1.00  0.00    -0.338 N 
ATOM     18  H   UNL     1       5.233  47.002  50.960  1.00  0.00     0.168 HD
BRANCH  17  19
ATOM     19  C   UNL     1       6.793  46.394  52.053  1.00  0.00     0.040 A 
ATOM     20  C   UNL     1       6.642  46.882  53.350  1.00  0.00     0.026 A 
ATOM     21  C   UNL     1       8.095  46.183  51.574  1.00  0.00     0.029 A 
ATOM     22  C   UNL     1       7.758  47.142  54.152  1.00  0.00     0.006 A 
ATOM     23  C   UNL     1       9.230  46.439  52.365  1.00  0.00    -0.046 A 
ATOM     24  C   UNL     1       9.057  46.925  53.673  1.00  0.00    -0.048 A 
ATOM     25  C   UNL     1      10.598  46.180  51.796  1.00  0.00     0.044 C 
ATOM     26  C   UNL     1      10.231  47.214  54.566  1.00  0.00     0.044 C 
ENDBRANCH  17  19
ENDBRANCH  10  17
ENDBRANCH   1   7
TORSDOF 6
ENDMDL
MODEL 5
REMARK VINA RESULT:    -8.286      2.349      4.628
REMARK INTER + INTRA:         -11.956
REMARK INTER:                 -11.374
REMARK INTRA:                  -0.581
REMARK UNBOUND:                -0.764
REMARK SMILES COCCNc1nc(Nc2ccc(C)c(C)c2)c2nccnc2n1
REMARK SMILES IDX 5 1 4 3 3 4 2 5 1 6 6 7 7 8 24 9 8 10 23 11 18 12 22 13
REMARK SMILES IDX 19 14 21 15 20 16 9 17 10 19 11 20 17 21 12 22 15 23 13 24
REMARK SMILES IDX 16 25 14 26
REMARK H PARENT 5 2 9 18
ROOT
ATOM      1  N   UNL     1       4.585  41.483  50.445  1.00  0.00    -0.352 N 
ATOM      2  H   UNL     1       5.358  41.838  49.893  1.00  0.00     0.163 HD
ENDROOT
BRANCH   1   3
ATOM      3  C   UNL     1       3.569  40.768  49.681  1.00  0.00     0.144 C 
BRANCH   3   4
ATOM      4  C   UNL     1       4.007  40.483  48.236  1.00  0.00     0.181 C 
BRANCH   4   5
ATOM      5  O   UNL     1       2.894  40.060  47.437  1.00  0.00    -0.383 OA
ATOM      6  C   UNL     1       2.966  38.684  47.085  1.00  0.00     0.194 C 
ENDBRANCH   4   5
ENDBRANCH   3   4
ENDBRANCH   1   3
BRANCH   1   7
ATOM      7  C   UNL     1       4.136  42.549  51.208  1.00  0.00     0.226 A 
ATOM      8  N   UNL     1       4.872  43.654  51.133  1.00  0.00    -0.193 NA
ATOM      9  N   UNL     1       3.046  42.441  51.956  1.00  0.00    -0.191 NA
ATOM     10  C   UNL     1       4.475  44.719  51.862  1.00  0.00     0.164 A 
ATOM     11  C   UNL     1       2.679  43.480  52.693  1.00  0.00     0.185 A 
ATOM     12  C   UNL     1       3.366  44.702  52.711  1.00  0.00     0.150 A 
ATOM     13  N   UNL     1       1.588  43.315  53.450  1.00  0.00    -0.233 NA
ATOM     14  N   UNL     1       2.960  45.740  53.512  1.00  0.00    -0.247 NA
ATOM     15  C   UNL     1       1.191  44.342  54.233  1.00  0.00     0.133 A 
ATOM     16  C   UNL     1       1.867  45.537  54.268  1.00  0.00     0.132 A 
BRANCH  10  17
ATOM     17  N   UNL     1       5.320  45.841  51.727  1.00  0.00    -0.338 N 
ATOM     18  H   UNL     1       4.713  46.652  51.626  1.00  0.00     0.168 HD
BRANCH  17  19
ATOM     19  C   UNL     1       6.465  46.195  52.476  1.00  0.00     0.040 A 
ATOM     20  C   UNL     1       6.423  46.640  53.797  1.00  0.00     0.026 A 
ATOM     21  C   UNL     1       7.714  46.128  51.841  1.00  0.00     0.029 A 
ATOM     22  C   UNL     1       7.596  46.998  54.469  1.00  0.00     0.006 A 
ATOM     23  C   UNL     1       8.904  46.484  52.501  1.00  0.00    -0.046 A 
ATOM     24  C   UNL     1       8.842  46.924  53.835  1.00  0.00    -0.048 A 
ATOM     25  C   UNL     1      10.213  46.377  51.768  1.00  0.00     0.044 C 
ATOM     26  C   UNL     1      10.081  47.315  54.592  1.00  0.00     0.044 C 
ENDBRANCH  17  19
ENDBRANCH  10  17
ENDBRANCH   1   7
TORSDOF 6
ENDMDL
MODEL 6
REMARK VINA RESULT:    -8.284      2.314      5.745
REMARK INTER + INTRA:         -11.954
REMARK INTER:                 -11.264
REMARK INTRA:                  -0.690
REMARK UNBOUND:                -0.764
REMARK SMILES COCCNc1nc(Nc2ccc(C)c(C)c2)c2nccnc2n1
REMARK SMILES IDX 5 1 4 3 3 4 2 5 1 6 6 7 7 8 24 9 8 10 23 11 18 12 22 13
REMARK SMILES IDX 19 14 21 15 20 16 9 17 10 19 11 20 17 21 12 22 15 23 13 24
REMARK SMILES IDX 16 25 14 26
REMARK H PARENT 5 2 9 18
ROOT
ATOM      1  N   UNL     1       4.367  47.190  54.932  1.00  0.00    -0.352 N 
ATOM      2  H   UNL     1       4.500  47.850  55.691  1.00  0.00     0.163 HD
ENDROOT
BRANCH   1   3
ATOM      3  C   UNL     1       3.712  45.945  55.315  1.00  0.00     0.144 C 
BRANCH   3   4
ATOM      4  C   UNL     1       2.376  45.730  54.587  1.00  0.00     0.181 C 
BRANCH   4   5
ATOM      5  O   UNL     1       2.245  46.633  53.481  1.00  0.00    -0.383 OA
ATOM      6  C   UNL     1       2.056  45.958  52.244  1.00  0.00     0.194 C 
ENDBRANCH   4   5
ENDBRANCH   3   4
ENDBRANCH   1   3
BRANCH   1   7
ATOM      7  C   UNL     1       5.600  47.066  54.311  1.00  0.00     0.226 A 
ATOM      8  N   UNL     1       5.563  46.671  53.043  1.00  0.00    -0.193 NA
ATOM      9  N   UNL     1       6.722  47.326  54.969  1.00  0.00    -0.191 NA
ATOM     10  C   UNL     1       6.741  46.534  52.397  1.00  0.00     0.164 A 
ATOM     11  C   UNL     1       7.877  47.160  54.339  1.00  0.00     0.185 A 
ATOM     12  C   UNL     1       7.981  46.744  53.004  1.00  0.00     0.150 A 
ATOM     13  N   UNL     1       8.983  47.409  55.050  1.00  0.00    -0.233 NA
ATOM     14  N   UNL     1       9.203  46.562  52.404  1.00  0.00    -0.247 NA
ATOM     15  C   UNL     1      10.181  47.232  54.452  1.00  0.00     0.133 A 
ATOM     16  C   UNL     1      10.292  46.811  53.149  1.00  0.00     0.132 A 
BRANCH  10  17
ATOM     17  N   UNL     1       6.605  46.103  51.060  1.00  0.00    -0.338 N 
ATOM     18  H   UNL     1       7.358  46.543  50.535  1.00  0.00     0.168 HD
BRANCH  17  19
ATOM     19  C   UNL     1       6.370  44.804  50.557  1.00  0.00     0.040 A 
ATOM     20  C   UNL     1       7.179  44.180  49.609  1.00  0.00     0.026 A 
ATOM     21  C   UNL     1       5.236  44.116  51.015  1.00  0.00     0.029 A 
ATOM     22  C   UNL     1       6.871  42.900  49.136  1.00  0.00     0.006 A 
ATOM     23  C   UNL     1       4.910  42.828  50.551  1.00  0.00    -0.046 A 
ATOM     24  C   UNL     1       5.742  42.212  49.600  1.00  0.00    -0.048 A 
ATOM     25  C   UNL     1       3.688  42.139  51.091  1.00  0.00     0.044 C 
ATOM     26  C   UNL     1       5.446  40.837  49.069  1.00  0.00     0.044 C 
ENDBRANCH  17  19
ENDBRANCH  10  17
ENDBRANCH   1   7
TORSDOF 6
ENDMDL
MODEL 7
REMARK VINA RESULT:    -8.153      2.156      4.694
REMARK INTER + INTRA:         -11.776
REMARK INTER:                 -10.958
REMARK INTRA:                  -0.817
REMARK UNBOUND:                -0.764
REMARK SMILES COCCNc1nc(Nc2ccc(C)c(C)c2)c2nccnc2n1
REMARK SMILES IDX 5 1 4 3 3 4 2 5 1 6 6 7 7 8 24 9 8 10 23 11 18 12 22 13
REMARK SMILES IDX 19 14 21 15 20 16 9 17 10 19 11 20 17 21 12 22 15 23 13 24
REMARK SMILES IDX 16 25 14 26
REMARK H PARENT 5 2 9 18
ROOT
ATOM      1  N   UNL     1       2.859  41.872  50.737  1.00  0.00    -0.352 N 
ATOM      2  H   UNL     1       2.110  41.279  51.079  1.00  0.00     0.163 HD
ENDROOT
BRANCH   1   3
ATOM      3  C   UNL     1       4.120  41.180  50.496  1.00  0.00     0.144 C 
BRANCH   3   4
ATOM      4  C   UNL     1       4.469  41.090  49.002  1.00  0.00     0.181 C 
BRANCH   4   5
ATOM      5  O   UNL     1       5.794  41.581  48.755  1.00  0.00    -0.383 OA
ATOM      6  C   UNL     1       6.622  41.527  49.909  1.00  0.00     0.194 C 
ENDBRANCH   4   5
ENDBRANCH   3   4
ENDBRANCH   1   3
BRANCH   1   7
ATOM      7  C   UNL     1       2.913  42.957  51.597  1.00  0.00     0.226 A 
ATOM      8  N   UNL     1       3.705  43.952  51.212  1.00  0.00    -0.193 NA
ATOM      9  N   UNL     1       2.212  42.968  52.723  1.00  0.00    -0.191 NA
ATOM     10  C   UNL     1       3.791  45.031  52.019  1.00  0.00     0.164 A 
ATOM     11  C   UNL     1       2.325  44.017  53.527  1.00  0.00     0.185 A 
ATOM     12  C   UNL     1       3.127  45.131  53.244  1.00  0.00     0.150 A 
ATOM     13  N   UNL     1       1.620  43.972  54.664  1.00  0.00    -0.233 NA
ATOM     14  N   UNL     1       3.230  46.181  54.122  1.00  0.00    -0.247 NA
ATOM     15  C   UNL     1       1.722  45.011  55.521  1.00  0.00     0.133 A 
ATOM     16  C   UNL     1       2.517  46.099  55.258  1.00  0.00     0.132 A 
BRANCH  10  17
ATOM     17  N   UNL     1       4.660  46.031  51.534  1.00  0.00    -0.338 N 
ATOM     18  H   UNL     1       4.276  46.923  51.839  1.00  0.00     0.168 HD
BRANCH  17  19
ATOM     19  C   UNL     1       6.072  46.085  51.569  1.00  0.00     0.040 A 
ATOM     20  C   UNL     1       6.896  45.480  50.621  1.00  0.00     0.026 A 
ATOM     21  C   UNL     1       6.679  46.757  52.641  1.00  0.00     0.029 A 
ATOM     22  C   UNL     1       8.288  45.553  50.733  1.00  0.00     0.006 A 
ATOM     23  C   UNL     1       8.077  46.841  52.770  1.00  0.00    -0.046 A 
ATOM     24  C   UNL     1       8.892  46.230  51.801  1.00  0.00    -0.048 A 
ATOM     25  C   UNL     1       8.666  47.587  53.935  1.00  0.00     0.044 C 
ATOM     26  C   UNL     1      10.392  46.288  51.885  1.00  0.00     0.044 C 
ENDBRANCH  17  19
ENDBRANCH  10  17
ENDBRANCH   1   7
TORSDOF 6
ENDMDL
MODEL 8
REMARK VINA RESULT:    -8.089      2.072      5.707
REMARK INTER + INTRA:         -11.689
REMARK INTER:                 -11.385
REMARK INTRA:                  -0.304
REMARK UNBOUND:                -0.764
REMARK SMILES COCCNc1nc(Nc2ccc(C)c(C)c2)c2nccnc2n1
REMARK SMILES IDX 5 1 4 3 3 4 2 5 1 6 6 7 7 8 24 9 8 10 23 11 18 12 22 13
REMARK SMILES IDX 19 14 21 15 20 16 9 17 10 19 11 20 17 21 12 22 15 23 13 24
REMARK SMILES IDX 16 25 14 26
REMARK H PARENT 5 2 9 18
ROOT
ATOM      1  N   UNL     1       4.136  46.841  54.997  1.00  0.00    -0.352 N 
ATOM      2  H   UNL     1       4.275  47.399  55.834  1.00  0.00     0.163 HD
ENDROOT
BRANCH   1   3
ATOM      3  C   UNL     1       3.436  45.581  55.215  1.00  0.00     0.144 C 
BRANCH   3   4
ATOM      4  C   UNL     1       2.042  45.560  54.569  1.00  0.00     0.181 C 
BRANCH   4   5
ATOM      5  O   UNL     1       1.982  46.452  53.448  1.00  0.00    -0.383 OA
ATOM      6  C   UNL     1       1.631  45.790  52.240  1.00  0.00     0.194 C 
ENDBRANCH   4   5
ENDBRANCH   3   4
ENDBRANCH   1   3
BRANCH   1   7
ATOM      7  C   UNL     1       5.377  46.753  54.386  1.00  0.00     0.226 A 
ATOM      8  N   UNL     1       5.392  46.127  53.213  1.00  0.00    -0.193 NA
ATOM      9  N   UNL     1       6.458  47.264  54.961  1.00  0.00    -0.191 NA
ATOM     10  C   UNL     1       6.579  46.014  52.580  1.00  0.00     0.164 A 
ATOM     11  C   UNL     1       7.625  47.123  54.349  1.00  0.00     0.185 A 
ATOM     12  C   UNL     1       7.783  46.481  53.112  1.00  0.00     0.150 A 
ATOM     13  N   UNL     1       8.691  47.631  54.979  1.00  0.00    -0.233 NA
ATOM     14  N   UNL     1       9.019  46.339  52.532  1.00  0.00    -0.247 NA
ATOM     15  C   UNL     1       9.904  47.491  54.401  1.00  0.00     0.133 A 
ATOM     16  C   UNL     1      10.068  46.852  53.197  1.00  0.00     0.132 A 
BRANCH  10  17
ATOM     17  N   UNL     1       6.500  45.329  51.349  1.00  0.00    -0.338 N 
ATOM     18  H   UNL     1       7.455  45.221  51.015  1.00  0.00     0.168 HD
BRANCH  17  19
ATOM     19  C   UNL     1       5.744  44.185  51.008  1.00  0.00     0.040 A 
ATOM     20  C   UNL     1       4.637  43.741  51.730  1.00  0.00     0.026 A 
ATOM     21  C   UNL     1       6.154  43.431  49.898  1.00  0.00     0.029 A 
ATOM     22  C   UNL     1       3.951  42.583  51.349  1.00  0.00     0.006 A 
ATOM     23  C   UNL     1       5.478  42.265  49.499  1.00  0.00    -0.046 A 
ATOM     24  C   UNL     1       4.359  41.837  50.236  1.00  0.00    -0.048 A 
ATOM     25  C   UNL     1       5.960  41.509  48.292  1.00  0.00     0.044 C 
ATOM     26  C   UNL     1       3.594  40.599  49.856  1.00  0.00     0.044 C 
ENDBRANCH  17  19
ENDBRANCH  10  17
ENDBRANCH   1   7
TORSDOF 6
ENDMDL
MODEL 9
REMARK VINA RESULT:    -8.065      2.364      3.747
REMARK INTER + INTRA:         -11.657
REMARK INTER:                 -11.020
REMARK INTRA:                  -0.636
REMARK UNBOUND:                -0.764
REMARK SMILES COCCNc1nc(Nc2ccc(C)c(C)c2)c2nccnc2n1
REMARK SMILES IDX 5 1 4 3 3 4 2 5 1 6 6 7 7 8 24 9 8 10 23 11 18 12 22 13
REMARK SMILES IDX 19 14 21 15 20 16 9 17 10 19 11 20 17 21 12 22 15 23 13 24
REMARK SMILES IDX 16 25 14 26
REMARK H PARENT 5 2 9 18
ROOT
ATOM      1  N   UNL     1       2.441  46.039  56.623  1.00  0.00    -0.352 N 
ATOM      2  H   UNL     1       3.060  45.480  57.201  1.00  0.00     0.163 HD
ENDROOT
BRANCH   1   3
ATOM      3  C   UNL     1       1.058  46.085  57.080  1.00  0.00     0.144 C 
BRANCH   3   4
ATOM      4  C   UNL     1       0.899  46.839  58.409  1.00  0.00     0.181 C 
BRANCH   4   5
ATOM      5  O   UNL     1      -0.482  47.115  58.680  1.00  0.00    -0.383 OA
ATOM      6  C   UNL     1      -1.297  47.025  57.518  1.00  0.00     0.194 C 
ENDBRANCH   4   5
ENDBRANCH   3   4
ENDBRANCH   1   3
BRANCH   1   7
ATOM      7  C   UNL     1       2.640  45.608  55.321  1.00  0.00     0.226 A 
ATOM      8  N   UNL     1       3.468  46.351  54.593  1.00  0.00    -0.193 NA
ATOM      9  N   UNL     1       2.027  44.525  54.861  1.00  0.00    -0.191 NA
ATOM     10  C   UNL     1       3.691  45.971  53.317  1.00  0.00     0.164 A 
ATOM     11  C   UNL     1       2.225  44.174  53.598  1.00  0.00     0.185 A 
ATOM     12  C   UNL     1       3.068  44.872  52.721  1.00  0.00     0.150 A 
ATOM     13  N   UNL     1       1.565  43.091  53.171  1.00  0.00    -0.233 NA
ATOM     14  N   UNL     1       3.221  44.482  51.413  1.00  0.00    -0.247 NA
ATOM     15  C   UNL     1       1.723  42.711  51.885  1.00  0.00     0.133 A 
ATOM     16  C   UNL     1       2.535  43.397  51.015  1.00  0.00     0.132 A 
BRANCH  10  17
ATOM     17  N   UNL     1       4.574  46.823  52.620  1.00  0.00    -0.338 N 
ATOM     18  H   UNL     1       4.359  47.771  52.920  1.00  0.00     0.168 HD
BRANCH  17  19
ATOM     19  C   UNL     1       5.965  46.694  52.411  1.00  0.00     0.040 A 
ATOM     20  C   UNL     1       6.530  46.063  51.303  1.00  0.00     0.026 A 
ATOM     21  C   UNL     1       6.829  47.200  53.395  1.00  0.00     0.029 A 
ATOM     22  C   UNL     1       7.918  45.949  51.175  1.00  0.00     0.006 A 
ATOM     23  C   UNL     1       8.227  47.095  53.283  1.00  0.00    -0.046 A 
ATOM     24  C   UNL     1       8.777  46.461  52.155  1.00  0.00    -0.048 A 
ATOM     25  C   UNL     1       9.098  47.670  54.365  1.00  0.00     0.044 C 
ATOM     26  C   UNL     1      10.264  46.321  51.979  1.00  0.00     0.044 C 
ENDBRANCH  17  19
ENDBRANCH  10  17
ENDBRANCH   1   7
TORSDOF 6
ENDMDL
MODEL 10
REMARK VINA RESULT:    -7.932      2.140      4.862
REMARK INTER + INTRA:         -11.478
REMARK INTER:                 -10.880
REMARK INTRA:                  -0.598
REMARK UNBOUND:                -0.764
REMARK SMILES COCCNc1nc(Nc2ccc(C)c(C)c2)c2nccnc2n1
REMARK SMILES IDX 5 1 4 3 3 4 2 5 1 6 6 7 7 8 24 9 8 10 23 11 18 12 22 13
REMARK SMILES IDX 19 14 21 15 20 16 9 17 10 19 11 20 17 21 12 22 15 23 13 24
REMARK SMILES IDX 16 25 14 26
REMARK H PARENT 5 2 9 18
ROOT
ATOM      1  N   UNL     1       3.967  41.345  50.977  1.00  0.00    -0.352 N 
ATOM      2  H   UNL     1       3.907  40.581  51.642  1.00  0.00     0.163 HD
ENDROOT
BRANCH   1   3
ATOM      3  C   UNL     1       5.252  41.460  50.298  1.00  0.00     0.144 C 
BRANCH   3   4
ATOM      4  C   UNL     1       5.195  40.984  48.838  1.00  0.00     0.181 C 
BRANCH   4   5
ATOM      5  O   UNL     1       3.889  40.493  48.510  1.00  0.00    -0.383 OA
ATOM      6  C   UNL     1       3.633  40.512  47.112  1.00  0.00     0.194 C 
ENDBRANCH   4   5
ENDBRANCH   3   4
ENDBRANCH   1   3
BRANCH   1   7
ATOM      7  C   UNL     1       3.528  42.475  51.649  1.00  0.00     0.226 A 
ATOM      8  N   UNL     1       4.203  43.591  51.392  1.00  0.00    -0.193 NA
ATOM      9  N   UNL     1       2.504  42.411  52.490  1.00  0.00    -0.191 NA
ATOM     10  C   UNL     1       3.812  44.717  52.025  1.00  0.00     0.164 A 
ATOM     11  C   UNL     1       2.145  43.514  53.132  1.00  0.00     0.185 A 
ATOM     12  C   UNL     1       2.773  44.755  52.958  1.00  0.00     0.150 A 
ATOM     13  N   UNL     1       1.124  43.396  53.989  1.00  0.00    -0.233 NA
ATOM     14  N   UNL     1       2.380  45.863  53.667  1.00  0.00    -0.247 NA
ATOM     15  C   UNL     1       0.739  44.491  54.681  1.00  0.00     0.133 A 
ATOM     16  C   UNL     1       1.358  45.707  54.526  1.00  0.00     0.132 A 
BRANCH  10  17
ATOM     17  N   UNL     1       4.591  45.848  51.698  1.00  0.00    -0.338 N 
ATOM     18  H   UNL     1       4.175  46.638  52.187  1.00  0.00     0.168 HD
BRANCH  17  19
ATOM     19  C   UNL     1       5.996  45.991  51.671  1.00  0.00     0.040 A 
ATOM     20  C   UNL     1       6.803  45.540  50.628  1.00  0.00     0.026 A 
ATOM     21  C   UNL     1       6.618  46.591  52.777  1.00  0.00     0.029 A 
ATOM     22  C   UNL     1       8.193  45.693  50.681  1.00  0.00     0.006 A 
ATOM     23  C   UNL     1       8.013  46.753  52.848  1.00  0.00    -0.046 A 
ATOM     24  C   UNL     1       8.810  46.298  51.783  1.00  0.00    -0.048 A 
ATOM     25  C   UNL     1       8.617  47.416  54.055  1.00  0.00     0.044 C 
ATOM     26  C   UNL     1      10.307  46.446  51.802  1.00  0.00     0.044 C 
ENDBRANCH  17  19
ENDBRANCH  10  17
ENDBRANCH   1   7
TORSDOF 6
ENDMDL
MODEL 11
REMARK VINA RESULT:    -7.891      2.259      5.757
REMARK INTER + INTRA:         -11.422
REMARK INTER:                 -11.120
REMARK INTRA:                  -0.302
REMARK UNBOUND:                -0.764
REMARK SMILES COCCNc1nc(Nc2ccc(C)c(C)c2)c2nccnc2n1
REMARK SMILES IDX 5 1 4 3 3 4 2 5 1 6 6 7 7 8 24 9 8 10 23 11 18 12 22 13
REMARK SMILES IDX 19 14 21 15 20 16 9 17 10 19 11 20 17 21 12 22 15 23 13 24
REMARK SMILES IDX 16 25 14 26
REMARK H PARENT 5 2 9 18
ROOT
ATOM      1  N   UNL     1       4.061  46.054  55.685  1.00  0.00    -0.352 N 
ATOM      2  H   UNL     1       3.634  46.514  56.482  1.00  0.00     0.163 HD
ENDROOT
BRANCH   1   3
ATOM      3  C   UNL     1       4.880  46.922  54.847  1.00  0.00     0.144 C 
BRANCH   3   4
ATOM      4  C   UNL     1       6.300  46.376  54.639  1.00  0.00     0.181 C 
BRANCH   4   5
ATOM      5  O   UNL     1       7.283  47.379  54.928  1.00  0.00    -0.383 OA
ATOM      6  C   UNL     1       8.449  47.250  54.124  1.00  0.00     0.194 C 
ENDBRANCH   4   5
ENDBRANCH   3   4
ENDBRANCH   1   3
BRANCH   1   7
ATOM      7  C   UNL     1       3.039  45.373  55.043  1.00  0.00     0.226 A 
ATOM      8  N   UNL     1       3.352  44.856  53.859  1.00  0.00    -0.193 NA
ATOM      9  N   UNL     1       1.838  45.268  55.597  1.00  0.00    -0.191 NA
ATOM     10  C   UNL     1       2.387  44.186  53.195  1.00  0.00     0.164 A 
ATOM     11  C   UNL     1       0.886  44.635  54.926  1.00  0.00     0.185 A 
ATOM     12  C   UNL     1       1.080  44.048  53.668  1.00  0.00     0.150 A 
ATOM     13  N   UNL     1      -0.316  44.577  55.513  1.00  0.00    -0.233 NA
ATOM     14  N   UNL     1       0.053  43.425  53.002  1.00  0.00    -0.247 NA
ATOM     15  C   UNL     1      -1.321  43.959  54.855  1.00  0.00     0.133 A 
ATOM     16  C   UNL     1      -1.142  43.394  53.616  1.00  0.00     0.132 A 
BRANCH  10  17
ATOM     17  N   UNL     1       2.807  43.681  51.946  1.00  0.00    -0.338 N 
ATOM     18  H   UNL     1       2.073  43.909  51.279  1.00  0.00     0.168 HD
BRANCH  17  19
ATOM     19  C   UNL     1       4.069  43.780  51.318  1.00  0.00     0.040 A 
ATOM     20  C   UNL     1       4.717  44.988  51.063  1.00  0.00     0.026 A 
ATOM     21  C   UNL     1       4.691  42.595  50.898  1.00  0.00     0.029 A 
ATOM     22  C   UNL     1       5.955  45.013  50.413  1.00  0.00     0.006 A 
ATOM     23  C   UNL     1       5.936  42.600  50.243  1.00  0.00    -0.046 A 
ATOM     24  C   UNL     1       6.576  43.827  49.999  1.00  0.00    -0.048 A 
ATOM     25  C   UNL     1       6.555  41.294  49.828  1.00  0.00     0.044 C 
ATOM     26  C   UNL     1       7.909  43.895  49.306  1.00  0.00     0.044 C 
ENDBRANCH  17  19
ENDBRANCH  10  17
ENDBRANCH   1   7
TORSDOF 6
ENDMDL
MODEL 12
REMARK VINA RESULT:    -7.830      2.265      5.218
REMARK INTER + INTRA:         -11.339
REMARK INTER:                 -10.789
REMARK INTRA:                  -0.551
REMARK UNBOUND:                -0.764
REMARK SMILES COCCNc1nc(Nc2ccc(C)c(C)c2)c2nccnc2n1
REMARK SMILES IDX 5 1 4 3 3 4 2 5 1 6 6 7 7 8 24 9 8 10 23 11 18 12 22 13
REMARK SMILES IDX 19 14 21 15 20 16 9 17 10 19 11 20 17 21 12 22 15 23 13 24
REMARK SMILES IDX 16 25 14 26
REMARK H PARENT 5 2 9 18
ROOT
ATOM      1  N   UNL     1       2.951  45.049  55.575  1.00  0.00    -0.352 N 
ATOM      2  H   UNL     1       2.300  45.665  56.050  1.00  0.00     0.163 HD
ENDROOT
BRANCH   1   3
ATOM      3  C   UNL     1       4.270  45.624  55.336  1.00  0.00     0.144 C 
BRANCH   3   4
ATOM      4  C   UNL     1       4.204  46.965  54.590  1.00  0.00     0.181 C 
BRANCH   4   5
ATOM      5  O   UNL     1       5.506  47.557  54.483  1.00  0.00    -0.383 OA
ATOM      6  C   UNL     1       6.552  46.600  54.587  1.00  0.00     0.194 C 
ENDBRANCH   4   5
ENDBRANCH   3   4
ENDBRANCH   1   3
BRANCH   1   7
ATOM      7  C   UNL     1       2.282  44.570  54.460  1.00  0.00     0.226 A 
ATOM      8  N   UNL     1       2.957  43.694  53.722  1.00  0.00    -0.193 NA
ATOM      9  N   UNL     1       1.054  44.982  54.174  1.00  0.00    -0.191 NA
ATOM     10  C   UNL     1       2.346  43.201  52.623  1.00  0.00     0.164 A 
ATOM     11  C   UNL     1       0.471  44.518  53.077  1.00  0.00     0.185 A 
ATOM     12  C   UNL     1       1.071  43.595  52.209  1.00  0.00     0.150 A 
ATOM     13  N   UNL     1      -0.756  44.981  52.816  1.00  0.00    -0.233 NA
ATOM     14  N   UNL     1       0.435  43.164  51.071  1.00  0.00    -0.247 NA
ATOM     15  C   UNL     1      -1.378  44.551  51.697  1.00  0.00     0.133 A 
ATOM     16  C   UNL     1      -0.792  43.657  50.834  1.00  0.00     0.132 A 
BRANCH  10  17
ATOM     17  N   UNL     1       3.140  42.287  51.898  1.00  0.00    -0.338 N 
ATOM     18  H   UNL     1       2.499  41.714  51.354  1.00  0.00     0.168 HD
BRANCH  17  19
ATOM     19  C   UNL     1       4.319  42.519  51.155  1.00  0.00     0.040 A 
ATOM     20  C   UNL     1       4.958  41.545  50.388  1.00  0.00     0.026 A 
ATOM     21  C   UNL     1       4.898  43.795  51.219  1.00  0.00     0.029 A 
ATOM     22  C   UNL     1       6.138  41.839  49.698  1.00  0.00     0.006 A 
ATOM     23  C   UNL     1       6.085  44.109  50.532  1.00  0.00    -0.046 A 
ATOM     24  C   UNL     1       6.712  43.116  49.759  1.00  0.00    -0.048 A 
ATOM     25  C   UNL     1       6.648  45.500  50.632  1.00  0.00     0.044 C 
ATOM     26  C   UNL     1       7.980  43.393  49.001  1.00  0.00     0.044 C 
ENDBRANCH  17  19
ENDBRANCH  10  17
ENDBRANCH   1   7
TORSDOF 6
ENDMDL
MODEL 13
REMARK VINA RESULT:    -7.776      2.071      4.697
REMARK INTER + INTRA:         -11.268
REMARK INTER:                 -10.873
REMARK INTRA:                  -0.395
REMARK UNBOUND:                -0.764
REMARK SMILES COCCNc1nc(Nc2ccc(C)c(C)c2)c2nccnc2n1
REMARK SMILES IDX 5 1 4 3 3 4 2 5 1 6 6 7 7 8 24 9 8 10 23 11 18 12 22 13
REMARK SMILES IDX 19 14 21 15 20 16 9 17 10 19 11 20 17 21 12 22 15 23 13 24
REMARK SMILES IDX 16 25 14 26
REMARK H PARENT 5 2 9 18
ROOT
ATOM      1  N   UNL     1       4.306  41.500  51.422  1.00  0.00    -0.352 N 
ATOM      2  H   UNL     1       5.303  41.629  51.562  1.00  0.00     0.163 HD
ENDROOT
BRANCH   1   3
ATOM      3  C   UNL     1       3.899  41.356  50.030  1.00  0.00     0.144 C 
BRANCH   3   4
ATOM      4  C   UNL     1       5.093  41.190  49.078  1.00  0.00     0.181 C 
BRANCH   4   5
ATOM      5  O   UNL     1       6.319  41.560  49.724  1.00  0.00    -0.383 OA
ATOM      6  C   UNL     1       6.802  42.827  49.297  1.00  0.00     0.194 C 
ENDBRANCH   4   5
ENDBRANCH   3   4
ENDBRANCH   1   3
BRANCH   1   7
ATOM      7  C   UNL     1       3.685  42.510  52.139  1.00  0.00     0.226 A 
ATOM      8  N   UNL     1       4.457  43.544  52.455  1.00  0.00    -0.193 NA
ATOM      9  N   UNL     1       2.405  42.417  52.477  1.00  0.00    -0.191 NA
ATOM     10  C   UNL     1       3.896  44.552  53.156  1.00  0.00     0.164 A 
ATOM     11  C   UNL     1       1.868  43.396  53.192  1.00  0.00     0.185 A 
ATOM     12  C   UNL     1       2.570  44.540  53.595  1.00  0.00     0.150 A 
ATOM     13  N   UNL     1       0.582  43.247  53.530  1.00  0.00    -0.233 NA
ATOM     14  N   UNL     1       1.974  45.515  54.357  1.00  0.00    -0.247 NA
ATOM     15  C   UNL     1       0.000  44.211  54.277  1.00  0.00     0.133 A 
ATOM     16  C   UNL     1       0.686  45.328  54.688  1.00  0.00     0.132 A 
BRANCH  10  17
ATOM     17  N   UNL     1       4.793  45.601  53.453  1.00  0.00    -0.338 N 
ATOM     18  H   UNL     1       4.814  45.686  54.467  1.00  0.00     0.168 HD
BRANCH  17  19
ATOM     19  C   UNL     1       6.079  45.856  52.928  1.00  0.00     0.040 A 
ATOM     20  C   UNL     1       6.415  45.696  51.584  1.00  0.00     0.026 A 
ATOM     21  C   UNL     1       7.086  46.260  53.817  1.00  0.00     0.029 A 
ATOM     22  C   UNL     1       7.717  45.943  51.137  1.00  0.00     0.006 A 
ATOM     23  C   UNL     1       8.401  46.513  53.387  1.00  0.00    -0.046 A 
ATOM     24  C   UNL     1       8.719  46.352  52.027  1.00  0.00    -0.048 A 
ATOM     25  C   UNL     1       9.431  46.956  54.388  1.00  0.00     0.044 C 
ATOM     26  C   UNL     1      10.107  46.610  51.508  1.00  0.00     0.044 C 
ENDBRANCH  17  19
ENDBRANCH  10  17
ENDBRANCH   1   7
TORSDOF 6
ENDMDL
MODEL 14
REMARK VINA RESULT:    -7.689      2.528      3.911
REMARK INTER + INTRA:         -11.149
REMARK INTER:                 -10.507
REMARK INTRA:                  -0.643
REMARK UNBOUND:                -0.764
REMARK SMILES COCCNc1nc(Nc2ccc(C)c(C)c2)c2nccnc2n1
REMARK SMILES IDX 5 1 4 3 3 4 2 5 1 6 6 7 7 8 24 9 8 10 23 11 18 12 22 13
REMARK SMILES IDX 19 14 21 15 20 16 9 17 10 19 11 20 17 21 12 22 15 23 13 24
REMARK SMILES IDX 16 25 14 26
REMARK H PARENT 5 2 9 18
ROOT
ATOM      1  N   UNL     1       1.888  45.642  56.580  1.00  0.00    -0.352 N 
ATOM      2  H   UNL     1       2.728  45.273  57.014  1.00  0.00     0.163 HD
ENDROOT
BRANCH   1   3
ATOM      3  C   UNL     1       0.651  45.330  57.285  1.00  0.00     0.144 C 
BRANCH   3   4
ATOM      4  C   UNL     1      -0.353  46.492  57.260  1.00  0.00     0.181 C 
BRANCH   4   5
ATOM      5  O   UNL     1      -0.621  46.968  58.586  1.00  0.00    -0.383 OA
ATOM      6  C   UNL     1       0.541  47.476  59.229  1.00  0.00     0.194 C 
ENDBRANCH   4   5
ENDBRANCH   3   4
ENDBRANCH   1   3
BRANCH   1   7
ATOM      7  C   UNL     1       1.946  45.260  55.249  1.00  0.00     0.226 A 
ATOM      8  N   UNL     1       2.735  45.999  54.476  1.00  0.00    -0.193 NA
ATOM      9  N   UNL     1       1.244  44.224  54.807  1.00  0.00    -0.191 NA
ATOM     10  C   UNL     1       2.821  45.666  53.171  1.00  0.00     0.164 A 
ATOM     11  C   UNL     1       1.309  43.921  53.518  1.00  0.00     0.185 A 
ATOM     12  C   UNL     1       2.097  44.620  52.594  1.00  0.00     0.150 A 
ATOM     13  N   UNL     1       0.564  42.886  53.114  1.00  0.00    -0.233 NA
ATOM     14  N   UNL     1       2.110  44.282  51.263  1.00  0.00    -0.247 NA
ATOM     15  C   UNL     1       0.584  42.555  51.804  1.00  0.00     0.133 A 
ATOM     16  C   UNL     1       1.342  43.244  50.890  1.00  0.00     0.132 A 
BRANCH  10  17
ATOM     17  N   UNL     1       3.673  46.510  52.428  1.00  0.00    -0.338 N 
ATOM     18  H   UNL     1       3.348  47.462  52.585  1.00  0.00     0.168 HD
BRANCH  17  19
ATOM     19  C   UNL     1       5.083  46.499  52.330  1.00  0.00     0.040 A 
ATOM     20  C   UNL     1       5.926  47.234  53.163  1.00  0.00     0.026 A 
ATOM     21  C   UNL     1       5.666  45.728  51.313  1.00  0.00     0.029 A 
ATOM     22  C   UNL     1       7.313  47.194  52.991  1.00  0.00     0.006 A 
ATOM     23  C   UNL     1       7.059  45.676  51.125  1.00  0.00    -0.046 A 
ATOM     24  C   UNL     1       7.893  46.420  51.978  1.00  0.00    -0.048 A 
ATOM     25  C   UNL     1       7.623  44.821  50.024  1.00  0.00     0.044 C 
ATOM     26  C   UNL     1       9.389  46.401  51.828  1.00  0.00     0.044 C 
ENDBRANCH  17  19
ENDBRANCH  10  17
ENDBRANCH   1   7
TORSDOF 6
ENDMDL
MODEL 15
REMARK VINA RESULT:    -7.576      2.897      5.453
REMARK INTER + INTRA:         -10.997
REMARK INTER:                 -10.389
REMARK INTRA:                  -0.609
REMARK UNBOUND:                -0.764
REMARK SMILES COCCNc1nc(Nc2ccc(C)c(C)c2)c2nccnc2n1
REMARK SMILES IDX 5 1 4 3 3 4 2 5 1 6 6 7 7 8 24 9 8 10 23 11 18 12 22 13
REMARK SMILES IDX 19 14 21 15 20 16 9 17 10 19 11 20 17 21 12 22 15 23 13 24
REMARK SMILES IDX 16 25 14 26
REMARK H PARENT 5 2 9 18
ROOT
ATOM      1  N   UNL     1       1.709  45.359  55.998  1.00  0.00    -0.352 N 
ATOM      2  H   UNL     1       2.516  44.832  56.318  1.00  0.00     0.163 HD
ENDROOT
BRANCH   1   3
ATOM      3  C   UNL     1       0.654  45.519  56.992  1.00  0.00     0.144 C 
BRANCH   3   4
ATOM      4  C   UNL     1       1.017  46.538  58.082  1.00  0.00     0.181 C 
BRANCH   4   5
ATOM      5  O   UNL     1      -0.152  47.217  58.560  1.00  0.00    -0.383 OA
ATOM      6  C   UNL     1      -1.197  47.250  57.597  1.00  0.00     0.194 C 
ENDBRANCH   4   5
ENDBRANCH   3   4
ENDBRANCH   1   3
BRANCH   1   7
ATOM      7  C   UNL     1       1.332  44.789  54.793  1.00  0.00     0.226 A 
ATOM      8  N   UNL     1       2.171  43.882  54.302  1.00  0.00    -0.193 NA
ATOM      9  N   UNL     1       0.206  45.150  54.192  1.00  0.00    -0.191 NA
ATOM     10  C   UNL     1       1.846  43.301  53.128  1.00  0.00     0.164 A 
ATOM     11  C   UNL     1      -0.092  44.599  53.024  1.00  0.00     0.185 A 
ATOM     12  C   UNL     1       0.706  43.634  52.393  1.00  0.00     0.150 A 
ATOM     13  N   UNL     1      -1.225  45.013  52.443  1.00  0.00    -0.233 NA
ATOM     14  N   UNL     1       0.366  43.112  51.170  1.00  0.00    -0.247 NA
ATOM     15  C   UNL     1      -1.556  44.493  51.242  1.00  0.00     0.133 A 
ATOM     16  C   UNL     1      -0.772  43.558  50.610  1.00  0.00     0.132 A 
BRANCH  10  17
ATOM     17  N   UNL     1       2.798  42.360  52.681  1.00  0.00    -0.338 N 
ATOM     18  H   UNL     1       2.280  41.523  52.424  1.00  0.00     0.168 HD
BRANCH  17  19
ATOM     19  C   UNL     1       3.886  42.537  51.797  1.00  0.00     0.040 A 
ATOM     20  C   UNL     1       4.381  41.535  50.963  1.00  0.00     0.026 A 
ATOM     21  C   UNL     1       4.526  43.786  51.782  1.00  0.00     0.029 A 
ATOM     22  C   UNL     1       5.479  41.775  50.131  1.00  0.00     0.006 A 
ATOM     23  C   UNL     1       5.632  44.045  50.952  1.00  0.00    -0.046 A 
ATOM     24  C   UNL     1       6.113  43.024  50.114  1.00  0.00    -0.048 A 
ATOM     25  C   UNL     1       6.266  45.408  50.975  1.00  0.00     0.044 C 
ATOM     26  C   UNL     1       7.289  43.243  49.204  1.00  0.00     0.044 C 
ENDBRANCH  17  19
ENDBRANCH  10  17
ENDBRANCH   1   7
TORSDOF 6
ENDMDL
MODEL 16
REMARK VINA RESULT:    -7.544      2.312      4.537
REMARK INTER + INTRA:         -10.953
REMARK INTER:                 -10.378
REMARK INTRA:                  -0.575
REMARK UNBOUND:                -0.764
REMARK SMILES COCCNc1nc(Nc2ccc(C)c(C)c2)c2nccnc2n1
REMARK SMILES IDX 5 1 4 3 3 4 2 5 1 6 6 7 7 8 24 9 8 10 23 11 18 12 22 13
REMARK SMILES IDX 19 14 21 15 20 16 9 17 10 19 11 20 17 21 12 22 15 23 13 24
REMARK SMILES IDX 16 25 14 26
REMARK H PARENT 5 2 9 18
ROOT
ATOM      1  N   UNL     1       4.101  41.007  50.733  1.00  0.00    -0.352 N 
ATOM      2  H   UNL     1       4.778  40.762  51.449  1.00  0.00     0.163 HD
ENDROOT
BRANCH   1   3
ATOM      3  C   UNL     1       4.666  41.204  49.403  1.00  0.00     0.144 C 
BRANCH   3   4
ATOM      4  C   UNL     1       6.171  41.509  49.439  1.00  0.00     0.181 C 
BRANCH   4   5
ATOM      5  O   UNL     1       6.407  42.921  49.527  1.00  0.00    -0.383 OA
ATOM      6  C   UNL     1       7.681  43.296  49.020  1.00  0.00     0.194 C 
ENDBRANCH   4   5
ENDBRANCH   3   4
ENDBRANCH   1   3
BRANCH   1   7
ATOM      7  C   UNL     1       3.365  42.062  51.246  1.00  0.00     0.226 A 
ATOM      8  N   UNL     1       3.957  42.754  52.215  1.00  0.00    -0.193 NA
ATOM      9  N   UNL     1       2.152  42.335  50.784  1.00  0.00    -0.191 NA
ATOM     10  C   UNL     1       3.276  43.791  52.748  1.00  0.00     0.164 A 
ATOM     11  C   UNL     1       1.476  43.335  51.332  1.00  0.00     0.185 A 
ATOM     12  C   UNL     1       1.980  44.140  52.363  1.00  0.00     0.150 A 
ATOM     13  N   UNL     1       0.247  43.555  50.851  1.00  0.00    -0.233 NA
ATOM     14  N   UNL     1       1.230  45.149  52.916  1.00  0.00    -0.247 NA
ATOM     15  C   UNL     1      -0.484  44.552  51.397  1.00  0.00     0.133 A 
ATOM     16  C   UNL     1      -0.004  45.336  52.416  1.00  0.00     0.132 A 
BRANCH  10  17
ATOM     17  N   UNL     1       3.978  44.459  53.774  1.00  0.00    -0.338 N 
ATOM     18  H   UNL     1       4.049  43.805  54.551  1.00  0.00     0.168 HD
BRANCH  17  19
ATOM     19  C   UNL     1       5.157  45.233  53.695  1.00  0.00     0.040 A 
ATOM     20  C   UNL     1       5.729  45.892  54.784  1.00  0.00     0.026 A 
ATOM     21  C   UNL     1       5.769  45.376  52.441  1.00  0.00     0.029 A 
ATOM     22  C   UNL     1       6.884  46.663  54.626  1.00  0.00     0.006 A 
ATOM     23  C   UNL     1       6.931  46.148  52.263  1.00  0.00    -0.046 A 
ATOM     24  C   UNL     1       7.496  46.799  53.373  1.00  0.00    -0.048 A 
ATOM     25  C   UNL     1       7.546  46.250  50.895  1.00  0.00     0.044 C 
ATOM     26  C   UNL     1       8.740  47.635  53.246  1.00  0.00     0.044 C 
ENDBRANCH  17  19
ENDBRANCH  10  17
ENDBRANCH   1   7
TORSDOF 6
ENDMDL
MODEL 17
REMARK VINA RESULT:    -7.485      2.719      6.482
REMARK INTER + INTRA:         -10.874
REMARK INTER:                 -10.124
REMARK INTRA:                  -0.749
REMARK UNBOUND:                -0.764
REMARK SMILES COCCNc1nc(Nc2ccc(C)c(C)c2)c2nccnc2n1
REMARK SMILES IDX 5 1 4 3 3 4 2 5 1 6 6 7 7 8 24 9 8 10 23 11 18 12 22 13
REMARK SMILES IDX 19 14 21 15 20 16 9 17 10 19 11 20 17 21 12 22 15 23 13 24
REMARK SMILES IDX 16 25 14 26
REMARK H PARENT 5 2 9 18
ROOT
ATOM      1  N   UNL     1       7.396  45.089  49.620  1.00  0.00    -0.352 N 
ATOM      2  H   UNL     1       6.462  45.335  49.309  1.00  0.00     0.163 HD
ENDROOT
BRANCH   1   3
ATOM      3  C   UNL     1       7.692  43.662  49.595  1.00  0.00     0.144 C 
BRANCH   3   4
ATOM      4  C   UNL     1       6.444  42.804  49.337  1.00  0.00     0.181 C 
BRANCH   4   5
ATOM      5  O   UNL     1       5.755  42.519  50.561  1.00  0.00    -0.383 OA
ATOM      6  C   UNL     1       4.782  41.492  50.415  1.00  0.00     0.194 C 
ENDBRANCH   4   5
ENDBRANCH   3   4
ENDBRANCH   1   3
BRANCH   1   7
ATOM      7  C   UNL     1       7.575  45.729  50.837  1.00  0.00     0.226 A 
ATOM      8  N   UNL     1       6.476  46.244  51.378  1.00  0.00    -0.193 NA
ATOM      9  N   UNL     1       8.777  45.808  51.394  1.00  0.00    -0.191 NA
ATOM     10  C   UNL     1       6.602  46.879  52.563  1.00  0.00     0.164 A 
ATOM     11  C   UNL     1       8.899  46.459  52.542  1.00  0.00     0.185 A 
ATOM     12  C   UNL     1       7.823  47.054  53.217  1.00  0.00     0.150 A 
ATOM     13  N   UNL     1      10.133  46.535  53.053  1.00  0.00    -0.233 NA
ATOM     14  N   UNL     1       8.007  47.740  54.392  1.00  0.00    -0.247 NA
ATOM     15  C   UNL     1      10.306  47.208  54.211  1.00  0.00     0.133 A 
ATOM     16  C   UNL     1       9.260  47.806  54.872  1.00  0.00     0.132 A 
BRANCH  10  17
ATOM     17  N   UNL     1       5.387  47.401  53.055  1.00  0.00    -0.338 N 
ATOM     18  H   UNL     1       5.074  48.095  52.379  1.00  0.00     0.168 HD
BRANCH  17  19
ATOM     19  C   UNL     1       4.270  46.720  53.589  1.00  0.00     0.040 A 
ATOM     20  C   UNL     1       4.189  46.277  54.909  1.00  0.00     0.026 A 
ATOM     21  C   UNL     1       3.195  46.444  52.731  1.00  0.00     0.029 A 
ATOM     22  C   UNL     1       3.061  45.586  55.363  1.00  0.00     0.006 A 
ATOM     23  C   UNL     1       2.053  45.750  53.170  1.00  0.00    -0.046 A 
ATOM     24  C   UNL     1       1.986  45.316  54.506  1.00  0.00    -0.048 A 
ATOM     25  C   UNL     1       0.929  45.497  52.204  1.00  0.00     0.044 C 
ATOM     26  C   UNL     1       0.790  44.572  55.032  1.00  0.00     0.044 C 
ENDBRANCH  17  19
ENDBRANCH  10  17
ENDBRANCH   1   7
TORSDOF 6
ENDMDL
MODEL 18
REMARK VINA RESULT:    -7.426      2.326      6.265
REMARK INTER + INTRA:         -10.795
REMARK INTER:                 -10.013
REMARK INTRA:                  -0.782
REMARK UNBOUND:                -0.764
REMARK SMILES COCCNc1nc(Nc2ccc(C)c(C)c2)c2nccnc2n1
REMARK SMILES IDX 5 1 4 3 3 4 2 5 1 6 6 7 7 8 24 9 8 10 23 11 18 12 22 13
REMARK SMILES IDX 19 14 21 15 20 16 9 17 10 19 11 20 17 21 12 22 15 23 13 24
REMARK SMILES IDX 16 25 14 26
REMARK H PARENT 5 2 9 18
ROOT
ATOM      1  N   UNL     1       2.813  42.300  52.850  1.00  0.00    -0.352 N 
ATOM      2  H   UNL     1       2.714  41.305  52.679  1.00  0.00     0.163 HD
ENDROOT
BRANCH   1   3
ATOM      3  C   UNL     1       1.578  43.066  52.731  1.00  0.00     0.144 C 
BRANCH   3   4
ATOM      4  C   UNL     1       1.201  43.787  54.034  1.00  0.00     0.181 C 
BRANCH   4   5
ATOM      5  O   UNL     1       1.958  44.995  54.189  1.00  0.00    -0.383 OA
ATOM      6  C   UNL     1       1.678  45.950  53.174  1.00  0.00     0.194 C 
ENDBRANCH   4   5
ENDBRANCH   3   4
ENDBRANCH   1   3
BRANCH   1   7
ATOM      7  C   UNL     1       3.872  42.721  52.061  1.00  0.00     0.226 A 
ATOM      8  N   UNL     1       4.218  41.892  51.081  1.00  0.00    -0.193 NA
ATOM      9  N   UNL     1       4.480  43.876  52.296  1.00  0.00    -0.191 NA
ATOM     10  C   UNL     1       5.246  42.258  50.287  1.00  0.00     0.164 A 
ATOM     11  C   UNL     1       5.508  44.216  51.532  1.00  0.00     0.185 A 
ATOM     12  C   UNL     1       5.980  43.433  50.469  1.00  0.00     0.150 A 
ATOM     13  N   UNL     1       6.106  45.377  51.823  1.00  0.00    -0.233 NA
ATOM     14  N   UNL     1       7.066  43.818  49.723  1.00  0.00    -0.247 NA
ATOM     15  C   UNL     1       7.172  45.752  51.083  1.00  0.00     0.133 A 
ATOM     16  C   UNL     1       7.648  44.984  50.049  1.00  0.00     0.132 A 
BRANCH  10  17
ATOM     17  N   UNL     1       5.548  41.314  49.282  1.00  0.00    -0.338 N 
ATOM     18  H   UNL     1       5.716  40.429  49.757  1.00  0.00     0.168 HD
BRANCH  17  19
ATOM     19  C   UNL     1       4.899  41.077  48.051  1.00  0.00     0.040 A 
ATOM     20  C   UNL     1       3.816  40.212  47.896  1.00  0.00     0.026 A 
ATOM     21  C   UNL     1       5.394  41.726  46.909  1.00  0.00     0.029 A 
ATOM     22  C   UNL     1       3.237  40.007  46.640  1.00  0.00     0.006 A 
ATOM     23  C   UNL     1       4.826  41.531  45.637  1.00  0.00    -0.046 A 
ATOM     24  C   UNL     1       3.731  40.660  45.503  1.00  0.00    -0.048 A 
ATOM     25  C   UNL     1       5.396  42.266  44.456  1.00  0.00     0.044 C 
ATOM     26  C   UNL     1       3.080  40.415  44.170  1.00  0.00     0.044 C 
ENDBRANCH  17  19
ENDBRANCH  10  17
ENDBRANCH   1   7
TORSDOF 6
ENDMDL
MODEL 19
REMARK VINA RESULT:    -7.401      2.469      5.151
REMARK INTER + INTRA:         -10.761
REMARK INTER:                 -10.473
REMARK INTRA:                  -0.289
REMARK UNBOUND:                -0.764
REMARK SMILES COCCNc1nc(Nc2ccc(C)c(C)c2)c2nccnc2n1
REMARK SMILES IDX 5 1 4 3 3 4 2 5 1 6 6 7 7 8 24 9 8 10 23 11 18 12 22 13
REMARK SMILES IDX 19 14 21 15 20 16 9 17 10 19 11 20 17 21 12 22 15 23 13 24
REMARK SMILES IDX 16 25 14 26
REMARK H PARENT 5 2 9 18
ROOT
ATOM      1  N   UNL     1       2.230  42.282  51.453  1.00  0.00    -0.352 N 
ATOM      2  H   UNL     1       1.793  41.403  51.710  1.00  0.00     0.163 HD
ENDROOT
BRANCH   1   3
ATOM      3  C   UNL     1       3.557  42.153  50.861  1.00  0.00     0.144 C 
BRANCH   3   4
ATOM      4  C   UNL     1       3.667  40.950  49.912  1.00  0.00     0.181 C 
BRANCH   4   5
ATOM      5  O   UNL     1       4.912  40.971  49.201  1.00  0.00    -0.383 OA
ATOM      6  C   UNL     1       5.986  41.463  49.991  1.00  0.00     0.194 C 
ENDBRANCH   4   5
ENDBRANCH   3   4
ENDBRANCH   1   3
BRANCH   1   7
ATOM      7  C   UNL     1       2.136  43.098  52.569  1.00  0.00     0.226 A 
ATOM      8  N   UNL     1       3.294  43.506  53.077  1.00  0.00    -0.193 NA
ATOM      9  N   UNL     1       0.954  43.427  53.074  1.00  0.00    -0.191 NA
ATOM     10  C   UNL     1       3.252  44.302  54.167  1.00  0.00     0.164 A 
ATOM     11  C   UNL     1       0.920  44.183  54.162  1.00  0.00     0.185 A 
ATOM     12  C   UNL     1       2.066  44.677  54.802  1.00  0.00     0.150 A 
ATOM     13  N   UNL     1      -0.293  44.466  54.651  1.00  0.00    -0.233 NA
ATOM     14  N   UNL     1       1.978  45.435  55.943  1.00  0.00    -0.247 NA
ATOM     15  C   UNL     1      -0.373  45.217  55.771  1.00  0.00     0.133 A 
ATOM     16  C   UNL     1       0.745  45.693  56.412  1.00  0.00     0.132 A 
BRANCH  10  17
ATOM     17  N   UNL     1       4.527  44.677  54.642  1.00  0.00    -0.338 N 
ATOM     18  H   UNL     1       4.918  43.858  55.102  1.00  0.00     0.168 HD
BRANCH  17  19
ATOM     19  C   UNL     1       5.555  45.387  53.982  1.00  0.00     0.040 A 
ATOM     20  C   UNL     1       6.304  46.402  54.577  1.00  0.00     0.026 A 
ATOM     21  C   UNL     1       5.813  45.076  52.638  1.00  0.00     0.029 A 
ATOM     22  C   UNL     1       7.290  47.081  53.854  1.00  0.00     0.006 A 
ATOM     23  C   UNL     1       6.801  45.748  51.896  1.00  0.00    -0.046 A 
ATOM     24  C   UNL     1       7.550  46.764  52.514  1.00  0.00    -0.048 A 
ATOM     25  C   UNL     1       7.038  45.358  50.463  1.00  0.00     0.044 C 
ATOM     26  C   UNL     1       8.620  47.515  51.772  1.00  0.00     0.044 C 
ENDBRANCH  17  19
ENDBRANCH  10  17
ENDBRANCH   1   7
TORSDOF 6
ENDMDL
MODEL 20
REMARK VINA RESULT:    -7.352      2.813      7.252
REMARK INTER + INTRA:         -10.695
REMARK INTER:                 -10.122
REMARK INTRA:                  -0.572
REMARK UNBOUND:                -0.764
REMARK SMILES COCCNc1nc(Nc2ccc(C)c(C)c2)c2nccnc2n1
REMARK SMILES IDX 5 1 4 3 3 4 2 5 1 6 6 7 7 8 24 9 8 10 23 11 18 12 22 13
REMARK SMILES IDX 19 14 21 15 20 16 9 17 10 19 11 20 17 21 12 22 15 23 13 24
REMARK SMILES IDX 16 25 14 26
REMARK H PARENT 5 2 9 18
ROOT
ATOM      1  N   UNL     1       8.169  45.662  50.502  1.00  0.00    -0.352 N 
ATOM      2  H   UNL     1       8.951  45.068  50.247  1.00  0.00     0.163 HD
ENDROOT
BRANCH   1   3
ATOM      3  C   UNL     1       8.452  46.617  51.567  1.00  0.00     0.144 C 
BRANCH   3   4
ATOM      4  C   UNL     1       9.908  46.552  52.050  1.00  0.00     0.181 C 
BRANCH   4   5
ATOM      5  O   UNL     1      10.058  47.201  53.319  1.00  0.00    -0.383 OA
ATOM      6  C   UNL     1       8.855  47.202  54.078  1.00  0.00     0.194 C 
ENDBRANCH   4   5
ENDBRANCH   3   4
ENDBRANCH   1   3
BRANCH   1   7
ATOM      7  C   UNL     1       7.096  44.811  50.714  1.00  0.00     0.226 A 
ATOM      8  N   UNL     1       7.078  43.715  49.962  1.00  0.00    -0.193 NA
ATOM      9  N   UNL     1       6.162  45.103  51.611  1.00  0.00    -0.191 NA
ATOM     10  C   UNL     1       6.049  42.858  50.132  1.00  0.00     0.164 A 
ATOM     11  C   UNL     1       5.139  44.273  51.751  1.00  0.00     0.185 A 
ATOM     12  C   UNL     1       4.995  43.085  51.019  1.00  0.00     0.150 A 
ATOM     13  N   UNL     1       4.209  44.622  52.649  1.00  0.00    -0.233 NA
ATOM     14  N   UNL     1       3.902  42.271  51.184  1.00  0.00    -0.247 NA
ATOM     15  C   UNL     1       3.139  43.814  52.808  1.00  0.00     0.133 A 
ATOM     16  C   UNL     1       2.983  42.657  52.085  1.00  0.00     0.132 A 
BRANCH  10  17
ATOM     17  N   UNL     1       6.110  41.729  49.286  1.00  0.00    -0.338 N 
ATOM     18  H   UNL     1       6.195  40.916  49.893  1.00  0.00     0.168 HD
BRANCH  17  19
ATOM     19  C   UNL     1       5.312  41.406  48.166  1.00  0.00     0.040 A 
ATOM     20  C   UNL     1       4.219  40.542  48.214  1.00  0.00     0.026 A 
ATOM     21  C   UNL     1       5.661  41.963  46.926  1.00  0.00     0.029 A 
ATOM     22  C   UNL     1       3.489  40.247  47.058  1.00  0.00     0.006 A 
ATOM     23  C   UNL     1       4.939  41.678  45.753  1.00  0.00    -0.046 A 
ATOM     24  C   UNL     1       3.836  40.809  45.822  1.00  0.00    -0.048 A 
ATOM     25  C   UNL     1       5.357  42.317  44.458  1.00  0.00     0.044 C 
ATOM     26  C   UNL     1       3.025  40.469  44.602  1.00  0.00     0.044 C 
ENDBRANCH  17  19
ENDBRANCH  10  17
ENDBRANCH   1   7
TORSDOF 6
ENDMDL
