MODEL 1
REMARK VINA RESULT:    -9.738      0.000      0.000
REMARK INTER + INTRA:         -13.813
REMARK INTER:                 -13.154
REMARK INTRA:                  -0.658
REMARK UNBOUND:                -0.658
REMARK SMILES Cc1cccc(Nc2nc(NCC[NH+]3CCOCC3)nc3c2cnn3C)c1C
REMARK SMILES IDX 11 1 12 3 13 4 14 5 15 6 19 7 16 8 18 9 17 10 10 12 9 13
REMARK SMILES IDX 20 14 8 15 21 16 22 17 25 18 23 19 24 20 26 21 7 22 6 24
REMARK SMILES IDX 5 25 27 26 4 27 2 28 3 29 28 30 1 31
REMARK H PARENT 11 2 14 11 7 23
ROOT
ATOM      1  N   UNL     1       2.814  43.440  53.489  1.00  0.00    -0.348 N 
ATOM      2  H   UNL     1       2.947  42.514  53.891  1.00  0.00     0.163 HD
ENDROOT
BRANCH   1   3
ATOM      3  C   UNL     1       1.471  43.843  53.124  1.00  0.00     0.177 C 
BRANCH   3   4
ATOM      4  C   UNL     1       1.188  45.328  53.438  1.00  0.00     0.283 C 
BRANCH   4   5
ATOM      5  N   UNL     1       0.418  45.509  54.737  1.00  0.00    -0.330 N 
ATOM      6  C   UNL     1       1.371  45.513  55.936  1.00  0.00     0.291 C 
ATOM      7  C   UNL     1      -0.663  44.447  54.946  1.00  0.00     0.291 C 
ATOM      8  C   UNL     1       0.572  45.688  57.230  1.00  0.00     0.221 C 
ATOM      9  C   UNL     1      -1.355  44.674  56.295  1.00  0.00     0.221 C 
ATOM     10  O   UNL     1      -0.408  44.655  57.368  1.00  0.00    -0.370 OA
ATOM     11  H   UNL     1      -0.039  46.429  54.714  1.00  0.00     0.348 HD
ENDBRANCH   4   5
ENDBRANCH   3   4
ENDBRANCH   1   3
BRANCH   1  12
ATOM     12  C   UNL     1       3.792  43.588  52.518  1.00  0.00     0.226 A 
ATOM     13  N   UNL     1       4.522  44.703  52.643  1.00  0.00    -0.195 NA
ATOM     14  N   UNL     1       3.984  42.614  51.618  1.00  0.00    -0.193 NA
ATOM     15  C   UNL     1       5.528  44.984  51.771  1.00  0.00     0.147 A 
ATOM     16  C   UNL     1       4.966  42.911  50.749  1.00  0.00     0.165 A 
ATOM     17  C   UNL     1       5.766  44.040  50.765  1.00  0.00     0.082 A 
ATOM     18  N   UNL     1       5.378  42.175  49.670  1.00  0.00    -0.250 N 
ATOM     19  C   UNL     1       6.648  43.859  49.679  1.00  0.00     0.149 A 
ATOM     20  N   UNL     1       6.432  42.716  49.022  1.00  0.00    -0.179 NA
ATOM     21  C   UNL     1       4.815  40.939  49.190  1.00  0.00     0.176 C 
BRANCH  15  22
ATOM     22  N   UNL     1       6.323  46.129  51.912  1.00  0.00    -0.339 N 
ATOM     23  H   UNL     1       5.798  46.989  51.990  1.00  0.00     0.168 HD
BRANCH  22  24
ATOM     24  C   UNL     1       7.699  46.292  52.185  1.00  0.00     0.043 A 
ATOM     25  C   UNL     1       8.674  46.063  51.203  1.00  0.00     0.026 A 
ATOM     26  C   UNL     1       8.117  46.757  53.461  1.00  0.00    -0.025 A 
ATOM     27  C   UNL     1      10.030  46.236  51.472  1.00  0.00     0.002 A 
ATOM     28  C   UNL     1       9.500  46.901  53.741  1.00  0.00    -0.046 A 
ATOM     29  C   UNL     1      10.440  46.647  52.733  1.00  0.00     0.004 A 
ATOM     30  C   UNL     1       7.094  47.059  54.531  1.00  0.00     0.047 C 
ATOM     31  C   UNL     1      10.005  47.342  55.090  1.00  0.00     0.044 C 
ENDBRANCH  22  24
ENDBRANCH  15  22
ENDBRANCH   1  12
TORSDOF 6
ENDMDL
MODEL 2
REMARK VINA RESULT:    -9.685      0.929      1.084
REMARK INTER + INTRA:         -13.740
REMARK INTER:                 -12.967
REMARK INTRA:                  -0.773
REMARK UNBOUND:                -0.658
REMARK SMILES Cc1cccc(Nc2nc(NCC[NH+]3CCOCC3)nc3c2cnn3C)c1C
REMARK SMILES IDX 11 1 12 3 13 4 14 5 15 6 19 7 16 8 18 9 17 10 10 12 9 13
REMARK SMILES IDX 20 14 8 15 21 16 22 17 25 18 23 19 24 20 26 21 7 22 6 24
REMARK SMILES IDX 5 25 27 26 4 27 2 28 3 29 28 30 1 31
REMARK H PARENT 11 2 14 11 7 23
ROOT
ATOM      1  N   UNL     1       2.577  44.182  54.113  1.00  0.00    -0.348 N 
ATOM      2  H   UNL     1       2.494  43.234  54.476  1.00  0.00     0.163 HD
ENDROOT
BRANCH   1   3
ATOM      3  C   UNL     1       1.363  44.928  53.857  1.00  0.00     0.177 C 
BRANCH   3   4
ATOM      4  C   UNL     1       0.223  44.567  54.834  1.00  0.00     0.283 C 
BRANCH   4   5
ATOM      5  N   UNL     1      -0.075  45.689  55.817  1.00  0.00    -0.330 N 
ATOM      6  C   UNL     1       0.850  45.602  57.035  1.00  0.00     0.291 C 
ATOM      7  C   UNL     1      -1.531  45.707  56.281  1.00  0.00     0.291 C 
ATOM      8  C   UNL     1       0.526  46.735  58.012  1.00  0.00     0.221 C 
ATOM      9  C   UNL     1      -1.733  46.834  57.303  1.00  0.00     0.221 C 
ATOM     10  O   UNL     1      -0.846  46.684  58.415  1.00  0.00    -0.370 OA
ATOM     11  H   UNL     1       0.124  46.584  55.353  1.00  0.00     0.348 HD
ENDBRANCH   4   5
ENDBRANCH   3   4
ENDBRANCH   1   3
BRANCH   1  12
ATOM     12  C   UNL     1       3.500  44.124  53.081  1.00  0.00     0.226 A 
ATOM     13  N   UNL     1       4.312  45.187  53.012  1.00  0.00    -0.195 NA
ATOM     14  N   UNL     1       3.568  43.028  52.313  1.00  0.00    -0.193 NA
ATOM     15  C   UNL     1       5.277  45.271  52.057  1.00  0.00     0.147 A 
ATOM     16  C   UNL     1       4.511  43.131  51.361  1.00  0.00     0.165 A 
ATOM     17  C   UNL     1       5.386  44.186  51.179  1.00  0.00     0.082 A 
ATOM     18  N   UNL     1       4.803  42.227  50.373  1.00  0.00    -0.250 N 
ATOM     19  C   UNL     1       6.182  43.796  50.083  1.00  0.00     0.149 A 
ATOM     20  N   UNL     1       5.848  42.596  49.601  1.00  0.00    -0.179 NA
ATOM     21  C   UNL     1       4.127  40.985  50.098  1.00  0.00     0.176 C 
BRANCH  15  22
ATOM     22  N   UNL     1       6.156  46.361  51.997  1.00  0.00    -0.339 N 
ATOM     23  H   UNL     1       5.697  47.258  51.916  1.00  0.00     0.168 HD
BRANCH  22  24
ATOM     24  C   UNL     1       7.542  46.467  52.246  1.00  0.00     0.043 A 
ATOM     25  C   UNL     1       8.489  46.247  51.235  1.00  0.00     0.026 A 
ATOM     26  C   UNL     1       8.002  46.866  53.530  1.00  0.00    -0.025 A 
ATOM     27  C   UNL     1       9.855  46.364  51.481  1.00  0.00     0.002 A 
ATOM     28  C   UNL     1       9.394  46.952  53.786  1.00  0.00    -0.046 A 
ATOM     29  C   UNL     1      10.304  46.709  52.748  1.00  0.00     0.004 A 
ATOM     30  C   UNL     1       7.011  47.156  54.634  1.00  0.00     0.047 C 
ATOM     31  C   UNL     1       9.941  47.320  55.141  1.00  0.00     0.044 C 
ENDBRANCH  22  24
ENDBRANCH  15  22
ENDBRANCH   1  12
TORSDOF 6
ENDMDL
MODEL 3
REMARK VINA RESULT:    -9.643      1.876      5.110
REMARK INTER + INTRA:         -13.684
REMARK INTER:                 -12.802
REMARK INTRA:                  -0.881
REMARK UNBOUND:                -0.658
REMARK SMILES Cc1cccc(Nc2nc(NCC[NH+]3CCOCC3)nc3c2cnn3C)c1C
REMARK SMILES IDX 11 1 12 3 13 4 14 5 15 6 19 7 16 8 18 9 17 10 10 12 9 13
REMARK SMILES IDX 20 14 8 15 21 16 22 17 25 18 23 19 24 20 26 21 7 22 6 24
REMARK SMILES IDX 5 25 27 26 4 27 2 28 3 29 28 30 1 31
REMARK H PARENT 11 2 14 11 7 23
ROOT
ATOM      1  N   UNL     1       4.769  47.400  54.958  1.00  0.00    -0.348 N 
ATOM      2  H   UNL     1       5.096  47.499  55.917  1.00  0.00     0.163 HD
ENDROOT
BRANCH   1   3
ATOM      3  C   UNL     1       3.570  46.623  54.719  1.00  0.00     0.177 C 
BRANCH   3   4
ATOM      4  C   UNL     1       3.556  45.292  55.502  1.00  0.00     0.283 C 
BRANCH   4   5
ATOM      5  N   UNL     1       2.161  44.694  55.604  1.00  0.00    -0.330 N 
ATOM      6  C   UNL     1       1.563  44.474  54.211  1.00  0.00     0.291 C 
ATOM      7  C   UNL     1       1.206  45.543  56.443  1.00  0.00     0.291 C 
ATOM      8  C   UNL     1       0.158  43.880  54.341  1.00  0.00     0.221 C 
ATOM      9  C   UNL     1      -0.185  44.896  56.454  1.00  0.00     0.221 C 
ATOM     10  O   UNL     1      -0.686  44.730  55.124  1.00  0.00    -0.370 OA
ATOM     11  H   UNL     1       2.240  43.769  56.046  1.00  0.00     0.348 HD
ENDBRANCH   4   5
ENDBRANCH   3   4
ENDBRANCH   1   3
BRANCH   1  12
ATOM     12  C   UNL     1       5.881  47.075  54.198  1.00  0.00     0.226 A 
ATOM     13  N   UNL     1       5.592  46.536  53.007  1.00  0.00    -0.195 NA
ATOM     14  N   UNL     1       7.105  47.384  54.649  1.00  0.00    -0.193 NA
ATOM     15  C   UNL     1       6.579  46.173  52.143  1.00  0.00     0.147 A 
ATOM     16  C   UNL     1       8.072  47.003  53.797  1.00  0.00     0.165 A 
ATOM     17  C   UNL     1       7.894  46.416  52.557  1.00  0.00     0.082 A 
ATOM     18  N   UNL     1       9.427  47.106  53.972  1.00  0.00    -0.250 N 
ATOM     19  C   UNL     1       9.202  46.246  52.059  1.00  0.00     0.149 A 
ATOM     20  N   UNL     1      10.139  46.684  52.905  1.00  0.00    -0.179 NA
ATOM     21  C   UNL     1      10.124  47.597  55.134  1.00  0.00     0.176 C 
BRANCH  15  22
ATOM     22  N   UNL     1       6.289  45.641  50.880  1.00  0.00    -0.339 N 
ATOM     23  H   UNL     1       6.221  46.331  50.146  1.00  0.00     0.168 HD
BRANCH  22  24
ATOM     24  C   UNL     1       6.288  44.313  50.397  1.00  0.00     0.043 A 
ATOM     25  C   UNL     1       7.381  43.786  49.695  1.00  0.00     0.026 A 
ATOM     26  C   UNL     1       5.186  43.460  50.675  1.00  0.00    -0.025 A 
ATOM     27  C   UNL     1       7.382  42.473  49.231  1.00  0.00     0.002 A 
ATOM     28  C   UNL     1       5.176  42.134  50.173  1.00  0.00    -0.046 A 
ATOM     29  C   UNL     1       6.286  41.654  49.464  1.00  0.00     0.004 A 
ATOM     30  C   UNL     1       4.008  43.977  51.469  1.00  0.00     0.047 C 
ATOM     31  C   UNL     1       4.014  41.200  50.392  1.00  0.00     0.044 C 
ENDBRANCH  22  24
ENDBRANCH  15  22
ENDBRANCH   1  12
TORSDOF 6
ENDMDL
MODEL 4
REMARK VINA RESULT:    -9.578      1.548      2.057
REMARK INTER + INTRA:         -13.595
REMARK INTER:                 -12.723
REMARK INTRA:                  -0.872
REMARK UNBOUND:                -0.658
REMARK SMILES Cc1cccc(Nc2nc(NCC[NH+]3CCOCC3)nc3c2cnn3C)c1C
REMARK SMILES IDX 11 1 12 3 13 4 14 5 15 6 19 7 16 8 18 9 17 10 10 12 9 13
REMARK SMILES IDX 20 14 8 15 21 16 22 17 25 18 23 19 24 20 26 21 7 22 6 24
REMARK SMILES IDX 5 25 27 26 4 27 2 28 3 29 28 30 1 31
REMARK H PARENT 11 2 14 11 7 23
ROOT
ATOM      1  N   UNL     1       2.604  44.220  54.122  1.00  0.00    -0.348 N 
ATOM      2  H   UNL     1       2.189  43.294  54.210  1.00  0.00     0.163 HD
ENDROOT
BRANCH   1   3
ATOM      3  C   UNL     1       1.722  45.369  54.122  1.00  0.00     0.177 C 
BRANCH   3   4
ATOM      4  C   UNL     1       1.136  45.671  52.726  1.00  0.00     0.283 C 
BRANCH   4   5
ATOM      5  N   UNL     1      -0.182  44.952  52.482  1.00  0.00    -0.330 N 
ATOM      6  C   UNL     1      -0.845  44.571  53.809  1.00  0.00     0.291 C 
ATOM      7  C   UNL     1      -0.030  43.705  51.610  1.00  0.00     0.291 C 
ATOM      8  C   UNL     1      -2.164  43.842  53.537  1.00  0.00     0.221 C 
ATOM      9  C   UNL     1      -1.391  43.016  51.454  1.00  0.00     0.221 C 
ATOM     10  O   UNL     1      -1.947  42.680  52.730  1.00  0.00    -0.370 OA
ATOM     11  H   UNL     1      -0.819  45.601  52.003  1.00  0.00     0.348 HD
ENDBRANCH   4   5
ENDBRANCH   3   4
ENDBRANCH   1   3
BRANCH   1  12
ATOM     12  C   UNL     1       3.520  44.139  53.085  1.00  0.00     0.226 A 
ATOM     13  N   UNL     1       4.356  45.182  53.012  1.00  0.00    -0.195 NA
ATOM     14  N   UNL     1       3.557  43.041  52.318  1.00  0.00    -0.193 NA
ATOM     15  C   UNL     1       5.318  45.243  52.051  1.00  0.00     0.147 A 
ATOM     16  C   UNL     1       4.497  43.121  51.360  1.00  0.00     0.165 A 
ATOM     17  C   UNL     1       5.396  44.155  51.173  1.00  0.00     0.082 A 
ATOM     18  N   UNL     1       4.761  42.211  50.372  1.00  0.00    -0.250 N 
ATOM     19  C   UNL     1       6.177  43.746  50.073  1.00  0.00     0.149 A 
ATOM     20  N   UNL     1       5.811  42.553  49.594  1.00  0.00    -0.179 NA
ATOM     21  C   UNL     1       4.055  40.985  50.100  1.00  0.00     0.176 C 
BRANCH  15  22
ATOM     22  N   UNL     1       6.222  46.311  51.986  1.00  0.00    -0.339 N 
ATOM     23  H   UNL     1       5.785  47.221  51.945  1.00  0.00     0.168 HD
BRANCH  22  24
ATOM     24  C   UNL     1       7.619  46.375  52.186  1.00  0.00     0.043 A 
ATOM     25  C   UNL     1       8.523  46.098  51.150  1.00  0.00     0.026 A 
ATOM     26  C   UNL     1       8.136  46.788  53.444  1.00  0.00    -0.025 A 
ATOM     27  C   UNL     1       9.900  46.174  51.347  1.00  0.00     0.002 A 
ATOM     28  C   UNL     1       9.538  46.833  53.651  1.00  0.00    -0.046 A 
ATOM     29  C   UNL     1      10.403  46.534  52.590  1.00  0.00     0.004 A 
ATOM     30  C   UNL     1       7.193  47.139  54.572  1.00  0.00     0.047 C 
ATOM     31  C   UNL     1      10.143  47.214  54.977  1.00  0.00     0.044 C 
ENDBRANCH  22  24
ENDBRANCH  15  22
ENDBRANCH   1  12
TORSDOF 6
ENDMDL
MODEL 5
REMARK VINA RESULT:    -9.464      3.090      6.542
REMARK INTER + INTRA:         -13.441
REMARK INTER:                 -12.527
REMARK INTRA:                  -0.914
REMARK UNBOUND:                -0.658
REMARK SMILES Cc1cccc(Nc2nc(NCC[NH+]3CCOCC3)nc3c2cnn3C)c1C
REMARK SMILES IDX 11 1 12 3 13 4 14 5 15 6 19 7 16 8 18 9 17 10 10 12 9 13
REMARK SMILES IDX 20 14 8 15 21 16 22 17 25 18 23 19 24 20 26 21 7 22 6 24
REMARK SMILES IDX 5 25 27 26 4 27 2 28 3 29 28 30 1 31
REMARK H PARENT 11 2 14 11 7 23
ROOT
ATOM      1  N   UNL     1       4.263  41.382  51.212  1.00  0.00    -0.348 N 
ATOM      2  H   UNL     1       5.206  41.198  51.550  1.00  0.00     0.163 HD
ENDROOT
BRANCH   1   3
ATOM      3  C   UNL     1       3.991  41.193  49.802  1.00  0.00     0.177 C 
BRANCH   3   4
ATOM      4  C   UNL     1       5.273  41.195  48.941  1.00  0.00     0.283 C 
BRANCH   4   5
ATOM      5  N   UNL     1       5.001  40.809  47.496  1.00  0.00    -0.330 N 
ATOM      6  C   UNL     1       5.469  41.912  46.542  1.00  0.00     0.291 C 
ATOM      7  C   UNL     1       3.529  40.492  47.227  1.00  0.00     0.291 C 
ATOM      8  C   UNL     1       5.177  41.504  45.096  1.00  0.00     0.221 C 
ATOM      9  C   UNL     1       3.335  40.160  45.743  1.00  0.00     0.221 C 
ATOM     10  O   UNL     1       3.783  41.237  44.913  1.00  0.00    -0.370 OA
ATOM     11  H   UNL     1       5.553  39.970  47.278  1.00  0.00     0.348 HD
ENDBRANCH   4   5
ENDBRANCH   3   4
ENDBRANCH   1   3
BRANCH   1  12
ATOM     12  C   UNL     1       3.881  42.595  51.762  1.00  0.00     0.226 A 
ATOM     13  N   UNL     1       4.756  43.588  51.557  1.00  0.00    -0.195 NA
ATOM     14  N   UNL     1       2.686  42.706  52.358  1.00  0.00    -0.193 NA
ATOM     15  C   UNL     1       4.516  44.842  52.028  1.00  0.00     0.147 A 
ATOM     16  C   UNL     1       2.469  43.942  52.837  1.00  0.00     0.165 A 
ATOM     17  C   UNL     1       3.308  45.035  52.709  1.00  0.00     0.082 A 
ATOM     18  N   UNL     1       1.387  44.383  53.552  1.00  0.00    -0.250 N 
ATOM     19  C   UNL     1       2.616  46.085  53.347  1.00  0.00     0.149 A 
ATOM     20  N   UNL     1       1.437  45.701  53.843  1.00  0.00    -0.179 NA
ATOM     21  C   UNL     1       0.260  43.605  54.001  1.00  0.00     0.176 C 
BRANCH  15  22
ATOM     22  N   UNL     1       5.406  45.897  51.790  1.00  0.00    -0.339 N 
ATOM     23  H   UNL     1       5.033  46.629  51.202  1.00  0.00     0.168 HD
BRANCH  22  24
ATOM     24  C   UNL     1       6.640  46.239  52.388  1.00  0.00     0.043 A 
ATOM     25  C   UNL     1       6.707  46.762  53.687  1.00  0.00     0.026 A 
ATOM     26  C   UNL     1       7.855  45.997  51.691  1.00  0.00    -0.025 A 
ATOM     27  C   UNL     1       7.926  47.087  54.278  1.00  0.00     0.002 A 
ATOM     28  C   UNL     1       9.092  46.359  52.282  1.00  0.00    -0.046 A 
ATOM     29  C   UNL     1       9.109  46.892  53.579  1.00  0.00     0.004 A 
ATOM     30  C   UNL     1       7.827  45.392  50.306  1.00  0.00     0.047 C 
ATOM     31  C   UNL     1      10.407  46.173  51.571  1.00  0.00     0.044 C 
ENDBRANCH  22  24
ENDBRANCH  15  22
ENDBRANCH   1  12
TORSDOF 6
ENDMDL
MODEL 6
REMARK VINA RESULT:    -9.460      1.827      2.380
REMARK INTER + INTRA:         -13.436
REMARK INTER:                 -12.824
REMARK INTRA:                  -0.611
REMARK UNBOUND:                -0.658
REMARK SMILES Cc1cccc(Nc2nc(NCC[NH+]3CCOCC3)nc3c2cnn3C)c1C
REMARK SMILES IDX 11 1 12 3 13 4 14 5 15 6 19 7 16 8 18 9 17 10 10 12 9 13
REMARK SMILES IDX 20 14 8 15 21 16 22 17 25 18 23 19 24 20 26 21 7 22 6 24
REMARK SMILES IDX 5 25 27 26 4 27 2 28 3 29 28 30 1 31
REMARK H PARENT 11 2 14 11 7 23
ROOT
ATOM      1  N   UNL     1       3.222  42.853  53.096  1.00  0.00    -0.348 N 
ATOM      2  H   UNL     1       3.302  41.847  53.230  1.00  0.00     0.163 HD
ENDROOT
BRANCH   1   3
ATOM      3  C   UNL     1       1.904  43.414  52.885  1.00  0.00     0.177 C 
BRANCH   3   4
ATOM      4  C   UNL     1       1.453  44.333  54.041  1.00  0.00     0.283 C 
BRANCH   4   5
ATOM      5  N   UNL     1       2.055  45.726  53.943  1.00  0.00    -0.330 N 
ATOM      6  C   UNL     1       2.279  46.118  52.480  1.00  0.00     0.291 C 
ATOM      7  C   UNL     1       3.367  45.867  54.717  1.00  0.00     0.291 C 
ATOM      8  C   UNL     1       2.893  47.519  52.409  1.00  0.00     0.221 C 
ATOM      9  C   UNL     1       3.929  47.281  54.527  1.00  0.00     0.221 C 
ATOM     10  O   UNL     1       4.122  47.575  53.140  1.00  0.00    -0.370 OA
ATOM     11  H   UNL     1       1.381  46.396  54.334  1.00  0.00     0.348 HD
ENDBRANCH   4   5
ENDBRANCH   3   4
ENDBRANCH   1   3
BRANCH   1  12
ATOM     12  C   UNL     1       4.201  43.204  52.180  1.00  0.00     0.226 A 
ATOM     13  N   UNL     1       4.844  44.341  52.474  1.00  0.00    -0.195 NA
ATOM     14  N   UNL     1       4.478  42.381  51.159  1.00  0.00    -0.193 NA
ATOM     15  C   UNL     1       5.838  44.811  51.674  1.00  0.00     0.147 A 
ATOM     16  C   UNL     1       5.448  42.866  50.364  1.00  0.00     0.165 A 
ATOM     17  C   UNL     1       6.161  44.035  50.554  1.00  0.00     0.082 A 
ATOM     18  N   UNL     1       5.929  42.317  49.205  1.00  0.00    -0.250 N 
ATOM     19  C   UNL     1       7.069  44.071  49.476  1.00  0.00     0.149 A 
ATOM     20  N   UNL     1       6.949  43.017  48.663  1.00  0.00    -0.179 NA
ATOM     21  C   UNL     1       5.468  41.122  48.546  1.00  0.00     0.176 C 
BRANCH  15  22
ATOM     22  N   UNL     1       6.543  45.981  51.990  1.00  0.00    -0.339 N 
ATOM     23  H   UNL     1       5.954  46.771  52.211  1.00  0.00     0.168 HD
BRANCH  22  24
ATOM     24  C   UNL     1       7.908  46.209  52.271  1.00  0.00     0.043 A 
ATOM     25  C   UNL     1       8.899  46.026  51.297  1.00  0.00     0.026 A 
ATOM     26  C   UNL     1       8.295  46.697  53.549  1.00  0.00    -0.025 A 
ATOM     27  C   UNL     1      10.243  46.264  51.573  1.00  0.00     0.002 A 
ATOM     28  C   UNL     1       9.667  46.907  53.838  1.00  0.00    -0.046 A 
ATOM     29  C   UNL     1      10.625  46.697  52.836  1.00  0.00     0.004 A 
ATOM     30  C   UNL     1       7.251  46.952  54.612  1.00  0.00     0.047 C 
ATOM     31  C   UNL     1      10.141  47.374  55.189  1.00  0.00     0.044 C 
ENDBRANCH  22  24
ENDBRANCH  15  22
ENDBRANCH   1  12
TORSDOF 6
ENDMDL
MODEL 7
REMARK VINA RESULT:    -9.400      3.166      6.278
REMARK INTER + INTRA:         -13.355
REMARK INTER:                 -12.500
REMARK INTRA:                  -0.855
REMARK UNBOUND:                -0.658
REMARK SMILES Cc1cccc(Nc2nc(NCC[NH+]3CCOCC3)nc3c2cnn3C)c1C
REMARK SMILES IDX 11 1 12 3 13 4 14 5 15 6 19 7 16 8 18 9 17 10 10 12 9 13
REMARK SMILES IDX 20 14 8 15 21 16 22 17 25 18 23 19 24 20 26 21 7 22 6 24
REMARK SMILES IDX 5 25 27 26 4 27 2 28 3 29 28 30 1 31
REMARK H PARENT 11 2 14 11 7 23
ROOT
ATOM      1  N   UNL     1       4.324  41.651  51.211  1.00  0.00    -0.348 N 
ATOM      2  H   UNL     1       5.218  41.420  51.640  1.00  0.00     0.163 HD
ENDROOT
BRANCH   1   3
ATOM      3  C   UNL     1       4.069  41.182  49.864  1.00  0.00     0.177 C 
BRANCH   3   4
ATOM      4  C   UNL     1       5.335  41.187  48.981  1.00  0.00     0.283 C 
BRANCH   4   5
ATOM      5  N   UNL     1       5.038  40.797  47.541  1.00  0.00    -0.330 N 
ATOM      6  C   UNL     1       5.460  41.912  46.579  1.00  0.00     0.291 C 
ATOM      7  C   UNL     1       3.568  40.448  47.306  1.00  0.00     0.291 C 
ATOM      8  C   UNL     1       5.144  41.499  45.139  1.00  0.00     0.221 C 
ATOM      9  C   UNL     1       3.347  40.115  45.825  1.00  0.00     0.221 C 
ATOM     10  O   UNL     1       3.752  41.202  44.988  1.00  0.00    -0.370 OA
ATOM     11  H   UNL     1       5.604  39.970  47.308  1.00  0.00     0.348 HD
ENDBRANCH   4   5
ENDBRANCH   3   4
ENDBRANCH   1   3
BRANCH   1  12
ATOM     12  C   UNL     1       4.114  43.000  51.449  1.00  0.00     0.226 A 
ATOM     13  N   UNL     1       5.155  43.780  51.133  1.00  0.00    -0.195 NA
ATOM     14  N   UNL     1       2.916  43.418  51.880  1.00  0.00    -0.193 NA
ATOM     15  C   UNL     1       5.097  45.129  51.302  1.00  0.00     0.147 A 
ATOM     16  C   UNL     1       2.877  44.749  52.063  1.00  0.00     0.165 A 
ATOM     17  C   UNL     1       3.894  45.647  51.796  1.00  0.00     0.082 A 
ATOM     18  N   UNL     1       1.837  45.494  52.553  1.00  0.00    -0.250 N 
ATOM     19  C   UNL     1       3.346  46.905  52.123  1.00  0.00     0.149 A 
ATOM     20  N   UNL     1       2.088  46.821  52.563  1.00  0.00    -0.179 NA
ATOM     21  C   UNL     1       0.568  45.014  53.035  1.00  0.00     0.176 C 
BRANCH  15  22
ATOM     22  N   UNL     1       6.166  45.959  50.941  1.00  0.00    -0.339 N 
ATOM     23  H   UNL     1       5.890  46.812  50.475  1.00  0.00     0.168 HD
BRANCH  22  24
ATOM     24  C   UNL     1       7.534  45.939  51.295  1.00  0.00     0.043 A 
ATOM     25  C   UNL     1       8.490  45.299  50.494  1.00  0.00     0.026 A 
ATOM     26  C   UNL     1       7.975  46.632  52.455  1.00  0.00    -0.025 A 
ATOM     27  C   UNL     1       9.840  45.291  50.839  1.00  0.00     0.002 A 
ATOM     28  C   UNL     1       9.344  46.595  52.821  1.00  0.00    -0.046 A 
ATOM     29  C   UNL     1      10.263  45.930  51.996  1.00  0.00     0.004 A 
ATOM     30  C   UNL     1       6.981  47.373  53.319  1.00  0.00     0.047 C 
ATOM     31  C   UNL     1       9.862  47.268  54.065  1.00  0.00     0.044 C 
ENDBRANCH  22  24
ENDBRANCH  15  22
ENDBRANCH   1  12
TORSDOF 6
ENDMDL
MODEL 8
REMARK VINA RESULT:    -9.222      2.786      6.979
REMARK INTER + INTRA:         -13.115
REMARK INTER:                 -12.258
REMARK INTRA:                  -0.856
REMARK UNBOUND:                -0.658
REMARK SMILES Cc1cccc(Nc2nc(NCC[NH+]3CCOCC3)nc3c2cnn3C)c1C
REMARK SMILES IDX 11 1 12 3 13 4 14 5 15 6 19 7 16 8 18 9 17 10 10 12 9 13
REMARK SMILES IDX 20 14 8 15 21 16 22 17 25 18 23 19 24 20 26 21 7 22 6 24
REMARK SMILES IDX 5 25 27 26 4 27 2 28 3 29 28 30 1 31
REMARK H PARENT 11 2 14 11 7 23
ROOT
ATOM      1  N   UNL     1       4.257  45.882  55.719  1.00  0.00    -0.348 N 
ATOM      2  H   UNL     1       4.027  46.858  55.897  1.00  0.00     0.163 HD
ENDROOT
BRANCH   1   3
ATOM      3  C   UNL     1       5.572  45.571  55.199  1.00  0.00     0.177 C 
BRANCH   3   4
ATOM      4  C   UNL     1       6.252  46.784  54.528  1.00  0.00     0.283 C 
BRANCH   4   5
ATOM      5  N   UNL     1       7.671  46.478  54.077  1.00  0.00    -0.330 N 
ATOM      6  C   UNL     1       8.662  47.471  54.692  1.00  0.00     0.291 C 
ATOM      7  C   UNL     1       7.829  46.472  52.556  1.00  0.00     0.291 C 
ATOM      8  C   UNL     1      10.081  47.146  54.217  1.00  0.00     0.221 C 
ATOM      9  C   UNL     1       9.294  46.203  52.190  1.00  0.00     0.221 C 
ATOM     10  O   UNL     1      10.159  47.173  52.788  1.00  0.00    -0.370 OA
ATOM     11  H   UNL     1       7.925  45.545  54.428  1.00  0.00     0.348 HD
ENDBRANCH   4   5
ENDBRANCH   3   4
ENDBRANCH   1   3
BRANCH   1  12
ATOM     12  C   UNL     1       3.176  45.346  55.036  1.00  0.00     0.226 A 
ATOM     13  N   UNL     1       3.457  44.957  53.787  1.00  0.00    -0.195 NA
ATOM     14  N   UNL     1       2.006  45.187  55.670  1.00  0.00    -0.193 NA
ATOM     15  C   UNL     1       2.500  44.402  52.994  1.00  0.00     0.147 A 
ATOM     16  C   UNL     1       1.063  44.657  54.871  1.00  0.00     0.165 A 
ATOM     17  C   UNL     1       1.230  44.243  53.562  1.00  0.00     0.082 A 
ATOM     18  N   UNL     1      -0.252  44.421  55.174  1.00  0.00    -0.250 N 
ATOM     19  C   UNL     1      -0.033  43.740  53.189  1.00  0.00     0.149 A 
ATOM     20  N   UNL     1      -0.934  43.825  54.172  1.00  0.00    -0.179 NA
ATOM     21  C   UNL     1      -0.936  44.738  56.401  1.00  0.00     0.176 C 
BRANCH  15  22
ATOM     22  N   UNL     1       2.790  43.958  51.697  1.00  0.00    -0.339 N 
ATOM     23  H   UNL     1       2.168  44.320  50.987  1.00  0.00     0.168 HD
BRANCH  22  24
ATOM     24  C   UNL     1       3.909  43.282  51.162  1.00  0.00     0.043 A 
ATOM     25  C   UNL     1       3.938  41.885  51.050  1.00  0.00     0.026 A 
ATOM     26  C   UNL     1       5.014  44.025  50.664  1.00  0.00    -0.025 A 
ATOM     27  C   UNL     1       5.038  41.221  50.511  1.00  0.00     0.002 A 
ATOM     28  C   UNL     1       6.145  43.346  50.147  1.00  0.00    -0.046 A 
ATOM     29  C   UNL     1       6.135  41.946  50.067  1.00  0.00     0.004 A 
ATOM     30  C   UNL     1       5.001  45.536  50.726  1.00  0.00     0.047 C 
ATOM     31  C   UNL     1       7.365  44.078  49.652  1.00  0.00     0.044 C 
ENDBRANCH  22  24
ENDBRANCH  15  22
ENDBRANCH   1  12
TORSDOF 6
ENDMDL
MODEL 9
REMARK VINA RESULT:    -9.036      2.104      5.663
REMARK INTER + INTRA:         -12.864
REMARK INTER:                 -11.981
REMARK INTRA:                  -0.883
REMARK UNBOUND:                -0.658
REMARK SMILES Cc1cccc(Nc2nc(NCC[NH+]3CCOCC3)nc3c2cnn3C)c1C
REMARK SMILES IDX 11 1 12 3 13 4 14 5 15 6 19 7 16 8 18 9 17 10 10 12 9 13
REMARK SMILES IDX 20 14 8 15 21 16 22 17 25 18 23 19 24 20 26 21 7 22 6 24
REMARK SMILES IDX 5 25 27 26 4 27 2 28 3 29 28 30 1 31
REMARK H PARENT 11 2 14 11 7 23
ROOT
ATOM      1  N   UNL     1       4.445  46.920  55.043  1.00  0.00    -0.348 N 
ATOM      2  H   UNL     1       4.627  47.610  55.769  1.00  0.00     0.163 HD
ENDROOT
BRANCH   1   3
ATOM      3  C   UNL     1       3.719  45.720  55.405  1.00  0.00     0.177 C 
BRANCH   3   4
ATOM      4  C   UNL     1       2.244  45.755  54.951  1.00  0.00     0.283 C 
BRANCH   4   5
ATOM      5  N   UNL     1       1.981  44.844  53.762  1.00  0.00    -0.330 N 
ATOM      6  C   UNL     1       1.445  45.646  52.572  1.00  0.00     0.291 C 
ATOM      7  C   UNL     1       1.019  43.700  54.084  1.00  0.00     0.291 C 
ATOM      8  C   UNL     1       1.181  44.706  51.392  1.00  0.00     0.221 C 
ATOM      9  C   UNL     1       0.773  42.862  52.824  1.00  0.00     0.221 C 
ATOM     10  O   UNL     1       0.263  43.671  51.759  1.00  0.00    -0.370 OA
ATOM     11  H   UNL     1       2.877  44.434  53.467  1.00  0.00     0.348 HD
ENDBRANCH   4   5
ENDBRANCH   3   4
ENDBRANCH   1   3
BRANCH   1  12
ATOM     12  C   UNL     1       5.641  46.743  54.365  1.00  0.00     0.226 A 
ATOM     13  N   UNL     1       5.533  46.015  53.247  1.00  0.00    -0.195 NA
ATOM     14  N   UNL     1       6.750  47.350  54.809  1.00  0.00    -0.193 NA
ATOM     15  C   UNL     1       6.619  45.762  52.467  1.00  0.00     0.147 A 
ATOM     16  C   UNL     1       7.821  47.077  54.043  1.00  0.00     0.165 A 
ATOM     17  C   UNL     1       7.833  46.320  52.885  1.00  0.00     0.082 A 
ATOM     18  N   UNL     1       9.115  47.478  54.243  1.00  0.00    -0.250 N 
ATOM     19  C   UNL     1       9.174  46.365  52.452  1.00  0.00     0.149 A 
ATOM     20  N   UNL     1       9.955  47.086  53.262  1.00  0.00    -0.179 NA
ATOM     21  C   UNL     1       9.632  48.239  55.351  1.00  0.00     0.176 C 
BRANCH  15  22
ATOM     22  N   UNL     1       6.513  45.032  51.276  1.00  0.00    -0.339 N 
ATOM     23  H   UNL     1       7.198  45.279  50.577  1.00  0.00     0.168 HD
BRANCH  22  24
ATOM     24  C   UNL     1       5.777  43.872  50.947  1.00  0.00     0.043 A 
ATOM     25  C   UNL     1       4.680  43.455  51.715  1.00  0.00     0.026 A 
ATOM     26  C   UNL     1       6.105  43.135  49.777  1.00  0.00    -0.025 A 
ATOM     27  C   UNL     1       3.948  42.318  51.380  1.00  0.00     0.002 A 
ATOM     28  C   UNL     1       5.379  41.960  49.457  1.00  0.00    -0.046 A 
ATOM     29  C   UNL     1       4.298  41.573  50.262  1.00  0.00     0.004 A 
ATOM     30  C   UNL     1       7.251  43.578  48.897  1.00  0.00     0.047 C 
ATOM     31  C   UNL     1       5.713  41.110  48.258  1.00  0.00     0.044 C 
ENDBRANCH  22  24
ENDBRANCH  15  22
ENDBRANCH   1  12
TORSDOF 6
ENDMDL
MODEL 10
REMARK VINA RESULT:    -8.855      1.760      2.968
REMARK INTER + INTRA:         -12.619
REMARK INTER:                 -11.745
REMARK INTRA:                  -0.875
REMARK UNBOUND:                -0.658
REMARK SMILES Cc1cccc(Nc2nc(NCC[NH+]3CCOCC3)nc3c2cnn3C)c1C
REMARK SMILES IDX 11 1 12 3 13 4 14 5 15 6 19 7 16 8 18 9 17 10 10 12 9 13
REMARK SMILES IDX 20 14 8 15 21 16 22 17 25 18 23 19 24 20 26 21 7 22 6 24
REMARK SMILES IDX 5 25 27 26 4 27 2 28 3 29 28 30 1 31
REMARK H PARENT 11 2 14 11 7 23
ROOT
ATOM      1  N   UNL     1       2.721  46.032  56.069  1.00  0.00    -0.348 N 
ATOM      2  H   UNL     1       3.518  46.121  56.697  1.00  0.00     0.163 HD
ENDROOT
BRANCH   1   3
ATOM      3  C   UNL     1       1.577  45.265  56.518  1.00  0.00     0.177 C 
BRANCH   3   4
ATOM      4  C   UNL     1       0.306  46.128  56.680  1.00  0.00     0.283 C 
BRANCH   4   5
ATOM      5  N   UNL     1      -0.904  45.511  55.997  1.00  0.00    -0.330 N 
ATOM      6  C   UNL     1      -1.597  44.508  56.925  1.00  0.00     0.291 C 
ATOM      7  C   UNL     1      -0.562  44.830  54.672  1.00  0.00     0.291 C 
ATOM      8  C   UNL     1      -2.806  43.895  56.212  1.00  0.00     0.221 C 
ATOM      9  C   UNL     1      -1.824  44.195  54.076  1.00  0.00     0.221 C 
ATOM     10  O   UNL     1      -2.412  43.264  54.990  1.00  0.00    -0.370 OA
ATOM     11  H   UNL     1      -1.582  46.260  55.806  1.00  0.00     0.348 HD
ENDBRANCH   4   5
ENDBRANCH   3   4
ENDBRANCH   1   3
BRANCH   1  12
ATOM     12  C   UNL     1       3.238  45.705  54.825  1.00  0.00     0.226 A 
ATOM     13  N   UNL     1       4.237  46.500  54.423  1.00  0.00    -0.195 NA
ATOM     14  N   UNL     1       2.783  44.621  54.182  1.00  0.00    -0.193 NA
ATOM     15  C   UNL     1       4.854  46.299  53.227  1.00  0.00     0.147 A 
ATOM     16  C   UNL     1       3.384  44.444  52.994  1.00  0.00     0.165 A 
ATOM     17  C   UNL     1       4.405  45.213  52.465  1.00  0.00     0.082 A 
ATOM     18  N   UNL     1       3.118  43.481  52.057  1.00  0.00    -0.250 N 
ATOM     19  C   UNL     1       4.702  44.601  51.230  1.00  0.00     0.149 A 
ATOM     20  N   UNL     1       3.937  43.533  50.985  1.00  0.00    -0.179 NA
ATOM     21  C   UNL     1       2.092  42.470  52.111  1.00  0.00     0.176 C 
BRANCH  15  22
ATOM     22  N   UNL     1       5.924  47.102  52.810  1.00  0.00    -0.339 N 
ATOM     23  H   UNL     1       5.646  47.943  52.324  1.00  0.00     0.168 HD
BRANCH  22  24
ATOM     24  C   UNL     1       7.300  47.074  53.126  1.00  0.00     0.043 A 
ATOM     25  C   UNL     1       7.778  47.514  54.369  1.00  0.00     0.026 A 
ATOM     26  C   UNL     1       8.229  46.530  52.197  1.00  0.00    -0.025 A 
ATOM     27  C   UNL     1       9.134  47.474  54.683  1.00  0.00     0.002 A 
ATOM     28  C   UNL     1       9.613  46.521  52.506  1.00  0.00    -0.046 A 
ATOM     29  C   UNL     1      10.046  46.985  53.756  1.00  0.00     0.004 A 
ATOM     30  C   UNL     1       7.748  46.003  50.865  1.00  0.00     0.047 C 
ATOM     31  C   UNL     1      10.648  46.005  51.541  1.00  0.00     0.044 C 
ENDBRANCH  22  24
ENDBRANCH  15  22
ENDBRANCH   1  12
TORSDOF 6
ENDMDL
MODEL 11
REMARK VINA RESULT:    -8.776      2.034      3.362
REMARK INTER + INTRA:         -12.513
REMARK INTER:                 -11.815
REMARK INTRA:                  -0.697
REMARK UNBOUND:                -0.658
REMARK SMILES Cc1cccc(Nc2nc(NCC[NH+]3CCOCC3)nc3c2cnn3C)c1C
REMARK SMILES IDX 11 1 12 3 13 4 14 5 15 6 19 7 16 8 18 9 17 10 10 12 9 13
REMARK SMILES IDX 20 14 8 15 21 16 22 17 25 18 23 19 24 20 26 21 7 22 6 24
REMARK SMILES IDX 5 25 27 26 4 27 2 28 3 29 28 30 1 31
REMARK H PARENT 11 2 14 11 7 23
ROOT
ATOM      1  N   UNL     1       2.782  46.093  56.114  1.00  0.00    -0.348 N 
ATOM      2  H   UNL     1       3.603  46.213  56.705  1.00  0.00     0.163 HD
ENDROOT
BRANCH   1   3
ATOM      3  C   UNL     1       1.673  45.319  56.632  1.00  0.00     0.177 C 
BRANCH   3   4
ATOM      4  C   UNL     1       0.321  46.054  56.503  1.00  0.00     0.283 C 
BRANCH   4   5
ATOM      5  N   UNL     1      -0.196  46.557  57.842  1.00  0.00    -0.330 N 
ATOM      6  C   UNL     1      -1.331  47.565  57.640  1.00  0.00     0.291 C 
ATOM      7  C   UNL     1       0.897  47.183  58.708  1.00  0.00     0.291 C 
ATOM      8  C   UNL     1      -1.827  48.062  59.001  1.00  0.00     0.221 C 
ATOM      9  C   UNL     1       0.285  47.705  60.014  1.00  0.00     0.221 C 
ATOM     10  O   UNL     1      -0.759  48.648  59.751  1.00  0.00    -0.370 OA
ATOM     11  H   UNL     1      -0.591  45.758  58.354  1.00  0.00     0.348 HD
ENDBRANCH   4   5
ENDBRANCH   3   4
ENDBRANCH   1   3
BRANCH   1  12
ATOM     12  C   UNL     1       3.253  45.741  54.859  1.00  0.00     0.226 A 
ATOM     13  N   UNL     1       4.250  46.514  54.413  1.00  0.00    -0.195 NA
ATOM     14  N   UNL     1       2.759  44.656  54.247  1.00  0.00    -0.193 NA
ATOM     15  C   UNL     1       4.824  46.287  53.200  1.00  0.00     0.147 A 
ATOM     16  C   UNL     1       3.318  44.454  53.041  1.00  0.00     0.165 A 
ATOM     17  C   UNL     1       4.333  45.199  52.468  1.00  0.00     0.082 A 
ATOM     18  N   UNL     1       3.005  43.482  52.128  1.00  0.00    -0.250 N 
ATOM     19  C   UNL     1       4.578  44.566  51.233  1.00  0.00     0.149 A 
ATOM     20  N   UNL     1       3.788  43.507  51.028  1.00  0.00    -0.179 NA
ATOM     21  C   UNL     1       1.966  42.490  52.229  1.00  0.00     0.176 C 
BRANCH  15  22
ATOM     22  N   UNL     1       5.892  47.067  52.737  1.00  0.00    -0.339 N 
ATOM     23  H   UNL     1       5.612  47.881  52.209  1.00  0.00     0.168 HD
BRANCH  22  24
ATOM     24  C   UNL     1       7.270  47.054  53.048  1.00  0.00     0.043 A 
ATOM     25  C   UNL     1       7.752  47.550  54.268  1.00  0.00     0.026 A 
ATOM     26  C   UNL     1       8.196  46.473  52.140  1.00  0.00    -0.025 A 
ATOM     27  C   UNL     1       9.110  47.525  54.578  1.00  0.00     0.002 A 
ATOM     28  C   UNL     1       9.581  46.479  52.443  1.00  0.00    -0.046 A 
ATOM     29  C   UNL     1      10.018  46.998  53.670  1.00  0.00     0.004 A 
ATOM     30  C   UNL     1       7.710  45.886  50.834  1.00  0.00     0.047 C 
ATOM     31  C   UNL     1      10.613  45.923  51.497  1.00  0.00     0.044 C 
ENDBRANCH  22  24
ENDBRANCH  15  22
ENDBRANCH   1  12
TORSDOF 6
ENDMDL
MODEL 12
REMARK VINA RESULT:    -8.762      2.774      6.921
REMARK INTER + INTRA:         -12.494
REMARK INTER:                 -11.786
REMARK INTRA:                  -0.709
REMARK UNBOUND:                -0.658
REMARK SMILES Cc1cccc(Nc2nc(NCC[NH+]3CCOCC3)nc3c2cnn3C)c1C
REMARK SMILES IDX 11 1 12 3 13 4 14 5 15 6 19 7 16 8 18 9 17 10 10 12 9 13
REMARK SMILES IDX 20 14 8 15 21 16 22 17 25 18 23 19 24 20 26 21 7 22 6 24
REMARK SMILES IDX 5 25 27 26 4 27 2 28 3 29 28 30 1 31
REMARK H PARENT 11 2 14 11 7 23
ROOT
ATOM      1  N   UNL     1       3.860  46.049  55.785  1.00  0.00    -0.348 N 
ATOM      2  H   UNL     1       3.505  46.996  55.909  1.00  0.00     0.163 HD
ENDROOT
BRANCH   1   3
ATOM      3  C   UNL     1       5.220  45.883  55.315  1.00  0.00     0.177 C 
BRANCH   3   4
ATOM      4  C   UNL     1       5.761  47.138  54.596  1.00  0.00     0.283 C 
BRANCH   4   5
ATOM      5  N   UNL     1       7.018  46.847  53.790  1.00  0.00    -0.330 N 
ATOM      6  C   UNL     1       8.272  47.183  54.601  1.00  0.00     0.291 C 
ATOM      7  C   UNL     1       7.057  47.589  52.454  1.00  0.00     0.291 C 
ATOM      8  C   UNL     1       9.522  46.889  53.766  1.00  0.00     0.221 C 
ATOM      9  C   UNL     1       8.373  47.279  51.730  1.00  0.00     0.221 C 
ATOM     10  O   UNL     1       9.500  47.627  52.540  1.00  0.00    -0.370 OA
ATOM     11  H   UNL     1       7.048  45.838  53.595  1.00  0.00     0.348 HD
ENDBRANCH   4   5
ENDBRANCH   3   4
ENDBRANCH   1   3
BRANCH   1  12
ATOM     12  C   UNL     1       2.877  45.351  55.101  1.00  0.00     0.226 A 
ATOM     13  N   UNL     1       3.270  44.876  53.913  1.00  0.00    -0.195 NA
ATOM     14  N   UNL     1       1.688  45.140  55.682  1.00  0.00    -0.193 NA
ATOM     15  C   UNL     1       2.419  44.161  53.127  1.00  0.00     0.147 A 
ATOM     16  C   UNL     1       0.849  44.451  54.890  1.00  0.00     0.165 A 
ATOM     17  C   UNL     1       1.136  43.935  53.639  1.00  0.00     0.082 A 
ATOM     18  N   UNL     1      -0.456  44.120  55.142  1.00  0.00    -0.250 N 
ATOM     19  C   UNL     1      -0.052  43.281  53.250  1.00  0.00     0.149 A 
ATOM     20  N   UNL     1      -1.017  43.371  54.169  1.00  0.00    -0.179 NA
ATOM     21  C   UNL     1      -1.242  44.483  56.293  1.00  0.00     0.176 C 
BRANCH  15  22
ATOM     22  N   UNL     1       2.829  43.628  51.898  1.00  0.00    -0.339 N 
ATOM     23  H   UNL     1       2.073  43.279  51.326  1.00  0.00     0.168 HD
BRANCH  22  24
ATOM     24  C   UNL     1       4.063  43.683  51.214  1.00  0.00     0.043 A 
ATOM     25  C   UNL     1       4.785  44.880  51.095  1.00  0.00     0.026 A 
ATOM     26  C   UNL     1       4.631  42.494  50.682  1.00  0.00    -0.025 A 
ATOM     27  C   UNL     1       6.008  44.928  50.430  1.00  0.00     0.002 A 
ATOM     28  C   UNL     1       5.860  42.552  49.977  1.00  0.00    -0.046 A 
ATOM     29  C   UNL     1       6.539  43.774  49.871  1.00  0.00     0.004 A 
ATOM     30  C   UNL     1       3.906  41.176  50.829  1.00  0.00     0.047 C 
ATOM     31  C   UNL     1       6.485  41.334  49.348  1.00  0.00     0.044 C 
ENDBRANCH  22  24
ENDBRANCH  15  22
ENDBRANCH   1  12
TORSDOF 6
ENDMDL
MODEL 13
REMARK VINA RESULT:    -8.663      1.405      2.235
REMARK INTER + INTRA:         -12.360
REMARK INTER:                 -11.809
REMARK INTRA:                  -0.551
REMARK UNBOUND:                -0.658
REMARK SMILES Cc1cccc(Nc2nc(NCC[NH+]3CCOCC3)nc3c2cnn3C)c1C
REMARK SMILES IDX 11 1 12 3 13 4 14 5 15 6 19 7 16 8 18 9 17 10 10 12 9 13
REMARK SMILES IDX 20 14 8 15 21 16 22 17 25 18 23 19 24 20 26 21 7 22 6 24
REMARK SMILES IDX 5 25 27 26 4 27 2 28 3 29 28 30 1 31
REMARK H PARENT 11 2 14 11 7 23
ROOT
ATOM      1  N   UNL     1       2.242  44.028  54.110  1.00  0.00    -0.348 N 
ATOM      2  H   UNL     1       1.785  43.118  54.133  1.00  0.00     0.163 HD
ENDROOT
BRANCH   1   3
ATOM      3  C   UNL     1       1.413  45.214  54.169  1.00  0.00     0.177 C 
BRANCH   3   4
ATOM      4  C   UNL     1       0.407  45.297  53.001  1.00  0.00     0.283 C 
BRANCH   4   5
ATOM      5  N   UNL     1      -1.029  45.092  53.457  1.00  0.00    -0.330 N 
ATOM      6  C   UNL     1      -1.084  44.788  54.957  1.00  0.00     0.291 C 
ATOM      7  C   UNL     1      -1.751  43.988  52.684  1.00  0.00     0.291 C 
ATOM      8  C   UNL     1      -2.538  44.577  55.389  1.00  0.00     0.221 C 
ATOM      9  C   UNL     1      -3.171  43.814  53.237  1.00  0.00     0.221 C 
ATOM     10  O   UNL     1      -3.146  43.522  54.638  1.00  0.00    -0.370 OA
ATOM     11  H   UNL     1      -1.542  45.971  53.311  1.00  0.00     0.348 HD
ENDBRANCH   4   5
ENDBRANCH   3   4
ENDBRANCH   1   3
BRANCH   1  12
ATOM     12  C   UNL     1       3.173  43.971  53.085  1.00  0.00     0.226 A 
ATOM     13  N   UNL     1       3.970  45.043  53.010  1.00  0.00    -0.195 NA
ATOM     14  N   UNL     1       3.260  42.867  52.330  1.00  0.00    -0.193 NA
ATOM     15  C   UNL     1       4.941  45.130  52.060  1.00  0.00     0.147 A 
ATOM     16  C   UNL     1       4.208  42.972  51.383  1.00  0.00     0.165 A 
ATOM     17  C   UNL     1       5.070  44.037  51.194  1.00  0.00     0.082 A 
ATOM     18  N   UNL     1       4.518  42.062  50.407  1.00  0.00    -0.250 N 
ATOM     19  C   UNL     1       5.879  43.645  50.108  1.00  0.00     0.149 A 
ATOM     20  N   UNL     1       5.563  42.435  49.638  1.00  0.00    -0.179 NA
ATOM     21  C   UNL     1       3.861  40.808  50.141  1.00  0.00     0.176 C 
BRANCH  15  22
ATOM     22  N   UNL     1       5.805  46.231  51.993  1.00  0.00    -0.339 N 
ATOM     23  H   UNL     1       5.396  47.053  51.572  1.00  0.00     0.168 HD
BRANCH  22  24
ATOM     24  C   UNL     1       7.058  46.481  52.595  1.00  0.00     0.043 A 
ATOM     25  C   UNL     1       7.161  46.922  53.922  1.00  0.00     0.026 A 
ATOM     26  C   UNL     1       8.255  46.224  51.871  1.00  0.00    -0.025 A 
ATOM     27  C   UNL     1       8.399  47.156  54.517  1.00  0.00     0.002 A 
ATOM     28  C   UNL     1       9.512  46.493  52.468  1.00  0.00    -0.046 A 
ATOM     29  C   UNL     1       9.566  46.947  53.794  1.00  0.00     0.004 A 
ATOM     30  C   UNL     1       8.186  45.703  50.454  1.00  0.00     0.047 C 
ATOM     31  C   UNL     1      10.811  46.289  51.733  1.00  0.00     0.044 C 
ENDBRANCH  22  24
ENDBRANCH  15  22
ENDBRANCH   1  12
TORSDOF 6
ENDMDL
MODEL 14
REMARK VINA RESULT:    -8.621      2.016      2.980
REMARK INTER + INTRA:         -12.303
REMARK INTER:                 -11.733
REMARK INTRA:                  -0.570
REMARK UNBOUND:                -0.658
REMARK SMILES Cc1cccc(Nc2nc(NCC[NH+]3CCOCC3)nc3c2cnn3C)c1C
REMARK SMILES IDX 11 1 12 3 13 4 14 5 15 6 19 7 16 8 18 9 17 10 10 12 9 13
REMARK SMILES IDX 20 14 8 15 21 16 22 17 25 18 23 19 24 20 26 21 7 22 6 24
REMARK SMILES IDX 5 25 27 26 4 27 2 28 3 29 28 30 1 31
REMARK H PARENT 11 2 14 11 7 23
ROOT
ATOM      1  N   UNL     1       2.396  44.566  54.585  1.00  0.00    -0.348 N 
ATOM      2  H   UNL     1       2.398  43.672  55.072  1.00  0.00     0.163 HD
ENDROOT
BRANCH   1   3
ATOM      3  C   UNL     1       1.120  45.191  54.306  1.00  0.00     0.177 C 
BRANCH   3   4
ATOM      4  C   UNL     1      -0.079  44.269  54.617  1.00  0.00     0.283 C 
BRANCH   4   5
ATOM      5  N   UNL     1      -0.977  44.057  53.408  1.00  0.00    -0.330 N 
ATOM      6  C   UNL     1      -0.721  42.685  52.777  1.00  0.00     0.291 C 
ATOM      7  C   UNL     1      -0.819  45.146  52.347  1.00  0.00     0.291 C 
ATOM      8  C   UNL     1      -1.631  42.500  51.559  1.00  0.00     0.221 C 
ATOM      9  C   UNL     1      -1.720  44.832  51.147  1.00  0.00     0.221 C 
ATOM     10  O   UNL     1      -1.420  43.543  50.602  1.00  0.00    -0.370 OA
ATOM     11  H   UNL     1      -1.953  44.063  53.729  1.00  0.00     0.348 HD
ENDBRANCH   4   5
ENDBRANCH   3   4
ENDBRANCH   1   3
BRANCH   1  12
ATOM     12  C   UNL     1       3.269  44.431  53.517  1.00  0.00     0.226 A 
ATOM     13  N   UNL     1       4.118  45.455  53.373  1.00  0.00    -0.195 NA
ATOM     14  N   UNL     1       3.258  43.304  52.791  1.00  0.00    -0.193 NA
ATOM     15  C   UNL     1       5.043  45.462  52.374  1.00  0.00     0.147 A 
ATOM     16  C   UNL     1       4.160  43.332  51.796  1.00  0.00     0.165 A 
ATOM     17  C   UNL     1       5.068  44.342  51.535  1.00  0.00     0.082 A 
ATOM     18  N   UNL     1       4.371  42.381  50.833  1.00  0.00    -0.250 N 
ATOM     19  C   UNL     1       5.799  43.878  50.422  1.00  0.00     0.149 A 
ATOM     20  N   UNL     1       5.394  42.675  50.003  1.00  0.00    -0.179 NA
ATOM     21  C   UNL     1       3.634  41.159  50.636  1.00  0.00     0.176 C 
BRANCH  15  22
ATOM     22  N   UNL     1       5.961  46.511  52.233  1.00  0.00    -0.339 N 
ATOM     23  H   UNL     1       5.570  47.353  51.834  1.00  0.00     0.168 HD
BRANCH  22  24
ATOM     24  C   UNL     1       7.267  46.692  52.740  1.00  0.00     0.043 A 
ATOM     25  C   UNL     1       7.492  47.180  54.035  1.00  0.00     0.026 A 
ATOM     26  C   UNL     1       8.390  46.317  51.953  1.00  0.00    -0.025 A 
ATOM     27  C   UNL     1       8.781  47.346  54.536  1.00  0.00     0.002 A 
ATOM     28  C   UNL     1       9.701  46.518  52.453  1.00  0.00    -0.046 A 
ATOM     29  C   UNL     1       9.878  47.022  53.749  1.00  0.00     0.004 A 
ATOM     30  C   UNL     1       8.188  45.744  50.569  1.00  0.00     0.047 C 
ATOM     31  C   UNL     1      10.929  46.186  51.645  1.00  0.00     0.044 C 
ENDBRANCH  22  24
ENDBRANCH  15  22
ENDBRANCH   1  12
TORSDOF 6
ENDMDL
MODEL 15
REMARK VINA RESULT:    -8.374      2.755      7.071
REMARK INTER + INTRA:         -11.969
REMARK INTER:                 -11.426
REMARK INTRA:                  -0.543
REMARK UNBOUND:                -0.658
REMARK SMILES Cc1cccc(Nc2nc(NCC[NH+]3CCOCC3)nc3c2cnn3C)c1C
REMARK SMILES IDX 11 1 12 3 13 4 14 5 15 6 19 7 16 8 18 9 17 10 10 12 9 13
REMARK SMILES IDX 20 14 8 15 21 16 22 17 25 18 23 19 24 20 26 21 7 22 6 24
REMARK SMILES IDX 5 25 27 26 4 27 2 28 3 29 28 30 1 31
REMARK H PARENT 11 2 14 11 7 23
ROOT
ATOM      1  N   UNL     1       3.387  46.894  53.200  1.00  0.00    -0.348 N 
ATOM      2  H   UNL     1       2.772  47.577  52.762  1.00  0.00     0.163 HD
ENDROOT
BRANCH   1   3
ATOM      3  C   UNL     1       4.765  46.828  52.758  1.00  0.00     0.177 C 
BRANCH   3   4
ATOM      4  C   UNL     1       5.769  46.837  53.931  1.00  0.00     0.283 C 
BRANCH   4   5
ATOM      5  N   UNL     1       7.183  46.494  53.486  1.00  0.00    -0.330 N 
ATOM      6  C   UNL     1       8.215  47.205  54.366  1.00  0.00     0.291 C 
ATOM      7  C   UNL     1       7.445  46.827  52.017  1.00  0.00     0.291 C 
ATOM      8  C   UNL     1       9.628  46.851  53.892  1.00  0.00     0.221 C 
ATOM      9  C   UNL     1       8.901  46.497  51.665  1.00  0.00     0.221 C 
ATOM     10  O   UNL     1       9.808  47.203  52.517  1.00  0.00    -0.370 OA
ATOM     11  H   UNL     1       7.324  45.484  53.614  1.00  0.00     0.348 HD
ENDBRANCH   4   5
ENDBRANCH   3   4
ENDBRANCH   1   3
BRANCH   1  12
ATOM     12  C   UNL     1       2.685  45.699  53.228  1.00  0.00     0.226 A 
ATOM     13  N   UNL     1       3.384  44.644  52.791  1.00  0.00    -0.195 NA
ATOM     14  N   UNL     1       1.447  45.670  53.740  1.00  0.00    -0.193 NA
ATOM     15  C   UNL     1       2.834  43.400  52.767  1.00  0.00     0.147 A 
ATOM     16  C   UNL     1       0.906  44.441  53.692  1.00  0.00     0.165 A 
ATOM     17  C   UNL     1       1.521  43.287  53.241  1.00  0.00     0.082 A 
ATOM     18  N   UNL     1      -0.357  44.069  54.070  1.00  0.00    -0.250 N 
ATOM     19  C   UNL     1       0.554  42.278  53.428  1.00  0.00     0.149 A 
ATOM     20  N   UNL     1      -0.584  42.743  53.952  1.00  0.00    -0.179 NA
ATOM     21  C   UNL     1      -1.412  44.923  54.552  1.00  0.00     0.176 C 
BRANCH  15  22
ATOM     22  N   UNL     1       3.566  42.282  52.346  1.00  0.00    -0.339 N 
ATOM     23  H   UNL     1       3.612  41.537  53.027  1.00  0.00     0.168 HD
BRANCH  22  24
ATOM     24  C   UNL     1       4.066  41.908  51.079  1.00  0.00     0.043 A 
ATOM     25  C   UNL     1       3.426  40.938  50.294  1.00  0.00     0.026 A 
ATOM     26  C   UNL     1       5.207  42.566  50.546  1.00  0.00    -0.025 A 
ATOM     27  C   UNL     1       3.914  40.580  49.040  1.00  0.00     0.002 A 
ATOM     28  C   UNL     1       5.721  42.177  49.283  1.00  0.00    -0.046 A 
ATOM     29  C   UNL     1       5.056  41.192  48.540  1.00  0.00     0.004 A 
ATOM     30  C   UNL     1       5.898  43.650  51.341  1.00  0.00     0.047 C 
ATOM     31  C   UNL     1       6.956  42.802  48.690  1.00  0.00     0.044 C 
ENDBRANCH  22  24
ENDBRANCH  15  22
ENDBRANCH   1  12
TORSDOF 6
ENDMDL
MODEL 16
REMARK VINA RESULT:    -8.361      2.590      7.316
REMARK INTER + INTRA:         -11.951
REMARK INTER:                 -10.707
REMARK INTRA:                  -1.244
REMARK UNBOUND:                -0.658
REMARK SMILES Cc1cccc(Nc2nc(NCC[NH+]3CCOCC3)nc3c2cnn3C)c1C
REMARK SMILES IDX 11 1 12 3 13 4 14 5 15 6 19 7 16 8 18 9 17 10 10 12 9 13
REMARK SMILES IDX 20 14 8 15 21 16 22 17 25 18 23 19 24 20 26 21 7 22 6 24
REMARK SMILES IDX 5 25 27 26 4 27 2 28 3 29 28 30 1 31
REMARK H PARENT 11 2 14 11 7 23
ROOT
ATOM      1  N   UNL     1       7.599  45.043  49.657  1.00  0.00    -0.348 N 
ATOM      2  H   UNL     1       6.966  45.433  48.962  1.00  0.00     0.163 HD
ENDROOT
BRANCH   1   3
ATOM      3  C   UNL     1       7.800  43.609  49.673  1.00  0.00     0.177 C 
BRANCH   3   4
ATOM      4  C   UNL     1       7.050  42.888  48.531  1.00  0.00     0.283 C 
BRANCH   4   5
ATOM      5  N   UNL     1       6.050  41.866  49.049  1.00  0.00    -0.330 N 
ATOM      6  C   UNL     1       5.077  41.450  47.942  1.00  0.00     0.291 C 
ATOM      7  C   UNL     1       5.263  42.361  50.263  1.00  0.00     0.291 C 
ATOM      8  C   UNL     1       4.077  40.429  48.491  1.00  0.00     0.221 C 
ATOM      9  C   UNL     1       4.248  41.294  50.690  1.00  0.00     0.221 C 
ATOM     10  O   UNL     1       3.367  40.962  49.613  1.00  0.00    -0.370 OA
ATOM     11  H   UNL     1       6.568  41.023  49.327  1.00  0.00     0.348 HD
ENDBRANCH   4   5
ENDBRANCH   3   4
ENDBRANCH   1   3
BRANCH   1  12
ATOM     12  C   UNL     1       7.266  45.636  50.865  1.00  0.00     0.226 A 
ATOM     13  N   UNL     1       5.949  45.776  51.060  1.00  0.00    -0.195 NA
ATOM     14  N   UNL     1       8.231  45.937  51.744  1.00  0.00    -0.193 NA
ATOM     15  C   UNL     1       5.465  46.333  52.203  1.00  0.00     0.147 A 
ATOM     16  C   UNL     1       7.744  46.506  52.860  1.00  0.00     0.165 A 
ATOM     17  C   UNL     1       6.411  46.723  53.159  1.00  0.00     0.082 A 
ATOM     18  N   UNL     1       8.452  46.991  53.928  1.00  0.00    -0.250 N 
ATOM     19  C   UNL     1       6.430  47.307  54.443  1.00  0.00     0.149 A 
ATOM     20  N   UNL     1       7.668  47.453  54.926  1.00  0.00    -0.179 NA
ATOM     21  C   UNL     1       9.883  47.053  54.072  1.00  0.00     0.176 C 
BRANCH  15  22
ATOM     22  N   UNL     1       4.088  46.453  52.435  1.00  0.00    -0.339 N 
ATOM     23  H   UNL     1       3.618  47.092  51.810  1.00  0.00     0.168 HD
BRANCH  22  24
ATOM     24  C   UNL     1       3.198  45.694  53.226  1.00  0.00     0.043 A 
ATOM     25  C   UNL     1       3.086  45.900  54.609  1.00  0.00     0.026 A 
ATOM     26  C   UNL     1       2.344  44.738  52.612  1.00  0.00    -0.025 A 
ATOM     27  C   UNL     1       2.199  45.158  55.385  1.00  0.00     0.002 A 
ATOM     28  C   UNL     1       1.465  43.962  53.408  1.00  0.00    -0.046 A 
ATOM     29  C   UNL     1       1.397  44.193  54.790  1.00  0.00     0.004 A 
ATOM     30  C   UNL     1       2.402  44.520  51.117  1.00  0.00     0.047 C 
ATOM     31  C   UNL     1       0.574  42.899  52.820  1.00  0.00     0.044 C 
ENDBRANCH  22  24
ENDBRANCH  15  22
ENDBRANCH   1  12
TORSDOF 6
ENDMDL
MODEL 17
REMARK VINA RESULT:    -8.249      2.707      5.416
REMARK INTER + INTRA:         -11.800
REMARK INTER:                 -10.925
REMARK INTRA:                  -0.875
REMARK UNBOUND:                -0.658
REMARK SMILES Cc1cccc(Nc2nc(NCC[NH+]3CCOCC3)nc3c2cnn3C)c1C
REMARK SMILES IDX 11 1 12 3 13 4 14 5 15 6 19 7 16 8 18 9 17 10 10 12 9 13
REMARK SMILES IDX 20 14 8 15 21 16 22 17 25 18 23 19 24 20 26 21 7 22 6 24
REMARK SMILES IDX 5 25 27 26 4 27 2 28 3 29 28 30 1 31
REMARK H PARENT 11 2 14 11 7 23
ROOT
ATOM      1  N   UNL     1       2.032  45.995  56.700  1.00  0.00    -0.348 N 
ATOM      2  H   UNL     1       2.881  45.577  57.076  1.00  0.00     0.163 HD
ENDROOT
BRANCH   1   3
ATOM      3  C   UNL     1       0.886  46.125  57.576  1.00  0.00     0.177 C 
BRANCH   3   4
ATOM      4  C   UNL     1       1.200  46.933  58.853  1.00  0.00     0.283 C 
BRANCH   4   5
ATOM      5  N   UNL     1       0.136  47.977  59.154  1.00  0.00    -0.330 N 
ATOM      6  C   UNL     1      -0.103  48.089  60.663  1.00  0.00     0.291 C 
ATOM      7  C   UNL     1      -1.190  47.703  58.444  1.00  0.00     0.291 C 
ATOM      8  C   UNL     1      -1.183  49.139  60.938  1.00  0.00     0.221 C 
ATOM      9  C   UNL     1      -2.217  48.772  58.838  1.00  0.00     0.221 C 
ATOM     10  O   UNL     1      -2.398  48.813  60.257  1.00  0.00    -0.370 OA
ATOM     11  H   UNL     1       0.484  48.891  58.837  1.00  0.00     0.348 HD
ENDBRANCH   4   5
ENDBRANCH   3   4
ENDBRANCH   1   3
BRANCH   1  12
ATOM     12  C   UNL     1       1.811  45.390  55.472  1.00  0.00     0.226 A 
ATOM     13  N   UNL     1       2.906  44.849  54.924  1.00  0.00    -0.195 NA
ATOM     14  N   UNL     1       0.565  45.320  54.983  1.00  0.00    -0.193 NA
ATOM     15  C   UNL     1       2.846  44.211  53.724  1.00  0.00     0.147 A 
ATOM     16  C   UNL     1       0.521  44.707  53.788  1.00  0.00     0.165 A 
ATOM     17  C   UNL     1       1.587  44.135  53.117  1.00  0.00     0.082 A 
ATOM     18  N   UNL     1      -0.572  44.522  52.984  1.00  0.00    -0.250 N 
ATOM     19  C   UNL     1       1.015  43.602  51.943  1.00  0.00     0.149 A 
ATOM     20  N   UNL     1      -0.301  43.815  51.865  1.00  0.00    -0.179 NA
ATOM     21  C   UNL     1      -1.914  44.993  53.211  1.00  0.00     0.176 C 
BRANCH  15  22
ATOM     22  N   UNL     1       3.977  43.610  53.156  1.00  0.00    -0.339 N 
ATOM     23  H   UNL     1       4.032  42.611  53.300  1.00  0.00     0.168 HD
BRANCH  22  24
ATOM     24  C   UNL     1       4.938  44.091  52.239  1.00  0.00     0.043 A 
ATOM     25  C   UNL     1       5.608  45.305  52.447  1.00  0.00     0.026 A 
ATOM     26  C   UNL     1       5.290  43.308  51.106  1.00  0.00    -0.025 A 
ATOM     27  C   UNL     1       6.564  45.771  51.548  1.00  0.00     0.002 A 
ATOM     28  C   UNL     1       6.239  43.800  50.175  1.00  0.00    -0.046 A 
ATOM     29  C   UNL     1       6.874  45.026  50.418  1.00  0.00     0.004 A 
ATOM     30  C   UNL     1       4.623  41.972  50.871  1.00  0.00     0.047 C 
ATOM     31  C   UNL     1       6.614  43.038  48.931  1.00  0.00     0.044 C 
ENDBRANCH  22  24
ENDBRANCH  15  22
ENDBRANCH   1  12
TORSDOF 6
ENDMDL
MODEL 18
REMARK VINA RESULT:    -8.248      2.893      7.851
REMARK INTER + INTRA:         -11.800
REMARK INTER:                 -11.259
REMARK INTRA:                  -0.540
REMARK UNBOUND:                -0.658
REMARK SMILES Cc1cccc(Nc2nc(NCC[NH+]3CCOCC3)nc3c2cnn3C)c1C
REMARK SMILES IDX 11 1 12 3 13 4 14 5 15 6 19 7 16 8 18 9 17 10 10 12 9 13
REMARK SMILES IDX 20 14 8 15 21 16 22 17 25 18 23 19 24 20 26 21 7 22 6 24
REMARK SMILES IDX 5 25 27 26 4 27 2 28 3 29 28 30 1 31
REMARK H PARENT 11 2 14 11 7 23
ROOT
ATOM      1  N   UNL     1       6.057  44.203  49.727  1.00  0.00    -0.348 N 
ATOM      2  H   UNL     1       5.081  44.103  49.452  1.00  0.00     0.163 HD
ENDROOT
BRANCH   1   3
ATOM      3  C   UNL     1       6.953  43.090  49.494  1.00  0.00     0.177 C 
BRANCH   3   4
ATOM      4  C   UNL     1       6.269  41.720  49.701  1.00  0.00     0.283 C 
BRANCH   4   5
ATOM      5  N   UNL     1       5.707  41.152  48.407  1.00  0.00    -0.330 N 
ATOM      6  C   UNL     1       5.933  42.124  47.245  1.00  0.00     0.291 C 
ATOM      7  C   UNL     1       4.221  40.804  48.502  1.00  0.00     0.291 C 
ATOM      8  C   UNL     1       5.351  41.533  45.957  1.00  0.00     0.221 C 
ATOM      9  C   UNL     1       3.725  40.286  47.147  1.00  0.00     0.221 C 
ATOM     10  O   UNL     1       3.958  41.246  46.112  1.00  0.00    -0.370 OA
ATOM     11  H   UNL     1       6.223  40.292  48.183  1.00  0.00     0.348 HD
ENDBRANCH   4   5
ENDBRANCH   3   4
ENDBRANCH   1   3
BRANCH   1  12
ATOM     12  C   UNL     1       6.048  44.737  51.006  1.00  0.00     0.226 A 
ATOM     13  N   UNL     1       5.073  44.261  51.791  1.00  0.00    -0.195 NA
ATOM     14  N   UNL     1       7.016  45.587  51.376  1.00  0.00    -0.193 NA
ATOM     15  C   UNL     1       4.941  44.683  53.078  1.00  0.00     0.147 A 
ATOM     16  C   UNL     1       6.863  46.013  52.642  1.00  0.00     0.165 A 
ATOM     17  C   UNL     1       5.884  45.612  53.533  1.00  0.00     0.082 A 
ATOM     18  N   UNL     1       7.629  46.928  53.313  1.00  0.00    -0.250 N 
ATOM     19  C   UNL     1       6.180  46.316  54.718  1.00  0.00     0.149 A 
ATOM     20  N   UNL     1       7.253  47.102  54.599  1.00  0.00    -0.179 NA
ATOM     21  C   UNL     1       8.742  47.683  52.797  1.00  0.00     0.176 C 
BRANCH  15  22
ATOM     22  N   UNL     1       3.947  44.166  53.919  1.00  0.00    -0.339 N 
ATOM     23  H   UNL     1       4.198  44.155  54.898  1.00  0.00     0.168 HD
BRANCH  22  24
ATOM     24  C   UNL     1       2.586  43.863  53.692  1.00  0.00     0.043 A 
ATOM     25  C   UNL     1       2.189  42.990  52.669  1.00  0.00     0.026 A 
ATOM     26  C   UNL     1       1.589  44.398  54.552  1.00  0.00    -0.025 A 
ATOM     27  C   UNL     1       0.847  42.684  52.455  1.00  0.00     0.002 A 
ATOM     28  C   UNL     1       0.221  44.110  54.312  1.00  0.00    -0.046 A 
ATOM     29  C   UNL     1      -0.130  43.243  53.268  1.00  0.00     0.004 A 
ATOM     30  C   UNL     1       1.981  45.306  55.695  1.00  0.00     0.047 C 
ATOM     31  C   UNL     1      -0.883  44.689  55.158  1.00  0.00     0.044 C 
ENDBRANCH  22  24
ENDBRANCH  15  22
ENDBRANCH   1  12
TORSDOF 6
ENDMDL
MODEL 19
REMARK VINA RESULT:    -8.233      2.695      7.498
REMARK INTER + INTRA:         -11.778
REMARK INTER:                 -10.861
REMARK INTRA:                  -0.918
REMARK UNBOUND:                -0.658
REMARK SMILES Cc1cccc(Nc2nc(NCC[NH+]3CCOCC3)nc3c2cnn3C)c1C
REMARK SMILES IDX 11 1 12 3 13 4 14 5 15 6 19 7 16 8 18 9 17 10 10 12 9 13
REMARK SMILES IDX 20 14 8 15 21 16 22 17 25 18 23 19 24 20 26 21 7 22 6 24
REMARK SMILES IDX 5 25 27 26 4 27 2 28 3 29 28 30 1 31
REMARK H PARENT 11 2 14 11 7 23
ROOT
ATOM      1  N   UNL     1       4.404  46.779  52.159  1.00  0.00    -0.348 N 
ATOM      2  H   UNL     1       3.939  47.230  51.373  1.00  0.00     0.163 HD
ENDROOT
BRANCH   1   3
ATOM      3  C   UNL     1       5.668  47.321  52.611  1.00  0.00     0.177 C 
BRANCH   3   4
ATOM      4  C   UNL     1       6.233  46.576  53.840  1.00  0.00     0.283 C 
BRANCH   4   5
ATOM      5  N   UNL     1       7.732  46.342  53.738  1.00  0.00    -0.330 N 
ATOM      6  C   UNL     1       8.501  47.396  54.541  1.00  0.00     0.291 C 
ATOM      7  C   UNL     1       8.239  46.327  52.296  1.00  0.00     0.291 C 
ATOM      8  C   UNL     1      10.006  47.144  54.416  1.00  0.00     0.221 C 
ATOM      9  C   UNL     1       9.760  46.135  52.285  1.00  0.00     0.221 C 
ATOM     10  O   UNL     1      10.413  47.158  53.044  1.00  0.00    -0.370 OA
ATOM     11  H   UNL     1       7.944  45.429  54.161  1.00  0.00     0.348 HD
ENDBRANCH   4   5
ENDBRANCH   3   4
ENDBRANCH   1   3
BRANCH   1  12
ATOM     12  C   UNL     1       4.367  45.417  51.905  1.00  0.00     0.226 A 
ATOM     13  N   UNL     1       3.391  44.767  52.551  1.00  0.00    -0.195 NA
ATOM     14  N   UNL     1       5.214  44.887  51.013  1.00  0.00    -0.193 NA
ATOM     15  C   UNL     1       3.221  43.425  52.396  1.00  0.00     0.147 A 
ATOM     16  C   UNL     1       5.051  43.559  50.883  1.00  0.00     0.165 A 
ATOM     17  C   UNL     1       4.098  42.780  51.516  1.00  0.00     0.082 A 
ATOM     18  N   UNL     1       5.786  42.698  50.111  1.00  0.00    -0.250 N 
ATOM     19  C   UNL     1       4.325  41.479  51.022  1.00  0.00     0.149 A 
ATOM     20  N   UNL     1       5.337  41.425  50.151  1.00  0.00    -0.179 NA
ATOM     21  C   UNL     1       6.937  43.014  49.305  1.00  0.00     0.176 C 
BRANCH  15  22
ATOM     22  N   UNL     1       2.182  42.739  53.038  1.00  0.00    -0.339 N 
ATOM     23  H   UNL     1       2.493  42.018  53.674  1.00  0.00     0.168 HD
BRANCH  22  24
ATOM     24  C   UNL     1       0.798  43.004  53.134  1.00  0.00     0.043 A 
ATOM     25  C   UNL     1      -0.119  42.462  52.223  1.00  0.00     0.026 A 
ATOM     26  C   UNL     1       0.301  43.787  54.212  1.00  0.00    -0.025 A 
ATOM     27  C   UNL     1      -1.485  42.716  52.328  1.00  0.00     0.002 A 
ATOM     28  C   UNL     1      -1.086  44.070  54.297  1.00  0.00    -0.046 A 
ATOM     29  C   UNL     1      -1.964  43.518  53.355  1.00  0.00     0.004 A 
ATOM     30  C   UNL     1       1.253  44.352  55.242  1.00  0.00     0.047 C 
ATOM     31  C   UNL     1      -1.664  44.935  55.387  1.00  0.00     0.044 C 
ENDBRANCH  22  24
ENDBRANCH  15  22
ENDBRANCH   1  12
TORSDOF 6
ENDMDL
MODEL 20
REMARK VINA RESULT:    -8.192      2.449      4.211
REMARK INTER + INTRA:         -11.724
REMARK INTER:                 -10.970
REMARK INTRA:                  -0.753
REMARK UNBOUND:                -0.658
REMARK SMILES Cc1cccc(Nc2nc(NCC[NH+]3CCOCC3)nc3c2cnn3C)c1C
REMARK SMILES IDX 11 1 12 3 13 4 14 5 15 6 19 7 16 8 18 9 17 10 10 12 9 13
REMARK SMILES IDX 20 14 8 15 21 16 22 17 25 18 23 19 24 20 26 21 7 22 6 24
REMARK SMILES IDX 5 25 27 26 4 27 2 28 3 29 28 30 1 31
REMARK H PARENT 11 2 14 11 7 23
ROOT
ATOM      1  N   UNL     1       1.614  45.629  56.586  1.00  0.00    -0.348 N 
ATOM      2  H   UNL     1       2.437  45.525  57.176  1.00  0.00     0.163 HD
ENDROOT
BRANCH   1   3
ATOM      3  C   UNL     1       0.316  45.341  57.161  1.00  0.00     0.177 C 
BRANCH   3   4
ATOM      4  C   UNL     1      -0.692  46.495  56.971  1.00  0.00     0.283 C 
BRANCH   4   5
ATOM      5  N   UNL     1      -1.060  47.165  58.285  1.00  0.00    -0.330 N 
ATOM      6  C   UNL     1      -1.991  48.357  58.044  1.00  0.00     0.291 C 
ATOM      7  C   UNL     1       0.160  47.622  59.086  1.00  0.00     0.291 C 
ATOM      8  C   UNL     1      -2.340  49.019  59.380  1.00  0.00     0.221 C 
ATOM      9  C   UNL     1      -0.300  48.328  60.368  1.00  0.00     0.221 C 
ATOM     10  O   UNL     1      -1.156  49.434  60.068  1.00  0.00    -0.370 OA
ATOM     11  H   UNL     1      -1.581  46.488  58.856  1.00  0.00     0.348 HD
ENDBRANCH   4   5
ENDBRANCH   3   4
ENDBRANCH   1   3
BRANCH   1  12
ATOM     12  C   UNL     1       1.914  45.005  55.385  1.00  0.00     0.226 A 
ATOM     13  N   UNL     1       3.223  44.940  55.115  1.00  0.00    -0.195 NA
ATOM     14  N   UNL     1       0.929  44.463  54.656  1.00  0.00    -0.193 NA
ATOM     15  C   UNL     1       3.675  44.347  53.976  1.00  0.00     0.147 A 
ATOM     16  C   UNL     1       1.384  43.899  53.524  1.00  0.00     0.165 A 
ATOM     17  C   UNL     1       2.706  43.796  53.129  1.00  0.00     0.082 A 
ATOM     18  N   UNL     1       0.649  43.316  52.526  1.00  0.00    -0.250 N 
ATOM     19  C   UNL     1       2.653  43.102  51.904  1.00  0.00     0.149 A 
ATOM     20  N   UNL     1       1.406  42.787  51.541  1.00  0.00    -0.179 NA
ATOM     21  C   UNL     1      -0.786  43.225  52.438  1.00  0.00     0.176 C 
BRANCH  15  22
ATOM     22  N   UNL     1       5.045  44.242  53.699  1.00  0.00    -0.339 N 
ATOM     23  H   UNL     1       5.492  43.440  54.121  1.00  0.00     0.168 HD
BRANCH  22  24
ATOM     24  C   UNL     1       5.871  44.913  52.770  1.00  0.00     0.043 A 
ATOM     25  C   UNL     1       5.900  44.549  51.416  1.00  0.00     0.026 A 
ATOM     26  C   UNL     1       6.649  46.026  53.191  1.00  0.00    -0.025 A 
ATOM     27  C   UNL     1       6.706  45.221  50.501  1.00  0.00     0.002 A 
ATOM     28  C   UNL     1       7.494  46.687  52.263  1.00  0.00    -0.046 A 
ATOM     29  C   UNL     1       7.501  46.279  50.922  1.00  0.00     0.004 A 
ATOM     30  C   UNL     1       6.610  46.477  54.633  1.00  0.00     0.047 C 
ATOM     31  C   UNL     1       8.379  47.838  52.662  1.00  0.00     0.044 C 
ENDBRANCH  22  24
ENDBRANCH  15  22
ENDBRANCH   1  12
TORSDOF 6
ENDMDL
