MODEL 1
REMARK VINA RESULT:    -8.421      0.000      0.000
REMARK INTER + INTRA:         -12.380
REMARK INTER:                 -11.867
REMARK INTRA:                  -0.513
REMARK UNBOUND:                -0.513
REMARK SMILES COCCCNc1nc(Nc2ccc3c(c2)OCCO3)c2cnn(C)c2n1
REMARK SMILES IDX 5 1 4 2 3 3 2 4 1 5 6 6 7 8 8 9 27 10 9 11 26 12 21 13 24 14
REMARK SMILES IDX 22 15 23 16 25 17 10 18 11 20 12 21 16 22 13 23 15 24 14 25
REMARK SMILES IDX 17 26 20 27 18 28 19 29
REMARK H PARENT 6 7 10 19
ROOT
ATOM      1  C   UNL     1      10.001  46.891  52.385  1.00  0.00     0.118 C 
ENDROOT
BRANCH   1   2
ATOM      2  C   UNL     1       9.892  46.711  53.900  1.00  0.00     0.050 C 
BRANCH   2   3
ATOM      3  C   UNL     1       9.182  47.889  54.561  1.00  0.00     0.161 C 
BRANCH   3   4
ATOM      4  O   UNL     1       9.787  48.259  55.799  1.00  0.00    -0.385 OA
ATOM      5  C   UNL     1      10.970  47.528  56.087  1.00  0.00     0.194 C 
ENDBRANCH   3   4
ENDBRANCH   2   3
ENDBRANCH   1   2
BRANCH   1   6
ATOM      6  N   UNL     1       8.807  47.571  51.903  1.00  0.00    -0.354 N 
ATOM      7  H   UNL     1       8.480  48.332  52.488  1.00  0.00     0.163 HD
BRANCH   6   8
ATOM      8  C   UNL     1       7.702  46.741  51.736  1.00  0.00     0.226 A 
ATOM      9  N   UNL     1       6.605  47.135  52.410  1.00  0.00    -0.195 NA
ATOM     10  N   UNL     1       7.793  45.658  50.953  1.00  0.00    -0.193 NA
ATOM     11  C   UNL     1       5.462  46.407  52.337  1.00  0.00     0.147 A 
ATOM     12  C   UNL     1       6.642  44.976  50.871  1.00  0.00     0.165 A 
ATOM     13  C   UNL     1       5.459  45.279  51.513  1.00  0.00     0.082 A 
ATOM     14  N   UNL     1       6.394  43.850  50.135  1.00  0.00    -0.250 N 
ATOM     15  C   UNL     1       4.557  44.288  51.073  1.00  0.00     0.149 A 
ATOM     16  N   UNL     1       5.121  43.404  50.240  1.00  0.00    -0.179 NA
ATOM     17  C   UNL     1       7.324  43.144  49.290  1.00  0.00     0.176 C 
BRANCH  11  18
ATOM     18  N   UNL     1       4.356  46.891  53.051  1.00  0.00    -0.339 N 
ATOM     19  H   UNL     1       4.713  47.447  53.825  1.00  0.00     0.168 HD
BRANCH  18  20
ATOM     20  C   UNL     1       3.167  46.224  53.402  1.00  0.00     0.044 A 
ATOM     21  C   UNL     1       3.148  45.490  54.599  1.00  0.00     0.030 A 
ATOM     22  C   UNL     1       2.015  46.230  52.605  1.00  0.00     0.076 A 
ATOM     23  C   UNL     1       1.999  44.807  55.008  1.00  0.00     0.052 A 
ATOM     24  C   UNL     1       0.871  45.537  53.006  1.00  0.00     0.163 A 
ATOM     25  C   UNL     1       0.855  44.846  54.219  1.00  0.00     0.161 A 
ATOM     26  O   UNL     1      -0.205  45.585  52.155  1.00  0.00    -0.486 OA
ATOM     27  O   UNL     1      -0.244  44.175  54.690  1.00  0.00    -0.486 OA
ATOM     28  C   UNL     1      -1.180  44.590  52.488  1.00  0.00     0.271 C 
ATOM     29  C   UNL     1      -1.430  44.564  53.987  1.00  0.00     0.271 C 
ENDBRANCH  18  20
ENDBRANCH  11  18
ENDBRANCH   6   8
ENDBRANCH   1   6
TORSDOF 7
ENDMDL
MODEL 2
REMARK VINA RESULT:    -8.414      3.518      6.908
REMARK INTER + INTRA:         -12.371
REMARK INTER:                 -11.247
REMARK INTRA:                  -1.123
REMARK UNBOUND:                -0.513
REMARK SMILES COCCCNc1nc(Nc2ccc3c(c2)OCCO3)c2cnn(C)c2n1
REMARK SMILES IDX 5 1 4 2 3 3 2 4 1 5 6 6 7 8 8 9 27 10 9 11 26 12 21 13 24 14
REMARK SMILES IDX 22 15 23 16 25 17 10 18 11 20 12 21 16 22 13 23 15 24 14 25
REMARK SMILES IDX 17 26 20 27 18 28 19 29
REMARK H PARENT 6 7 10 19
ROOT
ATOM      1  C   UNL     1       5.111  45.259  54.975  1.00  0.00     0.118 C 
ENDROOT
BRANCH   1   2
ATOM      2  C   UNL     1       5.790  46.580  54.609  1.00  0.00     0.050 C 
BRANCH   2   3
ATOM      3  C   UNL     1       5.296  47.119  53.270  1.00  0.00     0.161 C 
BRANCH   3   4
ATOM      4  O   UNL     1       4.017  47.741  53.377  1.00  0.00    -0.385 OA
ATOM      5  C   UNL     1       3.138  47.403  52.312  1.00  0.00     0.194 C 
ENDBRANCH   3   4
ENDBRANCH   2   3
ENDBRANCH   1   2
BRANCH   1   6
ATOM      6  N   UNL     1       3.806  45.544  55.556  1.00  0.00    -0.354 N 
ATOM      7  H   UNL     1       3.716  45.321  56.541  1.00  0.00     0.163 HD
BRANCH   6   8
ATOM      8  C   UNL     1       2.747  44.888  54.936  1.00  0.00     0.226 A 
ATOM      9  N   UNL     1       3.089  44.207  53.826  1.00  0.00    -0.195 NA
ATOM     10  N   UNL     1       1.515  44.969  55.456  1.00  0.00    -0.193 NA
ATOM     11  C   UNL     1       2.145  43.530  53.123  1.00  0.00     0.147 A 
ATOM     12  C   UNL     1       0.609  44.265  54.764  1.00  0.00     0.165 A 
ATOM     13  C   UNL     1       0.839  43.533  53.616  1.00  0.00     0.082 A 
ATOM     14  N   UNL     1      -0.721  44.116  55.046  1.00  0.00    -0.250 N 
ATOM     15  C   UNL     1      -0.414  42.964  53.308  1.00  0.00     0.149 A 
ATOM     16  N   UNL     1      -1.375  43.321  54.168  1.00  0.00    -0.179 NA
ATOM     17  C   UNL     1      -1.442  44.694  56.152  1.00  0.00     0.176 C 
BRANCH  11  18
ATOM     18  N   UNL     1       2.581  42.830  51.989  1.00  0.00    -0.339 N 
ATOM     19  H   UNL     1       2.237  41.876  52.070  1.00  0.00     0.168 HD
BRANCH  18  20
ATOM     20  C   UNL     1       3.836  42.871  51.350  1.00  0.00     0.044 A 
ATOM     21  C   UNL     1       4.376  41.667  50.873  1.00  0.00     0.030 A 
ATOM     22  C   UNL     1       4.582  44.046  51.194  1.00  0.00     0.076 A 
ATOM     23  C   UNL     1       5.615  41.638  50.226  1.00  0.00     0.052 A 
ATOM     24  C   UNL     1       5.826  44.016  50.560  1.00  0.00     0.163 A 
ATOM     25  C   UNL     1       6.331  42.817  50.054  1.00  0.00     0.161 A 
ATOM     26  O   UNL     1       6.496  45.211  50.467  1.00  0.00    -0.486 OA
ATOM     27  O   UNL     1       7.527  42.723  49.391  1.00  0.00    -0.486 OA
ATOM     28  C   UNL     1       7.870  45.015  50.115  1.00  0.00     0.271 C 
ATOM     29  C   UNL     1       7.996  44.012  48.980  1.00  0.00     0.271 C 
ENDBRANCH  18  20
ENDBRANCH  11  18
ENDBRANCH   6   8
ENDBRANCH   1   6
TORSDOF 7
ENDMDL
MODEL 3
REMARK VINA RESULT:    -8.366      4.149      6.446
REMARK INTER + INTRA:         -12.302
REMARK INTER:                 -11.461
REMARK INTRA:                  -0.841
REMARK UNBOUND:                -0.513
REMARK SMILES COCCCNc1nc(Nc2ccc3c(c2)OCCO3)c2cnn(C)c2n1
REMARK SMILES IDX 5 1 4 2 3 3 2 4 1 5 6 6 7 8 8 9 27 10 9 11 26 12 21 13 24 14
REMARK SMILES IDX 22 15 23 16 25 17 10 18 11 20 12 21 16 22 13 23 15 24 14 25
REMARK SMILES IDX 17 26 20 27 18 28 19 29
REMARK H PARENT 6 7 10 19
ROOT
ATOM      1  C   UNL     1       7.407  46.846  51.805  1.00  0.00     0.118 C 
ENDROOT
BRANCH   1   2
ATOM      2  C   UNL     1       8.765  47.545  51.884  1.00  0.00     0.050 C 
BRANCH   2   3
ATOM      3  C   UNL     1       9.888  46.564  52.210  1.00  0.00     0.161 C 
BRANCH   3   4
ATOM      4  O   UNL     1       9.899  46.194  53.588  1.00  0.00    -0.385 OA
ATOM      5  C   UNL     1       9.929  47.309  54.468  1.00  0.00     0.194 C 
ENDBRANCH   3   4
ENDBRANCH   2   3
ENDBRANCH   1   2
BRANCH   1   6
ATOM      6  N   UNL     1       7.466  45.813  50.781  1.00  0.00    -0.354 N 
ATOM      7  H   UNL     1       7.394  46.148  49.827  1.00  0.00     0.163 HD
BRANCH   6   8
ATOM      8  C   UNL     1       6.483  44.833  50.897  1.00  0.00     0.226 A 
ATOM      9  N   UNL     1       6.648  43.782  50.071  1.00  0.00    -0.195 NA
ATOM     10  N   UNL     1       5.487  44.987  51.779  1.00  0.00    -0.193 NA
ATOM     11  C   UNL     1       5.753  42.762  50.080  1.00  0.00     0.147 A 
ATOM     12  C   UNL     1       4.637  43.951  51.791  1.00  0.00     0.165 A 
ATOM     13  C   UNL     1       4.700  42.825  50.996  1.00  0.00     0.082 A 
ATOM     14  N   UNL     1       3.541  43.785  52.593  1.00  0.00    -0.250 N 
ATOM     15  C   UNL     1       3.611  42.036  51.418  1.00  0.00     0.149 A 
ATOM     16  N   UNL     1       2.890  42.617  52.385  1.00  0.00    -0.179 NA
ATOM     17  C   UNL     1       3.055  44.698  53.597  1.00  0.00     0.176 C 
BRANCH  11  18
ATOM     18  N   UNL     1       6.002  41.694  49.205  1.00  0.00    -0.339 N 
ATOM     19  H   UNL     1       7.011  41.622  49.091  1.00  0.00     0.168 HD
BRANCH  18  20
ATOM     20  C   UNL     1       5.324  41.341  48.022  1.00  0.00     0.044 A 
ATOM     21  C   UNL     1       5.779  41.884  46.811  1.00  0.00     0.030 A 
ATOM     22  C   UNL     1       4.203  40.502  47.998  1.00  0.00     0.076 A 
ATOM     23  C   UNL     1       5.154  41.573  45.600  1.00  0.00     0.052 A 
ATOM     24  C   UNL     1       3.569  40.200  46.791  1.00  0.00     0.163 A 
ATOM     25  C   UNL     1       4.060  40.716  45.590  1.00  0.00     0.161 A 
ATOM     26  O   UNL     1       2.468  39.383  46.863  1.00  0.00    -0.486 OA
ATOM     27  O   UNL     1       3.508  40.432  44.366  1.00  0.00    -0.486 OA
ATOM     28  C   UNL     1       1.713  39.413  45.646  1.00  0.00     0.271 C 
ATOM     29  C   UNL     1       2.633  39.301  44.441  1.00  0.00     0.271 C 
ENDBRANCH  18  20
ENDBRANCH  11  18
ENDBRANCH   6   8
ENDBRANCH   1   6
TORSDOF 7
ENDMDL
MODEL 4
REMARK VINA RESULT:    -8.342      3.370      6.535
REMARK INTER + INTRA:         -12.269
REMARK INTER:                 -11.695
REMARK INTRA:                  -0.574
REMARK UNBOUND:                -0.513
REMARK SMILES COCCCNc1nc(Nc2ccc3c(c2)OCCO3)c2cnn(C)c2n1
REMARK SMILES IDX 5 1 4 2 3 3 2 4 1 5 6 6 7 8 8 9 27 10 9 11 26 12 21 13 24 14
REMARK SMILES IDX 22 15 23 16 25 17 10 18 11 20 12 21 16 22 13 23 15 24 14 25
REMARK SMILES IDX 17 26 20 27 18 28 19 29
REMARK H PARENT 6 7 10 19
ROOT
ATOM      1  C   UNL     1       4.670  46.595  54.643  1.00  0.00     0.118 C 
ENDROOT
BRANCH   1   2
ATOM      2  C   UNL     1       6.086  46.080  54.907  1.00  0.00     0.050 C 
BRANCH   2   3
ATOM      3  C   UNL     1       7.119  46.798  54.043  1.00  0.00     0.161 C 
BRANCH   3   4
ATOM      4  O   UNL     1       8.048  47.549  54.823  1.00  0.00    -0.385 OA
ATOM      5  C   UNL     1       9.358  47.564  54.273  1.00  0.00     0.194 C 
ENDBRANCH   3   4
ENDBRANCH   2   3
ENDBRANCH   1   2
BRANCH   1   6
ATOM      6  N   UNL     1       3.768  46.025  55.634  1.00  0.00    -0.354 N 
ATOM      7  H   UNL     1       4.199  45.384  56.290  1.00  0.00     0.163 HD
BRANCH   6   8
ATOM      8  C   UNL     1       2.692  45.325  55.095  1.00  0.00     0.226 A 
ATOM      9  N   UNL     1       2.938  44.767  53.895  1.00  0.00    -0.195 NA
ATOM     10  N   UNL     1       1.537  45.253  55.770  1.00  0.00    -0.193 NA
ATOM     11  C   UNL     1       1.968  44.064  53.258  1.00  0.00     0.147 A 
ATOM     12  C   UNL     1       0.607  44.525  55.136  1.00  0.00     0.165 A 
ATOM     13  C   UNL     1       0.742  43.908  53.908  1.00  0.00     0.082 A 
ATOM     14  N   UNL     1      -0.657  44.233  55.568  1.00  0.00    -0.250 N 
ATOM     15  C   UNL     1      -0.490  43.252  53.709  1.00  0.00     0.149 A 
ATOM     16  N   UNL     1      -1.356  43.453  54.711  1.00  0.00    -0.179 NA
ATOM     17  C   UNL     1      -1.270  44.655  56.802  1.00  0.00     0.176 C 
BRANCH  11  18
ATOM     18  N   UNL     1       2.306  43.496  52.020  1.00  0.00    -0.339 N 
ATOM     19  H   UNL     1       1.744  42.655  51.908  1.00  0.00     0.168 HD
BRANCH  18  20
ATOM     20  C   UNL     1       3.576  43.349  51.430  1.00  0.00     0.044 A 
ATOM     21  C   UNL     1       4.009  42.055  51.102  1.00  0.00     0.030 A 
ATOM     22  C   UNL     1       4.439  44.424  51.182  1.00  0.00     0.076 A 
ATOM     23  C   UNL     1       5.257  41.840  50.511  1.00  0.00     0.052 A 
ATOM     24  C   UNL     1       5.691  44.209  50.603  1.00  0.00     0.163 A 
ATOM     25  C   UNL     1       6.090  42.920  50.246  1.00  0.00     0.161 A 
ATOM     26  O   UNL     1       6.478  45.318  50.412  1.00  0.00    -0.486 OA
ATOM     27  O   UNL     1       7.290  42.642  49.643  1.00  0.00    -0.486 OA
ATOM     28  C   UNL     1       7.836  44.956  50.137  1.00  0.00     0.271 C 
ATOM     29  C   UNL     1       7.895  43.830  49.118  1.00  0.00     0.271 C 
ENDBRANCH  18  20
ENDBRANCH  11  18
ENDBRANCH   6   8
ENDBRANCH   1   6
TORSDOF 7
ENDMDL
MODEL 5
REMARK VINA RESULT:    -8.305      2.210      4.397
REMARK INTER + INTRA:         -12.216
REMARK INTER:                 -10.898
REMARK INTRA:                  -1.318
REMARK UNBOUND:                -0.513
REMARK SMILES COCCCNc1nc(Nc2ccc3c(c2)OCCO3)c2cnn(C)c2n1
REMARK SMILES IDX 5 1 4 2 3 3 2 4 1 5 6 6 7 8 8 9 27 10 9 11 26 12 21 13 24 14
REMARK SMILES IDX 22 15 23 16 25 17 10 18 11 20 12 21 16 22 13 23 15 24 14 25
REMARK SMILES IDX 17 26 20 27 18 28 19 29
REMARK H PARENT 6 7 10 19
ROOT
ATOM      1  C   UNL     1       6.975  42.861  49.494  1.00  0.00     0.118 C 
ENDROOT
BRANCH   1   2
ATOM      2  C   UNL     1       6.365  41.578  50.061  1.00  0.00     0.050 C 
BRANCH   2   3
ATOM      3  C   UNL     1       4.842  41.651  50.115  1.00  0.00     0.161 C 
BRANCH   3   4
ATOM      4  O   UNL     1       4.367  42.108  51.380  1.00  0.00    -0.385 OA
ATOM      5  C   UNL     1       3.070  42.686  51.317  1.00  0.00     0.194 C 
ENDBRANCH   3   4
ENDBRANCH   2   3
ENDBRANCH   1   2
BRANCH   1   6
ATOM      6  N   UNL     1       6.037  43.957  49.692  1.00  0.00    -0.354 N 
ATOM      7  H   UNL     1       5.787  44.466  48.851  1.00  0.00     0.163 HD
BRANCH   6   8
ATOM      8  C   UNL     1       6.471  44.929  50.589  1.00  0.00     0.226 A 
ATOM      9  N   UNL     1       5.480  45.535  51.272  1.00  0.00    -0.195 NA
ATOM     10  N   UNL     1       7.779  45.187  50.714  1.00  0.00    -0.193 NA
ATOM     11  C   UNL     1       5.770  46.508  52.172  1.00  0.00     0.147 A 
ATOM     12  C   UNL     1       8.040  46.126  51.634  1.00  0.00     0.165 A 
ATOM     13  C   UNL     1       7.115  46.815  52.391  1.00  0.00     0.082 A 
ATOM     14  N   UNL     1       9.266  46.592  52.020  1.00  0.00    -0.250 N 
ATOM     15  C   UNL     1       7.892  47.652  53.218  1.00  0.00     0.149 A 
ATOM     16  N   UNL     1       9.206  47.532  52.993  1.00  0.00    -0.179 NA
ATOM     17  C   UNL     1      10.551  46.178  51.514  1.00  0.00     0.176 C 
BRANCH  11  18
ATOM     18  N   UNL     1       4.687  47.079  52.857  1.00  0.00    -0.339 N 
ATOM     19  H   UNL     1       5.068  47.721  53.549  1.00  0.00     0.168 HD
BRANCH  18  20
ATOM     20  C   UNL     1       3.508  46.464  53.322  1.00  0.00     0.044 A 
ATOM     21  C   UNL     1       3.518  45.898  54.606  1.00  0.00     0.030 A 
ATOM     22  C   UNL     1       2.340  46.362  52.557  1.00  0.00     0.076 A 
ATOM     23  C   UNL     1       2.382  45.276  55.129  1.00  0.00     0.052 A 
ATOM     24  C   UNL     1       1.208  45.728  53.073  1.00  0.00     0.163 A 
ATOM     25  C   UNL     1       1.221  45.207  54.368  1.00  0.00     0.161 A 
ATOM     26  O   UNL     1       0.113  45.659  52.247  1.00  0.00    -0.486 OA
ATOM     27  O   UNL     1       0.134  44.604  54.949  1.00  0.00    -0.486 OA
ATOM     28  C   UNL     1      -0.851  44.717  52.732  1.00  0.00     0.271 C 
ATOM     29  C   UNL     1      -1.068  44.893  54.226  1.00  0.00     0.271 C 
ENDBRANCH  18  20
ENDBRANCH  11  18
ENDBRANCH   6   8
ENDBRANCH   1   6
TORSDOF 7
ENDMDL
MODEL 6
REMARK VINA RESULT:    -8.224      3.050      7.685
REMARK INTER + INTRA:         -12.102
REMARK INTER:                 -11.165
REMARK INTRA:                  -0.938
REMARK UNBOUND:                -0.513
REMARK SMILES COCCCNc1nc(Nc2ccc3c(c2)OCCO3)c2cnn(C)c2n1
REMARK SMILES IDX 5 1 4 2 3 3 2 4 1 5 6 6 7 8 8 9 27 10 9 11 26 12 21 13 24 14
REMARK SMILES IDX 22 15 23 16 25 17 10 18 11 20 12 21 16 22 13 23 15 24 14 25
REMARK SMILES IDX 17 26 20 27 18 28 19 29
REMARK H PARENT 6 7 10 19
ROOT
ATOM      1  C   UNL     1       0.444  45.064  57.128  1.00  0.00     0.118 C 
ENDROOT
BRANCH   1   2
ATOM      2  C   UNL     1      -0.702  46.032  56.829  1.00  0.00     0.050 C 
BRANCH   2   3
ATOM      3  C   UNL     1      -0.758  47.172  57.841  1.00  0.00     0.161 C 
BRANCH   3   4
ATOM      4  O   UNL     1       0.382  47.190  58.700  1.00  0.00    -0.385 OA
ATOM      5  C   UNL     1       0.171  47.927  59.896  1.00  0.00     0.194 C 
ENDBRANCH   3   4
ENDBRANCH   2   3
ENDBRANCH   1   2
BRANCH   1   6
ATOM      6  N   UNL     1       1.650  45.539  56.465  1.00  0.00    -0.354 N 
ATOM      7  H   UNL     1       1.794  46.542  56.502  1.00  0.00     0.163 HD
BRANCH   6   8
ATOM      8  C   UNL     1       1.729  45.211  55.115  1.00  0.00     0.226 A 
ATOM      9  N   UNL     1       2.553  46.000  54.399  1.00  0.00    -0.195 NA
ATOM     10  N   UNL     1       1.020  44.181  54.635  1.00  0.00    -0.193 NA
ATOM     11  C   UNL     1       2.713  45.790  53.068  1.00  0.00     0.147 A 
ATOM     12  C   UNL     1       1.221  43.974  53.326  1.00  0.00     0.165 A 
ATOM     13  C   UNL     1       2.035  44.713  52.492  1.00  0.00     0.082 A 
ATOM     14  N   UNL     1       0.676  42.991  52.547  1.00  0.00    -0.250 N 
ATOM     15  C   UNL     1       1.927  44.074  51.240  1.00  0.00     0.149 A 
ATOM     16  N   UNL     1       1.092  43.028  51.259  1.00  0.00    -0.179 NA
ATOM     17  C   UNL     1      -0.245  41.964  52.964  1.00  0.00     0.176 C 
BRANCH  11  18
ATOM     18  N   UNL     1       3.601  46.641  52.395  1.00  0.00    -0.339 N 
ATOM     19  H   UNL     1       3.124  46.984  51.563  1.00  0.00     0.168 HD
BRANCH  18  20
ATOM     20  C   UNL     1       4.981  46.480  52.165  1.00  0.00     0.044 A 
ATOM     21  C   UNL     1       5.383  45.684  51.081  1.00  0.00     0.030 A 
ATOM     22  C   UNL     1       5.969  47.047  52.980  1.00  0.00     0.076 A 
ATOM     23  C   UNL     1       6.737  45.485  50.796  1.00  0.00     0.052 A 
ATOM     24  C   UNL     1       7.322  46.838  52.703  1.00  0.00     0.163 A 
ATOM     25  C   UNL     1       7.706  46.078  51.597  1.00  0.00     0.161 A 
ATOM     26  O   UNL     1       8.221  47.417  53.565  1.00  0.00    -0.486 OA
ATOM     27  O   UNL     1       9.014  45.862  51.248  1.00  0.00    -0.486 OA
ATOM     28  C   UNL     1       9.535  46.874  53.393  1.00  0.00     0.271 C 
ATOM     29  C   UNL     1       9.888  46.778  51.918  1.00  0.00     0.271 C 
ENDBRANCH  18  20
ENDBRANCH  11  18
ENDBRANCH   6   8
ENDBRANCH   1   6
TORSDOF 7
ENDMDL
MODEL 7
REMARK VINA RESULT:    -8.173      3.073      7.085
REMARK INTER + INTRA:         -12.031
REMARK INTER:                 -10.874
REMARK INTRA:                  -1.157
REMARK UNBOUND:                -0.513
REMARK SMILES COCCCNc1nc(Nc2ccc3c(c2)OCCO3)c2cnn(C)c2n1
REMARK SMILES IDX 5 1 4 2 3 3 2 4 1 5 6 6 7 8 8 9 27 10 9 11 26 12 21 13 24 14
REMARK SMILES IDX 22 15 23 16 25 17 10 18 11 20 12 21 16 22 13 23 15 24 14 25
REMARK SMILES IDX 17 26 20 27 18 28 19 29
REMARK H PARENT 6 7 10 19
ROOT
ATOM      1  C   UNL     1       3.856  41.018  49.840  1.00  0.00     0.118 C 
ENDROOT
BRANCH   1   2
ATOM      2  C   UNL     1       5.113  41.327  49.025  1.00  0.00     0.050 C 
BRANCH   2   3
ATOM      3  C   UNL     1       6.317  41.598  49.921  1.00  0.00     0.161 C 
BRANCH   3   4
ATOM      4  O   UNL     1       6.600  42.991  50.041  1.00  0.00    -0.385 OA
ATOM      5  C   UNL     1       7.707  43.409  49.255  1.00  0.00     0.194 C 
ENDBRANCH   3   4
ENDBRANCH   2   3
ENDBRANCH   1   2
BRANCH   1   6
ATOM      6  N   UNL     1       4.034  41.527  51.193  1.00  0.00    -0.354 N 
ATOM      7  H   UNL     1       3.891  40.846  51.931  1.00  0.00     0.163 HD
BRANCH   6   8
ATOM      8  C   UNL     1       3.203  42.595  51.518  1.00  0.00     0.226 A 
ATOM      9  N   UNL     1       3.837  43.779  51.623  1.00  0.00    -0.195 NA
ATOM     10  N   UNL     1       1.891  42.391  51.695  1.00  0.00    -0.193 NA
ATOM     11  C   UNL     1       3.141  44.899  51.944  1.00  0.00     0.147 A 
ATOM     12  C   UNL     1       1.222  43.517  51.977  1.00  0.00     0.165 A 
ATOM     13  C   UNL     1       1.759  44.781  52.112  1.00  0.00     0.082 A 
ATOM     14  N   UNL     1      -0.124  43.656  52.181  1.00  0.00    -0.250 N 
ATOM     15  C   UNL     1       0.647  45.609  52.371  1.00  0.00     0.149 A 
ATOM     16  N   UNL     1      -0.506  44.931  52.425  1.00  0.00    -0.179 NA
ATOM     17  C   UNL     1      -1.118  42.613  52.145  1.00  0.00     0.176 C 
BRANCH  11  18
ATOM     18  N   UNL     1       3.866  46.096  52.017  1.00  0.00    -0.339 N 
ATOM     19  H   UNL     1       3.739  46.584  51.133  1.00  0.00     0.168 HD
BRANCH  18  20
ATOM     20  C   UNL     1       5.151  46.323  52.549  1.00  0.00     0.044 A 
ATOM     21  C   UNL     1       5.251  46.718  53.892  1.00  0.00     0.030 A 
ATOM     22  C   UNL     1       6.327  46.205  51.799  1.00  0.00     0.076 A 
ATOM     23  C   UNL     1       6.495  46.957  54.483  1.00  0.00     0.052 A 
ATOM     24  C   UNL     1       7.570  46.455  52.384  1.00  0.00     0.163 A 
ATOM     25  C   UNL     1       7.655  46.807  53.732  1.00  0.00     0.161 A 
ATOM     26  O   UNL     1       8.668  46.332  51.570  1.00  0.00    -0.486 OA
ATOM     27  O   UNL     1       8.844  47.033  54.379  1.00  0.00    -0.486 OA
ATOM     28  C   UNL     1       9.829  46.925  52.162  1.00  0.00     0.271 C 
ATOM     29  C   UNL     1       9.950  46.526  53.624  1.00  0.00     0.271 C 
ENDBRANCH  18  20
ENDBRANCH  11  18
ENDBRANCH   6   8
ENDBRANCH   1   6
TORSDOF 7
ENDMDL
MODEL 8
REMARK VINA RESULT:    -8.161      4.189      7.845
REMARK INTER + INTRA:         -12.013
REMARK INTER:                 -10.841
REMARK INTRA:                  -1.172
REMARK UNBOUND:                -0.513
REMARK SMILES COCCCNc1nc(Nc2ccc3c(c2)OCCO3)c2cnn(C)c2n1
REMARK SMILES IDX 5 1 4 2 3 3 2 4 1 5 6 6 7 8 8 9 27 10 9 11 26 12 21 13 24 14
REMARK SMILES IDX 22 15 23 16 25 17 10 18 11 20 12 21 16 22 13 23 15 24 14 25
REMARK SMILES IDX 17 26 20 27 18 28 19 29
REMARK H PARENT 6 7 10 19
ROOT
ATOM      1  C   UNL     1       1.039  42.812  52.463  1.00  0.00     0.118 C 
ENDROOT
BRANCH   1   2
ATOM      2  C   UNL     1       0.028  42.896  53.608  1.00  0.00     0.050 C 
BRANCH   2   3
ATOM      3  C   UNL     1      -0.116  44.322  54.133  1.00  0.00     0.161 C 
BRANCH   3   4
ATOM      4  O   UNL     1       1.138  44.998  54.211  1.00  0.00    -0.385 OA
ATOM      5  C   UNL     1       1.741  44.916  55.495  1.00  0.00     0.194 C 
ENDBRANCH   3   4
ENDBRANCH   2   3
ENDBRANCH   1   2
BRANCH   1   6
ATOM      6  N   UNL     1       2.314  42.350  52.993  1.00  0.00    -0.354 N 
ATOM      7  H   UNL     1       2.488  42.586  53.964  1.00  0.00     0.163 HD
BRANCH   6   8
ATOM      8  C   UNL     1       3.427  42.820  52.300  1.00  0.00     0.226 A 
ATOM      9  N   UNL     1       3.910  41.963  51.381  1.00  0.00    -0.195 NA
ATOM     10  N   UNL     1       3.921  44.034  52.575  1.00  0.00    -0.193 NA
ATOM     11  C   UNL     1       4.999  42.298  50.643  1.00  0.00     0.147 A 
ATOM     12  C   UNL     1       4.974  44.354  51.810  1.00  0.00     0.165 A 
ATOM     13  C   UNL     1       5.557  43.563  50.841  1.00  0.00     0.082 A 
ATOM     14  N   UNL     1       5.682  45.524  51.818  1.00  0.00    -0.250 N 
ATOM     15  C   UNL     1       6.591  44.362  50.311  1.00  0.00     0.149 A 
ATOM     16  N   UNL     1       6.683  45.557  50.908  1.00  0.00    -0.179 NA
ATOM     17  C   UNL     1       5.455  46.669  52.663  1.00  0.00     0.176 C 
BRANCH  11  18
ATOM     18  N   UNL     1       5.432  41.362  49.693  1.00  0.00    -0.339 N 
ATOM     19  H   UNL     1       6.447  41.313  49.754  1.00  0.00     0.168 HD
BRANCH  18  20
ATOM     20  C   UNL     1       4.987  41.169  48.370  1.00  0.00     0.044 A 
ATOM     21  C   UNL     1       5.717  41.768  47.332  1.00  0.00     0.030 A 
ATOM     22  C   UNL     1       3.838  40.439  48.043  1.00  0.00     0.076 A 
ATOM     23  C   UNL     1       5.331  41.615  45.998  1.00  0.00     0.052 A 
ATOM     24  C   UNL     1       3.444  40.295  46.712  1.00  0.00     0.163 A 
ATOM     25  C   UNL     1       4.204  40.862  45.687  1.00  0.00     0.161 A 
ATOM     26  O   UNL     1       2.296  39.577  46.485  1.00  0.00    -0.486 OA
ATOM     27  O   UNL     1       3.895  40.731  44.358  1.00  0.00    -0.486 OA
ATOM     28  C   UNL     1       1.809  39.774  45.152  1.00  0.00     0.271 C 
ATOM     29  C   UNL     1       2.945  39.680  44.147  1.00  0.00     0.271 C 
ENDBRANCH  18  20
ENDBRANCH  11  18
ENDBRANCH   6   8
ENDBRANCH   1   6
TORSDOF 7
ENDMDL
MODEL 9
REMARK VINA RESULT:    -8.113      1.599      2.119
REMARK INTER + INTRA:         -11.946
REMARK INTER:                 -10.645
REMARK INTRA:                  -1.300
REMARK UNBOUND:                -0.513
REMARK SMILES COCCCNc1nc(Nc2ccc3c(c2)OCCO3)c2cnn(C)c2n1
REMARK SMILES IDX 5 1 4 2 3 3 2 4 1 5 6 6 7 8 8 9 27 10 9 11 26 12 21 13 24 14
REMARK SMILES IDX 22 15 23 16 25 17 10 18 11 20 12 21 16 22 13 23 15 24 14 25
REMARK SMILES IDX 17 26 20 27 18 28 19 29
REMARK H PARENT 6 7 10 19
ROOT
ATOM      1  C   UNL     1       8.837  45.968  51.479  1.00  0.00     0.118 C 
ENDROOT
BRANCH   1   2
ATOM      2  C   UNL     1       9.524  47.177  52.116  1.00  0.00     0.050 C 
BRANCH   2   3
ATOM      3  C   UNL     1       9.025  47.429  53.536  1.00  0.00     0.161 C 
BRANCH   3   4
ATOM      4  O   UNL     1       7.612  47.620  53.586  1.00  0.00    -0.385 OA
ATOM      5  C   UNL     1       6.971  46.814  54.565  1.00  0.00     0.194 C 
ENDBRANCH   3   4
ENDBRANCH   2   3
ENDBRANCH   1   2
BRANCH   1   6
ATOM      6  N   UNL     1       7.596  46.404  50.856  1.00  0.00    -0.354 N 
ATOM      7  H   UNL     1       7.220  47.278  51.210  1.00  0.00     0.163 HD
BRANCH   6   8
ATOM      8  C   UNL     1       6.550  45.491  50.959  1.00  0.00     0.226 A 
ATOM      9  N   UNL     1       5.402  46.014  51.431  1.00  0.00    -0.195 NA
ATOM     10  N   UNL     1       6.740  44.215  50.600  1.00  0.00    -0.193 NA
ATOM     11  C   UNL     1       4.308  45.226  51.587  1.00  0.00     0.147 A 
ATOM     12  C   UNL     1       5.636  43.466  50.731  1.00  0.00     0.165 A 
ATOM     13  C   UNL     1       4.409  43.887  51.202  1.00  0.00     0.082 A 
ATOM     14  N   UNL     1       5.488  42.142  50.423  1.00  0.00    -0.250 N 
ATOM     15  C   UNL     1       3.588  42.744  51.111  1.00  0.00     0.149 A 
ATOM     16  N   UNL     1       4.240  41.670  50.646  1.00  0.00    -0.179 NA
ATOM     17  C   UNL     1       6.496  41.258  49.894  1.00  0.00     0.176 C 
BRANCH  11  18
ATOM     18  N   UNL     1       3.144  45.845  52.065  1.00  0.00    -0.339 N 
ATOM     19  H   UNL     1       3.235  46.843  51.887  1.00  0.00     0.168 HD
BRANCH  18  20
ATOM     20  C   UNL     1       2.433  45.598  53.256  1.00  0.00     0.044 A 
ATOM     21  C   UNL     1       3.135  45.659  54.470  1.00  0.00     0.030 A 
ATOM     22  C   UNL     1       1.073  45.266  53.286  1.00  0.00     0.076 A 
ATOM     23  C   UNL     1       2.489  45.427  55.688  1.00  0.00     0.052 A 
ATOM     24  C   UNL     1       0.430  45.022  54.501  1.00  0.00     0.163 A 
ATOM     25  C   UNL     1       1.132  45.126  55.703  1.00  0.00     0.161 A 
ATOM     26  O   UNL     1      -0.899  44.686  54.435  1.00  0.00    -0.486 OA
ATOM     27  O   UNL     1       0.555  44.934  56.933  1.00  0.00    -0.486 OA
ATOM     28  C   UNL     1      -1.363  44.139  55.675  1.00  0.00     0.271 C 
ATOM     29  C   UNL     1      -0.874  44.973  56.847  1.00  0.00     0.271 C 
ENDBRANCH  18  20
ENDBRANCH  11  18
ENDBRANCH   6   8
ENDBRANCH   1   6
TORSDOF 7
ENDMDL
MODEL 10
REMARK VINA RESULT:    -8.036      2.606      4.732
REMARK INTER + INTRA:         -11.837
REMARK INTER:                 -10.655
REMARK INTRA:                  -1.182
REMARK UNBOUND:                -0.513
REMARK SMILES COCCCNc1nc(Nc2ccc3c(c2)OCCO3)c2cnn(C)c2n1
REMARK SMILES IDX 5 1 4 2 3 3 2 4 1 5 6 6 7 8 8 9 27 10 9 11 26 12 21 13 24 14
REMARK SMILES IDX 22 15 23 16 25 17 10 18 11 20 12 21 16 22 13 23 15 24 14 25
REMARK SMILES IDX 17 26 20 27 18 28 19 29
REMARK H PARENT 6 7 10 19
ROOT
ATOM      1  C   UNL     1       7.087  43.344  49.544  1.00  0.00     0.118 C 
ENDROOT
BRANCH   1   2
ATOM      2  C   UNL     1       6.910  41.859  49.864  1.00  0.00     0.050 C 
BRANCH   2   3
ATOM      3  C   UNL     1       5.515  41.363  49.495  1.00  0.00     0.161 C 
BRANCH   3   4
ATOM      4  O   UNL     1       4.696  41.146  50.643  1.00  0.00    -0.385 OA
ATOM      5  C   UNL     1       3.337  41.509  50.439  1.00  0.00     0.194 C 
ENDBRANCH   3   4
ENDBRANCH   2   3
ENDBRANCH   1   2
BRANCH   1   6
ATOM      6  N   UNL     1       5.883  44.060  49.941  1.00  0.00    -0.354 N 
ATOM      7  H   UNL     1       5.591  44.795  49.306  1.00  0.00     0.163 HD
BRANCH   6   8
ATOM      8  C   UNL     1       5.962  44.668  51.190  1.00  0.00     0.226 A 
ATOM      9  N   UNL     1       5.057  44.222  52.083  1.00  0.00    -0.195 NA
ATOM     10  N   UNL     1       6.887  45.609  51.418  1.00  0.00    -0.193 NA
ATOM     11  C   UNL     1       5.023  44.741  53.337  1.00  0.00     0.147 A 
ATOM     12  C   UNL     1       6.855  46.081  52.672  1.00  0.00     0.165 A 
ATOM     13  C   UNL     1       5.978  45.705  53.669  1.00  0.00     0.082 A 
ATOM     14  N   UNL     1       7.680  47.018  53.229  1.00  0.00    -0.250 N 
ATOM     15  C   UNL     1       6.380  46.458  54.792  1.00  0.00     0.149 A 
ATOM     16  N   UNL     1       7.411  47.271  54.532  1.00  0.00    -0.179 NA
ATOM     17  C   UNL     1       8.764  47.713  52.582  1.00  0.00     0.176 C 
BRANCH  11  18
ATOM     18  N   UNL     1       4.066  44.213  54.215  1.00  0.00    -0.339 N 
ATOM     19  H   UNL     1       4.374  43.279  54.476  1.00  0.00     0.168 HD
BRANCH  18  20
ATOM     20  C   UNL     1       2.661  44.290  54.144  1.00  0.00     0.044 A 
ATOM     21  C   UNL     1       1.990  45.055  55.110  1.00  0.00     0.030 A 
ATOM     22  C   UNL     1       1.900  43.617  53.179  1.00  0.00     0.076 A 
ATOM     23  C   UNL     1       0.598  45.176  55.096  1.00  0.00     0.052 A 
ATOM     24  C   UNL     1       0.508  43.726  53.171  1.00  0.00     0.163 A 
ATOM     25  C   UNL     1      -0.141  44.525  54.114  1.00  0.00     0.161 A 
ATOM     26  O   UNL     1      -0.157  43.019  52.201  1.00  0.00    -0.486 OA
ATOM     27  O   UNL     1      -1.501  44.704  54.143  1.00  0.00    -0.486 OA
ATOM     28  C   UNL     1      -1.558  42.931  52.485  1.00  0.00     0.271 C 
ATOM     29  C   UNL     1      -2.105  44.282  52.915  1.00  0.00     0.271 C 
ENDBRANCH  18  20
ENDBRANCH  11  18
ENDBRANCH   6   8
ENDBRANCH   1   6
TORSDOF 7
ENDMDL
MODEL 11
REMARK VINA RESULT:    -8.033      1.685      2.436
REMARK INTER + INTRA:         -11.833
REMARK INTER:                 -10.989
REMARK INTRA:                  -0.844
REMARK UNBOUND:                -0.513
REMARK SMILES COCCCNc1nc(Nc2ccc3c(c2)OCCO3)c2cnn(C)c2n1
REMARK SMILES IDX 5 1 4 2 3 3 2 4 1 5 6 6 7 8 8 9 27 10 9 11 26 12 21 13 24 14
REMARK SMILES IDX 22 15 23 16 25 17 10 18 11 20 12 21 16 22 13 23 15 24 14 25
REMARK SMILES IDX 17 26 20 27 18 28 19 29
REMARK H PARENT 6 7 10 19
ROOT
ATOM      1  C   UNL     1       7.815  46.624  51.226  1.00  0.00     0.118 C 
ENDROOT
BRANCH   1   2
ATOM      2  C   UNL     1       8.880  47.451  51.947  1.00  0.00     0.050 C 
BRANCH   2   3
ATOM      3  C   UNL     1       9.961  46.568  52.564  1.00  0.00     0.161 C 
BRANCH   3   4
ATOM      4  O   UNL     1      10.046  46.726  53.979  1.00  0.00    -0.385 OA
ATOM      5  C   UNL     1       9.237  47.784  54.475  1.00  0.00     0.194 C 
ENDBRANCH   3   4
ENDBRANCH   2   3
ENDBRANCH   1   2
BRANCH   1   6
ATOM      6  N   UNL     1       6.641  46.517  52.081  1.00  0.00    -0.354 N 
ATOM      7  H   UNL     1       6.828  46.561  53.077  1.00  0.00     0.163 HD
BRANCH   6   8
ATOM      8  C   UNL     1       5.905  45.349  51.901  1.00  0.00     0.226 A 
ATOM      9  N   UNL     1       4.879  45.202  52.761  1.00  0.00    -0.195 NA
ATOM     10  N   UNL     1       6.243  44.489  50.932  1.00  0.00    -0.193 NA
ATOM     11  C   UNL     1       4.088  44.101  52.697  1.00  0.00     0.147 A 
ATOM     12  C   UNL     1       5.427  43.428  50.868  1.00  0.00     0.165 A 
ATOM     13  C   UNL     1       4.350  43.168  51.691  1.00  0.00     0.082 A 
ATOM     14  N   UNL     1       5.480  42.391  49.978  1.00  0.00    -0.250 N 
ATOM     15  C   UNL     1       3.810  41.964  51.193  1.00  0.00     0.149 A 
ATOM     16  N   UNL     1       4.498  41.476  50.153  1.00  0.00    -0.179 NA
ATOM     17  C   UNL     1       6.436  42.209  48.915  1.00  0.00     0.176 C 
BRANCH  11  18
ATOM     18  N   UNL     1       3.029  44.028  53.613  1.00  0.00    -0.339 N 
ATOM     19  H   UNL     1       3.335  43.441  54.387  1.00  0.00     0.168 HD
BRANCH  18  20
ATOM     20  C   UNL     1       1.651  43.873  53.365  1.00  0.00     0.044 A 
ATOM     21  C   UNL     1       1.066  42.625  53.630  1.00  0.00     0.030 A 
ATOM     22  C   UNL     1       0.844  44.891  52.841  1.00  0.00     0.076 A 
ATOM     23  C   UNL     1      -0.296  42.406  53.409  1.00  0.00     0.052 A 
ATOM     24  C   UNL     1      -0.514  44.669  52.607  1.00  0.00     0.163 A 
ATOM     25  C   UNL     1      -1.089  43.434  52.914  1.00  0.00     0.161 A 
ATOM     26  O   UNL     1      -1.225  45.717  52.075  1.00  0.00    -0.486 OA
ATOM     27  O   UNL     1      -2.422  43.160  52.743  1.00  0.00    -0.486 OA
ATOM     28  C   UNL     1      -2.494  45.286  51.571  1.00  0.00     0.271 C 
ATOM     29  C   UNL     1      -3.181  44.362  52.564  1.00  0.00     0.271 C 
ENDBRANCH  18  20
ENDBRANCH  11  18
ENDBRANCH   6   8
ENDBRANCH   1   6
TORSDOF 7
ENDMDL
MODEL 12
REMARK VINA RESULT:    -8.028      2.562      6.126
REMARK INTER + INTRA:         -11.826
REMARK INTER:                 -10.781
REMARK INTRA:                  -1.045
REMARK UNBOUND:                -0.513
REMARK SMILES COCCCNc1nc(Nc2ccc3c(c2)OCCO3)c2cnn(C)c2n1
REMARK SMILES IDX 5 1 4 2 3 3 2 4 1 5 6 6 7 8 8 9 27 10 9 11 26 12 21 13 24 14
REMARK SMILES IDX 22 15 23 16 25 17 10 18 11 20 12 21 16 22 13 23 15 24 14 25
REMARK SMILES IDX 17 26 20 27 18 28 19 29
REMARK H PARENT 6 7 10 19
ROOT
ATOM      1  C   UNL     1       4.483  45.709  55.435  1.00  0.00     0.118 C 
ENDROOT
BRANCH   1   2
ATOM      2  C   UNL     1       2.985  45.697  55.123  1.00  0.00     0.050 C 
BRANCH   2   3
ATOM      3  C   UNL     1       2.720  45.570  53.626  1.00  0.00     0.161 C 
BRANCH   3   4
ATOM      4  O   UNL     1       2.502  46.836  53.005  1.00  0.00    -0.385 OA
ATOM      5  C   UNL     1       2.911  46.872  51.645  1.00  0.00     0.194 C 
ENDBRANCH   3   4
ENDBRANCH   2   3
ENDBRANCH   1   2
BRANCH   1   6
ATOM      6  N   UNL     1       5.042  46.987  55.021  1.00  0.00    -0.354 N 
ATOM      7  H   UNL     1       4.457  47.531  54.395  1.00  0.00     0.163 HD
BRANCH   6   8
ATOM      8  C   UNL     1       6.273  46.894  54.377  1.00  0.00     0.226 A 
ATOM      9  N   UNL     1       6.201  46.458  53.104  1.00  0.00    -0.195 NA
ATOM     10  N   UNL     1       7.394  47.227  55.028  1.00  0.00    -0.193 NA
ATOM     11  C   UNL     1       7.333  46.314  52.369  1.00  0.00     0.147 A 
ATOM     12  C   UNL     1       8.493  47.109  54.270  1.00  0.00     0.165 A 
ATOM     13  C   UNL     1       8.545  46.674  52.961  1.00  0.00     0.082 A 
ATOM     14  N   UNL     1       9.782  47.398  54.623  1.00  0.00    -0.250 N 
ATOM     15  C   UNL     1       9.910  46.765  52.616  1.00  0.00     0.149 A 
ATOM     16  N   UNL     1      10.675  47.197  53.626  1.00  0.00    -0.179 NA
ATOM     17  C   UNL     1      10.242  47.888  55.897  1.00  0.00     0.176 C 
BRANCH  11  18
ATOM     18  N   UNL     1       7.176  45.874  51.046  1.00  0.00    -0.339 N 
ATOM     19  H   UNL     1       6.908  46.680  50.486  1.00  0.00     0.168 HD
BRANCH  18  20
ATOM     20  C   UNL     1       6.572  44.693  50.571  1.00  0.00     0.044 A 
ATOM     21  C   UNL     1       7.218  43.987  49.544  1.00  0.00     0.030 A 
ATOM     22  C   UNL     1       5.349  44.208  51.048  1.00  0.00     0.076 A 
ATOM     23  C   UNL     1       6.674  42.807  49.029  1.00  0.00     0.052 A 
ATOM     24  C   UNL     1       4.798  43.037  50.525  1.00  0.00     0.163 A 
ATOM     25  C   UNL     1       5.473  42.323  49.533  1.00  0.00     0.161 A 
ATOM     26  O   UNL     1       3.587  42.644  51.040  1.00  0.00    -0.486 OA
ATOM     27  O   UNL     1       5.007  41.148  49.001  1.00  0.00    -0.486 OA
ATOM     28  C   UNL     1       2.967  41.648  50.219  1.00  0.00     0.271 C 
ATOM     29  C   UNL     1       3.973  40.583  49.815  1.00  0.00     0.271 C 
ENDBRANCH  18  20
ENDBRANCH  11  18
ENDBRANCH   6   8
ENDBRANCH   1   6
TORSDOF 7
ENDMDL
MODEL 13
REMARK VINA RESULT:    -7.994      3.144      7.803
REMARK INTER + INTRA:         -11.778
REMARK INTER:                 -10.786
REMARK INTRA:                  -0.992
REMARK UNBOUND:                -0.513
REMARK SMILES COCCCNc1nc(Nc2ccc3c(c2)OCCO3)c2cnn(C)c2n1
REMARK SMILES IDX 5 1 4 2 3 3 2 4 1 5 6 6 7 8 8 9 27 10 9 11 26 12 21 13 24 14
REMARK SMILES IDX 22 15 23 16 25 17 10 18 11 20 12 21 16 22 13 23 15 24 14 25
REMARK SMILES IDX 17 26 20 27 18 28 19 29
REMARK H PARENT 6 7 10 19
ROOT
ATOM      1  C   UNL     1      -0.880  44.972  56.240  1.00  0.00     0.118 C 
ENDROOT
BRANCH   1   2
ATOM      2  C   UNL     1      -1.794  45.982  56.935  1.00  0.00     0.050 C 
BRANCH   2   3
ATOM      3  C   UNL     1      -1.003  47.132  57.550  1.00  0.00     0.161 C 
BRANCH   3   4
ATOM      4  O   UNL     1       0.108  46.674  58.319  1.00  0.00    -0.385 OA
ATOM      5  C   UNL     1       0.506  47.590  59.331  1.00  0.00     0.194 C 
ENDBRANCH   3   4
ENDBRANCH   2   3
ENDBRANCH   1   2
BRANCH   1   6
ATOM      6  N   UNL     1       0.204  45.688  55.584  1.00  0.00    -0.354 N 
ATOM      7  H   UNL     1      -0.023  46.630  55.283  1.00  0.00     0.163 HD
BRANCH   6   8
ATOM      8  C   UNL     1       0.706  45.056  54.451  1.00  0.00     0.226 A 
ATOM      9  N   UNL     1       2.022  44.771  54.512  1.00  0.00    -0.195 NA
ATOM     10  N   UNL     1      -0.106  44.782  53.422  1.00  0.00    -0.193 NA
ATOM     11  C   UNL     1       2.636  44.161  53.467  1.00  0.00     0.147 A 
ATOM     12  C   UNL     1       0.517  44.149  52.418  1.00  0.00     0.165 A 
ATOM     13  C   UNL     1       1.853  43.807  52.366  1.00  0.00     0.082 A 
ATOM     14  N   UNL     1      -0.032  43.706  51.247  1.00  0.00    -0.250 N 
ATOM     15  C   UNL     1       1.995  43.139  51.132  1.00  0.00     0.149 A 
ATOM     16  N   UNL     1       0.853  43.081  50.436  1.00  0.00    -0.179 NA
ATOM     17  C   UNL     1      -1.407  43.829  50.833  1.00  0.00     0.176 C 
BRANCH  11  18
ATOM     18  N   UNL     1       4.003  43.880  53.612  1.00  0.00    -0.339 N 
ATOM     19  H   UNL     1       4.130  43.453  54.527  1.00  0.00     0.168 HD
BRANCH  18  20
ATOM     20  C   UNL     1       5.113  44.670  53.254  1.00  0.00     0.044 A 
ATOM     21  C   UNL     1       5.486  44.712  51.902  1.00  0.00     0.030 A 
ATOM     22  C   UNL     1       5.879  45.387  54.181  1.00  0.00     0.076 A 
ATOM     23  C   UNL     1       6.576  45.478  51.478  1.00  0.00     0.052 A 
ATOM     24  C   UNL     1       6.976  46.142  53.761  1.00  0.00     0.163 A 
ATOM     25  C   UNL     1       7.309  46.208  52.407  1.00  0.00     0.161 A 
ATOM     26  O   UNL     1       7.680  46.799  54.740  1.00  0.00    -0.486 OA
ATOM     27  O   UNL     1       8.351  46.957  51.922  1.00  0.00    -0.486 OA
ATOM     28  C   UNL     1       8.949  47.254  54.257  1.00  0.00     0.271 C 
ATOM     29  C   UNL     1       8.802  47.908  52.893  1.00  0.00     0.271 C 
ENDBRANCH  18  20
ENDBRANCH  11  18
ENDBRANCH   6   8
ENDBRANCH   1   6
TORSDOF 7
ENDMDL
MODEL 14
REMARK VINA RESULT:    -7.993      3.517      8.069
REMARK INTER + INTRA:         -11.777
REMARK INTER:                 -11.327
REMARK INTRA:                  -0.450
REMARK UNBOUND:                -0.513
REMARK SMILES COCCCNc1nc(Nc2ccc3c(c2)OCCO3)c2cnn(C)c2n1
REMARK SMILES IDX 5 1 4 2 3 3 2 4 1 5 6 6 7 8 8 9 27 10 9 11 26 12 21 13 24 14
REMARK SMILES IDX 22 15 23 16 25 17 10 18 11 20 12 21 16 22 13 23 15 24 14 25
REMARK SMILES IDX 17 26 20 27 18 28 19 29
REMARK H PARENT 6 7 10 19
ROOT
ATOM      1  C   UNL     1       1.728  43.868  51.393  1.00  0.00     0.118 C 
ENDROOT
BRANCH   1   2
ATOM      2  C   UNL     1       2.250  42.532  50.861  1.00  0.00     0.050 C 
BRANCH   2   3
ATOM      3  C   UNL     1       3.674  42.252  51.332  1.00  0.00     0.161 C 
BRANCH   3   4
ATOM      4  O   UNL     1       4.194  41.040  50.789  1.00  0.00    -0.385 OA
ATOM      5  C   UNL     1       3.709  40.755  49.484  1.00  0.00     0.194 C 
ENDBRANCH   3   4
ENDBRANCH   2   3
ENDBRANCH   1   2
BRANCH   1   6
ATOM      6  N   UNL     1       0.640  43.612  52.325  1.00  0.00    -0.354 N 
ATOM      7  H   UNL     1      -0.274  43.928  52.018  1.00  0.00     0.163 HD
BRANCH   6   8
ATOM      8  C   UNL     1       0.816  44.180  53.584  1.00  0.00     0.226 A 
ATOM      9  N   UNL     1       2.103  44.299  53.963  1.00  0.00    -0.195 NA
ATOM     10  N   UNL     1      -0.249  44.556  54.302  1.00  0.00    -0.193 NA
ATOM     11  C   UNL     1       2.411  44.830  55.173  1.00  0.00     0.147 A 
ATOM     12  C   UNL     1       0.082  45.109  55.478  1.00  0.00     0.165 A 
ATOM     13  C   UNL     1       1.359  45.282  55.974  1.00  0.00     0.082 A 
ATOM     14  N   UNL     1      -0.762  45.621  56.423  1.00  0.00    -0.250 N 
ATOM     15  C   UNL     1       1.169  45.930  57.211  1.00  0.00     0.149 A 
ATOM     16  N   UNL     1      -0.123  46.133  57.501  1.00  0.00    -0.179 NA
ATOM     17  C   UNL     1      -2.201  45.670  56.365  1.00  0.00     0.176 C 
BRANCH  11  18
ATOM     18  N   UNL     1       3.773  44.939  55.490  1.00  0.00    -0.339 N 
ATOM     19  H   UNL     1       3.838  45.312  56.434  1.00  0.00     0.168 HD
BRANCH  18  20
ATOM     20  C   UNL     1       4.837  45.390  54.684  1.00  0.00     0.044 A 
ATOM     21  C   UNL     1       4.933  44.892  53.375  1.00  0.00     0.030 A 
ATOM     22  C   UNL     1       5.817  46.283  55.133  1.00  0.00     0.076 A 
ATOM     23  C   UNL     1       5.962  45.301  52.522  1.00  0.00     0.052 A 
ATOM     24  C   UNL     1       6.854  46.682  54.286  1.00  0.00     0.163 A 
ATOM     25  C   UNL     1       6.912  46.210  52.973  1.00  0.00     0.161 A 
ATOM     26  O   UNL     1       7.780  47.546  54.815  1.00  0.00    -0.486 OA
ATOM     27  O   UNL     1       7.880  46.588  52.079  1.00  0.00    -0.486 OA
ATOM     28  C   UNL     1       8.953  47.622  53.996  1.00  0.00     0.271 C 
ATOM     29  C   UNL     1       8.577  47.755  52.530  1.00  0.00     0.271 C 
ENDBRANCH  18  20
ENDBRANCH  11  18
ENDBRANCH   6   8
ENDBRANCH   1   6
TORSDOF 7
ENDMDL
MODEL 15
REMARK VINA RESULT:    -7.974      3.813      8.150
REMARK INTER + INTRA:         -11.749
REMARK INTER:                 -10.643
REMARK INTRA:                  -1.106
REMARK UNBOUND:                -0.513
REMARK SMILES COCCCNc1nc(Nc2ccc3c(c2)OCCO3)c2cnn(C)c2n1
REMARK SMILES IDX 5 1 4 2 3 3 2 4 1 5 6 6 7 8 8 9 27 10 9 11 26 12 21 13 24 14
REMARK SMILES IDX 22 15 23 16 25 17 10 18 11 20 12 21 16 22 13 23 15 24 14 25
REMARK SMILES IDX 17 26 20 27 18 28 19 29
REMARK H PARENT 6 7 10 19
ROOT
ATOM      1  C   UNL     1       0.307  42.630  52.755  1.00  0.00     0.118 C 
ENDROOT
BRANCH   1   2
ATOM      2  C   UNL     1       0.632  43.165  51.359  1.00  0.00     0.050 C 
BRANCH   2   3
ATOM      3  C   UNL     1       2.132  43.364  51.164  1.00  0.00     0.161 C 
BRANCH   3   4
ATOM      4  O   UNL     1       2.903  42.384  51.858  1.00  0.00    -0.385 OA
ATOM      5  C   UNL     1       3.936  41.817  51.064  1.00  0.00     0.194 C 
ENDBRANCH   3   4
ENDBRANCH   2   3
ENDBRANCH   1   2
BRANCH   1   6
ATOM      6  N   UNL     1      -0.675  43.505  53.379  1.00  0.00    -0.354 N 
ATOM      7  H   UNL     1      -1.069  44.213  52.769  1.00  0.00     0.163 HD
BRANCH   6   8
ATOM      8  C   UNL     1      -0.202  44.201  54.487  1.00  0.00     0.226 A 
ATOM      9  N   UNL     1       1.140  44.211  54.604  1.00  0.00    -0.195 NA
ATOM     10  N   UNL     1      -1.065  44.789  55.325  1.00  0.00    -0.193 NA
ATOM     11  C   UNL     1       1.729  44.849  55.647  1.00  0.00     0.147 A 
ATOM     12  C   UNL     1      -0.457  45.441  56.327  1.00  0.00     0.165 A 
ATOM     13  C   UNL     1       0.902  45.520  56.551  1.00  0.00     0.082 A 
ATOM     14  N   UNL     1      -1.048  46.165  57.325  1.00  0.00    -0.250 N 
ATOM     15  C   UNL     1       1.021  46.337  57.695  1.00  0.00     0.149 A 
ATOM     16  N   UNL     1      -0.163  46.728  58.182  1.00  0.00    -0.179 NA
ATOM     17  C   UNL     1      -2.459  46.380  57.523  1.00  0.00     0.176 C 
BRANCH  11  18
ATOM     18  N   UNL     1       3.130  44.832  55.691  1.00  0.00    -0.339 N 
ATOM     19  H   UNL     1       3.407  45.007  56.655  1.00  0.00     0.168 HD
BRANCH  18  20
ATOM     20  C   UNL     1       4.052  45.386  54.782  1.00  0.00     0.044 A 
ATOM     21  C   UNL     1       4.376  46.745  54.913  1.00  0.00     0.030 A 
ATOM     22  C   UNL     1       4.637  44.658  53.738  1.00  0.00     0.076 A 
ATOM     23  C   UNL     1       5.286  47.357  54.046  1.00  0.00     0.052 A 
ATOM     24  C   UNL     1       5.536  45.272  52.863  1.00  0.00     0.163 A 
ATOM     25  C   UNL     1       5.879  46.614  53.032  1.00  0.00     0.161 A 
ATOM     26  O   UNL     1       6.047  44.487  51.859  1.00  0.00    -0.486 OA
ATOM     27  O   UNL     1       6.780  47.269  52.232  1.00  0.00    -0.486 OA
ATOM     28  C   UNL     1       6.676  45.279  50.845  1.00  0.00     0.271 C 
ATOM     29  C   UNL     1       7.563  46.344  51.468  1.00  0.00     0.271 C 
ENDBRANCH  18  20
ENDBRANCH  11  18
ENDBRANCH   6   8
ENDBRANCH   1   6
TORSDOF 7
ENDMDL
MODEL 16
REMARK VINA RESULT:    -7.894      2.165      3.318
REMARK INTER + INTRA:         -11.637
REMARK INTER:                 -10.587
REMARK INTRA:                  -1.050
REMARK UNBOUND:                -0.513
REMARK SMILES COCCCNc1nc(Nc2ccc3c(c2)OCCO3)c2cnn(C)c2n1
REMARK SMILES IDX 5 1 4 2 3 3 2 4 1 5 6 6 7 8 8 9 27 10 9 11 26 12 21 13 24 14
REMARK SMILES IDX 22 15 23 16 25 17 10 18 11 20 12 21 16 22 13 23 15 24 14 25
REMARK SMILES IDX 17 26 20 27 18 28 19 29
REMARK H PARENT 6 7 10 19
ROOT
ATOM      1  C   UNL     1       5.325  46.791  53.865  1.00  0.00     0.118 C 
ENDROOT
BRANCH   1   2
ATOM      2  C   UNL     1       6.635  46.093  54.233  1.00  0.00     0.050 C 
BRANCH   2   3
ATOM      3  C   UNL     1       7.838  47.013  54.047  1.00  0.00     0.161 C 
BRANCH   3   4
ATOM      4  O   UNL     1       7.582  48.055  53.107  1.00  0.00    -0.385 OA
ATOM      5  C   UNL     1       8.393  47.973  51.943  1.00  0.00     0.194 C 
ENDBRANCH   3   4
ENDBRANCH   2   3
ENDBRANCH   1   2
BRANCH   1   6
ATOM      6  N   UNL     1       5.122  46.688  52.428  1.00  0.00    -0.354 N 
ATOM      7  H   UNL     1       4.264  47.106  52.083  1.00  0.00     0.163 HD
BRANCH   6   8
ATOM      8  C   UNL     1       5.111  45.384  51.942  1.00  0.00     0.226 A 
ATOM      9  N   UNL     1       4.101  44.626  52.409  1.00  0.00    -0.195 NA
ATOM     10  N   UNL     1       6.057  44.984  51.082  1.00  0.00    -0.193 NA
ATOM     11  C   UNL     1       3.983  43.331  52.019  1.00  0.00     0.147 A 
ATOM     12  C   UNL     1       5.898  43.713  50.686  1.00  0.00     0.165 A 
ATOM     13  C   UNL     1       4.909  42.842  51.094  1.00  0.00     0.082 A 
ATOM     14  N   UNL     1       6.669  43.018  49.795  1.00  0.00    -0.250 N 
ATOM     15  C   UNL     1       5.162  41.659  50.370  1.00  0.00     0.149 A 
ATOM     16  N   UNL     1       6.240  41.752  49.581  1.00  0.00    -0.179 NA
ATOM     17  C   UNL     1       7.830  43.500  49.092  1.00  0.00     0.176 C 
BRANCH  11  18
ATOM     18  N   UNL     1       2.895  42.611  52.534  1.00  0.00    -0.339 N 
ATOM     19  H   UNL     1       3.082  41.623  52.378  1.00  0.00     0.168 HD
BRANCH  18  20
ATOM     20  C   UNL     1       1.519  42.895  52.437  1.00  0.00     0.044 A 
ATOM     21  C   UNL     1       0.980  43.133  51.163  1.00  0.00     0.030 A 
ATOM     22  C   UNL     1       0.671  42.982  53.548  1.00  0.00     0.076 A 
ATOM     23  C   UNL     1      -0.378  43.417  50.997  1.00  0.00     0.052 A 
ATOM     24  C   UNL     1      -0.684  43.279  53.384  1.00  0.00     0.163 A 
ATOM     25  C   UNL     1      -1.213  43.472  52.107  1.00  0.00     0.161 A 
ATOM     26  O   UNL     1      -1.437  43.361  54.529  1.00  0.00    -0.486 OA
ATOM     27  O   UNL     1      -2.539  43.732  51.872  1.00  0.00    -0.486 OA
ATOM     28  C   UNL     1      -2.701  43.988  54.281  1.00  0.00     0.271 C 
ATOM     29  C   UNL     1      -3.339  43.429  53.020  1.00  0.00     0.271 C 
ENDBRANCH  18  20
ENDBRANCH  11  18
ENDBRANCH   6   8
ENDBRANCH   1   6
TORSDOF 7
ENDMDL
MODEL 17
REMARK VINA RESULT:    -7.884      3.183      7.926
REMARK INTER + INTRA:         -11.623
REMARK INTER:                 -10.628
REMARK INTRA:                  -0.994
REMARK UNBOUND:                -0.513
REMARK SMILES COCCCNc1nc(Nc2ccc3c(c2)OCCO3)c2cnn(C)c2n1
REMARK SMILES IDX 5 1 4 2 3 3 2 4 1 5 6 6 7 8 8 9 27 10 9 11 26 12 21 13 24 14
REMARK SMILES IDX 22 15 23 16 25 17 10 18 11 20 12 21 16 22 13 23 15 24 14 25
REMARK SMILES IDX 17 26 20 27 18 28 19 29
REMARK H PARENT 6 7 10 19
ROOT
ATOM      1  C   UNL     1       4.564  41.210  50.343  1.00  0.00     0.118 C 
ENDROOT
BRANCH   1   2
ATOM      2  C   UNL     1       4.919  41.071  48.862  1.00  0.00     0.050 C 
BRANCH   2   3
ATOM      3  C   UNL     1       3.714  40.643  48.028  1.00  0.00     0.161 C 
BRANCH   3   4
ATOM      4  O   UNL     1       3.181  39.389  48.453  1.00  0.00    -0.385 OA
ATOM      5  C   UNL     1       2.816  38.540  47.374  1.00  0.00     0.194 C 
ENDBRANCH   3   4
ENDBRANCH   2   3
ENDBRANCH   1   2
BRANCH   1   6
ATOM      6  N   UNL     1       3.135  41.459  50.465  1.00  0.00    -0.354 N 
ATOM      7  H   UNL     1       2.646  41.603  49.588  1.00  0.00     0.163 HD
BRANCH   6   8
ATOM      8  C   UNL     1       2.810  42.564  51.247  1.00  0.00     0.226 A 
ATOM      9  N   UNL     1       3.656  43.603  51.117  1.00  0.00    -0.195 NA
ATOM     10  N   UNL     1       1.730  42.528  52.038  1.00  0.00    -0.193 NA
ATOM     11  C   UNL     1       3.455  44.739  51.833  1.00  0.00     0.147 A 
ATOM     12  C   UNL     1       1.535  43.673  52.707  1.00  0.00     0.165 A 
ATOM     13  C   UNL     1       2.330  44.799  52.658  1.00  0.00     0.082 A 
ATOM     14  N   UNL     1       0.513  43.969  53.566  1.00  0.00    -0.250 N 
ATOM     15  C   UNL     1       1.682  45.723  53.504  1.00  0.00     0.149 A 
ATOM     16  N   UNL     1       0.577  45.223  54.072  1.00  0.00    -0.179 NA
ATOM     17  C   UNL     1      -0.578  43.108  53.947  1.00  0.00     0.176 C 
BRANCH  11  18
ATOM     18  N   UNL     1       4.368  45.785  51.630  1.00  0.00    -0.339 N 
ATOM     19  H   UNL     1       4.590  45.807  50.637  1.00  0.00     0.168 HD
BRANCH  18  20
ATOM     20  C   UNL     1       5.478  46.156  52.414  1.00  0.00     0.044 A 
ATOM     21  C   UNL     1       5.241  46.656  53.704  1.00  0.00     0.030 A 
ATOM     22  C   UNL     1       6.801  46.081  51.960  1.00  0.00     0.076 A 
ATOM     23  C   UNL     1       6.297  47.039  54.534  1.00  0.00     0.052 A 
ATOM     24  C   UNL     1       7.856  46.477  52.784  1.00  0.00     0.163 A 
ATOM     25  C   UNL     1       7.606  46.933  54.079  1.00  0.00     0.161 A 
ATOM     26  O   UNL     1       9.118  46.386  52.251  1.00  0.00    -0.486 OA
ATOM     27  O   UNL     1       8.597  47.303  54.953  1.00  0.00    -0.486 OA
ATOM     28  C   UNL     1      10.071  47.116  53.032  1.00  0.00     0.271 C 
ATOM     29  C   UNL     1       9.878  46.836  54.513  1.00  0.00     0.271 C 
ENDBRANCH  18  20
ENDBRANCH  11  18
ENDBRANCH   6   8
ENDBRANCH   1   6
TORSDOF 7
ENDMDL
MODEL 18
REMARK VINA RESULT:    -7.764      2.611      5.011
REMARK INTER + INTRA:         -11.454
REMARK INTER:                 -10.316
REMARK INTRA:                  -1.138
REMARK UNBOUND:                -0.513
REMARK SMILES COCCCNc1nc(Nc2ccc3c(c2)OCCO3)c2cnn(C)c2n1
REMARK SMILES IDX 5 1 4 2 3 3 2 4 1 5 6 6 7 8 8 9 27 10 9 11 26 12 21 13 24 14
REMARK SMILES IDX 22 15 23 16 25 17 10 18 11 20 12 21 16 22 13 23 15 24 14 25
REMARK SMILES IDX 17 26 20 27 18 28 19 29
REMARK H PARENT 6 7 10 19
ROOT
ATOM      1  C   UNL     1       7.176  42.946  49.640  1.00  0.00     0.118 C 
ENDROOT
BRANCH   1   2
ATOM      2  C   UNL     1       6.618  41.549  49.913  1.00  0.00     0.050 C 
BRANCH   2   3
ATOM      3  C   UNL     1       5.567  41.148  48.881  1.00  0.00     0.161 C 
BRANCH   3   4
ATOM      4  O   UNL     1       4.246  41.496  49.291  1.00  0.00    -0.385 OA
ATOM      5  C   UNL     1       3.960  41.129  50.634  1.00  0.00     0.194 C 
ENDBRANCH   3   4
ENDBRANCH   2   3
ENDBRANCH   1   2
BRANCH   1   6
ATOM      6  N   UNL     1       6.096  43.916  49.750  1.00  0.00    -0.354 N 
ATOM      7  H   UNL     1       6.095  44.641  49.040  1.00  0.00     0.163 HD
BRANCH   6   8
ATOM      8  C   UNL     1       6.057  44.597  50.963  1.00  0.00     0.226 A 
ATOM      9  N   UNL     1       5.222  44.059  51.873  1.00  0.00    -0.195 NA
ATOM     10  N   UNL     1       6.814  45.686  51.143  1.00  0.00    -0.193 NA
ATOM     11  C   UNL     1       5.085  44.633  53.096  1.00  0.00     0.147 A 
ATOM     12  C   UNL     1       6.686  46.214  52.369  1.00  0.00     0.165 A 
ATOM     13  C   UNL     1       5.866  45.755  53.380  1.00  0.00     0.082 A 
ATOM     14  N   UNL     1       7.341  47.302  52.878  1.00  0.00    -0.250 N 
ATOM     15  C   UNL     1       6.124  46.624  54.461  1.00  0.00     0.149 A 
ATOM     16  N   UNL     1       7.014  47.578  54.162  1.00  0.00    -0.179 NA
ATOM     17  C   UNL     1       8.308  48.127  52.200  1.00  0.00     0.176 C 
BRANCH  11  18
ATOM     18  N   UNL     1       4.212  44.005  53.996  1.00  0.00    -0.339 N 
ATOM     19  H   UNL     1       4.350  43.001  53.905  1.00  0.00     0.168 HD
BRANCH  18  20
ATOM     20  C   UNL     1       2.869  44.315  54.290  1.00  0.00     0.044 A 
ATOM     21  C   UNL     1       1.896  44.026  53.322  1.00  0.00     0.030 A 
ATOM     22  C   UNL     1       2.463  44.922  55.485  1.00  0.00     0.076 A 
ATOM     23  C   UNL     1       0.546  44.305  53.551  1.00  0.00     0.052 A 
ATOM     24  C   UNL     1       1.116  45.213  55.710  1.00  0.00     0.163 A 
ATOM     25  C   UNL     1       0.155  44.882  54.754  1.00  0.00     0.161 A 
ATOM     26  O   UNL     1       0.811  45.824  56.901  1.00  0.00    -0.486 OA
ATOM     27  O   UNL     1      -1.187  45.108  54.925  1.00  0.00    -0.486 OA
ATOM     28  C   UNL     1      -0.512  46.372  56.885  1.00  0.00     0.271 C 
ATOM     29  C   UNL     1      -1.498  45.376  56.297  1.00  0.00     0.271 C 
ENDBRANCH  18  20
ENDBRANCH  11  18
ENDBRANCH   6   8
ENDBRANCH   1   6
TORSDOF 7
ENDMDL
MODEL 19
REMARK VINA RESULT:    -7.705      3.211      7.616
REMARK INTER + INTRA:         -11.370
REMARK INTER:                 -11.006
REMARK INTRA:                  -0.364
REMARK UNBOUND:                -0.513
REMARK SMILES COCCCNc1nc(Nc2ccc3c(c2)OCCO3)c2cnn(C)c2n1
REMARK SMILES IDX 5 1 4 2 3 3 2 4 1 5 6 6 7 8 8 9 27 10 9 11 26 12 21 13 24 14
REMARK SMILES IDX 22 15 23 16 25 17 10 18 11 20 12 21 16 22 13 23 15 24 14 25
REMARK SMILES IDX 17 26 20 27 18 28 19 29
REMARK H PARENT 6 7 10 19
ROOT
ATOM      1  C   UNL     1       3.366  42.752  51.285  1.00  0.00     0.118 C 
ENDROOT
BRANCH   1   2
ATOM      2  C   UNL     1       3.827  41.510  50.521  1.00  0.00     0.050 C 
BRANCH   2   3
ATOM      3  C   UNL     1       5.309  41.581  50.165  1.00  0.00     0.161 C 
BRANCH   3   4
ATOM      4  O   UNL     1       5.760  42.924  49.994  1.00  0.00    -0.385 OA
ATOM      5  C   UNL     1       7.053  43.012  49.411  1.00  0.00     0.194 C 
ENDBRANCH   3   4
ENDBRANCH   2   3
ENDBRANCH   1   2
BRANCH   1   6
ATOM      6  N   UNL     1       2.191  42.412  52.074  1.00  0.00    -0.354 N 
ATOM      7  H   UNL     1       1.322  42.365  51.554  1.00  0.00     0.163 HD
BRANCH   6   8
ATOM      8  C   UNL     1       1.936  43.285  53.128  1.00  0.00     0.226 A 
ATOM      9  N   UNL     1       2.966  44.096  53.439  1.00  0.00    -0.195 NA
ATOM     10  N   UNL     1       0.744  43.268  53.737  1.00  0.00    -0.193 NA
ATOM     11  C   UNL     1       2.849  44.988  54.454  1.00  0.00     0.147 A 
ATOM     12  C   UNL     1       0.642  44.181  54.713  1.00  0.00     0.165 A 
ATOM     13  C   UNL     1       1.624  45.061  55.121  1.00  0.00     0.082 A 
ATOM     14  N   UNL     1      -0.447  44.440  55.499  1.00  0.00    -0.250 N 
ATOM     15  C   UNL     1       1.013  45.820  56.139  1.00  0.00     0.149 A 
ATOM     16  N   UNL     1      -0.248  45.443  56.385  1.00  0.00    -0.179 NA
ATOM     17  C   UNL     1      -1.726  43.777  55.454  1.00  0.00     0.176 C 
BRANCH  11  18
ATOM     18  N   UNL     1       3.957  45.810  54.706  1.00  0.00    -0.339 N 
ATOM     19  H   UNL     1       3.606  46.691  55.075  1.00  0.00     0.168 HD
BRANCH  18  20
ATOM     20  C   UNL     1       5.112  46.005  53.923  1.00  0.00     0.044 A 
ATOM     21  C   UNL     1       4.998  45.875  52.530  1.00  0.00     0.030 A 
ATOM     22  C   UNL     1       6.371  46.291  54.466  1.00  0.00     0.076 A 
ATOM     23  C   UNL     1       6.104  46.058  51.696  1.00  0.00     0.052 A 
ATOM     24  C   UNL     1       7.480  46.461  53.634  1.00  0.00     0.163 A 
ATOM     25  C   UNL     1       7.341  46.369  52.248  1.00  0.00     0.161 A 
ATOM     26  O   UNL     1       8.677  46.722  54.253  1.00  0.00    -0.486 OA
ATOM     27  O   UNL     1       8.379  46.560  51.372  1.00  0.00    -0.486 OA
ATOM     28  C   UNL     1       9.780  46.545  53.355  1.00  0.00     0.271 C 
ATOM     29  C   UNL     1       9.489  47.197  52.014  1.00  0.00     0.271 C 
ENDBRANCH  18  20
ENDBRANCH  11  18
ENDBRANCH   6   8
ENDBRANCH   1   6
TORSDOF 7
ENDMDL
MODEL 20
REMARK VINA RESULT:    -7.632      2.627      3.657
REMARK INTER + INTRA:         -11.268
REMARK INTER:                 -10.015
REMARK INTRA:                  -1.253
REMARK UNBOUND:                -0.513
REMARK SMILES COCCCNc1nc(Nc2ccc3c(c2)OCCO3)c2cnn(C)c2n1
REMARK SMILES IDX 5 1 4 2 3 3 2 4 1 5 6 6 7 8 8 9 27 10 9 11 26 12 21 13 24 14
REMARK SMILES IDX 22 15 23 16 25 17 10 18 11 20 12 21 16 22 13 23 15 24 14 25
REMARK SMILES IDX 17 26 20 27 18 28 19 29
REMARK H PARENT 6 7 10 19
ROOT
ATOM      1  C   UNL     1       6.202  46.998  52.677  1.00  0.00     0.118 C 
ENDROOT
BRANCH   1   2
ATOM      2  C   UNL     1       6.180  47.023  54.206  1.00  0.00     0.050 C 
BRANCH   2   3
ATOM      3  C   UNL     1       4.756  47.056  54.752  1.00  0.00     0.161 C 
BRANCH   3   4
ATOM      4  O   UNL     1       4.335  45.785  55.244  1.00  0.00    -0.385 OA
ATOM      5  C   UNL     1       2.922  45.646  55.305  1.00  0.00     0.194 C 
ENDBRANCH   3   4
ENDBRANCH   2   3
ENDBRANCH   1   2
BRANCH   1   6
ATOM      6  N   UNL     1       4.927  46.487  52.194  1.00  0.00    -0.354 N 
ATOM      7  H   UNL     1       4.180  46.475  52.881  1.00  0.00     0.163 HD
BRANCH   6   8
ATOM      8  C   UNL     1       4.981  45.189  51.694  1.00  0.00     0.226 A 
ATOM      9  N   UNL     1       3.972  44.395  52.100  1.00  0.00    -0.195 NA
ATOM     10  N   UNL     1       5.981  44.829  50.879  1.00  0.00    -0.193 NA
ATOM     11  C   UNL     1       3.913  43.103  51.689  1.00  0.00     0.147 A 
ATOM     12  C   UNL     1       5.882  43.559  50.461  1.00  0.00     0.165 A 
ATOM     13  C   UNL     1       4.900  42.654  50.808  1.00  0.00     0.082 A 
ATOM     14  N   UNL     1       6.718  42.899  49.604  1.00  0.00    -0.250 N 
ATOM     15  C   UNL     1       5.226  41.488  50.084  1.00  0.00     0.149 A 
ATOM     16  N   UNL     1       6.339  41.623  49.353  1.00  0.00    -0.179 NA
ATOM     17  C   UNL     1       7.898  43.425  48.967  1.00  0.00     0.176 C 
BRANCH  11  18
ATOM     18  N   UNL     1       2.823  42.344  52.139  1.00  0.00    -0.339 N 
ATOM     19  H   UNL     1       2.887  41.428  51.700  1.00  0.00     0.168 HD
BRANCH  18  20
ATOM     20  C   UNL     1       1.482  42.737  52.315  1.00  0.00     0.044 A 
ATOM     21  C   UNL     1       0.955  42.731  53.616  1.00  0.00     0.030 A 
ATOM     22  C   UNL     1       0.642  43.104  51.256  1.00  0.00     0.076 A 
ATOM     23  C   UNL     1      -0.367  43.113  53.860  1.00  0.00     0.052 A 
ATOM     24  C   UNL     1      -0.683  43.472  51.497  1.00  0.00     0.163 A 
ATOM     25  C   UNL     1      -1.180  43.501  52.802  1.00  0.00     0.161 A 
ATOM     26  O   UNL     1      -1.439  43.800  50.399  1.00  0.00    -0.486 OA
ATOM     27  O   UNL     1      -2.459  43.887  53.113  1.00  0.00    -0.486 OA
ATOM     28  C   UNL     1      -2.836  43.831  50.715  1.00  0.00     0.271 C 
ATOM     29  C   UNL     1      -3.074  44.575  52.018  1.00  0.00     0.271 C 
ENDBRANCH  18  20
ENDBRANCH  11  18
ENDBRANCH   6   8
ENDBRANCH   1   6
TORSDOF 7
ENDMDL
