MODEL 1
REMARK VINA RESULT:    -8.666      0.000      0.000
REMARK INTER + INTRA:         -12.636
REMARK INTER:                 -11.705
REMARK INTRA:                  -0.931
REMARK UNBOUND:                -0.931
REMARK SMILES CC(C)CCNc1nc(Nc2cc(Cl)c(Cl)cc2Cl)c2cnn(C)c2n1
REMARK SMILES IDX 6 1 5 3 4 4 2 5 1 6 3 7 7 8 8 9 26 10 9 11 25 12 20 13 23 14
REMARK SMILES IDX 21 15 22 16 24 17 10 18 11 20 12 21 18 22 13 23 17 24 15 25
REMARK SMILES IDX 19 26 14 27 16 28
REMARK H PARENT 6 2 10 19
ROOT
ATOM      1  N   UNL     1       4.989  46.965  55.018  1.00  0.00    -0.354 N 
ATOM      2  H   UNL     1       5.341  47.535  55.779  1.00  0.00     0.163 HD
ENDROOT
BRANCH   1   3
ATOM      3  C   UNL     1       4.230  45.795  55.417  1.00  0.00     0.116 C 
BRANCH   3   4
ATOM      4  C   UNL     1       2.719  45.969  55.219  1.00  0.00     0.024 C 
BRANCH   4   5
ATOM      5  C   UNL     1       2.111  45.462  53.893  1.00  0.00    -0.016 C 
ATOM      6  C   UNL     1       2.215  46.477  52.754  1.00  0.00     0.007 C 
ATOM      7  C   UNL     1       0.670  44.977  54.049  1.00  0.00     0.007 C 
ENDBRANCH   4   5
ENDBRANCH   3   4
ENDBRANCH   1   3
BRANCH   1   8
ATOM      8  C   UNL     1       6.059  46.761  54.161  1.00  0.00     0.226 A 
ATOM      9  N   UNL     1       5.843  46.302  52.915  1.00  0.00    -0.195 NA
ATOM     10  N   UNL     1       7.256  47.062  54.678  1.00  0.00    -0.193 NA
ATOM     11  C   UNL     1       6.875  46.129  52.053  1.00  0.00     0.147 A 
ATOM     12  C   UNL     1       8.263  46.875  53.813  1.00  0.00     0.165 A 
ATOM     13  C   UNL     1       8.161  46.420  52.512  1.00  0.00     0.082 A 
ATOM     14  N   UNL     1       9.595  47.098  54.035  1.00  0.00    -0.250 N 
ATOM     15  C   UNL     1       9.494  46.396  52.051  1.00  0.00     0.149 A 
ATOM     16  N   UNL     1      10.375  46.808  52.970  1.00  0.00    -0.179 NA
ATOM     17  C   UNL     1      10.203  47.589  55.246  1.00  0.00     0.176 C 
BRANCH  11  18
ATOM     18  N   UNL     1       6.520  45.668  50.764  1.00  0.00    -0.338 N 
ATOM     19  H   UNL     1       7.424  45.693  50.280  1.00  0.00     0.168 HD
BRANCH  18  20
ATOM     20  C   UNL     1       5.877  44.430  50.521  1.00  0.00     0.060 A 
ATOM     21  C   UNL     1       4.621  44.202  51.100  1.00  0.00     0.049 A 
ATOM     22  C   UNL     1       6.469  43.402  49.764  1.00  0.00     0.066 A 
ATOM     23  C   UNL     1       3.965  42.979  50.925  1.00  0.00     0.061 A 
ATOM     24  C   UNL     1       5.818  42.180  49.587  1.00  0.00     0.044 A 
ATOM     25  C   UNL     1       4.565  41.967  50.168  1.00  0.00     0.061 A 
ATOM     26  Cl  UNL     1       8.007  43.625  49.010  1.00  0.00    -0.082 Cl
ATOM     27  Cl  UNL     1       2.421  42.783  51.673  1.00  0.00    -0.083 Cl
ATOM     28  Cl  UNL     1       3.813  40.433  49.911  1.00  0.00    -0.083 Cl
ENDBRANCH  18  20
ENDBRANCH  11  18
ENDBRANCH   1   8
TORSDOF 6
ENDMDL
MODEL 2
REMARK VINA RESULT:    -8.660      3.119      7.076
REMARK INTER + INTRA:         -12.628
REMARK INTER:                 -11.646
REMARK INTRA:                  -0.982
REMARK UNBOUND:                -0.931
REMARK SMILES CC(C)CCNc1nc(Nc2cc(Cl)c(Cl)cc2Cl)c2cnn(C)c2n1
REMARK SMILES IDX 6 1 5 3 4 4 2 5 1 6 3 7 7 8 8 9 26 10 9 11 25 12 20 13 23 14
REMARK SMILES IDX 21 15 22 16 24 17 10 18 11 20 12 21 18 22 13 23 17 24 15 25
REMARK SMILES IDX 19 26 14 27 16 28
REMARK H PARENT 6 2 10 19
ROOT
ATOM      1  N   UNL     1       4.417  41.518  51.616  1.00  0.00    -0.354 N 
ATOM      2  H   UNL     1       5.211  41.435  52.240  1.00  0.00     0.163 HD
ENDROOT
BRANCH   1   3
ATOM      3  C   UNL     1       4.680  41.195  50.227  1.00  0.00     0.116 C 
BRANCH   3   4
ATOM      4  C   UNL     1       6.123  41.502  49.807  1.00  0.00     0.024 C 
BRANCH   4   5
ATOM      5  C   UNL     1       6.345  42.668  48.820  1.00  0.00    -0.016 C 
ATOM      6  C   UNL     1       6.151  42.267  47.357  1.00  0.00     0.007 C 
ATOM      7  C   UNL     1       7.694  43.359  49.012  1.00  0.00     0.007 C 
ENDBRANCH   4   5
ENDBRANCH   3   4
ENDBRANCH   1   3
BRANCH   1   8
ATOM      8  C   UNL     1       3.848  42.756  51.879  1.00  0.00     0.226 A 
ATOM      9  N   UNL     1       4.569  43.877  51.697  1.00  0.00    -0.195 NA
ATOM     10  N   UNL     1       2.579  42.710  52.299  1.00  0.00    -0.193 NA
ATOM     11  C   UNL     1       4.017  45.096  51.916  1.00  0.00     0.147 A 
ATOM     12  C   UNL     1       2.056  43.926  52.519  1.00  0.00     0.165 A 
ATOM     13  C   UNL     1       2.694  45.141  52.358  1.00  0.00     0.082 A 
ATOM     14  N   UNL     1       0.788  44.215  52.944  1.00  0.00    -0.250 N 
ATOM     15  C   UNL     1       1.720  46.092  52.726  1.00  0.00     0.149 A 
ATOM     16  N   UNL     1       0.555  45.539  53.083  1.00  0.00    -0.179 NA
ATOM     17  C   UNL     1      -0.264  43.274  53.241  1.00  0.00     0.176 C 
BRANCH  11  18
ATOM     18  N   UNL     1       4.864  46.201  51.665  1.00  0.00    -0.338 N 
ATOM     19  H   UNL     1       4.222  46.988  51.800  1.00  0.00     0.168 HD
BRANCH  18  20
ATOM     20  C   UNL     1       6.074  46.440  52.361  1.00  0.00     0.060 A 
ATOM     21  C   UNL     1       7.286  46.168  51.713  1.00  0.00     0.049 A 
ATOM     22  C   UNL     1       6.106  46.889  53.694  1.00  0.00     0.066 A 
ATOM     23  C   UNL     1       8.506  46.347  52.373  1.00  0.00     0.061 A 
ATOM     24  C   UNL     1       7.322  47.068  54.358  1.00  0.00     0.044 A 
ATOM     25  C   UNL     1       8.523  46.796  53.698  1.00  0.00     0.061 A 
ATOM     26  Cl  UNL     1       4.649  47.257  54.546  1.00  0.00    -0.082 Cl
ATOM     27  Cl  UNL     1       9.951  45.989  51.498  1.00  0.00    -0.083 Cl
ATOM     28  Cl  UNL     1       9.991  47.038  54.575  1.00  0.00    -0.083 Cl
ENDBRANCH  18  20
ENDBRANCH  11  18
ENDBRANCH   1   8
TORSDOF 6
ENDMDL
MODEL 3
REMARK VINA RESULT:    -8.613      2.873      6.092
REMARK INTER + INTRA:         -12.564
REMARK INTER:                 -11.733
REMARK INTRA:                  -0.831
REMARK UNBOUND:                -0.931
REMARK SMILES CC(C)CCNc1nc(Nc2cc(Cl)c(Cl)cc2Cl)c2cnn(C)c2n1
REMARK SMILES IDX 6 1 5 3 4 4 2 5 1 6 3 7 7 8 8 9 26 10 9 11 25 12 20 13 23 14
REMARK SMILES IDX 21 15 22 16 24 17 10 18 11 20 12 21 18 22 13 23 17 24 15 25
REMARK SMILES IDX 19 26 14 27 16 28
REMARK H PARENT 6 2 10 19
ROOT
ATOM      1  N   UNL     1       6.006  46.880  52.272  1.00  0.00    -0.354 N 
ATOM      2  H   UNL     1       6.007  47.401  51.402  1.00  0.00     0.163 HD
ENDROOT
BRANCH   1   3
ATOM      3  C   UNL     1       7.175  47.068  53.110  1.00  0.00     0.116 C 
BRANCH   3   4
ATOM      4  C   UNL     1       8.350  47.706  52.358  1.00  0.00     0.024 C 
BRANCH   4   5
ATOM      5  C   UNL     1       9.774  47.249  52.743  1.00  0.00    -0.016 C 
ATOM      6  C   UNL     1      10.272  46.063  51.917  1.00  0.00     0.007 C 
ATOM      7  C   UNL     1       9.921  46.961  54.237  1.00  0.00     0.007 C 
ENDBRANCH   4   5
ENDBRANCH   3   4
ENDBRANCH   1   3
BRANCH   1   8
ATOM      8  C   UNL     1       5.671  45.576  51.940  1.00  0.00     0.226 A 
ATOM      9  N   UNL     1       4.706  44.937  52.626  1.00  0.00    -0.195 NA
ATOM     10  N   UNL     1       6.366  45.061  50.919  1.00  0.00    -0.193 NA
ATOM     11  C   UNL     1       4.342  43.673  52.293  1.00  0.00     0.147 A 
ATOM     12  C   UNL     1       5.997  43.809  50.613  1.00  0.00     0.165 A 
ATOM     13  C   UNL     1       5.018  43.059  51.237  1.00  0.00     0.082 A 
ATOM     14  N   UNL     1       6.508  43.017  49.620  1.00  0.00    -0.250 N 
ATOM     15  C   UNL     1       5.034  41.829  50.547  1.00  0.00     0.149 A 
ATOM     16  N   UNL     1       5.937  41.793  49.560  1.00  0.00    -0.179 NA
ATOM     17  C   UNL     1       7.549  43.360  48.685  1.00  0.00     0.176 C 
BRANCH  11  18
ATOM     18  N   UNL     1       3.298  43.116  53.069  1.00  0.00    -0.338 N 
ATOM     19  H   UNL     1       3.677  43.205  54.017  1.00  0.00     0.168 HD
BRANCH  18  20
ATOM     20  C   UNL     1       1.961  43.580  53.037  1.00  0.00     0.060 A 
ATOM     21  C   UNL     1       1.152  43.222  51.949  1.00  0.00     0.049 A 
ATOM     22  C   UNL     1       1.427  44.426  54.026  1.00  0.00     0.066 A 
ATOM     23  C   UNL     1      -0.162  43.691  51.850  1.00  0.00     0.061 A 
ATOM     24  C   UNL     1       0.116  44.897  53.931  1.00  0.00     0.044 A 
ATOM     25  C   UNL     1      -0.680  44.530  52.843  1.00  0.00     0.061 A 
ATOM     26  Cl  UNL     1       2.364  44.891  55.400  1.00  0.00    -0.082 Cl
ATOM     27  Cl  UNL     1      -1.087  43.200  50.477  1.00  0.00    -0.083 Cl
ATOM     28  Cl  UNL     1      -2.293  45.145  52.785  1.00  0.00    -0.083 Cl
ENDBRANCH  18  20
ENDBRANCH  11  18
ENDBRANCH   1   8
TORSDOF 6
ENDMDL
MODEL 4
REMARK VINA RESULT:    -8.597      2.494      6.029
REMARK INTER + INTRA:         -12.544
REMARK INTER:                 -11.736
REMARK INTRA:                  -0.808
REMARK UNBOUND:                -0.931
REMARK SMILES CC(C)CCNc1nc(Nc2cc(Cl)c(Cl)cc2Cl)c2cnn(C)c2n1
REMARK SMILES IDX 6 1 5 3 4 4 2 5 1 6 3 7 7 8 8 9 26 10 9 11 25 12 20 13 23 14
REMARK SMILES IDX 21 15 22 16 24 17 10 18 11 20 12 21 18 22 13 23 17 24 15 25
REMARK SMILES IDX 19 26 14 27 16 28
REMARK H PARENT 6 2 10 19
ROOT
ATOM      1  N   UNL     1       5.809  46.833  52.337  1.00  0.00    -0.354 N 
ATOM      2  H   UNL     1       5.813  47.369  51.476  1.00  0.00     0.163 HD
ENDROOT
BRANCH   1   3
ATOM      3  C   UNL     1       6.946  47.053  53.211  1.00  0.00     0.116 C 
BRANCH   3   4
ATOM      4  C   UNL     1       8.069  47.853  52.538  1.00  0.00     0.024 C 
BRANCH   4   5
ATOM      5  C   UNL     1       9.516  47.354  52.737  1.00  0.00    -0.016 C 
ATOM      6  C   UNL     1       9.839  46.099  51.927  1.00  0.00     0.007 C 
ATOM      7  C   UNL     1       9.876  47.150  54.208  1.00  0.00     0.007 C 
ENDBRANCH   4   5
ENDBRANCH   3   4
ENDBRANCH   1   3
BRANCH   1   8
ATOM      8  C   UNL     1       5.536  45.522  51.974  1.00  0.00     0.226 A 
ATOM      9  N   UNL     1       4.570  44.838  52.612  1.00  0.00    -0.195 NA
ATOM     10  N   UNL     1       6.290  45.049  50.975  1.00  0.00    -0.193 NA
ATOM     11  C   UNL     1       4.267  43.567  52.247  1.00  0.00     0.147 A 
ATOM     12  C   UNL     1       5.981  43.789  50.637  1.00  0.00     0.165 A 
ATOM     13  C   UNL     1       5.006  42.994  51.211  1.00  0.00     0.082 A 
ATOM     14  N   UNL     1       6.560  43.032  49.655  1.00  0.00    -0.250 N 
ATOM     15  C   UNL     1       5.096  41.777  50.505  1.00  0.00     0.149 A 
ATOM     16  N   UNL     1       6.038  41.789  49.555  1.00  0.00    -0.179 NA
ATOM     17  C   UNL     1       7.624  43.428  48.767  1.00  0.00     0.176 C 
BRANCH  11  18
ATOM     18  N   UNL     1       3.215  42.960  52.972  1.00  0.00    -0.338 N 
ATOM     19  H   UNL     1       3.641  42.846  53.897  1.00  0.00     0.168 HD
BRANCH  18  20
ATOM     20  C   UNL     1       1.922  43.523  53.103  1.00  0.00     0.060 A 
ATOM     21  C   UNL     1       1.536  44.035  54.349  1.00  0.00     0.049 A 
ATOM     22  C   UNL     1       0.993  43.544  52.047  1.00  0.00     0.066 A 
ATOM     23  C   UNL     1       0.255  44.563  54.540  1.00  0.00     0.061 A 
ATOM     24  C   UNL     1      -0.288  44.069  52.233  1.00  0.00     0.044 A 
ATOM     25  C   UNL     1      -0.658  44.578  53.480  1.00  0.00     0.061 A 
ATOM     26  Cl  UNL     1       1.410  42.945  50.481  1.00  0.00    -0.082 Cl
ATOM     27  Cl  UNL     1      -0.136  45.172  56.108  1.00  0.00    -0.083 Cl
ATOM     28  Cl  UNL     1      -2.256  45.213  53.644  1.00  0.00    -0.083 Cl
ENDBRANCH  18  20
ENDBRANCH  11  18
ENDBRANCH   1   8
TORSDOF 6
ENDMDL
MODEL 5
REMARK VINA RESULT:    -8.572      2.767      6.137
REMARK INTER + INTRA:         -12.509
REMARK INTER:                 -11.689
REMARK INTRA:                  -0.821
REMARK UNBOUND:                -0.931
REMARK SMILES CC(C)CCNc1nc(Nc2cc(Cl)c(Cl)cc2Cl)c2cnn(C)c2n1
REMARK SMILES IDX 6 1 5 3 4 4 2 5 1 6 3 7 7 8 8 9 26 10 9 11 25 12 20 13 23 14
REMARK SMILES IDX 21 15 22 16 24 17 10 18 11 20 12 21 18 22 13 23 17 24 15 25
REMARK SMILES IDX 19 26 14 27 16 28
REMARK H PARENT 6 2 10 19
ROOT
ATOM      1  N   UNL     1       8.155  46.334  50.709  1.00  0.00    -0.354 N 
ATOM      2  H   UNL     1       8.882  45.629  50.673  1.00  0.00     0.163 HD
ENDROOT
BRANCH   1   3
ATOM      3  C   UNL     1       8.445  47.485  51.543  1.00  0.00     0.116 C 
BRANCH   3   4
ATOM      4  C   UNL     1       9.509  47.195  52.609  1.00  0.00     0.024 C 
BRANCH   4   5
ATOM      5  C   UNL     1       9.204  47.633  54.058  1.00  0.00    -0.016 C 
ATOM      6  C   UNL     1      10.300  47.243  55.050  1.00  0.00     0.007 C 
ATOM      7  C   UNL     1       7.840  47.151  54.549  1.00  0.00     0.007 C 
ENDBRANCH   4   5
ENDBRANCH   3   4
ENDBRANCH   1   3
BRANCH   1   8
ATOM      8  C   UNL     1       6.972  45.655  50.960  1.00  0.00     0.226 A 
ATOM      9  N   UNL     1       5.961  46.280  51.590  1.00  0.00    -0.195 NA
ATOM     10  N   UNL     1       6.949  44.390  50.523  1.00  0.00    -0.193 NA
ATOM     11  C   UNL     1       4.785  45.641  51.811  1.00  0.00     0.147 A 
ATOM     12  C   UNL     1       5.781  43.775  50.762  1.00  0.00     0.165 A 
ATOM     13  C   UNL     1       4.674  44.316  51.388  1.00  0.00     0.082 A 
ATOM     14  N   UNL     1       5.443  42.490  50.433  1.00  0.00    -0.250 N 
ATOM     15  C   UNL     1       3.734  43.265  51.392  1.00  0.00     0.149 A 
ATOM     16  N   UNL     1       4.191  42.149  50.812  1.00  0.00    -0.179 NA
ATOM     17  C   UNL     1       6.266  41.523  49.752  1.00  0.00     0.176 C 
BRANCH  11  18
ATOM     18  N   UNL     1       3.788  46.410  52.458  1.00  0.00    -0.338 N 
ATOM     19  H   UNL     1       3.461  47.008  51.693  1.00  0.00     0.168 HD
BRANCH  18  20
ATOM     20  C   UNL     1       2.681  45.849  53.139  1.00  0.00     0.060 A 
ATOM     21  C   UNL     1       1.441  45.808  52.485  1.00  0.00     0.049 A 
ATOM     22  C   UNL     1       2.762  45.377  54.462  1.00  0.00     0.066 A 
ATOM     23  C   UNL     1       0.308  45.303  53.132  1.00  0.00     0.061 A 
ATOM     24  C   UNL     1       1.634  44.873  55.111  1.00  0.00     0.044 A 
ATOM     25  C   UNL     1       0.405  44.836  54.447  1.00  0.00     0.061 A 
ATOM     26  Cl  UNL     1       4.263  45.382  55.318  1.00  0.00    -0.082 Cl
ATOM     27  Cl  UNL     1      -1.178  45.291  52.252  1.00  0.00    -0.083 Cl
ATOM     28  Cl  UNL     1      -0.951  44.200  55.306  1.00  0.00    -0.083 Cl
ENDBRANCH  18  20
ENDBRANCH  11  18
ENDBRANCH   1   8
TORSDOF 6
ENDMDL
MODEL 6
REMARK VINA RESULT:    -8.468      3.019      6.565
REMARK INTER + INTRA:         -12.368
REMARK INTER:                 -11.622
REMARK INTRA:                  -0.747
REMARK UNBOUND:                -0.931
REMARK SMILES CC(C)CCNc1nc(Nc2cc(Cl)c(Cl)cc2Cl)c2cnn(C)c2n1
REMARK SMILES IDX 6 1 5 3 4 4 2 5 1 6 3 7 7 8 8 9 26 10 9 11 25 12 20 13 23 14
REMARK SMILES IDX 21 15 22 16 24 17 10 18 11 20 12 21 18 22 13 23 17 24 15 25
REMARK SMILES IDX 19 26 14 27 16 28
REMARK H PARENT 6 2 10 19
ROOT
ATOM      1  N   UNL     1       7.020  46.504  51.384  1.00  0.00    -0.354 N 
ATOM      2  H   UNL     1       7.805  45.863  51.352  1.00  0.00     0.163 HD
ENDROOT
BRANCH   1   3
ATOM      3  C   UNL     1       7.114  47.552  52.383  1.00  0.00     0.116 C 
BRANCH   3   4
ATOM      4  C   UNL     1       8.563  47.918  52.728  1.00  0.00     0.024 C 
BRANCH   4   5
ATOM      5  C   UNL     1       9.473  46.792  53.265  1.00  0.00    -0.016 C 
ATOM      6  C   UNL     1      10.190  47.162  54.563  1.00  0.00     0.007 C 
ATOM      7  C   UNL     1      10.474  46.292  52.224  1.00  0.00     0.007 C 
ENDBRANCH   4   5
ENDBRANCH   3   4
ENDBRANCH   1   3
BRANCH   1   8
ATOM      8  C   UNL     1       5.879  45.718  51.400  1.00  0.00     0.226 A 
ATOM      9  N   UNL     1       4.707  46.244  51.800  1.00  0.00    -0.195 NA
ATOM     10  N   UNL     1       6.062  44.457  50.991  1.00  0.00    -0.193 NA
ATOM     11  C   UNL     1       3.575  45.498  51.789  1.00  0.00     0.147 A 
ATOM     12  C   UNL     1       4.932  43.735  50.997  1.00  0.00     0.165 A 
ATOM     13  C   UNL     1       3.675  44.169  51.375  1.00  0.00     0.082 A 
ATOM     14  N   UNL     1       4.787  42.424  50.629  1.00  0.00    -0.250 N 
ATOM     15  C   UNL     1       2.855  43.035  51.207  1.00  0.00     0.149 A 
ATOM     16  N   UNL     1       3.521  41.967  50.751  1.00  0.00    -0.179 NA
ATOM     17  C   UNL     1       5.817  41.539  50.147  1.00  0.00     0.176 C 
BRANCH  11  18
ATOM     18  N   UNL     1       2.400  46.169  52.206  1.00  0.00    -0.338 N 
ATOM     19  H   UNL     1       1.948  46.367  51.308  1.00  0.00     0.168 HD
BRANCH  18  20
ATOM     20  C   UNL     1       1.459  45.619  53.110  1.00  0.00     0.060 A 
ATOM     21  C   UNL     1       0.215  45.206  52.614  1.00  0.00     0.049 A 
ATOM     22  C   UNL     1       1.703  45.518  54.492  1.00  0.00     0.066 A 
ATOM     23  C   UNL     1      -0.764  44.697  53.474  1.00  0.00     0.061 A 
ATOM     24  C   UNL     1       0.729  45.011  55.354  1.00  0.00     0.044 A 
ATOM     25  C   UNL     1      -0.506  44.601  54.846  1.00  0.00     0.061 A 
ATOM     26  Cl  UNL     1       3.222  45.993  55.165  1.00  0.00    -0.082 Cl
ATOM     27  Cl  UNL     1      -2.268  44.212  52.778  1.00  0.00    -0.083 Cl
ATOM     28  Cl  UNL     1      -1.667  43.983  55.965  1.00  0.00    -0.083 Cl
ENDBRANCH  18  20
ENDBRANCH  11  18
ENDBRANCH   1   8
TORSDOF 6
ENDMDL
MODEL 7
REMARK VINA RESULT:    -8.346      2.912      6.166
REMARK INTER + INTRA:         -12.204
REMARK INTER:                 -11.566
REMARK INTRA:                  -0.639
REMARK UNBOUND:                -0.931
REMARK SMILES CC(C)CCNc1nc(Nc2cc(Cl)c(Cl)cc2Cl)c2cnn(C)c2n1
REMARK SMILES IDX 6 1 5 3 4 4 2 5 1 6 3 7 7 8 8 9 26 10 9 11 25 12 20 13 23 14
REMARK SMILES IDX 21 15 22 16 24 17 10 18 11 20 12 21 18 22 13 23 17 24 15 25
REMARK SMILES IDX 19 26 14 27 16 28
REMARK H PARENT 6 2 10 19
ROOT
ATOM      1  N   UNL     1       7.479  45.590  50.515  1.00  0.00    -0.354 N 
ATOM      2  H   UNL     1       8.376  45.138  50.654  1.00  0.00     0.163 HD
ENDROOT
BRANCH   1   3
ATOM      3  C   UNL     1       7.268  46.804  51.281  1.00  0.00     0.116 C 
BRANCH   3   4
ATOM      4  C   UNL     1       8.576  47.419  51.793  1.00  0.00     0.024 C 
BRANCH   4   5
ATOM      5  C   UNL     1       9.489  46.529  52.663  1.00  0.00    -0.016 C 
ATOM      6  C   UNL     1       9.946  47.210  53.953  1.00  0.00     0.007 C 
ATOM      7  C   UNL     1      10.689  45.980  51.893  1.00  0.00     0.007 C 
ENDBRANCH   4   5
ENDBRANCH   3   4
ENDBRANCH   1   3
BRANCH   1   8
ATOM      8  C   UNL     1       6.522  44.593  50.636  1.00  0.00     0.226 A 
ATOM      9  N   UNL     1       6.587  43.503  49.851  1.00  0.00    -0.195 NA
ATOM     10  N   UNL     1       5.591  44.821  51.569  1.00  0.00    -0.193 NA
ATOM     11  C   UNL     1       5.679  42.503  49.981  1.00  0.00     0.147 A 
ATOM     12  C   UNL     1       4.698  43.826  51.674  1.00  0.00     0.165 A 
ATOM     13  C   UNL     1       4.671  42.659  50.932  1.00  0.00     0.082 A 
ATOM     14  N   UNL     1       3.636  43.756  52.534  1.00  0.00    -0.250 N 
ATOM     15  C   UNL     1       3.543  41.968  51.422  1.00  0.00     0.149 A 
ATOM     16  N   UNL     1       2.907  42.626  52.398  1.00  0.00    -0.179 NA
ATOM     17  C   UNL     1       3.251  44.734  53.519  1.00  0.00     0.176 C 
BRANCH  11  18
ATOM     18  N   UNL     1       5.867  41.396  49.119  1.00  0.00    -0.338 N 
ATOM     19  H   UNL     1       5.721  40.610  49.760  1.00  0.00     0.168 HD
BRANCH  18  20
ATOM     20  C   UNL     1       5.128  41.192  47.929  1.00  0.00     0.060 A 
ATOM     21  C   UNL     1       5.577  41.797  46.748  1.00  0.00     0.049 A 
ATOM     22  C   UNL     1       3.934  40.448  47.895  1.00  0.00     0.066 A 
ATOM     23  C   UNL     1       4.858  41.661  45.556  1.00  0.00     0.061 A 
ATOM     24  C   UNL     1       3.212  40.310  46.708  1.00  0.00     0.044 A 
ATOM     25  C   UNL     1       3.674  40.916  45.537  1.00  0.00     0.061 A 
ATOM     26  Cl  UNL     1       3.333  39.662  49.311  1.00  0.00    -0.082 Cl
ATOM     27  Cl  UNL     1       5.485  42.440  44.148  1.00  0.00    -0.083 Cl
ATOM     28  Cl  UNL     1       2.735  40.707  44.102  1.00  0.00    -0.083 Cl
ENDBRANCH  18  20
ENDBRANCH  11  18
ENDBRANCH   1   8
TORSDOF 6
ENDMDL
MODEL 8
REMARK VINA RESULT:    -8.345      2.608      6.050
REMARK INTER + INTRA:         -12.203
REMARK INTER:                 -11.486
REMARK INTRA:                  -0.716
REMARK UNBOUND:                -0.931
REMARK SMILES CC(C)CCNc1nc(Nc2cc(Cl)c(Cl)cc2Cl)c2cnn(C)c2n1
REMARK SMILES IDX 6 1 5 3 4 4 2 5 1 6 3 7 7 8 8 9 26 10 9 11 25 12 20 13 23 14
REMARK SMILES IDX 21 15 22 16 24 17 10 18 11 20 12 21 18 22 13 23 17 24 15 25
REMARK SMILES IDX 19 26 14 27 16 28
REMARK H PARENT 6 2 10 19
ROOT
ATOM      1  N   UNL     1       4.427  45.454  55.761  1.00  0.00    -0.354 N 
ATOM      2  H   UNL     1       4.190  46.369  56.125  1.00  0.00     0.163 HD
ENDROOT
BRANCH   1   3
ATOM      3  C   UNL     1       5.719  45.361  55.107  1.00  0.00     0.116 C 
BRANCH   3   4
ATOM      4  C   UNL     1       6.214  46.710  54.572  1.00  0.00     0.024 C 
BRANCH   4   5
ATOM      5  C   UNL     1       7.383  46.692  53.564  1.00  0.00    -0.016 C 
ATOM      6  C   UNL     1       8.746  46.931  54.215  1.00  0.00     0.007 C 
ATOM      7  C   UNL     1       7.172  47.651  52.394  1.00  0.00     0.007 C 
ENDBRANCH   4   5
ENDBRANCH   3   4
ENDBRANCH   1   3
BRANCH   1   8
ATOM      8  C   UNL     1       3.323  45.025  55.041  1.00  0.00     0.226 A 
ATOM      9  N   UNL     1       3.475  44.583  53.780  1.00  0.00    -0.195 NA
ATOM     10  N   UNL     1       2.162  45.090  55.704  1.00  0.00    -0.193 NA
ATOM     11  C   UNL     1       2.410  44.128  53.074  1.00  0.00     0.147 A 
ATOM     12  C   UNL     1       1.122  44.645  54.985  1.00  0.00     0.165 A 
ATOM     13  C   UNL     1       1.159  44.160  53.691  1.00  0.00     0.082 A 
ATOM     14  N   UNL     1      -0.187  44.575  55.381  1.00  0.00    -0.250 N 
ATOM     15  C   UNL     1      -0.185  43.840  53.406  1.00  0.00     0.149 A 
ATOM     16  N   UNL     1      -1.012  44.087  54.428  1.00  0.00    -0.179 NA
ATOM     17  C   UNL     1      -0.728  44.959  56.660  1.00  0.00     0.176 C 
BRANCH  11  18
ATOM     18  N   UNL     1       2.699  43.663  51.769  1.00  0.00    -0.338 N 
ATOM     19  H   UNL     1       1.995  44.158  51.214  1.00  0.00     0.168 HD
BRANCH  18  20
ATOM     20  C   UNL     1       3.969  43.783  51.155  1.00  0.00     0.060 A 
ATOM     21  C   UNL     1       4.703  42.616  50.899  1.00  0.00     0.049 A 
ATOM     22  C   UNL     1       4.546  45.026  50.839  1.00  0.00     0.066 A 
ATOM     23  C   UNL     1       5.981  42.685  50.333  1.00  0.00     0.061 A 
ATOM     24  C   UNL     1       5.821  45.100  50.275  1.00  0.00     0.044 A 
ATOM     25  C   UNL     1       6.540  43.929  50.022  1.00  0.00     0.061 A 
ATOM     26  Cl  UNL     1       3.688  46.501  51.113  1.00  0.00    -0.082 Cl
ATOM     27  Cl  UNL     1       6.813  41.199  50.052  1.00  0.00    -0.083 Cl
ATOM     28  Cl  UNL     1       8.112  44.088  49.323  1.00  0.00    -0.083 Cl
ENDBRANCH  18  20
ENDBRANCH  11  18
ENDBRANCH   1   8
TORSDOF 6
ENDMDL
MODEL 9
REMARK VINA RESULT:    -8.293      1.948      5.796
REMARK INTER + INTRA:         -12.132
REMARK INTER:                 -12.003
REMARK INTRA:                  -0.130
REMARK UNBOUND:                -0.931
REMARK SMILES CC(C)CCNc1nc(Nc2cc(Cl)c(Cl)cc2Cl)c2cnn(C)c2n1
REMARK SMILES IDX 6 1 5 3 4 4 2 5 1 6 3 7 7 8 8 9 26 10 9 11 25 12 20 13 23 14
REMARK SMILES IDX 21 15 22 16 24 17 10 18 11 20 12 21 18 22 13 23 17 24 15 25
REMARK SMILES IDX 19 26 14 27 16 28
REMARK H PARENT 6 2 10 19
ROOT
ATOM      1  N   UNL     1       5.688  46.401  55.280  1.00  0.00    -0.354 N 
ATOM      2  H   UNL     1       5.415  46.994  56.055  1.00  0.00     0.163 HD
ENDROOT
BRANCH   1   3
ATOM      3  C   UNL     1       6.513  47.037  54.271  1.00  0.00     0.116 C 
BRANCH   3   4
ATOM      4  C   UNL     1       7.895  46.387  54.134  1.00  0.00     0.024 C 
BRANCH   4   5
ATOM      5  C   UNL     1       9.099  47.319  53.877  1.00  0.00    -0.016 C 
ATOM      6  C   UNL     1      10.037  46.807  52.784  1.00  0.00     0.007 C 
ATOM      7  C   UNL     1       9.882  47.640  55.149  1.00  0.00     0.007 C 
ENDBRANCH   4   5
ENDBRANCH   3   4
ENDBRANCH   1   3
BRANCH   1   8
ATOM      8  C   UNL     1       4.530  45.774  54.846  1.00  0.00     0.226 A 
ATOM      9  N   UNL     1       4.533  45.084  53.692  1.00  0.00    -0.195 NA
ATOM     10  N   UNL     1       3.477  45.920  55.659  1.00  0.00    -0.193 NA
ATOM     11  C   UNL     1       3.418  44.437  53.271  1.00  0.00     0.147 A 
ATOM     12  C   UNL     1       2.383  45.281  55.219  1.00  0.00     0.165 A 
ATOM     13  C   UNL     1       2.271  44.536  54.060  1.00  0.00     0.082 A 
ATOM     14  N   UNL     1       1.156  45.231  55.823  1.00  0.00    -0.250 N 
ATOM     15  C   UNL     1       0.931  44.095  54.063  1.00  0.00     0.149 A 
ATOM     16  N   UNL     1       0.244  44.512  55.132  1.00  0.00    -0.179 NA
ATOM     17  C   UNL     1       0.776  45.849  57.069  1.00  0.00     0.176 C 
BRANCH  11  18
ATOM     18  N   UNL     1       3.551  43.722  52.057  1.00  0.00    -0.338 N 
ATOM     19  H   UNL     1       2.782  44.111  51.503  1.00  0.00     0.168 HD
BRANCH  18  20
ATOM     20  C   UNL     1       4.738  43.697  51.285  1.00  0.00     0.060 A 
ATOM     21  C   UNL     1       5.544  44.843  51.257  1.00  0.00     0.049 A 
ATOM     22  C   UNL     1       5.114  42.587  50.506  1.00  0.00     0.066 A 
ATOM     23  C   UNL     1       6.704  44.883  50.475  1.00  0.00     0.061 A 
ATOM     24  C   UNL     1       6.270  42.622  49.724  1.00  0.00     0.044 A 
ATOM     25  C   UNL     1       7.066  43.771  49.708  1.00  0.00     0.061 A 
ATOM     26  Cl  UNL     1       4.175  41.138  50.509  1.00  0.00    -0.082 Cl
ATOM     27  Cl  UNL     1       7.638  46.335  50.500  1.00  0.00    -0.083 Cl
ATOM     28  Cl  UNL     1       8.483  43.750  48.720  1.00  0.00    -0.083 Cl
ENDBRANCH  18  20
ENDBRANCH  11  18
ENDBRANCH   1   8
TORSDOF 6
ENDMDL
MODEL 10
REMARK VINA RESULT:    -8.265      3.217      7.301
REMARK INTER + INTRA:         -12.094
REMARK INTER:                 -11.334
REMARK INTRA:                  -0.760
REMARK UNBOUND:                -0.931
REMARK SMILES CC(C)CCNc1nc(Nc2cc(Cl)c(Cl)cc2Cl)c2cnn(C)c2n1
REMARK SMILES IDX 6 1 5 3 4 4 2 5 1 6 3 7 7 8 8 9 26 10 9 11 25 12 20 13 23 14
REMARK SMILES IDX 21 15 22 16 24 17 10 18 11 20 12 21 18 22 13 23 17 24 15 25
REMARK SMILES IDX 19 26 14 27 16 28
REMARK H PARENT 6 2 10 19
ROOT
ATOM      1  N   UNL     1       5.427  41.646  50.190  1.00  0.00    -0.354 N 
ATOM      2  H   UNL     1       6.397  41.930  50.111  1.00  0.00     0.163 HD
ENDROOT
BRANCH   1   3
ATOM      3  C   UNL     1       4.837  41.109  48.979  1.00  0.00     0.116 C 
BRANCH   3   4
ATOM      4  C   UNL     1       5.545  41.591  47.706  1.00  0.00     0.024 C 
BRANCH   4   5
ATOM      5  C   UNL     1       4.989  41.101  46.352  1.00  0.00    -0.016 C 
ATOM      6  C   UNL     1       5.092  42.148  45.242  1.00  0.00     0.007 C 
ATOM      7  C   UNL     1       3.560  40.568  46.456  1.00  0.00     0.007 C 
ENDBRANCH   4   5
ENDBRANCH   3   4
ENDBRANCH   1   3
BRANCH   1   8
ATOM      8  C   UNL     1       4.765  42.699  50.802  1.00  0.00     0.226 A 
ATOM      9  N   UNL     1       5.346  43.911  50.865  1.00  0.00    -0.195 NA
ATOM     10  N   UNL     1       3.554  42.395  51.284  1.00  0.00    -0.193 NA
ATOM     11  C   UNL     1       4.697  44.960  51.429  1.00  0.00     0.147 A 
ATOM     12  C   UNL     1       2.935  43.443  51.846  1.00  0.00     0.165 A 
ATOM     13  C   UNL     1       3.426  44.730  51.959  1.00  0.00     0.082 A 
ATOM     14  N   UNL     1       1.692  43.458  52.419  1.00  0.00    -0.250 N 
ATOM     15  C   UNL     1       2.401  45.432  52.626  1.00  0.00     0.149 A 
ATOM     16  N   UNL     1       1.340  44.668  52.910  1.00  0.00    -0.179 NA
ATOM     17  C   UNL     1       0.777  42.351  52.536  1.00  0.00     0.176 C 
BRANCH  11  18
ATOM     18  N   UNL     1       5.398  46.189  51.412  1.00  0.00    -0.338 N 
ATOM     19  H   UNL     1       4.651  46.855  51.631  1.00  0.00     0.168 HD
BRANCH  18  20
ATOM     20  C   UNL     1       6.534  46.457  52.213  1.00  0.00     0.060 A 
ATOM     21  C   UNL     1       7.807  46.243  51.666  1.00  0.00     0.049 A 
ATOM     22  C   UNL     1       6.436  46.881  53.551  1.00  0.00     0.066 A 
ATOM     23  C   UNL     1       8.959  46.453  52.431  1.00  0.00     0.061 A 
ATOM     24  C   UNL     1       7.583  47.091  54.319  1.00  0.00     0.044 A 
ATOM     25  C   UNL     1       8.846  46.877  53.760  1.00  0.00     0.061 A 
ATOM     26  Cl  UNL     1       4.900  47.180  54.281  1.00  0.00    -0.082 Cl
ATOM     27  Cl  UNL     1      10.485  46.166  51.677  1.00  0.00    -0.083 Cl
ATOM     28  Cl  UNL     1      10.224  47.154  54.762  1.00  0.00    -0.083 Cl
ENDBRANCH  18  20
ENDBRANCH  11  18
ENDBRANCH   1   8
TORSDOF 6
ENDMDL
MODEL 11
REMARK VINA RESULT:    -8.245      2.954      5.910
REMARK INTER + INTRA:         -12.067
REMARK INTER:                 -11.203
REMARK INTRA:                  -0.864
REMARK UNBOUND:                -0.931
REMARK SMILES CC(C)CCNc1nc(Nc2cc(Cl)c(Cl)cc2Cl)c2cnn(C)c2n1
REMARK SMILES IDX 6 1 5 3 4 4 2 5 1 6 3 7 7 8 8 9 26 10 9 11 25 12 20 13 23 14
REMARK SMILES IDX 21 15 22 16 24 17 10 18 11 20 12 21 18 22 13 23 17 24 15 25
REMARK SMILES IDX 19 26 14 27 16 28
REMARK H PARENT 6 2 10 19
ROOT
ATOM      1  N   UNL     1       2.548  42.318  52.929  1.00  0.00    -0.354 N 
ATOM      2  H   UNL     1       2.627  41.319  52.779  1.00  0.00     0.163 HD
ENDROOT
BRANCH   1   3
ATOM      3  C   UNL     1       1.209  42.862  52.803  1.00  0.00     0.116 C 
BRANCH   3   4
ATOM      4  C   UNL     1       0.656  43.395  54.131  1.00  0.00     0.024 C 
BRANCH   4   5
ATOM      5  C   UNL     1       0.838  44.900  54.426  1.00  0.00    -0.016 C 
ATOM      6  C   UNL     1       1.150  45.726  53.178  1.00  0.00     0.007 C 
ATOM      7  C   UNL     1       1.871  45.169  55.519  1.00  0.00     0.007 C 
ENDBRANCH   4   5
ENDBRANCH   3   4
ENDBRANCH   1   3
BRANCH   1   8
ATOM      8  C   UNL     1       3.541  42.904  52.158  1.00  0.00     0.226 A 
ATOM      9  N   UNL     1       3.923  44.169  52.406  1.00  0.00    -0.195 NA
ATOM     10  N   UNL     1       4.050  42.113  51.206  1.00  0.00    -0.193 NA
ATOM     11  C   UNL     1       4.917  44.745  51.684  1.00  0.00     0.147 A 
ATOM     12  C   UNL     1       5.024  42.705  50.499  1.00  0.00     0.165 A 
ATOM     13  C   UNL     1       5.505  43.989  50.668  1.00  0.00     0.082 A 
ATOM     14  N   UNL     1       5.743  42.162  49.468  1.00  0.00    -0.250 N 
ATOM     15  C   UNL     1       6.502  44.116  49.679  1.00  0.00     0.149 A 
ATOM     16  N   UNL     1       6.656  43.009  48.943  1.00  0.00    -0.179 NA
ATOM     17  C   UNL     1       5.614  40.833  48.926  1.00  0.00     0.176 C 
BRANCH  11  18
ATOM     18  N   UNL     1       5.249  46.069  52.055  1.00  0.00    -0.338 N 
ATOM     19  H   UNL     1       4.426  46.343  52.599  1.00  0.00     0.168 HD
BRANCH  18  20
ATOM     20  C   UNL     1       6.429  46.418  52.756  1.00  0.00     0.060 A 
ATOM     21  C   UNL     1       7.661  46.297  52.098  1.00  0.00     0.049 A 
ATOM     22  C   UNL     1       6.419  46.830  54.101  1.00  0.00     0.066 A 
ATOM     23  C   UNL     1       8.858  46.588  52.761  1.00  0.00     0.061 A 
ATOM     24  C   UNL     1       7.611  47.121  54.767  1.00  0.00     0.044 A 
ATOM     25  C   UNL     1       8.832  47.000  54.098  1.00  0.00     0.061 A 
ATOM     26  Cl  UNL     1       4.935  47.015  54.965  1.00  0.00    -0.082 Cl
ATOM     27  Cl  UNL     1      10.329  46.414  51.874  1.00  0.00    -0.083 Cl
ATOM     28  Cl  UNL     1      10.270  47.374  54.979  1.00  0.00    -0.083 Cl
ENDBRANCH  18  20
ENDBRANCH  11  18
ENDBRANCH   1   8
TORSDOF 6
ENDMDL
MODEL 12
REMARK VINA RESULT:    -8.222      2.905      6.673
REMARK INTER + INTRA:         -12.037
REMARK INTER:                 -11.173
REMARK INTRA:                  -0.864
REMARK UNBOUND:                -0.931
REMARK SMILES CC(C)CCNc1nc(Nc2cc(Cl)c(Cl)cc2Cl)c2cnn(C)c2n1
REMARK SMILES IDX 6 1 5 3 4 4 2 5 1 6 3 7 7 8 8 9 26 10 9 11 25 12 20 13 23 14
REMARK SMILES IDX 21 15 22 16 24 17 10 18 11 20 12 21 18 22 13 23 17 24 15 25
REMARK SMILES IDX 19 26 14 27 16 28
REMARK H PARENT 6 2 10 19
ROOT
ATOM      1  N   UNL     1       6.624  46.527  51.647  1.00  0.00    -0.354 N 
ATOM      2  H   UNL     1       7.423  45.969  51.367  1.00  0.00     0.163 HD
ENDROOT
BRANCH   1   3
ATOM      3  C   UNL     1       6.794  47.285  52.872  1.00  0.00     0.116 C 
BRANCH   3   4
ATOM      4  C   UNL     1       8.220  47.822  53.047  1.00  0.00     0.024 C 
BRANCH   4   5
ATOM      5  C   UNL     1       9.327  46.804  53.396  1.00  0.00    -0.016 C 
ATOM      6  C   UNL     1      10.156  47.208  54.616  1.00  0.00     0.007 C 
ATOM      7  C   UNL     1      10.238  46.489  52.210  1.00  0.00     0.007 C 
ENDBRANCH   4   5
ENDBRANCH   3   4
ENDBRANCH   1   3
BRANCH   1   8
ATOM      8  C   UNL     1       5.522  45.689  51.571  1.00  0.00     0.226 A 
ATOM      9  N   UNL     1       4.299  46.160  51.874  1.00  0.00    -0.195 NA
ATOM     10  N   UNL     1       5.795  44.439  51.179  1.00  0.00    -0.193 NA
ATOM     11  C   UNL     1       3.207  45.363  51.772  1.00  0.00     0.147 A 
ATOM     12  C   UNL     1       4.703  43.666  51.094  1.00  0.00     0.165 A 
ATOM     13  C   UNL     1       3.401  44.041  51.368  1.00  0.00     0.082 A 
ATOM     14  N   UNL     1       4.648  42.351  50.716  1.00  0.00    -0.250 N 
ATOM     15  C   UNL     1       2.650  42.871  51.135  1.00  0.00     0.149 A 
ATOM     16  N   UNL     1       3.399  41.837  50.736  1.00  0.00    -0.179 NA
ATOM     17  C   UNL     1       5.754  41.516  50.321  1.00  0.00     0.176 C 
BRANCH  11  18
ATOM     18  N   UNL     1       1.973  45.978  52.091  1.00  0.00    -0.338 N 
ATOM     19  H   UNL     1       1.521  46.021  51.172  1.00  0.00     0.168 HD
BRANCH  18  20
ATOM     20  C   UNL     1       1.067  45.471  53.053  1.00  0.00     0.060 A 
ATOM     21  C   UNL     1       1.374  45.625  54.412  1.00  0.00     0.049 A 
ATOM     22  C   UNL     1      -0.104  44.774  52.700  1.00  0.00     0.066 A 
ATOM     23  C   UNL     1       0.532  45.103  55.399  1.00  0.00     0.061 A 
ATOM     24  C   UNL     1      -0.947  44.251  53.682  1.00  0.00     0.044 A 
ATOM     25  C   UNL     1      -0.630  44.415  55.033  1.00  0.00     0.061 A 
ATOM     26  Cl  UNL     1      -0.550  44.565  51.044  1.00  0.00    -0.082 Cl
ATOM     27  Cl  UNL     1       0.988  45.339  57.048  1.00  0.00    -0.083 Cl
ATOM     28  Cl  UNL     1      -1.714  43.744  56.198  1.00  0.00    -0.083 Cl
ENDBRANCH  18  20
ENDBRANCH  11  18
ENDBRANCH   1   8
TORSDOF 6
ENDMDL
MODEL 13
REMARK VINA RESULT:    -8.204      2.513      4.842
REMARK INTER + INTRA:         -12.012
REMARK INTER:                 -10.844
REMARK INTRA:                  -1.168
REMARK UNBOUND:                -0.931
REMARK SMILES CC(C)CCNc1nc(Nc2cc(Cl)c(Cl)cc2Cl)c2cnn(C)c2n1
REMARK SMILES IDX 6 1 5 3 4 4 2 5 1 6 3 7 7 8 8 9 26 10 9 11 25 12 20 13 23 14
REMARK SMILES IDX 21 15 22 16 24 17 10 18 11 20 12 21 18 22 13 23 17 24 15 25
REMARK SMILES IDX 19 26 14 27 16 28
REMARK H PARENT 6 2 10 19
ROOT
ATOM      1  N   UNL     1       6.244  43.868  49.485  1.00  0.00    -0.354 N 
ATOM      2  H   UNL     1       5.239  43.832  49.363  1.00  0.00     0.163 HD
ENDROOT
BRANCH   1   3
ATOM      3  C   UNL     1       6.888  42.590  49.718  1.00  0.00     0.116 C 
BRANCH   3   4
ATOM      4  C   UNL     1       5.943  41.550  50.334  1.00  0.00     0.024 C 
BRANCH   4   5
ATOM      5  C   UNL     1       4.435  41.882  50.353  1.00  0.00    -0.016 C 
ATOM      6  C   UNL     1       3.917  42.255  51.742  1.00  0.00     0.007 C 
ATOM      7  C   UNL     1       3.578  40.776  49.740  1.00  0.00     0.007 C 
ENDBRANCH   4   5
ENDBRANCH   3   4
ENDBRANCH   1   3
BRANCH   1   8
ATOM      8  C   UNL     1       6.486  44.875  50.408  1.00  0.00     0.226 A 
ATOM      9  N   UNL     1       5.455  45.497  51.007  1.00  0.00    -0.195 NA
ATOM     10  N   UNL     1       7.780  45.134  50.627  1.00  0.00    -0.193 NA
ATOM     11  C   UNL     1       5.675  46.459  51.937  1.00  0.00     0.147 A 
ATOM     12  C   UNL     1       7.975  46.095  51.542  1.00  0.00     0.165 A 
ATOM     13  C   UNL     1       6.998  46.794  52.227  1.00  0.00     0.082 A 
ATOM     14  N   UNL     1       9.174  46.579  51.989  1.00  0.00    -0.250 N 
ATOM     15  C   UNL     1       7.724  47.680  53.049  1.00  0.00     0.149 A 
ATOM     16  N   UNL     1       9.049  47.558  52.913  1.00  0.00    -0.179 NA
ATOM     17  C   UNL     1      10.489  46.156  51.577  1.00  0.00     0.176 C 
BRANCH  11  18
ATOM     18  N   UNL     1       4.513  47.021  52.517  1.00  0.00    -0.338 N 
ATOM     19  H   UNL     1       4.155  47.594  51.747  1.00  0.00     0.168 HD
BRANCH  18  20
ATOM     20  C   UNL     1       3.463  46.254  53.076  1.00  0.00     0.060 A 
ATOM     21  C   UNL     1       2.270  46.120  52.351  1.00  0.00     0.049 A 
ATOM     22  C   UNL     1       3.549  45.663  54.350  1.00  0.00     0.066 A 
ATOM     23  C   UNL     1       1.188  45.407  52.880  1.00  0.00     0.061 A 
ATOM     24  C   UNL     1       2.471  44.952  54.882  1.00  0.00     0.044 A 
ATOM     25  C   UNL     1       1.290  44.824  54.147  1.00  0.00     0.061 A 
ATOM     26  Cl  UNL     1       4.995  45.776  55.288  1.00  0.00    -0.082 Cl
ATOM     27  Cl  UNL     1      -0.241  45.292  51.918  1.00  0.00    -0.083 Cl
ATOM     28  Cl  UNL     1      -0.005  43.932  54.861  1.00  0.00    -0.083 Cl
ENDBRANCH  18  20
ENDBRANCH  11  18
ENDBRANCH   1   8
TORSDOF 6
ENDMDL
MODEL 14
REMARK VINA RESULT:    -8.111      3.344      7.327
REMARK INTER + INTRA:         -11.886
REMARK INTER:                 -10.616
REMARK INTRA:                  -1.270
REMARK UNBOUND:                -0.931
REMARK SMILES CC(C)CCNc1nc(Nc2cc(Cl)c(Cl)cc2Cl)c2cnn(C)c2n1
REMARK SMILES IDX 6 1 5 3 4 4 2 5 1 6 3 7 7 8 8 9 26 10 9 11 25 12 20 13 23 14
REMARK SMILES IDX 21 15 22 16 24 17 10 18 11 20 12 21 18 22 13 23 17 24 15 25
REMARK SMILES IDX 19 26 14 27 16 28
REMARK H PARENT 6 2 10 19
ROOT
ATOM      1  N   UNL     1       3.764  41.701  50.430  1.00  0.00    -0.354 N 
ATOM      2  H   UNL     1       3.233  40.844  50.334  1.00  0.00     0.163 HD
ENDROOT
BRANCH   1   3
ATOM      3  C   UNL     1       5.205  41.538  50.479  1.00  0.00     0.116 C 
BRANCH   3   4
ATOM      4  C   UNL     1       5.934  42.365  49.414  1.00  0.00     0.024 C 
BRANCH   4   5
ATOM      5  C   UNL     1       6.830  43.525  49.901  1.00  0.00    -0.016 C 
ATOM      6  C   UNL     1       6.064  44.828  50.123  1.00  0.00     0.007 C 
ATOM      7  C   UNL     1       8.039  43.760  48.997  1.00  0.00     0.007 C 
ENDBRANCH   4   5
ENDBRANCH   3   4
ENDBRANCH   1   3
BRANCH   1   8
ATOM      8  C   UNL     1       3.173  42.408  51.467  1.00  0.00     0.226 A 
ATOM      9  N   UNL     1       3.939  43.115  52.318  1.00  0.00    -0.195 NA
ATOM     10  N   UNL     1       1.839  42.318  51.517  1.00  0.00    -0.193 NA
ATOM     11  C   UNL     1       3.374  43.839  53.316  1.00  0.00     0.147 A 
ATOM     12  C   UNL     1       1.303  43.033  52.517  1.00  0.00     0.165 A 
ATOM     13  C   UNL     1       1.985  43.802  53.441  1.00  0.00     0.082 A 
ATOM     14  N   UNL     1      -0.025  43.153  52.827  1.00  0.00    -0.250 N 
ATOM     15  C   UNL     1       0.969  44.328  54.266  1.00  0.00     0.149 A 
ATOM     16  N   UNL     1      -0.258  43.940  53.900  1.00  0.00    -0.179 NA
ATOM     17  C   UNL     1      -1.135  42.541  52.140  1.00  0.00     0.176 C 
BRANCH  11  18
ATOM     18  N   UNL     1       4.278  44.563  54.129  1.00  0.00    -0.338 N 
ATOM     19  H   UNL     1       4.801  43.806  54.580  1.00  0.00     0.168 HD
BRANCH  18  20
ATOM     20  C   UNL     1       5.176  45.538  53.631  1.00  0.00     0.060 A 
ATOM     21  C   UNL     1       6.552  45.290  53.717  1.00  0.00     0.049 A 
ATOM     22  C   UNL     1       4.743  46.768  53.101  1.00  0.00     0.066 A 
ATOM     23  C   UNL     1       7.480  46.241  53.278  1.00  0.00     0.061 A 
ATOM     24  C   UNL     1       5.664  47.720  52.662  1.00  0.00     0.044 A 
ATOM     25  C   UNL     1       7.034  47.458  52.751  1.00  0.00     0.061 A 
ATOM     26  Cl  UNL     1       3.060  47.130  52.951  1.00  0.00    -0.082 Cl
ATOM     27  Cl  UNL     1       9.156  45.852  53.421  1.00  0.00    -0.083 Cl
ATOM     28  Cl  UNL     1       8.121  48.678  52.192  1.00  0.00    -0.083 Cl
ENDBRANCH  18  20
ENDBRANCH  11  18
ENDBRANCH   1   8
TORSDOF 6
ENDMDL
MODEL 15
REMARK VINA RESULT:    -8.066      2.084      4.663
REMARK INTER + INTRA:         -11.826
REMARK INTER:                 -11.128
REMARK INTRA:                  -0.698
REMARK UNBOUND:                -0.931
REMARK SMILES CC(C)CCNc1nc(Nc2cc(Cl)c(Cl)cc2Cl)c2cnn(C)c2n1
REMARK SMILES IDX 6 1 5 3 4 4 2 5 1 6 3 7 7 8 8 9 26 10 9 11 25 12 20 13 23 14
REMARK SMILES IDX 21 15 22 16 24 17 10 18 11 20 12 21 18 22 13 23 17 24 15 25
REMARK SMILES IDX 19 26 14 27 16 28
REMARK H PARENT 6 2 10 19
ROOT
ATOM      1  N   UNL     1       7.650  45.091  49.678  1.00  0.00    -0.354 N 
ATOM      2  H   UNL     1       7.191  45.614  48.941  1.00  0.00     0.163 HD
ENDROOT
BRANCH   1   3
ATOM      3  C   UNL     1       7.514  43.649  49.594  1.00  0.00     0.116 C 
BRANCH   3   4
ATOM      4  C   UNL     1       6.234  43.132  50.264  1.00  0.00     0.024 C 
BRANCH   4   5
ATOM      5  C   UNL     1       5.779  41.698  49.919  1.00  0.00    -0.016 C 
ATOM      6  C   UNL     1       5.640  41.454  48.416  1.00  0.00     0.007 C 
ATOM      7  C   UNL     1       4.500  41.291  50.649  1.00  0.00     0.007 C 
ENDBRANCH   4   5
ENDBRANCH   3   4
ENDBRANCH   1   3
BRANCH   1   8
ATOM      8  C   UNL     1       7.275  45.692  50.870  1.00  0.00     0.226 A 
ATOM      9  N   UNL     1       5.975  45.932  51.120  1.00  0.00    -0.195 NA
ATOM     10  N   UNL     1       8.288  45.981  51.694  1.00  0.00    -0.193 NA
ATOM     11  C   UNL     1       5.589  46.488  52.295  1.00  0.00     0.147 A 
ATOM     12  C   UNL     1       7.885  46.539  52.845  1.00  0.00     0.165 A 
ATOM     13  C   UNL     1       6.583  46.821  53.215  1.00  0.00     0.082 A 
ATOM     14  N   UNL     1       8.673  46.939  53.890  1.00  0.00    -0.250 N 
ATOM     15  C   UNL     1       6.708  47.400  54.495  1.00  0.00     0.149 A 
ATOM     16  N   UNL     1       7.976  47.476  54.916  1.00  0.00    -0.179 NA
ATOM     17  C   UNL     1      10.108  46.841  53.982  1.00  0.00     0.176 C 
BRANCH  11  18
ATOM     18  N   UNL     1       4.194  46.665  52.454  1.00  0.00    -0.338 N 
ATOM     19  H   UNL     1       3.939  47.102  51.563  1.00  0.00     0.168 HD
BRANCH  18  20
ATOM     20  C   UNL     1       3.295  45.612  52.750  1.00  0.00     0.060 A 
ATOM     21  C   UNL     1       2.746  44.880  51.689  1.00  0.00     0.049 A 
ATOM     22  C   UNL     1       2.893  45.304  54.063  1.00  0.00     0.066 A 
ATOM     23  C   UNL     1       1.820  43.859  51.928  1.00  0.00     0.061 A 
ATOM     24  C   UNL     1       1.970  44.286  54.306  1.00  0.00     0.044 A 
ATOM     25  C   UNL     1       1.432  43.562  53.239  1.00  0.00     0.061 A 
ATOM     26  Cl  UNL     1       3.545  46.155  55.417  1.00  0.00    -0.082 Cl
ATOM     27  Cl  UNL     1       1.194  43.009  50.562  1.00  0.00    -0.083 Cl
ATOM     28  Cl  UNL     1       0.295  42.316  53.607  1.00  0.00    -0.083 Cl
ENDBRANCH  18  20
ENDBRANCH  11  18
ENDBRANCH   1   8
TORSDOF 6
ENDMDL
MODEL 16
REMARK VINA RESULT:    -8.043      2.300      5.559
REMARK INTER + INTRA:         -11.795
REMARK INTER:                 -10.996
REMARK INTRA:                  -0.799
REMARK UNBOUND:                -0.931
REMARK SMILES CC(C)CCNc1nc(Nc2cc(Cl)c(Cl)cc2Cl)c2cnn(C)c2n1
REMARK SMILES IDX 6 1 5 3 4 4 2 5 1 6 3 7 7 8 8 9 26 10 9 11 25 12 20 13 23 14
REMARK SMILES IDX 21 15 22 16 24 17 10 18 11 20 12 21 18 22 13 23 17 24 15 25
REMARK SMILES IDX 19 26 14 27 16 28
REMARK H PARENT 6 2 10 19
ROOT
ATOM      1  N   UNL     1       6.254  46.804  52.135  1.00  0.00    -0.354 N 
ATOM      2  H   UNL     1       5.662  47.569  51.831  1.00  0.00     0.163 HD
ENDROOT
BRANCH   1   3
ATOM      3  C   UNL     1       7.544  46.718  51.479  1.00  0.00     0.116 C 
BRANCH   3   4
ATOM      4  C   UNL     1       8.567  47.713  52.042  1.00  0.00     0.024 C 
BRANCH   4   5
ATOM      5  C   UNL     1       9.876  47.137  52.624  1.00  0.00    -0.016 C 
ATOM      6  C   UNL     1      10.288  45.811  51.987  1.00  0.00     0.007 C 
ATOM      7  C   UNL     1       9.843  47.014  54.147  1.00  0.00     0.007 C 
ENDBRANCH   4   5
ENDBRANCH   3   4
ENDBRANCH   1   3
BRANCH   1   8
ATOM      8  C   UNL     1       5.458  45.669  52.116  1.00  0.00     0.226 A 
ATOM      9  N   UNL     1       5.900  44.551  51.511  1.00  0.00    -0.195 NA
ATOM     10  N   UNL     1       4.280  45.800  52.735  1.00  0.00    -0.193 NA
ATOM     11  C   UNL     1       5.149  43.422  51.513  1.00  0.00     0.147 A 
ATOM     12  C   UNL     1       3.550  44.675  52.717  1.00  0.00     0.165 A 
ATOM     13  C   UNL     1       3.903  43.470  52.138  1.00  0.00     0.082 A 
ATOM     14  N   UNL     1       2.311  44.485  53.267  1.00  0.00    -0.250 N 
ATOM     15  C   UNL     1       2.797  42.632  52.390  1.00  0.00     0.149 A 
ATOM     16  N   UNL     1       1.823  43.239  53.078  1.00  0.00    -0.179 NA
ATOM     17  C   UNL     1       1.526  45.452  53.992  1.00  0.00     0.176 C 
BRANCH  11  18
ATOM     18  N   UNL     1       5.731  42.304  50.870  1.00  0.00    -0.338 N 
ATOM     19  H   UNL     1       5.368  41.529  51.435  1.00  0.00     0.168 HD
BRANCH  18  20
ATOM     20  C   UNL     1       5.568  42.015  49.494  1.00  0.00     0.060 A 
ATOM     21  C   UNL     1       4.568  41.109  49.112  1.00  0.00     0.049 A 
ATOM     22  C   UNL     1       6.400  42.561  48.499  1.00  0.00     0.066 A 
ATOM     23  C   UNL     1       4.396  40.759  47.769  1.00  0.00     0.061 A 
ATOM     24  C   UNL     1       6.232  42.214  47.158  1.00  0.00     0.044 A 
ATOM     25  C   UNL     1       5.230  41.312  46.791  1.00  0.00     0.061 A 
ATOM     26  Cl  UNL     1       7.639  43.696  48.900  1.00  0.00    -0.082 Cl
ATOM     27  Cl  UNL     1       3.140  39.637  47.388  1.00  0.00    -0.083 Cl
ATOM     28  Cl  UNL     1       5.074  40.924  45.115  1.00  0.00    -0.083 Cl
ENDBRANCH  18  20
ENDBRANCH  11  18
ENDBRANCH   1   8
TORSDOF 6
ENDMDL
MODEL 17
REMARK VINA RESULT:    -8.031      3.038      6.930
REMARK INTER + INTRA:         -11.778
REMARK INTER:                 -11.388
REMARK INTRA:                  -0.390
REMARK UNBOUND:                -0.931
REMARK SMILES CC(C)CCNc1nc(Nc2cc(Cl)c(Cl)cc2Cl)c2cnn(C)c2n1
REMARK SMILES IDX 6 1 5 3 4 4 2 5 1 6 3 7 7 8 8 9 26 10 9 11 25 12 20 13 23 14
REMARK SMILES IDX 21 15 22 16 24 17 10 18 11 20 12 21 18 22 13 23 17 24 15 25
REMARK SMILES IDX 19 26 14 27 16 28
REMARK H PARENT 6 2 10 19
ROOT
ATOM      1  N   UNL     1       4.169  41.481  51.643  1.00  0.00    -0.354 N 
ATOM      2  H   UNL     1       5.014  41.380  52.192  1.00  0.00     0.163 HD
ENDROOT
BRANCH   1   3
ATOM      3  C   UNL     1       4.311  41.206  50.225  1.00  0.00     0.116 C 
BRANCH   3   4
ATOM      4  C   UNL     1       5.763  41.308  49.742  1.00  0.00     0.024 C 
BRANCH   4   5
ATOM      5  C   UNL     1       6.134  42.511  48.848  1.00  0.00    -0.016 C 
ATOM      6  C   UNL     1       6.109  42.184  47.355  1.00  0.00     0.007 C 
ATOM      7  C   UNL     1       7.468  43.148  49.235  1.00  0.00     0.007 C 
ENDBRANCH   4   5
ENDBRANCH   3   4
ENDBRANCH   1   3
BRANCH   1   8
ATOM      8  C   UNL     1       3.624  42.707  51.995  1.00  0.00     0.226 A 
ATOM      9  N   UNL     1       4.403  43.651  52.553  1.00  0.00    -0.195 NA
ATOM     10  N   UNL     1       2.320  42.838  51.727  1.00  0.00    -0.193 NA
ATOM     11  C   UNL     1       3.894  44.867  52.872  1.00  0.00     0.147 A 
ATOM     12  C   UNL     1       1.835  44.043  52.059  1.00  0.00     0.165 A 
ATOM     13  C   UNL     1       2.538  45.090  52.626  1.00  0.00     0.082 A 
ATOM     14  N   UNL     1       0.550  44.488  51.904  1.00  0.00    -0.250 N 
ATOM     15  C   UNL     1       1.575  46.108  52.779  1.00  0.00     0.149 A 
ATOM     16  N   UNL     1       0.361  45.753  52.343  1.00  0.00    -0.179 NA
ATOM     17  C   UNL     1      -0.559  43.758  51.344  1.00  0.00     0.176 C 
BRANCH  11  18
ATOM     18  N   UNL     1       4.816  45.786  53.427  1.00  0.00    -0.338 N 
ATOM     19  H   UNL     1       4.837  45.489  54.408  1.00  0.00     0.168 HD
BRANCH  18  20
ATOM     20  C   UNL     1       6.136  45.962  52.948  1.00  0.00     0.060 A 
ATOM     21  C   UNL     1       7.166  46.166  53.877  1.00  0.00     0.049 A 
ATOM     22  C   UNL     1       6.448  45.992  51.576  1.00  0.00     0.066 A 
ATOM     23  C   UNL     1       8.480  46.387  53.451  1.00  0.00     0.061 A 
ATOM     24  C   UNL     1       7.758  46.214  51.146  1.00  0.00     0.044 A 
ATOM     25  C   UNL     1       8.775  46.412  52.083  1.00  0.00     0.061 A 
ATOM     26  Cl  UNL     1       5.229  45.732  50.380  1.00  0.00    -0.082 Cl
ATOM     27  Cl  UNL     1       9.686  46.628  54.663  1.00  0.00    -0.083 Cl
ATOM     28  Cl  UNL     1      10.373  46.681  51.486  1.00  0.00    -0.083 Cl
ENDBRANCH  18  20
ENDBRANCH  11  18
ENDBRANCH   1   8
TORSDOF 6
ENDMDL
MODEL 18
REMARK VINA RESULT:    -7.734      3.373      6.056
REMARK INTER + INTRA:         -11.378
REMARK INTER:                 -10.693
REMARK INTRA:                  -0.685
REMARK UNBOUND:                -0.931
REMARK SMILES CC(C)CCNc1nc(Nc2cc(Cl)c(Cl)cc2Cl)c2cnn(C)c2n1
REMARK SMILES IDX 6 1 5 3 4 4 2 5 1 6 3 7 7 8 8 9 26 10 9 11 25 12 20 13 23 14
REMARK SMILES IDX 21 15 22 16 24 17 10 18 11 20 12 21 18 22 13 23 17 24 15 25
REMARK SMILES IDX 19 26 14 27 16 28
REMARK H PARENT 6 2 10 19
ROOT
ATOM      1  N   UNL     1       2.425  46.027  56.545  1.00  0.00    -0.354 N 
ATOM      2  H   UNL     1       3.208  45.617  57.040  1.00  0.00     0.163 HD
ENDROOT
BRANCH   1   3
ATOM      3  C   UNL     1       1.127  45.826  57.160  1.00  0.00     0.116 C 
BRANCH   3   4
ATOM      4  C   UNL     1       0.883  46.757  58.355  1.00  0.00     0.024 C 
BRANCH   4   5
ATOM      5  C   UNL     1      -0.423  47.580  58.363  1.00  0.00    -0.016 C 
ATOM      6  C   UNL     1      -0.744  48.191  59.727  1.00  0.00     0.007 C 
ATOM      7  C   UNL     1      -1.621  46.796  57.831  1.00  0.00     0.007 C 
ENDBRANCH   4   5
ENDBRANCH   3   4
ENDBRANCH   1   3
BRANCH   1   8
ATOM      8  C   UNL     1       2.561  45.643  55.220  1.00  0.00     0.226 A 
ATOM      9  N   UNL     1       3.354  46.349  54.395  1.00  0.00    -0.195 NA
ATOM     10  N   UNL     1       1.865  44.552  54.879  1.00  0.00    -0.193 NA
ATOM     11  C   UNL     1       3.526  45.967  53.105  1.00  0.00     0.147 A 
ATOM     12  C   UNL     1       2.041  44.197  53.598  1.00  0.00     0.165 A 
ATOM     13  C   UNL     1       2.835  44.837  52.664  1.00  0.00     0.082 A 
ATOM     14  N   UNL     1       1.477  43.131  52.951  1.00  0.00    -0.250 N 
ATOM     15  C   UNL     1       2.663  44.077  51.489  1.00  0.00     0.149 A 
ATOM     16  N   UNL     1       1.840  43.035  51.652  1.00  0.00    -0.179 NA
ATOM     17  C   UNL     1       0.577  42.154  53.510  1.00  0.00     0.176 C 
BRANCH  11  18
ATOM     18  N   UNL     1       4.404  46.773  52.343  1.00  0.00    -0.338 N 
ATOM     19  H   UNL     1       4.181  47.709  52.694  1.00  0.00     0.168 HD
BRANCH  18  20
ATOM     20  C   UNL     1       5.808  46.592  52.309  1.00  0.00     0.060 A 
ATOM     21  C   UNL     1       6.590  47.228  53.283  1.00  0.00     0.049 A 
ATOM     22  C   UNL     1       6.453  45.842  51.309  1.00  0.00     0.066 A 
ATOM     23  C   UNL     1       7.985  47.115  53.267  1.00  0.00     0.061 A 
ATOM     24  C   UNL     1       7.844  45.726  51.288  1.00  0.00     0.044 A 
ATOM     25  C   UNL     1       8.612  46.363  52.267  1.00  0.00     0.061 A 
ATOM     26  Cl  UNL     1       5.548  45.019  50.090  1.00  0.00    -0.082 Cl
ATOM     27  Cl  UNL     1       8.869  47.931  54.505  1.00  0.00    -0.083 Cl
ATOM     28  Cl  UNL     1      10.327  46.182  52.185  1.00  0.00    -0.083 Cl
ENDBRANCH  18  20
ENDBRANCH  11  18
ENDBRANCH   1   8
TORSDOF 6
ENDMDL
MODEL 19
REMARK VINA RESULT:    -7.723      2.987      6.180
REMARK INTER + INTRA:         -11.363
REMARK INTER:                 -10.911
REMARK INTRA:                  -0.452
REMARK UNBOUND:                -0.931
REMARK SMILES CC(C)CCNc1nc(Nc2cc(Cl)c(Cl)cc2Cl)c2cnn(C)c2n1
REMARK SMILES IDX 6 1 5 3 4 4 2 5 1 6 3 7 7 8 8 9 26 10 9 11 25 12 20 13 23 14
REMARK SMILES IDX 21 15 22 16 24 17 10 18 11 20 12 21 18 22 13 23 17 24 15 25
REMARK SMILES IDX 19 26 14 27 16 28
REMARK H PARENT 6 2 10 19
ROOT
ATOM      1  N   UNL     1       2.645  46.998  52.717  1.00  0.00    -0.354 N 
ATOM      2  H   UNL     1       2.116  47.453  51.980  1.00  0.00     0.163 HD
ENDROOT
BRANCH   1   3
ATOM      3  C   UNL     1       4.086  47.122  52.614  1.00  0.00     0.116 C 
BRANCH   3   4
ATOM      4  C   UNL     1       4.779  47.162  53.983  1.00  0.00     0.024 C 
BRANCH   4   5
ATOM      5  C   UNL     1       5.938  46.170  54.223  1.00  0.00    -0.016 C 
ATOM      6  C   UNL     1       5.603  45.087  55.248  1.00  0.00     0.007 C 
ATOM      7  C   UNL     1       7.248  46.868  54.589  1.00  0.00     0.007 C 
ENDBRANCH   4   5
ENDBRANCH   3   4
ENDBRANCH   1   3
BRANCH   1   8
ATOM      8  C   UNL     1       2.128  45.716  52.828  1.00  0.00     0.226 A 
ATOM      9  N   UNL     1       2.837  44.666  52.378  1.00  0.00    -0.195 NA
ATOM     10  N   UNL     1       0.923  45.647  53.406  1.00  0.00    -0.193 NA
ATOM     11  C   UNL     1       2.361  43.403  52.511  1.00  0.00     0.147 A 
ATOM     12  C   UNL     1       0.467  44.391  53.518  1.00  0.00     0.165 A 
ATOM     13  C   UNL     1       1.108  43.239  53.103  1.00  0.00     0.082 A 
ATOM     14  N   UNL     1      -0.721  43.989  54.067  1.00  0.00    -0.250 N 
ATOM     15  C   UNL     1       0.210  42.205  53.441  1.00  0.00     0.149 A 
ATOM     16  N   UNL     1      -0.906  42.651  54.029  1.00  0.00    -0.179 NA
ATOM     17  C   UNL     1      -1.736  44.830  54.650  1.00  0.00     0.176 C 
BRANCH  11  18
ATOM     18  N   UNL     1       3.208  42.379  52.024  1.00  0.00    -0.338 N 
ATOM     19  H   UNL     1       2.542  41.779  51.529  1.00  0.00     0.168 HD
BRANCH  18  20
ATOM     20  C   UNL     1       4.342  42.617  51.210  1.00  0.00     0.060 A 
ATOM     21  C   UNL     1       5.160  43.717  51.503  1.00  0.00     0.049 A 
ATOM     22  C   UNL     1       4.651  41.825  50.089  1.00  0.00     0.066 A 
ATOM     23  C   UNL     1       6.266  44.019  50.702  1.00  0.00     0.061 A 
ATOM     24  C   UNL     1       5.754  42.123  49.287  1.00  0.00     0.044 A 
ATOM     25  C   UNL     1       6.563  43.221  49.592  1.00  0.00     0.061 A 
ATOM     26  Cl  UNL     1       3.695  40.445  49.683  1.00  0.00    -0.082 Cl
ATOM     27  Cl  UNL     1       7.219  45.392  51.136  1.00  0.00    -0.083 Cl
ATOM     28  Cl  UNL     1       7.912  43.535  48.560  1.00  0.00    -0.083 Cl
ENDBRANCH  18  20
ENDBRANCH  11  18
ENDBRANCH   1   8
TORSDOF 6
ENDMDL
MODEL 20
REMARK VINA RESULT:    -7.693      3.650      7.803
REMARK INTER + INTRA:         -11.322
REMARK INTER:                 -10.664
REMARK INTRA:                  -0.658
REMARK UNBOUND:                -0.931
REMARK SMILES CC(C)CCNc1nc(Nc2cc(Cl)c(Cl)cc2Cl)c2cnn(C)c2n1
REMARK SMILES IDX 6 1 5 3 4 4 2 5 1 6 3 7 7 8 8 9 26 10 9 11 25 12 20 13 23 14
REMARK SMILES IDX 21 15 22 16 24 17 10 18 11 20 12 21 18 22 13 23 17 24 15 25
REMARK SMILES IDX 19 26 14 27 16 28
REMARK H PARENT 6 2 10 19
ROOT
ATOM      1  N   UNL     1       6.167  46.409  54.972  1.00  0.00    -0.354 N 
ATOM      2  H   UNL     1       6.045  47.327  55.386  1.00  0.00     0.163 HD
ENDROOT
BRANCH   1   3
ATOM      3  C   UNL     1       7.255  46.297  54.019  1.00  0.00     0.116 C 
BRANCH   3   4
ATOM      4  C   UNL     1       8.017  47.614  53.827  1.00  0.00     0.024 C 
BRANCH   4   5
ATOM      5  C   UNL     1       9.547  47.532  53.642  1.00  0.00    -0.016 C 
ATOM      6  C   UNL     1       9.972  46.541  52.558  1.00  0.00     0.007 C 
ATOM      7  C   UNL     1      10.287  47.248  54.948  1.00  0.00     0.007 C 
ENDBRANCH   4   5
ENDBRANCH   3   4
ENDBRANCH   1   3
BRANCH   1   8
ATOM      8  C   UNL     1       4.910  46.009  54.545  1.00  0.00     0.226 A 
ATOM      9  N   UNL     1       4.041  45.479  55.424  1.00  0.00    -0.195 NA
ATOM     10  N   UNL     1       4.672  46.204  53.243  1.00  0.00    -0.193 NA
ATOM     11  C   UNL     1       2.795  45.114  55.030  1.00  0.00     0.147 A 
ATOM     12  C   UNL     1       3.440  45.827  52.873  1.00  0.00     0.165 A 
ATOM     13  C   UNL     1       2.463  45.283  53.685  1.00  0.00     0.082 A 
ATOM     14  N   UNL     1       2.893  45.905  51.620  1.00  0.00    -0.250 N 
ATOM     15  C   UNL     1       1.376  45.062  52.814  1.00  0.00     0.149 A 
ATOM     16  N   UNL     1       1.626  45.438  51.555  1.00  0.00    -0.179 NA
ATOM     17  C   UNL     1       3.523  46.416  50.429  1.00  0.00     0.176 C 
BRANCH  11  18
ATOM     18  N   UNL     1       1.962  44.595  56.049  1.00  0.00    -0.338 N 
ATOM     19  H   UNL     1       2.635  44.442  56.807  1.00  0.00     0.168 HD
BRANCH  18  20
ATOM     20  C   UNL     1       0.818  45.264  56.547  1.00  0.00     0.060 A 
ATOM     21  C   UNL     1       0.986  46.219  57.560  1.00  0.00     0.049 A 
ATOM     22  C   UNL     1      -0.485  44.974  56.102  1.00  0.00     0.066 A 
ATOM     23  C   UNL     1      -0.117  46.876  58.114  1.00  0.00     0.061 A 
ATOM     24  C   UNL     1      -1.589  45.626  56.653  1.00  0.00     0.044 A 
ATOM     25  C   UNL     1      -1.407  46.578  57.660  1.00  0.00     0.061 A 
ATOM     26  Cl  UNL     1      -0.761  43.821  54.846  1.00  0.00    -0.082 Cl
ATOM     27  Cl  UNL     1       0.182  48.037  59.356  1.00  0.00    -0.083 Cl
ATOM     28  Cl  UNL     1      -2.814  47.349  58.299  1.00  0.00    -0.083 Cl
ENDBRANCH  18  20
ENDBRANCH  11  18
ENDBRANCH   1   8
TORSDOF 6
ENDMDL
