MODEL 1
REMARK VINA RESULT:    -8.789      0.000      0.000
REMARK INTER + INTRA:         -13.177
REMARK INTER:                 -12.128
REMARK INTRA:                  -1.049
REMARK UNBOUND:                -1.049
REMARK SMILES Cc1ccc(Nc2nc(NCCCO)c3ccccc3n2)cc1
REMARK SMILES IDX 10 1 9 3 7 4 8 5 21 6 20 7 15 8 19 9 16 10 18 11 17 12 6 13
REMARK SMILES IDX 5 15 2 16 3 17 23 18 4 19 22 20 1 21 11 22 12 23 13 24 14 25
REMARK H PARENT 10 2 6 14 14 26
ROOT
ATOM      1  N   UNL     1       3.380  43.293  52.845  1.00  0.00    -0.369 N 
ATOM      2  H   UNL     1       3.791  43.054  53.745  1.00  0.00     0.162 HD
ENDROOT
BRANCH   1   3
ATOM      3  C   UNL     1       4.444  43.605  51.965  1.00  0.00     0.139 A 
ATOM      4  C   UNL     1       6.175  44.999  51.348  1.00  0.00     0.229 A 
ATOM      5  N   UNL     1       5.164  44.718  52.182  1.00  0.00    -0.195 NA
ATOM      6  N   UNL     1       6.513  44.224  50.313  1.00  0.00    -0.213 NA
ATOM      7  C   UNL     1       5.787  43.128  50.080  1.00  0.00     0.078 A 
ATOM      8  C   UNL     1       4.707  42.753  50.881  1.00  0.00     0.043 A 
ATOM      9  C   UNL     1       6.121  42.328  48.993  1.00  0.00     0.029 A 
ATOM     10  C   UNL     1       3.969  41.584  50.556  1.00  0.00     0.014 A 
ATOM     11  C   UNL     1       5.403  41.171  48.678  1.00  0.00     0.002 A 
ATOM     12  C   UNL     1       4.319  40.799  49.460  1.00  0.00     0.001 A 
BRANCH   4  13
ATOM     13  N   UNL     1       6.861  46.173  51.645  1.00  0.00    -0.324 N 
ATOM     14  H   UNL     1       6.579  46.888  50.990  1.00  0.00     0.170 HD
BRANCH  13  15
ATOM     15  C   UNL     1       7.839  46.523  52.582  1.00  0.00     0.041 A 
ATOM     16  C   UNL     1       9.721  47.241  54.584  1.00  0.00    -0.051 A 
ATOM     17  C   UNL     1      10.144  46.838  53.315  1.00  0.00     0.005 A 
ATOM     18  C   UNL     1       8.350  47.303  54.844  1.00  0.00     0.005 A 
ATOM     19  C   UNL     1       9.213  46.478  52.332  1.00  0.00     0.026 A 
ATOM     20  C   UNL     1       7.427  46.942  53.857  1.00  0.00     0.026 A 
ATOM     21  C   UNL     1      10.716  47.657  55.624  1.00  0.00     0.044 C 
ENDBRANCH  13  15
ENDBRANCH   4  13
ENDBRANCH   1   3
BRANCH   1  22
ATOM     22  C   UNL     1       2.340  44.313  52.993  1.00  0.00     0.117 C 
BRANCH  22  23
ATOM     23  C   UNL     1       2.010  44.554  54.465  1.00  0.00     0.049 C 
BRANCH  23  24
ATOM     24  C   UNL     1       3.075  45.414  55.128  1.00  0.00     0.158 C 
BRANCH  24  25
ATOM     25  O   UNL     1       4.241  44.643  55.390  1.00  0.00    -0.396 OA
ATOM     26  H   UNL     1       4.566  44.884  56.274  1.00  0.00     0.210 HD
ENDBRANCH  24  25
ENDBRANCH  23  24
ENDBRANCH  22  23
ENDBRANCH   1  22
TORSDOF 7
ENDMDL
MODEL 2
REMARK VINA RESULT:    -8.774      2.153      6.862
REMARK INTER + INTRA:         -13.157
REMARK INTER:                 -12.544
REMARK INTRA:                  -0.613
REMARK UNBOUND:                -1.049
REMARK SMILES Cc1ccc(Nc2nc(NCCCO)c3ccccc3n2)cc1
REMARK SMILES IDX 10 1 9 3 7 4 8 5 21 6 20 7 15 8 19 9 16 10 18 11 17 12 6 13
REMARK SMILES IDX 5 15 2 16 3 17 23 18 4 19 22 20 1 21 11 22 12 23 13 24 14 25
REMARK H PARENT 10 2 6 14 14 26
ROOT
ATOM      1  N   UNL     1       6.881  45.238  50.410  1.00  0.00    -0.369 N 
ATOM      2  H   UNL     1       7.872  45.016  50.345  1.00  0.00     0.162 HD
ENDROOT
BRANCH   1   3
ATOM      3  C   UNL     1       6.682  45.932  51.628  1.00  0.00     0.139 A 
ATOM      4  C   UNL     1       5.251  46.818  53.205  1.00  0.00     0.229 A 
ATOM      5  N   UNL     1       5.428  46.168  52.046  1.00  0.00    -0.195 NA
ATOM      6  N   UNL     1       6.260  47.238  53.974  1.00  0.00    -0.213 NA
ATOM      7  C   UNL     1       7.508  47.024  53.553  1.00  0.00     0.078 A 
ATOM      8  C   UNL     1       7.800  46.368  52.356  1.00  0.00     0.043 A 
ATOM      9  C   UNL     1       8.562  47.477  54.340  1.00  0.00     0.029 A 
ATOM     10  C   UNL     1       9.154  46.199  51.964  1.00  0.00     0.014 A 
ATOM     11  C   UNL     1       9.896  47.301  53.962  1.00  0.00     0.002 A 
ATOM     12  C   UNL     1      10.194  46.663  52.766  1.00  0.00     0.001 A 
BRANCH   4  13
ATOM     13  N   UNL     1       3.920  47.024  53.556  1.00  0.00    -0.324 N 
ATOM     14  H   UNL     1       3.802  47.989  53.827  1.00  0.00     0.170 HD
BRANCH  13  15
ATOM     15  C   UNL     1       2.795  46.198  53.650  1.00  0.00     0.041 A 
ATOM     16  C   UNL     1       0.547  44.493  53.979  1.00  0.00    -0.051 A 
ATOM     17  C   UNL     1       0.708  45.251  52.816  1.00  0.00     0.005 A 
ATOM     18  C   UNL     1       1.526  44.576  54.972  1.00  0.00     0.005 A 
ATOM     19  C   UNL     1       1.815  46.095  52.661  1.00  0.00     0.026 A 
ATOM     20  C   UNL     1       2.629  45.422  54.809  1.00  0.00     0.026 A 
ATOM     21  C   UNL     1      -0.619  43.566  54.131  1.00  0.00     0.044 C 
ENDBRANCH  13  15
ENDBRANCH   4  13
ENDBRANCH   1   3
BRANCH   1  22
ATOM     22  C   UNL     1       6.059  44.045  50.201  1.00  0.00     0.117 C 
BRANCH  22  23
ATOM     23  C   UNL     1       6.806  42.996  49.381  1.00  0.00     0.049 C 
BRANCH  23  24
ATOM     24  C   UNL     1       6.296  41.597  49.692  1.00  0.00     0.158 C 
BRANCH  24  25
ATOM     25  O   UNL     1       7.368  40.760  50.107  1.00  0.00    -0.396 OA
ATOM     26  H   UNL     1       8.104  40.889  49.485  1.00  0.00     0.210 HD
ENDBRANCH  24  25
ENDBRANCH  23  24
ENDBRANCH  22  23
ENDBRANCH   1  22
TORSDOF 7
ENDMDL
MODEL 3
REMARK VINA RESULT:    -8.724      2.166      6.892
REMARK INTER + INTRA:         -13.088
REMARK INTER:                 -12.485
REMARK INTRA:                  -0.603
REMARK UNBOUND:                -1.049
REMARK SMILES Cc1ccc(Nc2nc(NCCCO)c3ccccc3n2)cc1
REMARK SMILES IDX 10 1 9 3 7 4 8 5 21 6 20 7 15 8 19 9 16 10 18 11 17 12 6 13
REMARK SMILES IDX 5 15 2 16 3 17 23 18 4 19 22 20 1 21 11 22 12 23 13 24 14 25
REMARK H PARENT 10 2 6 14 14 26
ROOT
ATOM      1  N   UNL     1       6.947  45.281  50.382  1.00  0.00    -0.369 N 
ATOM      2  H   UNL     1       7.942  45.073  50.325  1.00  0.00     0.162 HD
ENDROOT
BRANCH   1   3
ATOM      3  C   UNL     1       6.731  45.977  51.595  1.00  0.00     0.139 A 
ATOM      4  C   UNL     1       5.276  46.853  53.157  1.00  0.00     0.229 A 
ATOM      5  N   UNL     1       5.470  46.201  52.002  1.00  0.00    -0.195 NA
ATOM      6  N   UNL     1       6.274  47.287  53.933  1.00  0.00    -0.213 NA
ATOM      7  C   UNL     1       7.528  47.085  53.524  1.00  0.00     0.078 A 
ATOM      8  C   UNL     1       7.838  46.429  52.332  1.00  0.00     0.043 A 
ATOM      9  C   UNL     1       8.570  47.552  54.318  1.00  0.00     0.029 A 
ATOM     10  C   UNL     1       9.197  46.273  51.952  1.00  0.00     0.014 A 
ATOM     11  C   UNL     1       9.909  47.390  53.952  1.00  0.00     0.002 A 
ATOM     12  C   UNL     1      10.224  46.751  52.761  1.00  0.00     0.001 A 
BRANCH   4  13
ATOM     13  N   UNL     1       3.940  47.046  53.495  1.00  0.00    -0.324 N 
ATOM     14  H   UNL     1       3.781  48.032  53.638  1.00  0.00     0.170 HD
BRANCH  13  15
ATOM     15  C   UNL     1       2.854  46.191  53.713  1.00  0.00     0.041 A 
ATOM     16  C   UNL     1       0.609  44.478  54.016  1.00  0.00    -0.051 A 
ATOM     17  C   UNL     1       1.577  44.575  55.018  1.00  0.00     0.005 A 
ATOM     18  C   UNL     1       0.757  45.257  52.865  1.00  0.00     0.005 A 
ATOM     19  C   UNL     1       2.686  45.416  54.862  1.00  0.00     0.026 A 
ATOM     20  C   UNL     1       1.868  46.094  52.717  1.00  0.00     0.026 A 
ATOM     21  C   UNL     1      -0.594  43.604  54.198  1.00  0.00     0.044 C 
ENDBRANCH  13  15
ENDBRANCH   4  13
ENDBRANCH   1   3
BRANCH   1  22
ATOM     22  C   UNL     1       6.143  44.077  50.172  1.00  0.00     0.117 C 
BRANCH  22  23
ATOM     23  C   UNL     1       6.902  43.044  49.341  1.00  0.00     0.049 C 
BRANCH  23  24
ATOM     24  C   UNL     1       6.340  41.647  49.562  1.00  0.00     0.158 C 
BRANCH  24  25
ATOM     25  O   UNL     1       7.337  40.793  50.107  1.00  0.00    -0.396 OA
ATOM     26  H   UNL     1       7.825  41.298  50.781  1.00  0.00     0.210 HD
ENDBRANCH  24  25
ENDBRANCH  23  24
ENDBRANCH  22  23
ENDBRANCH   1  22
TORSDOF 7
ENDMDL
MODEL 4
REMARK VINA RESULT:    -8.670      1.025      1.215
REMARK INTER + INTRA:         -13.013
REMARK INTER:                 -12.284
REMARK INTRA:                  -0.728
REMARK UNBOUND:                -1.049
REMARK SMILES Cc1ccc(Nc2nc(NCCCO)c3ccccc3n2)cc1
REMARK SMILES IDX 10 1 9 3 7 4 8 5 21 6 20 7 15 8 19 9 16 10 18 11 17 12 6 13
REMARK SMILES IDX 5 15 2 16 3 17 23 18 4 19 22 20 1 21 11 22 12 23 13 24 14 25
REMARK H PARENT 10 2 6 14 14 26
ROOT
ATOM      1  N   UNL     1       3.615  43.423  52.899  1.00  0.00    -0.369 N 
ATOM      2  H   UNL     1       3.997  42.786  53.596  1.00  0.00     0.162 HD
ENDROOT
BRANCH   1   3
ATOM      3  C   UNL     1       4.636  43.672  51.951  1.00  0.00     0.139 A 
ATOM      4  C   UNL     1       6.396  44.968  51.213  1.00  0.00     0.229 A 
ATOM      5  N   UNL     1       5.426  44.746  52.112  1.00  0.00    -0.195 NA
ATOM      6  N   UNL     1       6.626  44.169  50.167  1.00  0.00    -0.213 NA
ATOM      7  C   UNL     1       5.831  43.111  49.991  1.00  0.00     0.078 A 
ATOM      8  C   UNL     1       4.786  42.799  50.861  1.00  0.00     0.043 A 
ATOM      9  C   UNL     1       6.053  42.287  48.893  1.00  0.00     0.029 A 
ATOM     10  C   UNL     1       3.968  41.669  50.595  1.00  0.00     0.014 A 
ATOM     11  C   UNL     1       5.257  41.168  48.635  1.00  0.00     0.002 A 
ATOM     12  C   UNL     1       4.206  40.860  49.487  1.00  0.00     0.001 A 
BRANCH   4  13
ATOM     13  N   UNL     1       7.160  46.106  51.455  1.00  0.00    -0.324 N 
ATOM     14  H   UNL     1       7.024  46.755  50.695  1.00  0.00     0.170 HD
BRANCH  13  15
ATOM     15  C   UNL     1       8.062  46.483  52.456  1.00  0.00     0.041 A 
ATOM     16  C   UNL     1       9.781  47.255  54.580  1.00  0.00    -0.051 A 
ATOM     17  C   UNL     1      10.301  46.846  53.350  1.00  0.00     0.005 A 
ATOM     18  C   UNL     1       8.394  47.296  54.740  1.00  0.00     0.005 A 
ATOM     19  C   UNL     1       9.450  46.460  52.307  1.00  0.00     0.026 A 
ATOM     20  C   UNL     1       7.551  46.908  53.693  1.00  0.00     0.026 A 
ATOM     21  C   UNL     1      10.691  47.700  55.684  1.00  0.00     0.044 C 
ENDBRANCH  13  15
ENDBRANCH   4  13
ENDBRANCH   1   3
BRANCH   1  22
ATOM     22  C   UNL     1       3.015  44.598  53.531  1.00  0.00     0.117 C 
BRANCH  22  23
ATOM     23  C   UNL     1       1.625  44.282  54.078  1.00  0.00     0.049 C 
BRANCH  23  24
ATOM     24  C   UNL     1       0.932  43.228  53.228  1.00  0.00     0.158 C 
BRANCH  24  25
ATOM     25  O   UNL     1       1.301  41.924  53.658  1.00  0.00    -0.396 OA
ATOM     26  H   UNL     1       1.523  41.401  52.869  1.00  0.00     0.210 HD
ENDBRANCH  24  25
ENDBRANCH  23  24
ENDBRANCH  22  23
ENDBRANCH   1  22
TORSDOF 7
ENDMDL
MODEL 5
REMARK VINA RESULT:    -8.188      2.099      6.171
REMARK INTER + INTRA:         -12.348
REMARK INTER:                 -11.745
REMARK INTRA:                  -0.604
REMARK UNBOUND:                -1.049
REMARK SMILES Cc1ccc(Nc2nc(NCCCO)c3ccccc3n2)cc1
REMARK SMILES IDX 10 1 9 3 7 4 8 5 21 6 20 7 15 8 19 9 16 10 18 11 17 12 6 13
REMARK SMILES IDX 5 15 2 16 3 17 23 18 4 19 22 20 1 21 11 22 12 23 13 24 14 25
REMARK H PARENT 10 2 6 14 14 26
ROOT
ATOM      1  N   UNL     1       8.310  47.321  51.679  1.00  0.00    -0.369 N 
ATOM      2  H   UNL     1       8.207  48.054  50.980  1.00  0.00     0.162 HD
ENDROOT
BRANCH   1   3
ATOM      3  C   UNL     1       7.139  46.526  51.632  1.00  0.00     0.139 A 
ATOM      4  C   UNL     1       4.974  46.129  52.320  1.00  0.00     0.229 A 
ATOM      5  N   UNL     1       6.081  46.883  52.378  1.00  0.00    -0.195 NA
ATOM      6  N   UNL     1       4.863  45.042  51.550  1.00  0.00    -0.213 NA
ATOM      7  C   UNL     1       5.919  44.672  50.822  1.00  0.00     0.078 A 
ATOM      8  C   UNL     1       7.122  45.380  50.822  1.00  0.00     0.043 A 
ATOM      9  C   UNL     1       5.818  43.531  50.034  1.00  0.00     0.029 A 
ATOM     10  C   UNL     1       8.209  44.911  50.039  1.00  0.00     0.014 A 
ATOM     11  C   UNL     1       6.882  43.073  49.254  1.00  0.00     0.002 A 
ATOM     12  C   UNL     1       8.086  43.763  49.259  1.00  0.00     0.001 A 
BRANCH   4  13
ATOM     13  N   UNL     1       3.931  46.569  53.130  1.00  0.00    -0.324 N 
ATOM     14  H   UNL     1       4.101  47.530  53.384  1.00  0.00     0.170 HD
BRANCH  13  15
ATOM     15  C   UNL     1       2.790  45.964  53.668  1.00  0.00     0.041 A 
ATOM     16  C   UNL     1       0.413  44.742  54.628  1.00  0.00    -0.051 A 
ATOM     17  C   UNL     1       1.548  44.834  55.437  1.00  0.00     0.005 A 
ATOM     18  C   UNL     1       0.463  45.281  53.340  1.00  0.00     0.005 A 
ATOM     19  C   UNL     1       2.721  45.432  54.957  1.00  0.00     0.026 A 
ATOM     20  C   UNL     1       1.638  45.876  52.869  1.00  0.00     0.026 A 
ATOM     21  C   UNL     1      -0.851  44.133  55.153  1.00  0.00     0.044 C 
ENDBRANCH  13  15
ENDBRANCH   4  13
ENDBRANCH   1   3
BRANCH   1  22
ATOM     22  C   UNL     1       8.663  47.881  52.984  1.00  0.00     0.117 C 
BRANCH  22  23
ATOM     23  C   UNL     1       9.857  47.150  53.594  1.00  0.00     0.049 C 
BRANCH  23  24
ATOM     24  C   UNL     1      10.016  47.500  55.066  1.00  0.00     0.158 C 
BRANCH  24  25
ATOM     25  O   UNL     1       9.113  48.537  55.428  1.00  0.00    -0.396 OA
ATOM     26  H   UNL     1       8.920  48.446  56.377  1.00  0.00     0.210 HD
ENDBRANCH  24  25
ENDBRANCH  23  24
ENDBRANCH  22  23
ENDBRANCH   1  22
TORSDOF 7
ENDMDL
MODEL 6
REMARK VINA RESULT:    -8.147      2.221      3.975
REMARK INTER + INTRA:         -12.291
REMARK INTER:                 -11.261
REMARK INTRA:                  -1.030
REMARK UNBOUND:                -1.049
REMARK SMILES Cc1ccc(Nc2nc(NCCCO)c3ccccc3n2)cc1
REMARK SMILES IDX 10 1 9 3 7 4 8 5 21 6 20 7 15 8 19 9 16 10 18 11 17 12 6 13
REMARK SMILES IDX 5 15 2 16 3 17 23 18 4 19 22 20 1 21 11 22 12 23 13 24 14 25
REMARK H PARENT 10 2 6 14 14 26
ROOT
ATOM      1  N   UNL     1       4.929  41.740  50.866  1.00  0.00    -0.369 N 
ATOM      2  H   UNL     1       4.033  41.354  50.575  1.00  0.00     0.162 HD
ENDROOT
BRANCH   1   3
ATOM      3  C   UNL     1       4.754  43.136  51.029  1.00  0.00     0.139 A 
ATOM      4  C   UNL     1       5.657  45.254  51.170  1.00  0.00     0.229 A 
ATOM      5  N   UNL     1       5.835  43.933  51.023  1.00  0.00    -0.195 NA
ATOM      6  N   UNL     1       4.456  45.823  51.312  1.00  0.00    -0.213 NA
ATOM      7  C   UNL     1       3.380  45.033  51.339  1.00  0.00     0.078 A 
ATOM      8  C   UNL     1       3.458  43.646  51.208  1.00  0.00     0.043 A 
ATOM      9  C   UNL     1       2.130  45.618  51.507  1.00  0.00     0.029 A 
ATOM     10  C   UNL     1       2.270  42.871  51.269  1.00  0.00     0.014 A 
ATOM     11  C   UNL     1       0.958  44.858  51.556  1.00  0.00     0.002 A 
ATOM     12  C   UNL     1       1.029  43.477  51.441  1.00  0.00     0.001 A 
BRANCH   4  13
ATOM     13  N   UNL     1       6.831  46.001  51.159  1.00  0.00    -0.324 N 
ATOM     14  H   UNL     1       7.029  46.280  50.209  1.00  0.00     0.170 HD
BRANCH  13  15
ATOM     15  C   UNL     1       7.760  46.375  52.135  1.00  0.00     0.041 A 
ATOM     16  C   UNL     1       9.537  47.134  54.216  1.00  0.00    -0.051 A 
ATOM     17  C   UNL     1      10.019  46.805  52.947  1.00  0.00     0.005 A 
ATOM     18  C   UNL     1       8.158  47.101  54.438  1.00  0.00     0.005 A 
ATOM     19  C   UNL     1       9.139  46.425  51.925  1.00  0.00     0.026 A 
ATOM     20  C   UNL     1       7.287  46.721  53.412  1.00  0.00     0.026 A 
ATOM     21  C   UNL     1      10.475  47.573  55.299  1.00  0.00     0.044 C 
ENDBRANCH  13  15
ENDBRANCH   4  13
ENDBRANCH   1   3
BRANCH   1  22
ATOM     22  C   UNL     1       6.002  41.322  49.963  1.00  0.00     0.117 C 
BRANCH  22  23
ATOM     23  C   UNL     1       5.506  41.227  48.522  1.00  0.00     0.049 C 
BRANCH  23  24
ATOM     24  C   UNL     1       6.172  42.278  47.646  1.00  0.00     0.158 C 
BRANCH  24  25
ATOM     25  O   UNL     1       7.180  42.965  48.377  1.00  0.00    -0.396 OA
ATOM     26  H   UNL     1       7.901  42.336  48.551  1.00  0.00     0.210 HD
ENDBRANCH  24  25
ENDBRANCH  23  24
ENDBRANCH  22  23
ENDBRANCH   1  22
TORSDOF 7
ENDMDL
MODEL 7
REMARK VINA RESULT:    -7.864      2.054      4.366
REMARK INTER + INTRA:         -11.901
REMARK INTER:                 -11.352
REMARK INTRA:                  -0.549
REMARK UNBOUND:                -1.049
REMARK SMILES Cc1ccc(Nc2nc(NCCCO)c3ccccc3n2)cc1
REMARK SMILES IDX 10 1 9 3 7 4 8 5 21 6 20 7 15 8 19 9 16 10 18 11 17 12 6 13
REMARK SMILES IDX 5 15 2 16 3 17 23 18 4 19 22 20 1 21 11 22 12 23 13 24 14 25
REMARK H PARENT 10 2 6 14 14 26
ROOT
ATOM      1  N   UNL     1       3.116  41.940  50.930  1.00  0.00    -0.369 N 
ATOM      2  H   UNL     1       2.721  42.094  50.005  1.00  0.00     0.162 HD
ENDROOT
BRANCH   1   3
ATOM      3  C   UNL     1       3.139  43.190  51.594  1.00  0.00     0.139 A 
ATOM      4  C   UNL     1       4.145  45.234  51.956  1.00  0.00     0.229 A 
ATOM      5  N   UNL     1       4.138  44.049  51.330  1.00  0.00    -0.195 NA
ATOM      6  N   UNL     1       3.204  45.612  52.827  1.00  0.00    -0.213 NA
ATOM      7  C   UNL     1       2.221  44.755  53.107  1.00  0.00     0.078 A 
ATOM      8  C   UNL     1       2.128  43.492  52.520  1.00  0.00     0.043 A 
ATOM      9  C   UNL     1       1.249  45.135  54.027  1.00  0.00     0.029 A 
ATOM     10  C   UNL     1       1.064  42.626  52.887  1.00  0.00     0.014 A 
ATOM     11  C   UNL     1       0.195  44.289  54.382  1.00  0.00     0.002 A 
ATOM     12  C   UNL     1       0.104  43.026  53.813  1.00  0.00     0.001 A 
BRANCH   4  13
ATOM     13  N   UNL     1       5.219  46.056  51.628  1.00  0.00    -0.324 N 
ATOM     14  H   UNL     1       5.044  46.473  50.726  1.00  0.00     0.170 HD
BRANCH  13  15
ATOM     15  C   UNL     1       6.440  46.359  52.239  1.00  0.00     0.041 A 
ATOM     16  C   UNL     1       8.854  46.957  53.611  1.00  0.00    -0.051 A 
ATOM     17  C   UNL     1       8.838  46.805  52.222  1.00  0.00     0.005 A 
ATOM     18  C   UNL     1       7.653  46.827  54.312  1.00  0.00     0.005 A 
ATOM     19  C   UNL     1       7.646  46.504  51.550  1.00  0.00     0.026 A 
ATOM     20  C   UNL     1       6.467  46.527  53.634  1.00  0.00     0.026 A 
ATOM     21  C   UNL     1      10.123  47.312  54.325  1.00  0.00     0.044 C 
ENDBRANCH  13  15
ENDBRANCH   4  13
ENDBRANCH   1   3
BRANCH   1  22
ATOM     22  C   UNL     1       4.390  41.225  50.847  1.00  0.00     0.117 C 
BRANCH  22  23
ATOM     23  C   UNL     1       4.993  41.333  49.448  1.00  0.00     0.049 C 
BRANCH  23  24
ATOM     24  C   UNL     1       6.434  41.820  49.512  1.00  0.00     0.158 C 
BRANCH  24  25
ATOM     25  O   UNL     1       7.272  40.814  50.068  1.00  0.00    -0.396 OA
ATOM     26  H   UNL     1       6.700  40.151  50.491  1.00  0.00     0.210 HD
ENDBRANCH  24  25
ENDBRANCH  23  24
ENDBRANCH  22  23
ENDBRANCH   1  22
TORSDOF 7
ENDMDL
MODEL 8
REMARK VINA RESULT:    -7.829      2.157      6.885
REMARK INTER + INTRA:         -11.852
REMARK INTER:                 -11.598
REMARK INTRA:                  -0.254
REMARK UNBOUND:                -1.049
REMARK SMILES Cc1ccc(Nc2nc(NCCCO)c3ccccc3n2)cc1
REMARK SMILES IDX 10 1 9 3 7 4 8 5 21 6 20 7 15 8 19 9 16 10 18 11 17 12 6 13
REMARK SMILES IDX 5 15 2 16 3 17 23 18 4 19 22 20 1 21 11 22 12 23 13 24 14 25
REMARK H PARENT 10 2 6 14 14 26
ROOT
ATOM      1  N   UNL     1       5.993  45.009  50.503  1.00  0.00    -0.369 N 
ATOM      2  H   UNL     1       6.360  45.802  49.980  1.00  0.00     0.162 HD
ENDROOT
BRANCH   1   3
ATOM      3  C   UNL     1       6.124  45.313  51.879  1.00  0.00     0.139 A 
ATOM      4  C   UNL     1       5.309  45.189  54.033  1.00  0.00     0.229 A 
ATOM      5  N   UNL     1       5.170  44.903  52.731  1.00  0.00    -0.195 NA
ATOM      6  N   UNL     1       6.354  45.855  54.533  1.00  0.00    -0.213 NA
ATOM      7  C   UNL     1       7.295  46.282  53.689  1.00  0.00     0.078 A 
ATOM      8  C   UNL     1       7.239  46.048  52.314  1.00  0.00     0.043 A 
ATOM      9  C   UNL     1       8.375  46.993  54.200  1.00  0.00     0.029 A 
ATOM     10  C   UNL     1       8.267  46.555  51.476  1.00  0.00     0.014 A 
ATOM     11  C   UNL     1       9.394  47.483  53.380  1.00  0.00     0.002 A 
ATOM     12  C   UNL     1       9.339  47.267  52.010  1.00  0.00     0.001 A 
BRANCH   4  13
ATOM     13  N   UNL     1       4.270  44.732  54.840  1.00  0.00    -0.324 N 
ATOM     14  H   UNL     1       4.665  44.270  55.645  1.00  0.00     0.170 HD
BRANCH  13  15
ATOM     15  C   UNL     1       2.876  44.743  54.736  1.00  0.00     0.041 A 
ATOM     16  C   UNL     1       0.054  44.663  54.419  1.00  0.00    -0.051 A 
ATOM     17  C   UNL     1       0.638  45.376  55.469  1.00  0.00     0.005 A 
ATOM     18  C   UNL     1       0.889  44.004  53.514  1.00  0.00     0.005 A 
ATOM     19  C   UNL     1       2.029  45.408  55.626  1.00  0.00     0.026 A 
ATOM     20  C   UNL     1       2.278  44.040  53.677  1.00  0.00     0.026 A 
ATOM     21  C   UNL     1      -1.432  44.658  54.233  1.00  0.00     0.044 C 
ENDBRANCH  13  15
ENDBRANCH   4  13
ENDBRANCH   1   3
BRANCH   1  22
ATOM     22  C   UNL     1       6.601  43.755  50.055  1.00  0.00     0.117 C 
BRANCH  22  23
ATOM     23  C   UNL     1       5.644  42.580  50.241  1.00  0.00     0.049 C 
BRANCH  23  24
ATOM     24  C   UNL     1       6.113  41.365  49.454  1.00  0.00     0.158 C 
BRANCH  24  25
ATOM     25  O   UNL     1       7.275  40.806  50.053  1.00  0.00    -0.396 OA
ATOM     26  H   UNL     1       7.310  39.864  49.813  1.00  0.00     0.210 HD
ENDBRANCH  24  25
ENDBRANCH  23  24
ENDBRANCH  22  23
ENDBRANCH   1  22
TORSDOF 7
ENDMDL
MODEL 9
REMARK VINA RESULT:    -7.820      2.174      7.059
REMARK INTER + INTRA:         -11.840
REMARK INTER:                 -11.173
REMARK INTRA:                  -0.667
REMARK UNBOUND:                -1.049
REMARK SMILES Cc1ccc(Nc2nc(NCCCO)c3ccccc3n2)cc1
REMARK SMILES IDX 10 1 9 3 7 4 8 5 21 6 20 7 15 8 19 9 16 10 18 11 17 12 6 13
REMARK SMILES IDX 5 15 2 16 3 17 23 18 4 19 22 20 1 21 11 22 12 23 13 24 14 25
REMARK H PARENT 10 2 6 14 14 26
ROOT
ATOM      1  N   UNL     1       7.211  44.925  49.960  1.00  0.00    -0.369 N 
ATOM      2  H   UNL     1       7.916  45.620  49.721  1.00  0.00     0.162 HD
ENDROOT
BRANCH   1   3
ATOM      3  C   UNL     1       6.838  45.148  51.307  1.00  0.00     0.139 A 
ATOM      4  C   UNL     1       5.357  44.817  53.045  1.00  0.00     0.229 A 
ATOM      5  N   UNL     1       5.697  44.606  51.765  1.00  0.00    -0.195 NA
ATOM      6  N   UNL     1       6.099  45.532  53.895  1.00  0.00    -0.213 NA
ATOM      7  C   UNL     1       7.223  46.090  53.440  1.00  0.00     0.078 A 
ATOM      8  C   UNL     1       7.660  45.943  52.123  1.00  0.00     0.043 A 
ATOM      9  C   UNL     1       7.990  46.852  54.315  1.00  0.00     0.029 A 
ATOM     10  C   UNL     1       8.855  46.586  51.706  1.00  0.00     0.014 A 
ATOM     11  C   UNL     1       9.172  47.477  53.910  1.00  0.00     0.002 A 
ATOM     12  C   UNL     1       9.605  47.348  52.599  1.00  0.00     0.001 A 
BRANCH   4  13
ATOM     13  N   UNL     1       4.158  44.224  53.430  1.00  0.00    -0.324 N 
ATOM     14  H   UNL     1       4.296  43.759  54.315  1.00  0.00     0.170 HD
BRANCH  13  15
ATOM     15  C   UNL     1       2.893  44.110  52.846  1.00  0.00     0.041 A 
ATOM     16  C   UNL     1       0.316  44.024  51.654  1.00  0.00    -0.051 A 
ATOM     17  C   UNL     1       1.066  42.858  51.825  1.00  0.00     0.005 A 
ATOM     18  C   UNL     1       0.852  45.235  52.099  1.00  0.00     0.005 A 
ATOM     19  C   UNL     1       2.339  42.905  52.408  1.00  0.00     0.026 A 
ATOM     20  C   UNL     1       2.124  45.274  52.680  1.00  0.00     0.026 A 
ATOM     21  C   UNL     1      -1.059  43.968  51.062  1.00  0.00     0.044 C 
ENDBRANCH  13  15
ENDBRANCH   4  13
ENDBRANCH   1   3
BRANCH   1  22
ATOM     22  C   UNL     1       7.669  43.575  49.629  1.00  0.00     0.117 C 
BRANCH  22  23
ATOM     23  C   UNL     1       6.552  42.756  48.984  1.00  0.00     0.049 C 
BRANCH  23  24
ATOM     24  C   UNL     1       6.228  41.526  49.819  1.00  0.00     0.158 C 
BRANCH  24  25
ATOM     25  O   UNL     1       7.414  40.795  50.105  1.00  0.00    -0.396 OA
ATOM     26  H   UNL     1       7.157  39.980  50.568  1.00  0.00     0.210 HD
ENDBRANCH  24  25
ENDBRANCH  23  24
ENDBRANCH  22  23
ENDBRANCH   1  22
TORSDOF 7
ENDMDL
MODEL 10
REMARK VINA RESULT:    -7.736      2.251      6.643
REMARK INTER + INTRA:         -11.724
REMARK INTER:                 -11.080
REMARK INTRA:                  -0.644
REMARK UNBOUND:                -1.049
REMARK SMILES Cc1ccc(Nc2nc(NCCCO)c3ccccc3n2)cc1
REMARK SMILES IDX 10 1 9 3 7 4 8 5 21 6 20 7 15 8 19 9 16 10 18 11 17 12 6 13
REMARK SMILES IDX 5 15 2 16 3 17 23 18 4 19 22 20 1 21 11 22 12 23 13 24 14 25
REMARK H PARENT 10 2 6 14 14 26
ROOT
ATOM      1  N   UNL     1       6.785  47.028  52.245  1.00  0.00    -0.369 N 
ATOM      2  H   UNL     1       6.117  47.789  52.144  1.00  0.00     0.162 HD
ENDROOT
BRANCH   1   3
ATOM      3  C   UNL     1       6.081  45.818  52.032  1.00  0.00     0.139 A 
ATOM      4  C   UNL     1       4.351  44.396  52.586  1.00  0.00     0.229 A 
ATOM      5  N   UNL     1       5.016  45.540  52.801  1.00  0.00    -0.195 NA
ATOM      6  N   UNL     1       4.688  43.518  51.636  1.00  0.00    -0.213 NA
ATOM      7  C   UNL     1       5.757  43.779  50.882  1.00  0.00     0.078 A 
ATOM      8  C   UNL     1       6.525  44.935  51.034  1.00  0.00     0.043 A 
ATOM      9  C   UNL     1       6.124  42.860  49.906  1.00  0.00     0.029 A 
ATOM     10  C   UNL     1       7.663  45.132  50.209  1.00  0.00     0.014 A 
ATOM     11  C   UNL     1       7.238  43.057  49.085  1.00  0.00     0.002 A 
ATOM     12  C   UNL     1       8.014  44.196  49.240  1.00  0.00     0.001 A 
BRANCH   4  13
ATOM     13  N   UNL     1       3.267  44.188  53.433  1.00  0.00    -0.324 N 
ATOM     14  H   UNL     1       3.609  44.078  54.376  1.00  0.00     0.170 HD
BRANCH  13  15
ATOM     15  C   UNL     1       1.888  44.060  53.240  1.00  0.00     0.041 A 
ATOM     16  C   UNL     1      -0.905  43.664  52.905  1.00  0.00    -0.051 A 
ATOM     17  C   UNL     1      -0.327  44.917  52.686  1.00  0.00     0.005 A 
ATOM     18  C   UNL     1      -0.077  42.601  53.275  1.00  0.00     0.005 A 
ATOM     19  C   UNL     1       1.049  45.110  52.859  1.00  0.00     0.026 A 
ATOM     20  C   UNL     1       1.297  42.802  53.445  1.00  0.00     0.026 A 
ATOM     21  C   UNL     1      -2.372  43.451  52.688  1.00  0.00     0.044 C 
ENDBRANCH  13  15
ENDBRANCH   4  13
ENDBRANCH   1   3
BRANCH   1  22
ATOM     22  C   UNL     1       7.523  47.137  53.503  1.00  0.00     0.117 C 
BRANCH  22  23
ATOM     23  C   UNL     1       9.031  47.156  53.259  1.00  0.00     0.049 C 
BRANCH  23  24
ATOM     24  C   UNL     1       9.786  47.482  54.540  1.00  0.00     0.158 C 
BRANCH  24  25
ATOM     25  O   UNL     1       9.046  48.405  55.329  1.00  0.00    -0.396 OA
ATOM     26  H   UNL     1       8.430  48.874  54.740  1.00  0.00     0.210 HD
ENDBRANCH  24  25
ENDBRANCH  23  24
ENDBRANCH  22  23
ENDBRANCH   1  22
TORSDOF 7
ENDMDL
MODEL 11
REMARK VINA RESULT:    -7.664      2.375      6.367
REMARK INTER + INTRA:         -11.624
REMARK INTER:                 -10.806
REMARK INTRA:                  -0.819
REMARK UNBOUND:                -1.049
REMARK SMILES Cc1ccc(Nc2nc(NCCCO)c3ccccc3n2)cc1
REMARK SMILES IDX 10 1 9 3 7 4 8 5 21 6 20 7 15 8 19 9 16 10 18 11 17 12 6 13
REMARK SMILES IDX 5 15 2 16 3 17 23 18 4 19 22 20 1 21 11 22 12 23 13 24 14 25
REMARK H PARENT 10 2 6 14 14 26
ROOT
ATOM      1  N   UNL     1       5.074  46.509  52.538  1.00  0.00    -0.369 N 
ATOM      2  H   UNL     1       4.426  47.088  52.007  1.00  0.00     0.162 HD
ENDROOT
BRANCH   1   3
ATOM      3  C   UNL     1       4.898  45.173  52.104  1.00  0.00     0.139 A 
ATOM      4  C   UNL     1       3.715  43.194  52.179  1.00  0.00     0.229 A 
ATOM      5  N   UNL     1       3.878  44.455  52.603  1.00  0.00    -0.195 NA
ATOM      6  N   UNL     1       4.510  42.613  51.275  1.00  0.00    -0.213 NA
ATOM      7  C   UNL     1       5.537  43.315  50.791  1.00  0.00     0.078 A 
ATOM      8  C   UNL     1       5.802  44.630  51.177  1.00  0.00     0.043 A 
ATOM      9  C   UNL     1       6.380  42.709  49.866  1.00  0.00     0.029 A 
ATOM     10  C   UNL     1       6.928  45.304  50.635  1.00  0.00     0.014 A 
ATOM     11  C   UNL     1       7.482  43.374  49.322  1.00  0.00     0.002 A 
ATOM     12  C   UNL     1       7.760  44.677  49.712  1.00  0.00     0.001 A 
BRANCH   4  13
ATOM     13  N   UNL     1       2.638  42.524  52.754  1.00  0.00    -0.324 N 
ATOM     14  H   UNL     1       2.909  41.568  52.930  1.00  0.00     0.170 HD
BRANCH  13  15
ATOM     15  C   UNL     1       1.322  42.879  53.068  1.00  0.00     0.041 A 
ATOM     16  C   UNL     1      -1.297  43.689  53.810  1.00  0.00    -0.051 A 
ATOM     17  C   UNL     1      -1.086  42.890  52.684  1.00  0.00     0.005 A 
ATOM     18  C   UNL     1      -0.193  44.069  54.577  1.00  0.00     0.005 A 
ATOM     19  C   UNL     1       0.208  42.498  52.318  1.00  0.00     0.026 A 
ATOM     20  C   UNL     1       1.096  43.673  54.205  1.00  0.00     0.026 A 
ATOM     21  C   UNL     1      -2.684  44.081  54.219  1.00  0.00     0.044 C 
ENDBRANCH  13  15
ENDBRANCH   4  13
ENDBRANCH   1   3
BRANCH   1  22
ATOM     22  C   UNL     1       4.939  46.748  53.975  1.00  0.00     0.117 C 
BRANCH  22  23
ATOM     23  C   UNL     1       6.122  46.165  54.745  1.00  0.00     0.049 C 
BRANCH  23  24
ATOM     24  C   UNL     1       5.712  44.911  55.506  1.00  0.00     0.158 C 
BRANCH  24  25
ATOM     25  O   UNL     1       4.297  44.847  55.628  1.00  0.00    -0.396 OA
ATOM     26  H   UNL     1       3.926  44.736  54.736  1.00  0.00     0.210 HD
ENDBRANCH  24  25
ENDBRANCH  23  24
ENDBRANCH  22  23
ENDBRANCH   1  22
TORSDOF 7
ENDMDL
MODEL 12
REMARK VINA RESULT:    -7.659      2.461      6.451
REMARK INTER + INTRA:         -11.618
REMARK INTER:                 -10.625
REMARK INTRA:                  -0.993
REMARK UNBOUND:                -1.049
REMARK SMILES Cc1ccc(Nc2nc(NCCCO)c3ccccc3n2)cc1
REMARK SMILES IDX 10 1 9 3 7 4 8 5 21 6 20 7 15 8 19 9 16 10 18 11 17 12 6 13
REMARK SMILES IDX 5 15 2 16 3 17 23 18 4 19 22 20 1 21 11 22 12 23 13 24 14 25
REMARK H PARENT 10 2 6 14 14 26
ROOT
ATOM      1  N   UNL     1       5.159  46.404  52.340  1.00  0.00    -0.369 N 
ATOM      2  H   UNL     1       4.726  47.041  51.674  1.00  0.00     0.162 HD
ENDROOT
BRANCH   1   3
ATOM      3  C   UNL     1       5.030  45.095  51.818  1.00  0.00     0.139 A 
ATOM      4  C   UNL     1       3.861  43.111  51.681  1.00  0.00     0.229 A 
ATOM      5  N   UNL     1       3.978  44.346  52.188  1.00  0.00    -0.195 NA
ATOM      6  N   UNL     1       4.733  42.585  50.815  1.00  0.00    -0.213 NA
ATOM      7  C   UNL     1       5.791  43.317  50.459  1.00  0.00     0.078 A 
ATOM      8  C   UNL     1       6.012  44.609  50.940  1.00  0.00     0.043 A 
ATOM      9  C   UNL     1       6.713  42.769  49.574  1.00  0.00     0.029 A 
ATOM     10  C   UNL     1       7.174  45.317  50.532  1.00  0.00     0.014 A 
ATOM     11  C   UNL     1       7.850  43.467  49.163  1.00  0.00     0.002 A 
ATOM     12  C   UNL     1       8.085  44.746  49.648  1.00  0.00     0.001 A 
BRANCH   4  13
ATOM     13  N   UNL     1       2.746  42.406  52.125  1.00  0.00    -0.324 N 
ATOM     14  H   UNL     1       2.998  41.435  52.232  1.00  0.00     0.170 HD
BRANCH  13  15
ATOM     15  C   UNL     1       1.416  42.748  52.388  1.00  0.00     0.041 A 
ATOM     16  C   UNL     1      -1.310  43.444  52.779  1.00  0.00    -0.051 A 
ATOM     17  C   UNL     1      -0.499  43.089  53.859  1.00  0.00     0.005 A 
ATOM     18  C   UNL     1      -0.747  43.469  51.500  1.00  0.00     0.005 A 
ATOM     19  C   UNL     1       0.843  42.739  53.662  1.00  0.00     0.026 A 
ATOM     20  C   UNL     1       0.594  43.119  51.312  1.00  0.00     0.026 A 
ATOM     21  C   UNL     1      -2.736  43.850  52.995  1.00  0.00     0.044 C 
ENDBRANCH  13  15
ENDBRANCH   4  13
ENDBRANCH   1   3
BRANCH   1  22
ATOM     22  C   UNL     1       4.638  46.619  53.691  1.00  0.00     0.117 C 
BRANCH  22  23
ATOM     23  C   UNL     1       5.716  46.370  54.744  1.00  0.00     0.049 C 
BRANCH  23  24
ATOM     24  C   UNL     1       5.535  45.008  55.397  1.00  0.00     0.158 C 
BRANCH  24  25
ATOM     25  O   UNL     1       4.159  44.649  55.420  1.00  0.00    -0.396 OA
ATOM     26  H   UNL     1       4.036  43.986  56.120  1.00  0.00     0.210 HD
ENDBRANCH  24  25
ENDBRANCH  23  24
ENDBRANCH  22  23
ENDBRANCH   1  22
TORSDOF 7
ENDMDL
MODEL 13
REMARK VINA RESULT:    -7.569      2.185      6.337
REMARK INTER + INTRA:         -11.493
REMARK INTER:                 -10.776
REMARK INTRA:                  -0.718
REMARK UNBOUND:                -1.049
REMARK SMILES Cc1ccc(Nc2nc(NCCCO)c3ccccc3n2)cc1
REMARK SMILES IDX 10 1 9 3 7 4 8 5 21 6 20 7 15 8 19 9 16 10 18 11 17 12 6 13
REMARK SMILES IDX 5 15 2 16 3 17 23 18 4 19 22 20 1 21 11 22 12 23 13 24 14 25
REMARK H PARENT 10 2 6 14 14 26
ROOT
ATOM      1  N   UNL     1       7.394  46.948  51.955  1.00  0.00    -0.369 N 
ATOM      2  H   UNL     1       6.976  47.638  51.335  1.00  0.00     0.162 HD
ENDROOT
BRANCH   1   3
ATOM      3  C   UNL     1       6.514  45.840  52.008  1.00  0.00     0.139 A 
ATOM      4  C   UNL     1       4.784  44.718  53.042  1.00  0.00     0.229 A 
ATOM      5  N   UNL     1       5.618  45.767  53.006  1.00  0.00    -0.195 NA
ATOM      6  N   UNL     1       4.789  43.742  52.129  1.00  0.00    -0.213 NA
ATOM      7  C   UNL     1       5.690  43.800  51.146  1.00  0.00     0.078 A 
ATOM      8  C   UNL     1       6.612  44.841  51.026  1.00  0.00     0.043 A 
ATOM      9  C   UNL     1       5.714  42.777  50.204  1.00  0.00     0.029 A 
ATOM     10  C   UNL     1       7.556  44.820  49.966  1.00  0.00     0.014 A 
ATOM     11  C   UNL     1       6.635  42.760  49.153  1.00  0.00     0.002 A 
ATOM     12  C   UNL     1       7.564  43.784  49.035  1.00  0.00     0.001 A 
BRANCH   4  13
ATOM     13  N   UNL     1       3.895  44.722  54.113  1.00  0.00    -0.324 N 
ATOM     14  H   UNL     1       4.421  44.818  54.970  1.00  0.00     0.170 HD
BRANCH  13  15
ATOM     15  C   UNL     1       2.510  44.577  54.234  1.00  0.00     0.041 A 
ATOM     16  C   UNL     1      -0.304  44.391  54.575  1.00  0.00    -0.051 A 
ATOM     17  C   UNL     1       0.346  43.662  53.576  1.00  0.00     0.005 A 
ATOM     18  C   UNL     1       0.461  45.201  55.418  1.00  0.00     0.005 A 
ATOM     19  C   UNL     1       1.733  43.762  53.407  1.00  0.00     0.026 A 
ATOM     20  C   UNL     1       1.846  45.294  55.242  1.00  0.00     0.026 A 
ATOM     21  C   UNL     1      -1.782  44.258  54.777  1.00  0.00     0.044 C 
ENDBRANCH  13  15
ENDBRANCH   4  13
ENDBRANCH   1   3
BRANCH   1  22
ATOM     22  C   UNL     1       7.762  47.546  53.239  1.00  0.00     0.117 C 
BRANCH  22  23
ATOM     23  C   UNL     1       9.277  47.547  53.433  1.00  0.00     0.049 C 
BRANCH  23  24
ATOM     24  C   UNL     1       9.892  46.251  52.925  1.00  0.00     0.158 C 
BRANCH  24  25
ATOM     25  O   UNL     1      10.302  46.395  51.571  1.00  0.00    -0.396 OA
ATOM     26  H   UNL     1      11.208  46.748  51.571  1.00  0.00     0.210 HD
ENDBRANCH  24  25
ENDBRANCH  23  24
ENDBRANCH  22  23
ENDBRANCH   1  22
TORSDOF 7
ENDMDL
MODEL 14
REMARK VINA RESULT:    -7.517      2.867      3.945
REMARK INTER + INTRA:         -11.422
REMARK INTER:                 -10.815
REMARK INTRA:                  -0.607
REMARK UNBOUND:                -1.049
REMARK SMILES Cc1ccc(Nc2nc(NCCCO)c3ccccc3n2)cc1
REMARK SMILES IDX 10 1 9 3 7 4 8 5 21 6 20 7 15 8 19 9 16 10 18 11 17 12 6 13
REMARK SMILES IDX 5 15 2 16 3 17 23 18 4 19 22 20 1 21 11 22 12 23 13 24 14 25
REMARK H PARENT 10 2 6 14 14 26
ROOT
ATOM      1  N   UNL     1       2.436  44.793  55.608  1.00  0.00    -0.369 N 
ATOM      2  H   UNL     1       3.332  44.437  55.938  1.00  0.00     0.162 HD
ENDROOT
BRANCH   1   3
ATOM      3  C   UNL     1       2.511  44.879  54.197  1.00  0.00     0.139 A 
ATOM      4  C   UNL     1       3.526  45.720  52.304  1.00  0.00     0.229 A 
ATOM      5  N   UNL     1       3.459  45.653  53.641  1.00  0.00    -0.195 NA
ATOM      6  N   UNL     1       2.704  45.050  51.490  1.00  0.00    -0.213 NA
ATOM      7  C   UNL     1       1.749  44.296  52.038  1.00  0.00     0.078 A 
ATOM      8  C   UNL     1       1.585  44.168  53.418  1.00  0.00     0.043 A 
ATOM      9  C   UNL     1       0.878  43.612  51.197  1.00  0.00     0.029 A 
ATOM     10  C   UNL     1       0.529  43.365  53.925  1.00  0.00     0.014 A 
ATOM     11  C   UNL     1      -0.155  42.812  51.693  1.00  0.00     0.002 A 
ATOM     12  C   UNL     1      -0.334  42.691  53.064  1.00  0.00     0.001 A 
BRANCH   4  13
ATOM     13  N   UNL     1       4.532  46.550  51.817  1.00  0.00    -0.324 N 
ATOM     14  H   UNL     1       4.106  47.328  51.337  1.00  0.00     0.170 HD
BRANCH  13  15
ATOM     15  C   UNL     1       5.930  46.494  51.817  1.00  0.00     0.041 A 
ATOM     16  C   UNL     1       8.767  46.455  51.944  1.00  0.00    -0.051 A 
ATOM     17  C   UNL     1       8.083  45.717  50.976  1.00  0.00     0.005 A 
ATOM     18  C   UNL     1       8.027  47.230  52.841  1.00  0.00     0.005 A 
ATOM     19  C   UNL     1       6.683  45.734  50.920  1.00  0.00     0.026 A 
ATOM     20  C   UNL     1       6.629  47.241  52.779  1.00  0.00     0.026 A 
ATOM     21  C   UNL     1      10.265  46.463  51.982  1.00  0.00     0.044 C 
ENDBRANCH  13  15
ENDBRANCH   4  13
ENDBRANCH   1   3
BRANCH   1  22
ATOM     22  C   UNL     1       2.062  46.018  56.315  1.00  0.00     0.117 C 
BRANCH  22  23
ATOM     23  C   UNL     1       0.956  45.752  57.333  1.00  0.00     0.049 C 
BRANCH  23  24
ATOM     24  C   UNL     1       0.947  46.818  58.419  1.00  0.00     0.158 C 
BRANCH  24  25
ATOM     25  O   UNL     1       2.089  46.682  59.255  1.00  0.00    -0.396 OA
ATOM     26  H   UNL     1       2.793  47.247  58.892  1.00  0.00     0.210 HD
ENDBRANCH  24  25
ENDBRANCH  23  24
ENDBRANCH  22  23
ENDBRANCH   1  22
TORSDOF 7
ENDMDL
MODEL 15
REMARK VINA RESULT:    -7.508      2.700      4.601
REMARK INTER + INTRA:         -11.409
REMARK INTER:                 -10.799
REMARK INTRA:                  -0.610
REMARK UNBOUND:                -1.049
REMARK SMILES Cc1ccc(Nc2nc(NCCCO)c3ccccc3n2)cc1
REMARK SMILES IDX 10 1 9 3 7 4 8 5 21 6 20 7 15 8 19 9 16 10 18 11 17 12 6 13
REMARK SMILES IDX 5 15 2 16 3 17 23 18 4 19 22 20 1 21 11 22 12 23 13 24 14 25
REMARK H PARENT 10 2 6 14 14 26
ROOT
ATOM      1  N   UNL     1       6.473  42.088  49.099  1.00  0.00    -0.369 N 
ATOM      2  H   UNL     1       5.974  41.237  49.350  1.00  0.00     0.162 HD
ENDROOT
BRANCH   1   3
ATOM      3  C   UNL     1       6.066  43.097  50.005  1.00  0.00     0.139 A 
ATOM      4  C   UNL     1       6.496  45.079  51.104  1.00  0.00     0.229 A 
ATOM      5  N   UNL     1       6.895  44.125  50.252  1.00  0.00    -0.195 NA
ATOM      6  N   UNL     1       5.309  45.069  51.717  1.00  0.00    -0.213 NA
ATOM      7  C   UNL     1       4.489  44.040  51.491  1.00  0.00     0.078 A 
ATOM      8  C   UNL     1       4.814  42.989  50.632  1.00  0.00     0.043 A 
ATOM      9  C   UNL     1       3.260  44.014  52.141  1.00  0.00     0.029 A 
ATOM     10  C   UNL     1       3.898  41.918  50.461  1.00  0.00     0.014 A 
ATOM     11  C   UNL     1       2.352  42.966  51.965  1.00  0.00     0.002 A 
ATOM     12  C   UNL     1       2.674  41.910  51.125  1.00  0.00     0.001 A 
BRANCH   4  13
ATOM     13  N   UNL     1       7.421  46.100  51.304  1.00  0.00    -0.324 N 
ATOM     14  H   UNL     1       7.551  46.595  50.434  1.00  0.00     0.170 HD
BRANCH  13  15
ATOM     15  C   UNL     1       8.195  46.517  52.392  1.00  0.00     0.041 A 
ATOM     16  C   UNL     1       9.886  47.336  54.521  1.00  0.00    -0.051 A 
ATOM     17  C   UNL     1       8.503  47.517  54.595  1.00  0.00     0.005 A 
ATOM     18  C   UNL     1      10.422  46.726  53.385  1.00  0.00     0.005 A 
ATOM     19  C   UNL     1       7.673  47.117  53.540  1.00  0.00     0.026 A 
ATOM     20  C   UNL     1       9.586  46.329  52.336  1.00  0.00     0.026 A 
ATOM     21  C   UNL     1      10.770  47.734  55.664  1.00  0.00     0.044 C 
ENDBRANCH  13  15
ENDBRANCH   4  13
ENDBRANCH   1   3
BRANCH   1  22
ATOM     22  C   UNL     1       6.317  42.392  47.676  1.00  0.00     0.117 C 
BRANCH  22  23
ATOM     23  C   UNL     1       5.290  41.470  47.024  1.00  0.00     0.049 C 
BRANCH  23  24
ATOM     24  C   UNL     1       5.220  41.708  45.523  1.00  0.00     0.158 C 
BRANCH  24  25
ATOM     25  O   UNL     1       5.302  40.473  44.822  1.00  0.00    -0.396 OA
ATOM     26  H   UNL     1       4.506  39.957  45.034  1.00  0.00     0.210 HD
ENDBRANCH  24  25
ENDBRANCH  23  24
ENDBRANCH  22  23
ENDBRANCH   1  22
TORSDOF 7
ENDMDL
MODEL 16
REMARK VINA RESULT:    -7.505      2.302      6.541
REMARK INTER + INTRA:         -11.405
REMARK INTER:                 -10.535
REMARK INTRA:                  -0.871
REMARK UNBOUND:                -1.049
REMARK SMILES Cc1ccc(Nc2nc(NCCCO)c3ccccc3n2)cc1
REMARK SMILES IDX 10 1 9 3 7 4 8 5 21 6 20 7 15 8 19 9 16 10 18 11 17 12 6 13
REMARK SMILES IDX 5 15 2 16 3 17 23 18 4 19 22 20 1 21 11 22 12 23 13 24 14 25
REMARK H PARENT 10 2 6 14 14 26
ROOT
ATOM      1  N   UNL     1       5.191  46.571  52.517  1.00  0.00    -0.369 N 
ATOM      2  H   UNL     1       4.400  47.113  52.175  1.00  0.00     0.162 HD
ENDROOT
BRANCH   1   3
ATOM      3  C   UNL     1       5.008  45.237  52.080  1.00  0.00     0.139 A 
ATOM      4  C   UNL     1       3.820  43.261  52.155  1.00  0.00     0.229 A 
ATOM      5  N   UNL     1       3.989  44.520  52.582  1.00  0.00    -0.195 NA
ATOM      6  N   UNL     1       4.608  42.680  51.246  1.00  0.00    -0.213 NA
ATOM      7  C   UNL     1       5.634  43.381  50.758  1.00  0.00     0.078 A 
ATOM      8  C   UNL     1       5.905  44.694  51.146  1.00  0.00     0.043 A 
ATOM      9  C   UNL     1       6.470  42.775  49.826  1.00  0.00     0.029 A 
ATOM     10  C   UNL     1       7.030  45.366  50.600  1.00  0.00     0.014 A 
ATOM     11  C   UNL     1       7.571  43.439  49.278  1.00  0.00     0.002 A 
ATOM     12  C   UNL     1       7.856  44.739  49.670  1.00  0.00     0.001 A 
BRANCH   4  13
ATOM     13  N   UNL     1       2.745  42.593  52.734  1.00  0.00    -0.324 N 
ATOM     14  H   UNL     1       2.995  41.623  52.858  1.00  0.00     0.170 HD
BRANCH  13  15
ATOM     15  C   UNL     1       1.450  42.966  53.108  1.00  0.00     0.041 A 
ATOM     16  C   UNL     1      -1.232  43.633  53.766  1.00  0.00    -0.051 A 
ATOM     17  C   UNL     1      -0.167  44.094  54.544  1.00  0.00     0.005 A 
ATOM     18  C   UNL     1      -0.950  42.850  52.644  1.00  0.00     0.005 A 
ATOM     19  C   UNL     1       1.153  43.758  54.220  1.00  0.00     0.026 A 
ATOM     20  C   UNL     1       0.372  42.519  52.327  1.00  0.00     0.026 A 
ATOM     21  C   UNL     1      -2.641  44.020  54.094  1.00  0.00     0.044 C 
ENDBRANCH  13  15
ENDBRANCH   4  13
ENDBRANCH   1   3
BRANCH   1  22
ATOM     22  C   UNL     1       5.380  46.763  53.955  1.00  0.00     0.117 C 
BRANCH  22  23
ATOM     23  C   UNL     1       6.679  46.116  54.432  1.00  0.00     0.049 C 
BRANCH  23  24
ATOM     24  C   UNL     1       7.860  47.055  54.233  1.00  0.00     0.158 C 
BRANCH  24  25
ATOM     25  O   UNL     1       7.617  47.931  53.140  1.00  0.00    -0.396 OA
ATOM     26  H   UNL     1       7.087  47.448  52.483  1.00  0.00     0.210 HD
ENDBRANCH  24  25
ENDBRANCH  23  24
ENDBRANCH  22  23
ENDBRANCH   1  22
TORSDOF 7
ENDMDL
MODEL 17
REMARK VINA RESULT:    -7.469      2.261      6.009
REMARK INTER + INTRA:         -11.356
REMARK INTER:                 -10.997
REMARK INTRA:                  -0.359
REMARK UNBOUND:                -1.049
REMARK SMILES Cc1ccc(Nc2nc(NCCCO)c3ccccc3n2)cc1
REMARK SMILES IDX 10 1 9 3 7 4 8 5 21 6 20 7 15 8 19 9 16 10 18 11 17 12 6 13
REMARK SMILES IDX 5 15 2 16 3 17 23 18 4 19 22 20 1 21 11 22 12 23 13 24 14 25
REMARK H PARENT 10 2 6 14 14 26
ROOT
ATOM      1  N   UNL     1       4.096  45.565  55.709  1.00  0.00    -0.369 N 
ATOM      2  H   UNL     1       3.975  45.143  56.628  1.00  0.00     0.162 HD
ENDROOT
BRANCH   1   3
ATOM      3  C   UNL     1       3.211  44.906  54.822  1.00  0.00     0.139 A 
ATOM      4  C   UNL     1       2.853  43.763  52.851  1.00  0.00     0.229 A 
ATOM      5  N   UNL     1       3.697  44.394  53.679  1.00  0.00    -0.195 NA
ATOM      6  N   UNL     1       1.550  43.608  53.106  1.00  0.00    -0.213 NA
ATOM      7  C   UNL     1       1.058  44.132  54.230  1.00  0.00     0.078 A 
ATOM      8  C   UNL     1       1.850  44.818  55.153  1.00  0.00     0.043 A 
ATOM      9  C   UNL     1      -0.300  43.991  54.492  1.00  0.00     0.029 A 
ATOM     10  C   UNL     1       1.249  45.369  56.316  1.00  0.00     0.014 A 
ATOM     11  C   UNL     1      -0.891  44.522  55.642  1.00  0.00     0.002 A 
ATOM     12  C   UNL     1      -0.114  45.218  56.557  1.00  0.00     0.001 A 
BRANCH   4  13
ATOM     13  N   UNL     1       3.441  43.271  51.689  1.00  0.00    -0.324 N 
ATOM     14  H   UNL     1       2.823  42.588  51.278  1.00  0.00     0.170 HD
BRANCH  13  15
ATOM     15  C   UNL     1       4.664  43.487  51.047  1.00  0.00     0.041 A 
ATOM     16  C   UNL     1       7.140  43.791  49.688  1.00  0.00    -0.051 A 
ATOM     17  C   UNL     1       6.537  44.875  50.330  1.00  0.00     0.005 A 
ATOM     18  C   UNL     1       6.509  42.546  49.743  1.00  0.00     0.005 A 
ATOM     19  C   UNL     1       5.313  44.723  50.993  1.00  0.00     0.026 A 
ATOM     20  C   UNL     1       5.287  42.402  50.409  1.00  0.00     0.026 A 
ATOM     21  C   UNL     1       8.465  43.947  49.007  1.00  0.00     0.044 C 
ENDBRANCH  13  15
ENDBRANCH   4  13
ENDBRANCH   1   3
BRANCH   1  22
ATOM     22  C   UNL     1       5.506  45.590  55.321  1.00  0.00     0.117 C 
BRANCH  22  23
ATOM     23  C   UNL     1       5.841  46.857  54.537  1.00  0.00     0.049 C 
BRANCH  23  24
ATOM     24  C   UNL     1       7.283  46.831  54.050  1.00  0.00     0.158 C 
BRANCH  24  25
ATOM     25  O   UNL     1       8.107  47.613  54.906  1.00  0.00    -0.396 OA
ATOM     26  H   UNL     1       8.336  48.431  54.432  1.00  0.00     0.210 HD
ENDBRANCH  24  25
ENDBRANCH  23  24
ENDBRANCH  22  23
ENDBRANCH   1  22
TORSDOF 7
ENDMDL
MODEL 18
REMARK VINA RESULT:    -7.445      2.250      6.914
REMARK INTER + INTRA:         -11.322
REMARK INTER:                 -10.358
REMARK INTRA:                  -0.964
REMARK UNBOUND:                -1.049
REMARK SMILES Cc1ccc(Nc2nc(NCCCO)c3ccccc3n2)cc1
REMARK SMILES IDX 10 1 9 3 7 4 8 5 21 6 20 7 15 8 19 9 16 10 18 11 17 12 6 13
REMARK SMILES IDX 5 15 2 16 3 17 23 18 4 19 22 20 1 21 11 22 12 23 13 24 14 25
REMARK H PARENT 10 2 6 14 14 26
ROOT
ATOM      1  N   UNL     1       6.225  43.096  49.759  1.00  0.00    -0.369 N 
ATOM      2  H   UNL     1       7.200  43.370  49.653  1.00  0.00     0.162 HD
ENDROOT
BRANCH   1   3
ATOM      3  C   UNL     1       5.720  43.762  50.901  1.00  0.00     0.139 A 
ATOM      4  C   UNL     1       4.195  43.879  52.628  1.00  0.00     0.229 A 
ATOM      5  N   UNL     1       4.660  43.244  51.542  1.00  0.00    -0.195 NA
ATOM      6  N   UNL     1       4.739  44.998  53.115  1.00  0.00    -0.213 NA
ATOM      7  C   UNL     1       5.781  45.528  52.470  1.00  0.00     0.078 A 
ATOM      8  C   UNL     1       6.332  44.954  51.324  1.00  0.00     0.043 A 
ATOM      9  C   UNL     1       6.339  46.704  52.960  1.00  0.00     0.029 A 
ATOM     10  C   UNL     1       7.426  45.589  50.680  1.00  0.00     0.014 A 
ATOM     11  C   UNL     1       7.423  47.325  52.335  1.00  0.00     0.002 A 
ATOM     12  C   UNL     1       7.967  46.768  51.186  1.00  0.00     0.001 A 
BRANCH   4  13
ATOM     13  N   UNL     1       3.091  43.275  53.223  1.00  0.00    -0.324 N 
ATOM     14  H   UNL     1       3.329  42.323  53.456  1.00  0.00     0.170 HD
BRANCH  13  15
ATOM     15  C   UNL     1       1.783  43.687  53.498  1.00  0.00     0.041 A 
ATOM     16  C   UNL     1      -0.821  44.598  54.171  1.00  0.00    -0.051 A 
ATOM     17  C   UNL     1      -0.589  43.909  52.979  1.00  0.00     0.005 A 
ATOM     18  C   UNL     1       0.252  44.815  55.038  1.00  0.00     0.005 A 
ATOM     19  C   UNL     1       0.698  43.467  52.647  1.00  0.00     0.026 A 
ATOM     20  C   UNL     1       1.535  44.370  54.700  1.00  0.00     0.026 A 
ATOM     21  C   UNL     1      -2.204  45.041  54.541  1.00  0.00     0.044 C 
ENDBRANCH  13  15
ENDBRANCH   4  13
ENDBRANCH   1   3
BRANCH   1  22
ATOM     22  C   UNL     1       6.081  41.640  49.740  1.00  0.00     0.117 C 
BRANCH  22  23
ATOM     23  C   UNL     1       5.169  41.189  48.602  1.00  0.00     0.049 C 
BRANCH  23  24
ATOM     24  C   UNL     1       3.856  40.641  49.140  1.00  0.00     0.158 C 
BRANCH  24  25
ATOM     25  O   UNL     1       3.815  40.758  50.557  1.00  0.00    -0.396 OA
ATOM     26  H   UNL     1       4.459  41.437  50.818  1.00  0.00     0.210 HD
ENDBRANCH  24  25
ENDBRANCH  23  24
ENDBRANCH  22  23
ENDBRANCH   1  22
TORSDOF 7
ENDMDL
MODEL 19
REMARK VINA RESULT:    -7.422      1.216      6.330
REMARK INTER + INTRA:         -11.290
REMARK INTER:                 -10.659
REMARK INTRA:                  -0.631
REMARK UNBOUND:                -1.049
REMARK SMILES Cc1ccc(Nc2nc(NCCCO)c3ccccc3n2)cc1
REMARK SMILES IDX 10 1 9 3 7 4 8 5 21 6 20 7 15 8 19 9 16 10 18 11 17 12 6 13
REMARK SMILES IDX 5 15 2 16 3 17 23 18 4 19 22 20 1 21 11 22 12 23 13 24 14 25
REMARK H PARENT 10 2 6 14 14 26
ROOT
ATOM      1  N   UNL     1       5.196  47.277  53.721  1.00  0.00    -0.369 N 
ATOM      2  H   UNL     1       5.377  48.275  53.808  1.00  0.00     0.162 HD
ENDROOT
BRANCH   1   3
ATOM      3  C   UNL     1       6.287  46.710  53.020  1.00  0.00     0.139 A 
ATOM      4  C   UNL     1       7.084  45.424  51.278  1.00  0.00     0.229 A 
ATOM      5  N   UNL     1       6.043  45.949  51.940  1.00  0.00    -0.195 NA
ATOM      6  N   UNL     1       8.357  45.626  51.630  1.00  0.00    -0.213 NA
ATOM      7  C   UNL     1       8.605  46.365  52.714  1.00  0.00     0.078 A 
ATOM      8  C   UNL     1       7.593  46.945  53.480  1.00  0.00     0.043 A 
ATOM      9  C   UNL     1       9.927  46.562  53.097  1.00  0.00     0.029 A 
ATOM     10  C   UNL     1       7.935  47.699  54.634  1.00  0.00     0.014 A 
ATOM     11  C   UNL     1      10.266  47.313  54.225  1.00  0.00     0.002 A 
ATOM     12  C   UNL     1       9.266  47.881  55.000  1.00  0.00     0.001 A 
BRANCH   4  13
ATOM     13  N   UNL     1       6.737  44.645  50.178  1.00  0.00    -0.324 N 
ATOM     14  H   UNL     1       7.151  45.049  49.351  1.00  0.00     0.170 HD
BRANCH  13  15
ATOM     15  C   UNL     1       5.936  43.513  49.996  1.00  0.00     0.041 A 
ATOM     16  C   UNL     1       4.403  41.169  49.525  1.00  0.00    -0.051 A 
ATOM     17  C   UNL     1       4.100  42.021  50.589  1.00  0.00     0.005 A 
ATOM     18  C   UNL     1       5.467  41.502  48.683  1.00  0.00     0.005 A 
ATOM     19  C   UNL     1       4.862  43.173  50.822  1.00  0.00     0.026 A 
ATOM     20  C   UNL     1       6.223  42.655  48.923  1.00  0.00     0.026 A 
ATOM     21  C   UNL     1       3.567  39.955  49.257  1.00  0.00     0.044 C 
ENDBRANCH  13  15
ENDBRANCH   4  13
ENDBRANCH   1   3
BRANCH   1  22
ATOM     22  C   UNL     1       3.866  47.028  53.164  1.00  0.00     0.117 C 
BRANCH  22  23
ATOM     23  C   UNL     1       3.252  45.757  53.747  1.00  0.00     0.049 C 
BRANCH  23  24
ATOM     24  C   UNL     1       3.378  45.738  55.264  1.00  0.00     0.158 C 
BRANCH  24  25
ATOM     25  O   UNL     1       4.484  44.936  55.658  1.00  0.00    -0.396 OA
ATOM     26  H   UNL     1       4.200  44.006  55.639  1.00  0.00     0.210 HD
ENDBRANCH  24  25
ENDBRANCH  23  24
ENDBRANCH  22  23
ENDBRANCH   1  22
TORSDOF 7
ENDMDL
MODEL 20
REMARK VINA RESULT:    -7.404      2.558      5.831
REMARK INTER + INTRA:         -11.266
REMARK INTER:                 -10.443
REMARK INTRA:                  -0.824
REMARK UNBOUND:                -1.049
REMARK SMILES Cc1ccc(Nc2nc(NCCCO)c3ccccc3n2)cc1
REMARK SMILES IDX 10 1 9 3 7 4 8 5 21 6 20 7 15 8 19 9 16 10 18 11 17 12 6 13
REMARK SMILES IDX 5 15 2 16 3 17 23 18 4 19 22 20 1 21 11 22 12 23 13 24 14 25
REMARK H PARENT 10 2 6 14 14 26
ROOT
ATOM      1  N   UNL     1       4.903  46.094  51.342  1.00  0.00    -0.369 N 
ATOM      2  H   UNL     1       4.076  46.686  51.364  1.00  0.00     0.162 HD
ENDROOT
BRANCH   1   3
ATOM      3  C   UNL     1       4.468  44.756  51.499  1.00  0.00     0.139 A 
ATOM      4  C   UNL     1       2.984  43.237  52.400  1.00  0.00     0.229 A 
ATOM      5  N   UNL     1       3.393  44.506  52.265  1.00  0.00    -0.195 NA
ATOM      6  N   UNL     1       3.584  42.203  51.803  1.00  0.00    -0.213 NA
ATOM      7  C   UNL     1       4.665  42.443  51.057  1.00  0.00     0.078 A 
ATOM      8  C   UNL     1       5.179  43.726  50.863  1.00  0.00     0.043 A 
ATOM      9  C   UNL     1       5.306  41.369  50.449  1.00  0.00     0.029 A 
ATOM     10  C   UNL     1       6.347  43.899  50.074  1.00  0.00     0.014 A 
ATOM     11  C   UNL     1       6.449  41.538  49.663  1.00  0.00     0.002 A 
ATOM     12  C   UNL     1       6.975  42.809  49.478  1.00  0.00     0.001 A 
BRANCH   4  13
ATOM     13  N   UNL     1       1.869  43.071  53.216  1.00  0.00    -0.324 N 
ATOM     14  H   UNL     1       1.428  42.192  52.989  1.00  0.00     0.170 HD
BRANCH  13  15
ATOM     15  C   UNL     1       1.248  43.857  54.193  1.00  0.00     0.041 A 
ATOM     16  C   UNL     1      -0.139  45.389  56.141  1.00  0.00    -0.051 A 
ATOM     17  C   UNL     1       1.256  45.408  56.075  1.00  0.00     0.005 A 
ATOM     18  C   UNL     1      -0.842  44.615  55.215  1.00  0.00     0.005 A 
ATOM     19  C   UNL     1       1.937  44.646  55.117  1.00  0.00     0.026 A 
ATOM     20  C   UNL     1      -0.155  43.856  54.261  1.00  0.00     0.026 A 
ATOM     21  C   UNL     1      -0.867  46.231  57.144  1.00  0.00     0.044 C 
ENDBRANCH  13  15
ENDBRANCH   4  13
ENDBRANCH   1   3
BRANCH   1  22
ATOM     22  C   UNL     1       5.914  46.563  52.290  1.00  0.00     0.117 C 
BRANCH  22  23
ATOM     23  C   UNL     1       5.302  46.825  53.665  1.00  0.00     0.049 C 
BRANCH  23  24
ATOM     24  C   UNL     1       4.274  47.945  53.599  1.00  0.00     0.158 C 
BRANCH  24  25
ATOM     25  O   UNL     1       3.054  47.464  53.048  1.00  0.00    -0.396 OA
ATOM     26  H   UNL     1       2.432  48.210  53.006  1.00  0.00     0.210 HD
ENDBRANCH  24  25
ENDBRANCH  23  24
ENDBRANCH  22  23
ENDBRANCH   1  22
TORSDOF 7
ENDMDL
