MODEL 1
REMARK VINA RESULT:    -8.895      0.000      0.000
REMARK INTER + INTRA:         -12.690
REMARK INTER:                 -12.016
REMARK INTRA:                  -0.674
REMARK UNBOUND:                -0.674
REMARK SMILES CCCCNc1nc(Nc2ccc(F)c(F)c2F)c2cnn(C)c2n1
REMARK SMILES IDX 5 1 4 3 3 4 2 5 1 6 6 7 7 8 25 9 8 10 24 11 19 12 22 13
REMARK SMILES IDX 20 14 21 15 23 16 9 17 10 19 11 20 17 21 12 22 15 23 13 24
REMARK SMILES IDX 18 25 16 26 14 27
REMARK H PARENT 5 2 9 18
ROOT
ATOM      1  N   UNL     1       6.298  41.645  49.347  1.00  0.00    -0.354 N 
ATOM      2  H   UNL     1       6.575  40.895  49.971  1.00  0.00     0.163 HD
ENDROOT
BRANCH   1   3
ATOM      3  C   UNL     1       5.427  41.255  48.254  1.00  0.00     0.116 C 
BRANCH   3   4
ATOM      4  C   UNL     1       5.861  41.936  46.952  1.00  0.00     0.021 C 
BRANCH   4   5
ATOM      5  C   UNL     1       5.060  41.518  45.714  1.00  0.00    -0.002 C 
ATOM      6  C   UNL     1       5.157  42.487  44.546  1.00  0.00     0.004 C 
ENDBRANCH   4   5
ENDBRANCH   3   4
ENDBRANCH   1   3
BRANCH   1   7
ATOM      7  C   UNL     1       5.795  42.651  50.165  1.00  0.00     0.226 A 
ATOM      8  N   UNL     1       6.525  43.783  50.167  1.00  0.00    -0.195 NA
ATOM      9  N   UNL     1       4.671  42.440  50.864  1.00  0.00    -0.193 NA
ATOM     10  C   UNL     1       6.141  44.835  50.933  1.00  0.00     0.147 A 
ATOM     11  C   UNL     1       4.300  43.507  51.587  1.00  0.00     0.165 A 
ATOM     12  C   UNL     1       4.963  44.714  51.670  1.00  0.00     0.082 A 
ATOM     13  N   UNL     1       3.194  43.629  52.383  1.00  0.00    -0.250 N 
ATOM     14  C   UNL     1       4.163  45.497  52.526  1.00  0.00     0.149 A 
ATOM     15  N   UNL     1       3.080  44.845  52.968  1.00  0.00    -0.179 NA
ATOM     16  C   UNL     1       2.184  42.630  52.623  1.00  0.00     0.176 C 
BRANCH  10  17
ATOM     17  N   UNL     1       6.942  45.990  50.867  1.00  0.00    -0.337 N 
ATOM     18  H   UNL     1       7.344  45.981  49.930  1.00  0.00     0.168 HD
BRANCH  17  19
ATOM     19  C   UNL     1       7.905  46.407  51.816  1.00  0.00     0.079 A 
ATOM     20  C   UNL     1       9.244  46.048  51.589  1.00  0.00     0.032 A 
ATOM     21  C   UNL     1       7.588  47.056  53.022  1.00  0.00     0.185 A 
ATOM     22  C   UNL     1      10.241  46.377  52.512  1.00  0.00     0.045 A 
ATOM     23  C   UNL     1       8.580  47.384  53.940  1.00  0.00     0.196 A 
ATOM     24  C   UNL     1       9.901  47.049  53.680  1.00  0.00     0.162 A 
ATOM     25  F   UNL     1       6.313  47.352  53.319  1.00  0.00    -0.201 F 
ATOM     26  F   UNL     1       8.258  48.010  55.081  1.00  0.00    -0.200 F 
ATOM     27  F   UNL     1      10.862  47.359  54.561  1.00  0.00    -0.204 F 
ENDBRANCH  17  19
ENDBRANCH  10  17
ENDBRANCH   1   7
TORSDOF 6
ENDMDL
MODEL 2
REMARK VINA RESULT:    -8.883      1.905      4.462
REMARK INTER + INTRA:         -12.672
REMARK INTER:                 -11.532
REMARK INTRA:                  -1.141
REMARK UNBOUND:                -0.674
REMARK SMILES CCCCNc1nc(Nc2ccc(F)c(F)c2F)c2cnn(C)c2n1
REMARK SMILES IDX 5 1 4 3 3 4 2 5 1 6 6 7 7 8 25 9 8 10 24 11 19 12 22 13
REMARK SMILES IDX 20 14 21 15 23 16 9 17 10 19 11 20 17 21 12 22 15 23 13 24
REMARK SMILES IDX 18 25 16 26 14 27
REMARK H PARENT 5 2 9 18
ROOT
ATOM      1  N   UNL     1       2.727  45.647  52.300  1.00  0.00    -0.354 N 
ATOM      2  H   UNL     1       2.043  44.916  52.463  1.00  0.00     0.163 HD
ENDROOT
BRANCH   1   3
ATOM      3  C   UNL     1       3.093  46.429  53.467  1.00  0.00     0.116 C 
BRANCH   3   4
ATOM      4  C   UNL     1       3.254  45.523  54.691  1.00  0.00     0.021 C 
BRANCH   4   5
ATOM      5  C   UNL     1       4.631  45.593  55.362  1.00  0.00    -0.002 C 
ATOM      6  C   UNL     1       5.656  44.623  54.795  1.00  0.00     0.004 C 
ENDBRANCH   4   5
ENDBRANCH   3   4
ENDBRANCH   1   3
BRANCH   1   7
ATOM      7  C   UNL     1       3.792  45.030  51.652  1.00  0.00     0.226 A 
ATOM      8  N   UNL     1       4.875  45.814  51.493  1.00  0.00    -0.195 NA
ATOM      9  N   UNL     1       3.678  43.757  51.249  1.00  0.00    -0.193 NA
ATOM     10  C   UNL     1       5.978  45.329  50.869  1.00  0.00     0.147 A 
ATOM     11  C   UNL     1       4.792  43.295  50.662  1.00  0.00     0.165 A 
ATOM     12  C   UNL     1       5.958  44.001  50.443  1.00  0.00     0.082 A 
ATOM     13  N   UNL     1       5.013  42.039  50.167  1.00  0.00    -0.250 N 
ATOM     14  C   UNL     1       6.820  43.071  49.827  1.00  0.00     0.149 A 
ATOM     15  N   UNL     1       6.254  41.871  49.653  1.00  0.00    -0.179 NA
ATOM     16  C   UNL     1       4.088  40.935  50.164  1.00  0.00     0.176 C 
BRANCH  10  17
ATOM     17  N   UNL     1       7.077  46.200  50.758  1.00  0.00    -0.337 N 
ATOM     18  H   UNL     1       7.578  45.891  49.926  1.00  0.00     0.168 HD
BRANCH  17  19
ATOM     19  C   UNL     1       7.987  46.548  51.785  1.00  0.00     0.079 A 
ATOM     20  C   UNL     1       9.320  46.126  51.646  1.00  0.00     0.032 A 
ATOM     21  C   UNL     1       7.614  47.186  52.980  1.00  0.00     0.185 A 
ATOM     22  C   UNL     1      10.261  46.386  52.646  1.00  0.00     0.045 A 
ATOM     23  C   UNL     1       8.551  47.444  53.976  1.00  0.00     0.196 A 
ATOM     24  C   UNL     1       9.870  47.048  53.803  1.00  0.00     0.162 A 
ATOM     25  F   UNL     1       6.337  47.539  53.192  1.00  0.00    -0.201 F 
ATOM     26  F   UNL     1       8.178  48.061  55.106  1.00  0.00    -0.200 F 
ATOM     27  F   UNL     1      10.777  47.291  54.758  1.00  0.00    -0.204 F 
ENDBRANCH  17  19
ENDBRANCH  10  17
ENDBRANCH   1   7
TORSDOF 6
ENDMDL
MODEL 3
REMARK VINA RESULT:    -8.824      1.973      2.717
REMARK INTER + INTRA:         -12.593
REMARK INTER:                 -11.693
REMARK INTRA:                  -0.900
REMARK UNBOUND:                -0.674
REMARK SMILES CCCCNc1nc(Nc2ccc(F)c(F)c2F)c2cnn(C)c2n1
REMARK SMILES IDX 5 1 4 3 3 4 2 5 1 6 6 7 7 8 25 9 8 10 24 11 19 12 22 13
REMARK SMILES IDX 20 14 21 15 23 16 9 17 10 19 11 20 17 21 12 22 15 23 13 24
REMARK SMILES IDX 18 25 16 26 14 27
REMARK H PARENT 5 2 9 18
ROOT
ATOM      1  N   UNL     1       4.386  41.540  51.338  1.00  0.00    -0.354 N 
ATOM      2  H   UNL     1       4.133  40.821  52.007  1.00  0.00     0.163 HD
ENDROOT
BRANCH   1   3
ATOM      3  C   UNL     1       3.972  41.290  49.969  1.00  0.00     0.116 C 
BRANCH   3   4
ATOM      4  C   UNL     1       5.193  41.175  49.051  1.00  0.00     0.021 C 
BRANCH   4   5
ATOM      5  C   UNL     1       6.528  41.530  49.715  1.00  0.00    -0.002 C 
ATOM      6  C   UNL     1       7.110  42.866  49.282  1.00  0.00     0.004 C 
ENDBRANCH   4   5
ENDBRANCH   3   4
ENDBRANCH   1   3
BRANCH   1   7
ATOM      7  C   UNL     1       3.929  42.737  51.878  1.00  0.00     0.226 A 
ATOM      8  N   UNL     1       4.726  43.796  51.638  1.00  0.00    -0.195 NA
ATOM      9  N   UNL     1       2.780  42.759  52.568  1.00  0.00    -0.193 NA
ATOM     10  C   UNL     1       4.391  45.019  52.120  1.00  0.00     0.147 A 
ATOM     11  C   UNL     1       2.459  43.985  53.006  1.00  0.00     0.165 A 
ATOM     12  C   UNL     1       3.193  45.141  52.824  1.00  0.00     0.082 A 
ATOM     13  N   UNL     1       1.346  44.353  53.712  1.00  0.00    -0.250 N 
ATOM     14  C   UNL     1       2.424  46.146  53.444  1.00  0.00     0.149 A 
ATOM     15  N   UNL     1       1.295  45.678  53.990  1.00  0.00    -0.179 NA
ATOM     16  C   UNL     1       0.274  43.496  54.146  1.00  0.00     0.176 C 
BRANCH  10  17
ATOM     17  N   UNL     1       5.261  46.080  51.811  1.00  0.00    -0.337 N 
ATOM     18  H   UNL     1       5.276  46.123  50.793  1.00  0.00     0.168 HD
BRANCH  17  19
ATOM     19  C   UNL     1       6.559  46.291  52.337  1.00  0.00     0.079 A 
ATOM     20  C   UNL     1       6.663  46.675  53.684  1.00  0.00     0.032 A 
ATOM     21  C   UNL     1       7.733  46.250  51.566  1.00  0.00     0.185 A 
ATOM     22  C   UNL     1       7.908  46.954  54.255  1.00  0.00     0.045 A 
ATOM     23  C   UNL     1       8.972  46.528  52.134  1.00  0.00     0.196 A 
ATOM     24  C   UNL     1       9.055  46.873  53.475  1.00  0.00     0.162 A 
ATOM     25  F   UNL     1       7.676  45.963  50.256  1.00  0.00    -0.201 F 
ATOM     26  F   UNL     1      10.082  46.477  51.384  1.00  0.00    -0.200 F 
ATOM     27  F   UNL     1      10.244  47.145  54.030  1.00  0.00    -0.204 F 
ENDBRANCH  17  19
ENDBRANCH  10  17
ENDBRANCH   1   7
TORSDOF 6
ENDMDL
MODEL 4
REMARK VINA RESULT:    -8.732      3.294      7.202
REMARK INTER + INTRA:         -12.468
REMARK INTER:                 -11.771
REMARK INTRA:                  -0.697
REMARK UNBOUND:                -0.674
REMARK SMILES CCCCNc1nc(Nc2ccc(F)c(F)c2F)c2cnn(C)c2n1
REMARK SMILES IDX 5 1 4 3 3 4 2 5 1 6 6 7 7 8 25 9 8 10 24 11 19 12 22 13
REMARK SMILES IDX 20 14 21 15 23 16 9 17 10 19 11 20 17 21 12 22 15 23 13 24
REMARK SMILES IDX 18 25 16 26 14 27
REMARK H PARENT 5 2 9 18
ROOT
ATOM      1  N   UNL     1       4.919  47.189  54.950  1.00  0.00    -0.354 N 
ATOM      2  H   UNL     1       4.917  48.199  55.041  1.00  0.00     0.163 HD
ENDROOT
BRANCH   1   3
ATOM      3  C   UNL     1       3.668  46.600  54.510  1.00  0.00     0.116 C 
BRANCH   3   4
ATOM      4  C   UNL     1       3.377  45.313  55.288  1.00  0.00     0.021 C 
BRANCH   4   5
ATOM      5  C   UNL     1       1.893  44.937  55.370  1.00  0.00    -0.002 C 
ATOM      6  C   UNL     1       1.377  44.151  54.176  1.00  0.00     0.004 C 
ENDBRANCH   4   5
ENDBRANCH   3   4
ENDBRANCH   1   3
BRANCH   1   7
ATOM      7  C   UNL     1       6.020  46.884  54.156  1.00  0.00     0.226 A 
ATOM      8  N   UNL     1       5.711  46.342  52.963  1.00  0.00    -0.195 NA
ATOM      9  N   UNL     1       7.256  47.138  54.606  1.00  0.00    -0.193 NA
ATOM     10  C   UNL     1       6.699  45.993  52.100  1.00  0.00     0.147 A 
ATOM     11  C   UNL     1       8.210  46.812  53.722  1.00  0.00     0.165 A 
ATOM     12  C   UNL     1       8.017  46.252  52.475  1.00  0.00     0.082 A 
ATOM     13  N   UNL     1       9.562  46.968  53.860  1.00  0.00    -0.250 N 
ATOM     14  C   UNL     1       9.316  46.129  51.941  1.00  0.00     0.149 A 
ATOM     15  N   UNL     1      10.267  46.563  52.776  1.00  0.00    -0.179 NA
ATOM     16  C   UNL     1      10.259  47.516  54.995  1.00  0.00     0.176 C 
BRANCH  10  17
ATOM     17  N   UNL     1       6.298  45.452  50.865  1.00  0.00    -0.337 N 
ATOM     18  H   UNL     1       5.748  46.187  50.419  1.00  0.00     0.168 HD
BRANCH  17  19
ATOM     19  C   UNL     1       5.704  44.186  50.648  1.00  0.00     0.079 A 
ATOM     20  C   UNL     1       4.437  43.955  51.209  1.00  0.00     0.032 A 
ATOM     21  C   UNL     1       6.351  43.116  50.008  1.00  0.00     0.185 A 
ATOM     22  C   UNL     1       3.814  42.711  51.083  1.00  0.00     0.045 A 
ATOM     23  C   UNL     1       5.731  41.876  49.883  1.00  0.00     0.196 A 
ATOM     24  C   UNL     1       4.465  41.681  50.416  1.00  0.00     0.162 A 
ATOM     25  F   UNL     1       7.594  43.265  49.524  1.00  0.00    -0.201 F 
ATOM     26  F   UNL     1       6.362  40.869  49.262  1.00  0.00    -0.200 F 
ATOM     27  F   UNL     1       3.862  40.489  50.302  1.00  0.00    -0.204 F 
ENDBRANCH  17  19
ENDBRANCH  10  17
ENDBRANCH   1   7
TORSDOF 6
ENDMDL
MODEL 5
REMARK VINA RESULT:    -8.650      1.765      2.288
REMARK INTER + INTRA:         -12.358
REMARK INTER:                 -11.416
REMARK INTRA:                  -0.942
REMARK UNBOUND:                -0.674
REMARK SMILES CCCCNc1nc(Nc2ccc(F)c(F)c2F)c2cnn(C)c2n1
REMARK SMILES IDX 5 1 4 3 3 4 2 5 1 6 6 7 7 8 25 9 8 10 24 11 19 12 22 13
REMARK SMILES IDX 20 14 21 15 23 16 9 17 10 19 11 20 17 21 12 22 15 23 13 24
REMARK SMILES IDX 18 25 16 26 14 27
REMARK H PARENT 5 2 9 18
ROOT
ATOM      1  N   UNL     1       4.347  41.474  51.253  1.00  0.00    -0.354 N 
ATOM      2  H   UNL     1       4.049  40.789  51.938  1.00  0.00     0.163 HD
ENDROOT
BRANCH   1   3
ATOM      3  C   UNL     1       3.984  41.179  49.879  1.00  0.00     0.116 C 
BRANCH   3   4
ATOM      4  C   UNL     1       5.233  41.122  48.994  1.00  0.00     0.021 C 
BRANCH   4   5
ATOM      5  C   UNL     1       6.546  41.438  49.720  1.00  0.00    -0.002 C 
ATOM      6  C   UNL     1       7.191  42.751  49.310  1.00  0.00     0.004 C 
ENDBRANCH   4   5
ENDBRANCH   3   4
ENDBRANCH   1   3
BRANCH   1   7
ATOM      7  C   UNL     1       3.896  42.701  51.726  1.00  0.00     0.226 A 
ATOM      8  N   UNL     1       4.667  43.749  51.378  1.00  0.00    -0.195 NA
ATOM      9  N   UNL     1       2.776  42.761  52.461  1.00  0.00    -0.193 NA
ATOM     10  C   UNL     1       4.337  45.000  51.786  1.00  0.00     0.147 A 
ATOM     11  C   UNL     1       2.457  44.011  52.824  1.00  0.00     0.165 A 
ATOM     12  C   UNL     1       3.167  45.158  52.530  1.00  0.00     0.082 A 
ATOM     13  N   UNL     1       1.370  44.417  53.549  1.00  0.00    -0.250 N 
ATOM     14  C   UNL     1       2.411  46.197  53.109  1.00  0.00     0.149 A 
ATOM     15  N   UNL     1       1.313  45.757  53.734  1.00  0.00    -0.179 NA
ATOM     16  C   UNL     1       0.328  43.581  54.088  1.00  0.00     0.176 C 
BRANCH  10  17
ATOM     17  N   UNL     1       5.179  46.046  51.366  1.00  0.00    -0.337 N 
ATOM     18  H   UNL     1       5.209  45.970  50.350  1.00  0.00     0.168 HD
BRANCH  17  19
ATOM     19  C   UNL     1       6.460  46.358  51.879  1.00  0.00     0.079 A 
ATOM     20  C   UNL     1       7.577  46.027  51.094  1.00  0.00     0.032 A 
ATOM     21  C   UNL     1       6.685  46.871  53.168  1.00  0.00     0.185 A 
ATOM     22  C   UNL     1       8.874  46.255  51.560  1.00  0.00     0.045 A 
ATOM     23  C   UNL     1       7.977  47.098  53.633  1.00  0.00     0.196 A 
ATOM     24  C   UNL     1       9.064  46.795  52.826  1.00  0.00     0.162 A 
ATOM     25  F   UNL     1       5.653  47.131  53.985  1.00  0.00    -0.201 F 
ATOM     26  F   UNL     1       8.171  47.595  54.863  1.00  0.00    -0.200 F 
ATOM     27  F   UNL     1      10.311  47.008  53.267  1.00  0.00    -0.204 F 
ENDBRANCH  17  19
ENDBRANCH  10  17
ENDBRANCH   1   7
TORSDOF 6
ENDMDL
MODEL 6
REMARK VINA RESULT:    -8.623      3.009      6.343
REMARK INTER + INTRA:         -12.321
REMARK INTER:                 -11.465
REMARK INTRA:                  -0.856
REMARK UNBOUND:                -0.674
REMARK SMILES CCCCNc1nc(Nc2ccc(F)c(F)c2F)c2cnn(C)c2n1
REMARK SMILES IDX 5 1 4 3 3 4 2 5 1 6 6 7 7 8 25 9 8 10 24 11 19 12 22 13
REMARK SMILES IDX 20 14 21 15 23 16 9 17 10 19 11 20 17 21 12 22 15 23 13 24
REMARK SMILES IDX 18 25 16 26 14 27
REMARK H PARENT 5 2 9 18
ROOT
ATOM      1  N   UNL     1       6.153  46.841  54.952  1.00  0.00    -0.354 N 
ATOM      2  H   UNL     1       6.301  46.495  55.894  1.00  0.00     0.163 HD
ENDROOT
BRANCH   1   3
ATOM      3  C   UNL     1       7.257  46.635  54.033  1.00  0.00     0.116 C 
BRANCH   3   4
ATOM      4  C   UNL     1       8.484  47.436  54.479  1.00  0.00     0.021 C 
BRANCH   4   5
ATOM      5  C   UNL     1       9.802  47.000  53.829  1.00  0.00    -0.002 C 
ATOM      6  C   UNL     1       9.718  46.769  52.329  1.00  0.00     0.004 C 
ENDBRANCH   4   5
ENDBRANCH   3   4
ENDBRANCH   1   3
BRANCH   1   7
ATOM      7  C   UNL     1       4.939  46.303  54.539  1.00  0.00     0.226 A 
ATOM      8  N   UNL     1       4.920  45.898  53.254  1.00  0.00    -0.195 NA
ATOM      9  N   UNL     1       3.917  46.224  55.402  1.00  0.00    -0.193 NA
ATOM     10  C   UNL     1       3.789  45.362  52.729  1.00  0.00     0.147 A 
ATOM     11  C   UNL     1       2.824  45.663  54.866  1.00  0.00     0.165 A 
ATOM     12  C   UNL     1       2.684  45.212  53.568  1.00  0.00     0.082 A 
ATOM     13  N   UNL     1       1.628  45.412  55.482  1.00  0.00    -0.250 N 
ATOM     14  C   UNL     1       1.375  44.694  53.515  1.00  0.00     0.149 A 
ATOM     15  N   UNL     1       0.720  44.811  54.677  1.00  0.00    -0.179 NA
ATOM     16  C   UNL     1       1.281  45.704  56.849  1.00  0.00     0.176 C 
BRANCH  10  17
ATOM     17  N   UNL     1       3.852  44.943  51.388  1.00  0.00    -0.337 N 
ATOM     18  H   UNL     1       2.881  44.814  51.105  1.00  0.00     0.168 HD
BRANCH  17  19
ATOM     19  C   UNL     1       4.664  43.911  50.860  1.00  0.00     0.079 A 
ATOM     20  C   UNL     1       4.227  42.587  51.025  1.00  0.00     0.032 A 
ATOM     21  C   UNL     1       5.929  44.125  50.286  1.00  0.00     0.185 A 
ATOM     22  C   UNL     1       5.004  41.514  50.579  1.00  0.00     0.045 A 
ATOM     23  C   UNL     1       6.703  43.058  49.843  1.00  0.00     0.196 A 
ATOM     24  C   UNL     1       6.236  41.760  49.986  1.00  0.00     0.162 A 
ATOM     25  F   UNL     1       6.424  45.368  50.177  1.00  0.00    -0.201 F 
ATOM     26  F   UNL     1       7.904  43.283  49.291  1.00  0.00    -0.200 F 
ATOM     27  F   UNL     1       6.977  40.726  49.563  1.00  0.00    -0.204 F 
ENDBRANCH  17  19
ENDBRANCH  10  17
ENDBRANCH   1   7
TORSDOF 6
ENDMDL
MODEL 7
REMARK VINA RESULT:    -8.622      2.215      5.345
REMARK INTER + INTRA:         -12.321
REMARK INTER:                 -11.491
REMARK INTRA:                  -0.830
REMARK UNBOUND:                -0.674
REMARK SMILES CCCCNc1nc(Nc2ccc(F)c(F)c2F)c2cnn(C)c2n1
REMARK SMILES IDX 5 1 4 3 3 4 2 5 1 6 6 7 7 8 25 9 8 10 24 11 19 12 22 13
REMARK SMILES IDX 20 14 21 15 23 16 9 17 10 19 11 20 17 21 12 22 15 23 13 24
REMARK SMILES IDX 18 25 16 26 14 27
REMARK H PARENT 5 2 9 18
ROOT
ATOM      1  N   UNL     1       2.265  44.146  53.944  1.00  0.00    -0.354 N 
ATOM      2  H   UNL     1       2.268  43.230  54.379  1.00  0.00     0.163 HD
ENDROOT
BRANCH   1   3
ATOM      3  C   UNL     1       2.374  45.269  54.858  1.00  0.00     0.116 C 
BRANCH   3   4
ATOM      4  C   UNL     1       1.422  45.090  56.044  1.00  0.00     0.021 C 
BRANCH   4   5
ATOM      5  C   UNL     1      -0.051  44.906  55.660  1.00  0.00    -0.002 C 
ATOM      6  C   UNL     1      -1.024  45.032  56.821  1.00  0.00     0.004 C 
ENDBRANCH   4   5
ENDBRANCH   3   4
ENDBRANCH   1   3
BRANCH   1   7
ATOM      7  C   UNL     1       3.243  44.099  52.957  1.00  0.00     0.226 A 
ATOM      8  N   UNL     1       4.029  45.192  52.900  1.00  0.00    -0.195 NA
ATOM      9  N   UNL     1       3.338  43.022  52.165  1.00  0.00    -0.193 NA
ATOM     10  C   UNL     1       5.016  45.269  51.973  1.00  0.00     0.147 A 
ATOM     11  C   UNL     1       4.340  43.114  51.279  1.00  0.00     0.165 A 
ATOM     12  C   UNL     1       5.207  44.178  51.126  1.00  0.00     0.082 A 
ATOM     13  N   UNL     1       4.721  42.182  50.353  1.00  0.00    -0.250 N 
ATOM     14  C   UNL     1       6.079  43.775  50.094  1.00  0.00     0.149 A 
ATOM     15  N   UNL     1       5.792  42.559  49.614  1.00  0.00    -0.179 NA
ATOM     16  C   UNL     1       4.120  40.893  50.123  1.00  0.00     0.176 C 
BRANCH  10  17
ATOM     17  N   UNL     1       5.808  46.432  51.989  1.00  0.00    -0.337 N 
ATOM     18  H   UNL     1       5.845  46.741  51.018  1.00  0.00     0.168 HD
BRANCH  17  19
ATOM     19  C   UNL     1       7.072  46.587  52.607  1.00  0.00     0.079 A 
ATOM     20  C   UNL     1       7.095  47.009  53.947  1.00  0.00     0.032 A 
ATOM     21  C   UNL     1       8.297  46.456  51.932  1.00  0.00     0.185 A 
ATOM     22  C   UNL     1       8.306  47.236  54.606  1.00  0.00     0.045 A 
ATOM     23  C   UNL     1       9.503  46.683  52.587  1.00  0.00     0.196 A 
ATOM     24  C   UNL     1       9.503  47.067  53.920  1.00  0.00     0.162 A 
ATOM     25  F   UNL     1       8.323  46.130  50.630  1.00  0.00    -0.201 F 
ATOM     26  F   UNL     1      10.662  46.546  51.927  1.00  0.00    -0.200 F 
ATOM     27  F   UNL     1      10.661  47.290  54.558  1.00  0.00    -0.204 F 
ENDBRANCH  17  19
ENDBRANCH  10  17
ENDBRANCH   1   7
TORSDOF 6
ENDMDL
MODEL 8
REMARK VINA RESULT:    -8.583      3.817      7.505
REMARK INTER + INTRA:         -12.268
REMARK INTER:                 -11.473
REMARK INTRA:                  -0.796
REMARK UNBOUND:                -0.674
REMARK SMILES CCCCNc1nc(Nc2ccc(F)c(F)c2F)c2cnn(C)c2n1
REMARK SMILES IDX 5 1 4 3 3 4 2 5 1 6 6 7 7 8 25 9 8 10 24 11 19 12 22 13
REMARK SMILES IDX 20 14 21 15 23 16 9 17 10 19 11 20 17 21 12 22 15 23 13 24
REMARK SMILES IDX 18 25 16 26 14 27
REMARK H PARENT 5 2 9 18
ROOT
ATOM      1  N   UNL     1       7.296  45.753  50.882  1.00  0.00    -0.354 N 
ATOM      2  H   UNL     1       7.179  46.138  49.951  1.00  0.00     0.163 HD
ENDROOT
BRANCH   1   3
ATOM      3  C   UNL     1       7.429  46.730  51.947  1.00  0.00     0.116 C 
BRANCH   3   4
ATOM      4  C   UNL     1       8.765  47.471  51.832  1.00  0.00     0.021 C 
BRANCH   4   5
ATOM      5  C   UNL     1       9.925  46.821  52.596  1.00  0.00    -0.002 C 
ATOM      6  C   UNL     1       9.889  47.042  54.099  1.00  0.00     0.004 C 
ENDBRANCH   4   5
ENDBRANCH   3   4
ENDBRANCH   1   3
BRANCH   1   7
ATOM      7  C   UNL     1       6.256  44.845  51.049  1.00  0.00     0.226 A 
ATOM      8  N   UNL     1       6.393  43.707  50.342  1.00  0.00    -0.195 NA
ATOM      9  N   UNL     1       5.234  45.145  51.863  1.00  0.00    -0.193 NA
ATOM     10  C   UNL     1       5.440  42.745  50.414  1.00  0.00     0.147 A 
ATOM     11  C   UNL     1       4.323  44.165  51.938  1.00  0.00     0.165 A 
ATOM     12  C   UNL     1       4.354  42.961  51.263  1.00  0.00     0.082 A 
ATOM     13  N   UNL     1       3.183  44.143  52.695  1.00  0.00    -0.250 N 
ATOM     14  C   UNL     1       3.198  42.283  51.700  1.00  0.00     0.149 A 
ATOM     15  N   UNL     1       2.475  42.995  52.573  1.00  0.00    -0.179 NA
ATOM     16  C   UNL     1       2.710  45.178  53.576  1.00  0.00     0.176 C 
BRANCH  10  17
ATOM     17  N   UNL     1       5.663  41.576  49.664  1.00  0.00    -0.337 N 
ATOM     18  H   UNL     1       6.672  41.433  49.689  1.00  0.00     0.168 HD
BRANCH  17  19
ATOM     19  C   UNL     1       5.151  41.286  48.377  1.00  0.00     0.079 A 
ATOM     20  C   UNL     1       5.767  41.902  47.275  1.00  0.00     0.032 A 
ATOM     21  C   UNL     1       4.000  40.513  48.146  1.00  0.00     0.185 A 
ATOM     22  C   UNL     1       5.282  41.706  45.980  1.00  0.00     0.045 A 
ATOM     23  C   UNL     1       3.516  40.318  46.857  1.00  0.00     0.196 A 
ATOM     24  C   UNL     1       4.160  40.910  45.780  1.00  0.00     0.162 A 
ATOM     25  F   UNL     1       3.332  39.967  49.174  1.00  0.00    -0.201 F 
ATOM     26  F   UNL     1       2.420  39.572  46.656  1.00  0.00    -0.200 F 
ATOM     27  F   UNL     1       3.698  40.729  44.535  1.00  0.00    -0.204 F 
ENDBRANCH  17  19
ENDBRANCH  10  17
ENDBRANCH   1   7
TORSDOF 6
ENDMDL
MODEL 9
REMARK VINA RESULT:    -8.547      2.081      2.881
REMARK INTER + INTRA:         -12.218
REMARK INTER:                 -11.582
REMARK INTRA:                  -0.637
REMARK UNBOUND:                -0.674
REMARK SMILES CCCCNc1nc(Nc2ccc(F)c(F)c2F)c2cnn(C)c2n1
REMARK SMILES IDX 5 1 4 3 3 4 2 5 1 6 6 7 7 8 25 9 8 10 24 11 19 12 22 13
REMARK SMILES IDX 20 14 21 15 23 16 9 17 10 19 11 20 17 21 12 22 15 23 13 24
REMARK SMILES IDX 18 25 16 26 14 27
REMARK H PARENT 5 2 9 18
ROOT
ATOM      1  N   UNL     1       4.130  41.394  51.254  1.00  0.00    -0.354 N 
ATOM      2  H   UNL     1       3.852  40.679  51.917  1.00  0.00     0.163 HD
ENDROOT
BRANCH   1   3
ATOM      3  C   UNL     1       3.900  41.072  49.858  1.00  0.00     0.116 C 
BRANCH   3   4
ATOM      4  C   UNL     1       5.206  41.167  49.062  1.00  0.00     0.021 C 
BRANCH   4   5
ATOM      5  C   UNL     1       6.432  41.566  49.892  1.00  0.00    -0.002 C 
ATOM      6  C   UNL     1       7.107  42.850  49.438  1.00  0.00     0.004 C 
ENDBRANCH   4   5
ENDBRANCH   3   4
ENDBRANCH   1   3
BRANCH   1   7
ATOM      7  C   UNL     1       3.526  42.568  51.690  1.00  0.00     0.226 A 
ATOM      8  N   UNL     1       4.341  43.391  52.377  1.00  0.00    -0.195 NA
ATOM      9  N   UNL     1       2.234  42.795  51.412  1.00  0.00    -0.193 NA
ATOM     10  C   UNL     1       3.866  44.565  52.863  1.00  0.00     0.147 A 
ATOM     11  C   UNL     1       1.800  43.975  51.878  1.00  0.00     0.165 A 
ATOM     12  C   UNL     1       2.538  44.897  52.592  1.00  0.00     0.082 A 
ATOM     13  N   UNL     1       0.552  44.517  51.740  1.00  0.00    -0.250 N 
ATOM     14  C   UNL     1       1.644  45.963  52.819  1.00  0.00     0.149 A 
ATOM     15  N   UNL     1       0.428  45.742  52.304  1.00  0.00    -0.179 NA
ATOM     16  C   UNL     1      -0.577  43.929  51.066  1.00  0.00     0.176 C 
BRANCH  10  17
ATOM     17  N   UNL     1       4.782  45.381  53.552  1.00  0.00    -0.337 N 
ATOM     18  H   UNL     1       4.211  46.088  54.015  1.00  0.00     0.168 HD
BRANCH  17  19
ATOM     19  C   UNL     1       5.961  45.961  53.026  1.00  0.00     0.079 A 
ATOM     20  C   UNL     1       6.322  45.627  51.710  1.00  0.00     0.032 A 
ATOM     21  C   UNL     1       6.847  46.753  53.775  1.00  0.00     0.185 A 
ATOM     22  C   UNL     1       7.502  46.117  51.144  1.00  0.00     0.045 A 
ATOM     23  C   UNL     1       8.022  47.241  53.212  1.00  0.00     0.196 A 
ATOM     24  C   UNL     1       8.341  46.926  51.900  1.00  0.00     0.162 A 
ATOM     25  F   UNL     1       6.584  47.036  55.061  1.00  0.00    -0.201 F 
ATOM     26  F   UNL     1       8.851  48.002  53.941  1.00  0.00    -0.200 F 
ATOM     27  F   UNL     1       9.473  47.390  51.351  1.00  0.00    -0.204 F 
ENDBRANCH  17  19
ENDBRANCH  10  17
ENDBRANCH   1   7
TORSDOF 6
ENDMDL
MODEL 10
REMARK VINA RESULT:    -8.540      3.206      7.438
REMARK INTER + INTRA:         -12.210
REMARK INTER:                 -11.366
REMARK INTRA:                  -0.845
REMARK UNBOUND:                -0.674
REMARK SMILES CCCCNc1nc(Nc2ccc(F)c(F)c2F)c2cnn(C)c2n1
REMARK SMILES IDX 5 1 4 3 3 4 2 5 1 6 6 7 7 8 25 9 8 10 24 11 19 12 22 13
REMARK SMILES IDX 20 14 21 15 23 16 9 17 10 19 11 20 17 21 12 22 15 23 13 24
REMARK SMILES IDX 18 25 16 26 14 27
REMARK H PARENT 5 2 9 18
ROOT
ATOM      1  N   UNL     1       6.330  47.108  52.464  1.00  0.00    -0.354 N 
ATOM      2  H   UNL     1       6.226  47.296  53.455  1.00  0.00     0.163 HD
ENDROOT
BRANCH   1   3
ATOM      3  C   UNL     1       7.678  47.240  51.943  1.00  0.00     0.116 C 
BRANCH   3   4
ATOM      4  C   UNL     1       8.634  47.712  53.042  1.00  0.00     0.021 C 
BRANCH   4   5
ATOM      5  C   UNL     1       9.923  46.891  53.164  1.00  0.00    -0.002 C 
ATOM      6  C   UNL     1      10.307  46.133  51.904  1.00  0.00     0.004 C 
ENDBRANCH   4   5
ENDBRANCH   3   4
ENDBRANCH   1   3
BRANCH   1   7
ATOM      7  C   UNL     1       5.740  45.867  52.251  1.00  0.00     0.226 A 
ATOM      8  N   UNL     1       4.710  45.592  53.075  1.00  0.00    -0.195 NA
ATOM      9  N   UNL     1       6.210  45.062  51.288  1.00  0.00    -0.193 NA
ATOM     10  C   UNL     1       4.057  44.408  52.972  1.00  0.00     0.147 A 
ATOM     11  C   UNL     1       5.527  43.912  51.190  1.00  0.00     0.165 A 
ATOM     12  C   UNL     1       4.460  43.521  51.974  1.00  0.00     0.082 A 
ATOM     13  N   UNL     1       5.732  42.895  50.298  1.00  0.00    -0.250 N 
ATOM     14  C   UNL     1       4.089  42.263  51.458  1.00  0.00     0.149 A 
ATOM     15  N   UNL     1       4.858  41.870  50.436  1.00  0.00    -0.179 NA
ATOM     16  C   UNL     1       6.737  42.836  49.268  1.00  0.00     0.176 C 
BRANCH  10  17
ATOM     17  N   UNL     1       2.979  44.202  53.852  1.00  0.00    -0.337 N 
ATOM     18  H   UNL     1       3.290  43.465  54.485  1.00  0.00     0.168 HD
BRANCH  17  19
ATOM     19  C   UNL     1       1.621  44.013  53.498  1.00  0.00     0.079 A 
ATOM     20  C   UNL     1       1.093  42.716  53.608  1.00  0.00     0.032 A 
ATOM     21  C   UNL     1       0.810  45.014  52.939  1.00  0.00     0.185 A 
ATOM     22  C   UNL     1      -0.223  42.443  53.224  1.00  0.00     0.045 A 
ATOM     23  C   UNL     1      -0.500  44.743  52.556  1.00  0.00     0.196 A 
ATOM     24  C   UNL     1      -1.012  43.462  52.705  1.00  0.00     0.162 A 
ATOM     25  F   UNL     1       1.294  46.251  52.743  1.00  0.00    -0.201 F 
ATOM     26  F   UNL     1      -1.261  45.714  52.032  1.00  0.00    -0.200 F 
ATOM     27  F   UNL     1      -2.272  43.192  52.336  1.00  0.00    -0.204 F 
ENDBRANCH  17  19
ENDBRANCH  10  17
ENDBRANCH   1   7
TORSDOF 6
ENDMDL
MODEL 11
REMARK VINA RESULT:    -8.500      3.239      7.202
REMARK INTER + INTRA:         -12.156
REMARK INTER:                 -11.300
REMARK INTRA:                  -0.856
REMARK UNBOUND:                -0.674
REMARK SMILES CCCCNc1nc(Nc2ccc(F)c(F)c2F)c2cnn(C)c2n1
REMARK SMILES IDX 5 1 4 3 3 4 2 5 1 6 6 7 7 8 25 9 8 10 24 11 19 12 22 13
REMARK SMILES IDX 20 14 21 15 23 16 9 17 10 19 11 20 17 21 12 22 15 23 13 24
REMARK SMILES IDX 18 25 16 26 14 27
REMARK H PARENT 5 2 9 18
ROOT
ATOM      1  N   UNL     1       6.529  47.151  52.794  1.00  0.00    -0.354 N 
ATOM      2  H   UNL     1       6.514  47.005  53.798  1.00  0.00     0.163 HD
ENDROOT
BRANCH   1   3
ATOM      3  C   UNL     1       7.742  47.752  52.270  1.00  0.00     0.116 C 
BRANCH   3   4
ATOM      4  C   UNL     1       8.791  47.895  53.377  1.00  0.00     0.021 C 
BRANCH   4   5
ATOM      5  C   UNL     1       9.902  46.839  53.345  1.00  0.00    -0.002 C 
ATOM      6  C   UNL     1      10.269  46.355  51.952  1.00  0.00     0.004 C 
ENDBRANCH   4   5
ENDBRANCH   3   4
ENDBRANCH   1   3
BRANCH   1   7
ATOM      7  C   UNL     1       6.194  45.925  52.230  1.00  0.00     0.226 A 
ATOM      8  N   UNL     1       5.144  45.314  52.811  1.00  0.00    -0.195 NA
ATOM      9  N   UNL     1       6.902  45.452  51.195  1.00  0.00    -0.193 NA
ATOM     10  C   UNL     1       4.724  44.107  52.355  1.00  0.00     0.147 A 
ATOM     11  C   UNL     1       6.447  44.273  50.747  1.00  0.00     0.165 A 
ATOM     12  C   UNL     1       5.385  43.555  51.259  1.00  0.00     0.082 A 
ATOM     13  N   UNL     1       6.926  43.541  49.694  1.00  0.00    -0.250 N 
ATOM     14  C   UNL     1       5.300  42.417  50.431  1.00  0.00     0.149 A 
ATOM     15  N   UNL     1       6.235  42.397  49.473  1.00  0.00    -0.179 NA
ATOM     16  C   UNL     1       8.033  43.878  48.838  1.00  0.00     0.176 C 
BRANCH  10  17
ATOM     17  N   UNL     1       3.608  43.541  52.999  1.00  0.00    -0.337 N 
ATOM     18  H   UNL     1       3.667  42.542  52.803  1.00  0.00     0.168 HD
BRANCH  17  19
ATOM     19  C   UNL     1       2.267  43.986  52.914  1.00  0.00     0.079 A 
ATOM     20  C   UNL     1       1.709  44.137  51.634  1.00  0.00     0.032 A 
ATOM     21  C   UNL     1       1.504  44.391  54.022  1.00  0.00     0.185 A 
ATOM     22  C   UNL     1       0.409  44.624  51.471  1.00  0.00     0.045 A 
ATOM     23  C   UNL     1       0.210  44.877  53.861  1.00  0.00     0.196 A 
ATOM     24  C   UNL     1      -0.333  44.986  52.589  1.00  0.00     0.162 A 
ATOM     25  F   UNL     1       2.021  44.338  55.259  1.00  0.00    -0.201 F 
ATOM     26  F   UNL     1      -0.505  45.251  54.931  1.00  0.00    -0.200 F 
ATOM     27  F   UNL     1      -1.577  45.456  52.425  1.00  0.00    -0.204 F 
ENDBRANCH  17  19
ENDBRANCH  10  17
ENDBRANCH   1   7
TORSDOF 6
ENDMDL
MODEL 12
REMARK VINA RESULT:    -8.399      3.431      6.430
REMARK INTER + INTRA:         -12.019
REMARK INTER:                 -11.167
REMARK INTRA:                  -0.851
REMARK UNBOUND:                -0.674
REMARK SMILES CCCCNc1nc(Nc2ccc(F)c(F)c2F)c2cnn(C)c2n1
REMARK SMILES IDX 5 1 4 3 3 4 2 5 1 6 6 7 7 8 25 9 8 10 24 11 19 12 22 13
REMARK SMILES IDX 20 14 21 15 23 16 9 17 10 19 11 20 17 21 12 22 15 23 13 24
REMARK SMILES IDX 18 25 16 26 14 27
REMARK H PARENT 5 2 9 18
ROOT
ATOM      1  N   UNL     1       8.151  46.417  50.865  1.00  0.00    -0.354 N 
ATOM      2  H   UNL     1       8.020  47.247  51.433  1.00  0.00     0.163 HD
ENDROOT
BRANCH   1   3
ATOM      3  C   UNL     1       9.380  45.684  51.107  1.00  0.00     0.116 C 
BRANCH   3   4
ATOM      4  C   UNL     1      10.267  46.437  52.104  1.00  0.00     0.021 C 
BRANCH   4   5
ATOM      5  C   UNL     1       9.506  47.347  53.075  1.00  0.00    -0.002 C 
ATOM      6  C   UNL     1       9.961  47.240  54.522  1.00  0.00     0.004 C 
ENDBRANCH   4   5
ENDBRANCH   3   4
ENDBRANCH   1   3
BRANCH   1   7
ATOM      7  C   UNL     1       6.987  45.672  51.013  1.00  0.00     0.226 A 
ATOM      8  N   UNL     1       5.971  46.337  51.595  1.00  0.00    -0.195 NA
ATOM      9  N   UNL     1       6.951  44.401  50.587  1.00  0.00    -0.193 NA
ATOM     10  C   UNL     1       4.783  45.715  51.803  1.00  0.00     0.147 A 
ATOM     11  C   UNL     1       5.757  43.821  50.777  1.00  0.00     0.165 A 
ATOM     12  C   UNL     1       4.648  44.398  51.361  1.00  0.00     0.082 A 
ATOM     13  N   UNL     1       5.384  42.551  50.432  1.00  0.00    -0.250 N 
ATOM     14  C   UNL     1       3.658  43.396  51.301  1.00  0.00     0.149 A 
ATOM     15  N   UNL     1       4.096  42.264  50.737  1.00  0.00    -0.179 NA
ATOM     16  C   UNL     1       6.200  41.553  49.790  1.00  0.00     0.176 C 
BRANCH  10  17
ATOM     17  N   UNL     1       3.764  46.480  52.397  1.00  0.00    -0.337 N 
ATOM     18  H   UNL     1       4.171  47.404  52.535  1.00  0.00     0.168 HD
BRANCH  17  19
ATOM     19  C   UNL     1       2.972  46.115  53.513  1.00  0.00     0.079 A 
ATOM     20  C   UNL     1       3.599  46.065  54.769  1.00  0.00     0.032 A 
ATOM     21  C   UNL     1       1.635  45.692  53.421  1.00  0.00     0.185 A 
ATOM     22  C   UNL     1       2.894  45.660  55.906  1.00  0.00     0.045 A 
ATOM     23  C   UNL     1       0.933  45.288  54.552  1.00  0.00     0.196 A 
ATOM     24  C   UNL     1       1.563  45.278  55.788  1.00  0.00     0.162 A 
ATOM     25  F   UNL     1       1.017  45.649  52.230  1.00  0.00    -0.201 F 
ATOM     26  F   UNL     1      -0.344  44.895  54.445  1.00  0.00    -0.200 F 
ATOM     27  F   UNL     1       0.894  44.888  56.882  1.00  0.00    -0.204 F 
ENDBRANCH  17  19
ENDBRANCH  10  17
ENDBRANCH   1   7
TORSDOF 6
ENDMDL
MODEL 13
REMARK VINA RESULT:    -8.384      3.418      6.277
REMARK INTER + INTRA:         -11.998
REMARK INTER:                 -11.555
REMARK INTRA:                  -0.443
REMARK UNBOUND:                -0.674
REMARK SMILES CCCCNc1nc(Nc2ccc(F)c(F)c2F)c2cnn(C)c2n1
REMARK SMILES IDX 5 1 4 3 3 4 2 5 1 6 6 7 7 8 25 9 8 10 24 11 19 12 22 13
REMARK SMILES IDX 20 14 21 15 23 16 9 17 10 19 11 20 17 21 12 22 15 23 13 24
REMARK SMILES IDX 18 25 16 26 14 27
REMARK H PARENT 5 2 9 18
ROOT
ATOM      1  N   UNL     1       5.665  46.698  54.976  1.00  0.00    -0.354 N 
ATOM      2  H   UNL     1       6.129  46.144  55.687  1.00  0.00     0.163 HD
ENDROOT
BRANCH   1   3
ATOM      3  C   UNL     1       6.485  47.059  53.834  1.00  0.00     0.116 C 
BRANCH   3   4
ATOM      4  C   UNL     1       7.971  46.887  54.165  1.00  0.00     0.021 C 
BRANCH   4   5
ATOM      5  C   UNL     1       8.929  47.547  53.167  1.00  0.00    -0.002 C 
ATOM      6  C   UNL     1       9.864  46.579  52.460  1.00  0.00     0.004 C 
ENDBRANCH   4   5
ENDBRANCH   3   4
ENDBRANCH   1   3
BRANCH   1   7
ATOM      7  C   UNL     1       4.498  46.009  54.663  1.00  0.00     0.226 A 
ATOM      8  N   UNL     1       4.542  45.345  53.492  1.00  0.00    -0.195 NA
ATOM      9  N   UNL     1       3.456  46.047  55.504  1.00  0.00    -0.193 NA
ATOM     10  C   UNL     1       3.462  44.640  53.071  1.00  0.00     0.147 A 
ATOM     11  C   UNL     1       2.414  45.318  55.078  1.00  0.00     0.165 A 
ATOM     12  C   UNL     1       2.342  44.599  53.901  1.00  0.00     0.082 A 
ATOM     13  N   UNL     1       1.217  45.126  55.711  1.00  0.00    -0.250 N 
ATOM     14  C   UNL     1       1.067  43.999  53.935  1.00  0.00     0.149 A 
ATOM     15  N   UNL     1       0.371  44.314  55.034  1.00  0.00    -0.179 NA
ATOM     16  C   UNL     1       0.811  45.674  56.979  1.00  0.00     0.176 C 
BRANCH  10  17
ATOM     17  N   UNL     1       3.591  43.956  51.849  1.00  0.00    -0.337 N 
ATOM     18  H   UNL     1       3.067  43.090  51.973  1.00  0.00     0.168 HD
BRANCH  17  19
ATOM     19  C   UNL     1       4.790  43.713  51.137  1.00  0.00     0.079 A 
ATOM     20  C   UNL     1       5.536  44.826  50.716  1.00  0.00     0.032 A 
ATOM     21  C   UNL     1       5.216  42.437  50.729  1.00  0.00     0.185 A 
ATOM     22  C   UNL     1       6.701  44.665  49.961  1.00  0.00     0.045 A 
ATOM     23  C   UNL     1       6.375  42.276  49.977  1.00  0.00     0.196 A 
ATOM     24  C   UNL     1       7.114  43.388  49.601  1.00  0.00     0.162 A 
ATOM     25  F   UNL     1       4.495  41.349  51.042  1.00  0.00    -0.201 F 
ATOM     26  F   UNL     1       6.769  41.050  49.605  1.00  0.00    -0.200 F 
ATOM     27  F   UNL     1       8.231  43.241  48.874  1.00  0.00    -0.204 F 
ENDBRANCH  17  19
ENDBRANCH  10  17
ENDBRANCH   1   7
TORSDOF 6
ENDMDL
MODEL 14
REMARK VINA RESULT:    -8.360      2.975      5.839
REMARK INTER + INTRA:         -11.967
REMARK INTER:                 -10.964
REMARK INTRA:                  -1.002
REMARK UNBOUND:                -0.674
REMARK SMILES CCCCNc1nc(Nc2ccc(F)c(F)c2F)c2cnn(C)c2n1
REMARK SMILES IDX 5 1 4 3 3 4 2 5 1 6 6 7 7 8 25 9 8 10 24 11 19 12 22 13
REMARK SMILES IDX 20 14 21 15 23 16 9 17 10 19 11 20 17 21 12 22 15 23 13 24
REMARK SMILES IDX 18 25 16 26 14 27
REMARK H PARENT 5 2 9 18
ROOT
ATOM      1  N   UNL     1       7.916  45.084  49.578  1.00  0.00    -0.354 N 
ATOM      2  H   UNL     1       8.735  45.619  49.311  1.00  0.00     0.163 HD
ENDROOT
BRANCH   1   3
ATOM      3  C   UNL     1       8.093  43.643  49.599  1.00  0.00     0.116 C 
BRANCH   3   4
ATOM      4  C   UNL     1       6.830  42.940  49.093  1.00  0.00     0.021 C 
BRANCH   4   5
ATOM      5  C   UNL     1       6.496  41.629  49.814  1.00  0.00    -0.002 C 
ATOM      6  C   UNL     1       5.128  41.607  50.477  1.00  0.00     0.004 C 
ENDBRANCH   4   5
ENDBRANCH   3   4
ENDBRANCH   1   3
BRANCH   1   7
ATOM      7  C   UNL     1       7.479  45.636  50.776  1.00  0.00     0.226 A 
ATOM      8  N   UNL     1       6.139  45.722  50.893  1.00  0.00    -0.195 NA
ATOM      9  N   UNL     1       8.373  46.028  51.695  1.00  0.00    -0.193 NA
ATOM     10  C   UNL     1       5.589  46.251  52.014  1.00  0.00     0.147 A 
ATOM     11  C   UNL     1       7.801  46.519  52.803  1.00  0.00     0.165 A 
ATOM     12  C   UNL     1       6.447  46.657  53.037  1.00  0.00     0.082 A 
ATOM     13  N   UNL     1       8.426  46.976  53.931  1.00  0.00    -0.250 N 
ATOM     14  C   UNL     1       6.368  47.189  54.340  1.00  0.00     0.149 A 
ATOM     15  N   UNL     1       7.569  47.388  54.895  1.00  0.00    -0.179 NA
ATOM     16  C   UNL     1       9.845  47.035  54.171  1.00  0.00     0.176 C 
BRANCH  10  17
ATOM     17  N   UNL     1       4.184  46.288  52.072  1.00  0.00    -0.337 N 
ATOM     18  H   UNL     1       3.959  47.192  52.487  1.00  0.00     0.168 HD
BRANCH  17  19
ATOM     19  C   UNL     1       3.331  45.281  52.584  1.00  0.00     0.079 A 
ATOM     20  C   UNL     1       2.919  44.266  51.705  1.00  0.00     0.032 A 
ATOM     21  C   UNL     1       2.784  45.299  53.878  1.00  0.00     0.185 A 
ATOM     22  C   UNL     1       2.033  43.270  52.125  1.00  0.00     0.045 A 
ATOM     23  C   UNL     1       1.902  44.308  54.297  1.00  0.00     0.196 A 
ATOM     24  C   UNL     1       1.535  43.296  53.421  1.00  0.00     0.162 A 
ATOM     25  F   UNL     1       3.088  46.291  54.730  1.00  0.00    -0.201 F 
ATOM     26  F   UNL     1       1.397  44.339  55.538  1.00  0.00    -0.200 F 
ATOM     27  F   UNL     1       0.684  42.339  53.816  1.00  0.00    -0.204 F 
ENDBRANCH  17  19
ENDBRANCH  10  17
ENDBRANCH   1   7
TORSDOF 6
ENDMDL
MODEL 15
REMARK VINA RESULT:    -8.230      2.686      6.603
REMARK INTER + INTRA:         -11.791
REMARK INTER:                 -11.228
REMARK INTRA:                  -0.562
REMARK UNBOUND:                -0.674
REMARK SMILES CCCCNc1nc(Nc2ccc(F)c(F)c2F)c2cnn(C)c2n1
REMARK SMILES IDX 5 1 4 3 3 4 2 5 1 6 6 7 7 8 25 9 8 10 24 11 19 12 22 13
REMARK SMILES IDX 20 14 21 15 23 16 9 17 10 19 11 20 17 21 12 22 15 23 13 24
REMARK SMILES IDX 18 25 16 26 14 27
REMARK H PARENT 5 2 9 18
ROOT
ATOM      1  N   UNL     1       8.175  46.132  50.626  1.00  0.00    -0.354 N 
ATOM      2  H   UNL     1       8.072  46.528  49.698  1.00  0.00     0.163 HD
ENDROOT
BRANCH   1   3
ATOM      3  C   UNL     1       8.520  47.077  51.672  1.00  0.00     0.116 C 
BRANCH   3   4
ATOM      4  C   UNL     1       9.891  46.742  52.267  1.00  0.00     0.021 C 
BRANCH   4   5
ATOM      5  C   UNL     1       9.939  46.740  53.800  1.00  0.00    -0.002 C 
ATOM      6  C   UNL     1       9.159  47.868  54.455  1.00  0.00     0.004 C 
ENDBRANCH   4   5
ENDBRANCH   3   4
ENDBRANCH   1   3
BRANCH   1   7
ATOM      7  C   UNL     1       7.012  45.404  50.856  1.00  0.00     0.226 A 
ATOM      8  N   UNL     1       6.080  46.058  51.575  1.00  0.00    -0.195 NA
ATOM      9  N   UNL     1       6.899  44.160  50.372  1.00  0.00    -0.193 NA
ATOM     10  C   UNL     1       4.904  45.451  51.873  1.00  0.00     0.147 A 
ATOM     11  C   UNL     1       5.716  43.595  50.655  1.00  0.00     0.165 A 
ATOM     12  C   UNL     1       4.688  44.164  51.381  1.00  0.00     0.082 A 
ATOM     13  N   UNL     1       5.275  42.354  50.286  1.00  0.00    -0.250 N 
ATOM     14  C   UNL     1       3.671  43.188  51.372  1.00  0.00     0.149 A 
ATOM     15  N   UNL     1       4.018  42.079  50.708  1.00  0.00    -0.179 NA
ATOM     16  C   UNL     1       5.994  41.375  49.512  1.00  0.00     0.176 C 
BRANCH  10  17
ATOM     17  N   UNL     1       3.972  46.205  52.609  1.00  0.00    -0.337 N 
ATOM     18  H   UNL     1       4.531  46.768  53.249  1.00  0.00     0.168 HD
BRANCH  17  19
ATOM     19  C   UNL     1       2.813  45.717  53.259  1.00  0.00     0.079 A 
ATOM     20  C   UNL     1       1.595  45.791  52.564  1.00  0.00     0.032 A 
ATOM     21  C   UNL     1       2.791  45.272  54.592  1.00  0.00     0.185 A 
ATOM     22  C   UNL     1       0.401  45.379  53.164  1.00  0.00     0.045 A 
ATOM     23  C   UNL     1       1.603  44.862  55.190  1.00  0.00     0.196 A 
ATOM     24  C   UNL     1       0.416  44.912  54.473  1.00  0.00     0.162 A 
ATOM     25  F   UNL     1       3.917  45.256  55.321  1.00  0.00    -0.201 F 
ATOM     26  F   UNL     1       1.603  44.434  56.460  1.00  0.00    -0.200 F 
ATOM     27  F   UNL     1      -0.733  44.522  55.042  1.00  0.00    -0.204 F 
ENDBRANCH  17  19
ENDBRANCH  10  17
ENDBRANCH   1   7
TORSDOF 6
ENDMDL
MODEL 16
REMARK VINA RESULT:    -8.180      1.743      4.791
REMARK INTER + INTRA:         -11.723
REMARK INTER:                 -11.130
REMARK INTRA:                  -0.594
REMARK UNBOUND:                -0.674
REMARK SMILES CCCCNc1nc(Nc2ccc(F)c(F)c2F)c2cnn(C)c2n1
REMARK SMILES IDX 5 1 4 3 3 4 2 5 1 6 6 7 7 8 25 9 8 10 24 11 19 12 22 13
REMARK SMILES IDX 20 14 21 15 23 16 9 17 10 19 11 20 17 21 12 22 15 23 13 24
REMARK SMILES IDX 18 25 16 26 14 27
REMARK H PARENT 5 2 9 18
ROOT
ATOM      1  N   UNL     1       3.643  44.182  53.717  1.00  0.00    -0.354 N 
ATOM      2  H   UNL     1       3.843  43.369  54.289  1.00  0.00     0.163 HD
ENDROOT
BRANCH   1   3
ATOM      3  C   UNL     1       3.790  45.463  54.382  1.00  0.00     0.116 C 
BRANCH   3   4
ATOM      4  C   UNL     1       2.705  45.642  55.449  1.00  0.00     0.021 C 
BRANCH   4   5
ATOM      5  C   UNL     1       1.282  45.328  54.972  1.00  0.00    -0.002 C 
ATOM      6  C   UNL     1       0.290  45.059  56.092  1.00  0.00     0.004 C 
ENDBRANCH   4   5
ENDBRANCH   3   4
ENDBRANCH   1   3
BRANCH   1   7
ATOM      7  C   UNL     1       4.407  44.030  52.566  1.00  0.00     0.226 A 
ATOM      8  N   UNL     1       5.300  45.017  52.357  1.00  0.00    -0.195 NA
ATOM      9  N   UNL     1       4.219  42.963  51.776  1.00  0.00    -0.193 NA
ATOM     10  C   UNL     1       6.100  44.987  51.262  1.00  0.00     0.147 A 
ATOM     11  C   UNL     1       5.043  42.944  50.719  1.00  0.00     0.165 A 
ATOM     12  C   UNL     1       5.993  43.895  50.401  1.00  0.00     0.082 A 
ATOM     13  N   UNL     1       5.126  41.988  49.745  1.00  0.00    -0.250 N 
ATOM     14  C   UNL     1       6.601  43.404  49.228  1.00  0.00     0.149 A 
ATOM     15  N   UNL     1       6.080  42.242  48.818  1.00  0.00    -0.179 NA
ATOM     16  C   UNL     1       4.336  40.789  49.639  1.00  0.00     0.176 C 
BRANCH  10  17
ATOM     17  N   UNL     1       7.021  46.042  51.123  1.00  0.00    -0.337 N 
ATOM     18  H   UNL     1       7.472  45.883  50.222  1.00  0.00     0.168 HD
BRANCH  17  19
ATOM     19  C   UNL     1       7.967  46.472  52.083  1.00  0.00     0.079 A 
ATOM     20  C   UNL     1       9.299  46.057  51.919  1.00  0.00     0.032 A 
ATOM     21  C   UNL     1       7.635  47.188  53.246  1.00  0.00     0.185 A 
ATOM     22  C   UNL     1      10.277  46.396  52.858  1.00  0.00     0.045 A 
ATOM     23  C   UNL     1       8.608  47.526  54.181  1.00  0.00     0.196 A 
ATOM     24  C   UNL     1       9.923  47.134  53.981  1.00  0.00     0.162 A 
ATOM     25  F   UNL     1       6.362  47.541  53.485  1.00  0.00    -0.201 F 
ATOM     26  F   UNL     1       8.272  48.217  55.280  1.00  0.00    -0.200 F 
ATOM     27  F   UNL     1      10.866  47.454  54.878  1.00  0.00    -0.204 F 
ENDBRANCH  17  19
ENDBRANCH  10  17
ENDBRANCH   1   7
TORSDOF 6
ENDMDL
MODEL 17
REMARK VINA RESULT:    -8.166      3.332      5.592
REMARK INTER + INTRA:         -11.704
REMARK INTER:                 -10.608
REMARK INTRA:                  -1.096
REMARK UNBOUND:                -0.674
REMARK SMILES CCCCNc1nc(Nc2ccc(F)c(F)c2F)c2cnn(C)c2n1
REMARK SMILES IDX 5 1 4 3 3 4 2 5 1 6 6 7 7 8 25 9 8 10 24 11 19 12 22 13
REMARK SMILES IDX 20 14 21 15 23 16 9 17 10 19 11 20 17 21 12 22 15 23 13 24
REMARK SMILES IDX 18 25 16 26 14 27
REMARK H PARENT 5 2 9 18
ROOT
ATOM      1  N   UNL     1       6.604  43.351  49.273  1.00  0.00    -0.354 N 
ATOM      2  H   UNL     1       7.389  43.437  48.637  1.00  0.00     0.163 HD
ENDROOT
BRANCH   1   3
ATOM      3  C   UNL     1       6.470  42.063  49.927  1.00  0.00     0.116 C 
BRANCH   3   4
ATOM      4  C   UNL     1       5.420  41.206  49.214  1.00  0.00     0.021 C 
BRANCH   4   5
ATOM      5  C   UNL     1       4.066  41.129  49.928  1.00  0.00    -0.002 C 
ATOM      6  C   UNL     1       4.030  41.817  51.283  1.00  0.00     0.004 C 
ENDBRANCH   4   5
ENDBRANCH   3   4
ENDBRANCH   1   3
BRANCH   1   7
ATOM      7  C   UNL     1       6.698  44.438  50.136  1.00  0.00     0.226 A 
ATOM      8  N   UNL     1       5.512  44.921  50.553  1.00  0.00    -0.195 NA
ATOM      9  N   UNL     1       7.903  44.911  50.482  1.00  0.00    -0.193 NA
ATOM     10  C   UNL     1       5.470  45.986  51.392  1.00  0.00     0.147 A 
ATOM     11  C   UNL     1       7.833  45.943  51.335  1.00  0.00     0.165 A 
ATOM     12  C   UNL     1       6.681  46.523  51.829  1.00  0.00     0.082 A 
ATOM     13  N   UNL     1       8.872  46.631  51.899  1.00  0.00    -0.250 N 
ATOM     14  C   UNL     1       7.142  47.537  52.693  1.00  0.00     0.149 A 
ATOM     15  N   UNL     1       8.477  47.613  52.743  1.00  0.00    -0.179 NA
ATOM     16  C   UNL     1      10.278  46.397  51.692  1.00  0.00     0.176 C 
BRANCH  10  17
ATOM     17  N   UNL     1       4.196  46.420  51.800  1.00  0.00    -0.337 N 
ATOM     18  H   UNL     1       4.259  47.437  51.828  1.00  0.00     0.168 HD
BRANCH  17  19
ATOM     19  C   UNL     1       3.450  45.938  52.903  1.00  0.00     0.079 A 
ATOM     20  C   UNL     1       3.859  46.330  54.188  1.00  0.00     0.032 A 
ATOM     21  C   UNL     1       2.404  45.007  52.795  1.00  0.00     0.185 A 
ATOM     22  C   UNL     1       3.205  45.849  55.326  1.00  0.00     0.045 A 
ATOM     23  C   UNL     1       1.752  44.528  53.927  1.00  0.00     0.196 A 
ATOM     24  C   UNL     1       2.152  44.954  55.185  1.00  0.00     0.162 A 
ATOM     25  F   UNL     1       2.028  44.544  51.592  1.00  0.00    -0.201 F 
ATOM     26  F   UNL     1       0.751  43.645  53.803  1.00  0.00    -0.200 F 
ATOM     27  F   UNL     1       1.531  44.495  56.281  1.00  0.00    -0.204 F 
ENDBRANCH  17  19
ENDBRANCH  10  17
ENDBRANCH   1   7
TORSDOF 6
ENDMDL
MODEL 18
REMARK VINA RESULT:    -8.092      3.110      7.356
REMARK INTER + INTRA:         -11.604
REMARK INTER:                 -10.994
REMARK INTRA:                  -0.610
REMARK UNBOUND:                -0.674
REMARK SMILES CCCCNc1nc(Nc2ccc(F)c(F)c2F)c2cnn(C)c2n1
REMARK SMILES IDX 5 1 4 3 3 4 2 5 1 6 6 7 7 8 25 9 8 10 24 11 19 12 22 13
REMARK SMILES IDX 20 14 21 15 23 16 9 17 10 19 11 20 17 21 12 22 15 23 13 24
REMARK SMILES IDX 18 25 16 26 14 27
REMARK H PARENT 5 2 9 18
ROOT
ATOM      1  N   UNL     1       9.342  47.719  52.944  1.00  0.00    -0.354 N 
ATOM      2  H   UNL     1       9.063  48.693  52.992  1.00  0.00     0.163 HD
ENDROOT
BRANCH   1   3
ATOM      3  C   UNL     1       9.865  47.159  54.177  1.00  0.00     0.116 C 
BRANCH   3   4
ATOM      4  C   UNL     1       9.493  48.046  55.369  1.00  0.00     0.021 C 
BRANCH   4   5
ATOM      5  C   UNL     1      10.619  48.249  56.390  1.00  0.00    -0.002 C 
ATOM      6  C   UNL     1      11.555  47.061  56.538  1.00  0.00     0.004 C 
ENDBRANCH   4   5
ENDBRANCH   3   4
ENDBRANCH   1   3
BRANCH   1   7
ATOM      7  C   UNL     1       8.250  47.041  52.412  1.00  0.00     0.226 A 
ATOM      8  N   UNL     1       7.060  47.425  52.911  1.00  0.00    -0.195 NA
ATOM      9  N   UNL     1       8.443  46.095  51.482  1.00  0.00    -0.193 NA
ATOM     10  C   UNL     1       5.919  46.833  52.477  1.00  0.00     0.147 A 
ATOM     11  C   UNL     1       7.297  45.548  51.050  1.00  0.00     0.165 A 
ATOM     12  C   UNL     1       6.024  45.858  51.485  1.00  0.00     0.082 A 
ATOM     13  N   UNL     1       7.144  44.584  50.092  1.00  0.00    -0.250 N 
ATOM     14  C   UNL     1       5.179  45.036  50.712  1.00  0.00     0.149 A 
ATOM     15  N   UNL     1       5.851  44.253  49.859  1.00  0.00    -0.179 NA
ATOM     16  C   UNL     1       8.188  43.937  49.339  1.00  0.00     0.176 C 
BRANCH  10  17
ATOM     17  N   UNL     1       4.713  47.302  53.029  1.00  0.00    -0.337 N 
ATOM     18  H   UNL     1       4.991  47.880  53.821  1.00  0.00     0.168 HD
BRANCH  17  19
ATOM     19  C   UNL     1       3.574  46.528  53.354  1.00  0.00     0.079 A 
ATOM     20  C   UNL     1       2.490  46.555  52.461  1.00  0.00     0.032 A 
ATOM     21  C   UNL     1       3.419  45.831  54.564  1.00  0.00     0.185 A 
ATOM     22  C   UNL     1       1.311  45.860  52.743  1.00  0.00     0.045 A 
ATOM     23  C   UNL     1       2.245  45.140  54.846  1.00  0.00     0.196 A 
ATOM     24  C   UNL     1       1.200  45.152  53.934  1.00  0.00     0.162 A 
ATOM     25  F   UNL     1       4.397  45.840  55.483  1.00  0.00    -0.201 F 
ATOM     26  F   UNL     1       2.119  44.474  56.003  1.00  0.00    -0.200 F 
ATOM     27  F   UNL     1       0.065  44.491  54.199  1.00  0.00    -0.204 F 
ENDBRANCH  17  19
ENDBRANCH  10  17
ENDBRANCH   1   7
TORSDOF 6
ENDMDL
MODEL 19
REMARK VINA RESULT:    -8.065      3.384      6.394
REMARK INTER + INTRA:         -11.567
REMARK INTER:                 -10.558
REMARK INTRA:                  -1.009
REMARK UNBOUND:                -0.674
REMARK SMILES CCCCNc1nc(Nc2ccc(F)c(F)c2F)c2cnn(C)c2n1
REMARK SMILES IDX 5 1 4 3 3 4 2 5 1 6 6 7 7 8 25 9 8 10 24 11 19 12 22 13
REMARK SMILES IDX 20 14 21 15 23 16 9 17 10 19 11 20 17 21 12 22 15 23 13 24
REMARK SMILES IDX 18 25 16 26 14 27
REMARK H PARENT 5 2 9 18
ROOT
ATOM      1  N   UNL     1       4.289  45.517  55.791  1.00  0.00    -0.354 N 
ATOM      2  H   UNL     1       4.164  45.197  56.745  1.00  0.00     0.163 HD
ENDROOT
BRANCH   1   3
ATOM      3  C   UNL     1       5.514  45.083  55.144  1.00  0.00     0.116 C 
BRANCH   3   4
ATOM      4  C   UNL     1       6.270  46.284  54.566  1.00  0.00     0.021 C 
BRANCH   4   5
ATOM      5  C   UNL     1       7.182  45.953  53.380  1.00  0.00    -0.002 C 
ATOM      6  C   UNL     1       7.333  47.079  52.370  1.00  0.00     0.004 C 
ENDBRANCH   4   5
ENDBRANCH   3   4
ENDBRANCH   1   3
BRANCH   1   7
ATOM      7  C   UNL     1       3.120  45.171  55.121  1.00  0.00     0.226 A 
ATOM      8  N   UNL     1       3.290  44.898  53.813  1.00  0.00    -0.195 NA
ATOM      9  N   UNL     1       1.958  45.132  55.787  1.00  0.00    -0.193 NA
ATOM     10  C   UNL     1       2.223  44.555  53.048  1.00  0.00     0.147 A 
ATOM     11  C   UNL     1       0.927  44.762  55.014  1.00  0.00     0.165 A 
ATOM     12  C   UNL     1       0.977  44.459  53.668  1.00  0.00     0.082 A 
ATOM     13  N   UNL     1      -0.379  44.598  55.389  1.00  0.00    -0.250 N 
ATOM     14  C   UNL     1      -0.348  44.110  53.337  1.00  0.00     0.149 A 
ATOM     15  N   UNL     1      -1.185  44.191  54.379  1.00  0.00    -0.179 NA
ATOM     16  C   UNL     1      -0.933  44.795  56.703  1.00  0.00     0.176 C 
BRANCH  10  17
ATOM     17  N   UNL     1       2.481  44.264  51.697  1.00  0.00    -0.337 N 
ATOM     18  H   UNL     1       1.625  43.832  51.350  1.00  0.00     0.168 HD
BRANCH  17  19
ATOM     19  C   UNL     1       3.618  43.601  51.176  1.00  0.00     0.079 A 
ATOM     20  C   UNL     1       3.609  42.196  51.170  1.00  0.00     0.032 A 
ATOM     21  C   UNL     1       4.793  44.259  50.773  1.00  0.00     0.185 A 
ATOM     22  C   UNL     1       4.719  41.475  50.722  1.00  0.00     0.045 A 
ATOM     23  C   UNL     1       5.898  43.540  50.328  1.00  0.00     0.196 A 
ATOM     24  C   UNL     1       5.855  42.154  50.299  1.00  0.00     0.162 A 
ATOM     25  F   UNL     1       4.877  45.597  50.834  1.00  0.00    -0.201 F 
ATOM     26  F   UNL     1       7.008  44.186  49.941  1.00  0.00    -0.200 F 
ATOM     27  F   UNL     1       6.916  41.455  49.874  1.00  0.00    -0.204 F 
ENDBRANCH  17  19
ENDBRANCH  10  17
ENDBRANCH   1   7
TORSDOF 6
ENDMDL
