MODEL 1
REMARK VINA RESULT:    -9.032      0.000      0.000
REMARK INTER + INTRA:         -12.872
REMARK INTER:                 -12.200
REMARK INTRA:                  -0.672
REMARK UNBOUND:                -0.672
REMARK SMILES Cc1ccc(Nc2nc(NCC[NH+](C)C)nc3nccnc23)c(C)c1
REMARK SMILES IDX 10 1 11 3 12 4 13 5 14 6 15 7 9 9 8 10 16 11 7 12 17 13
REMARK SMILES IDX 22 14 18 15 21 16 19 17 20 18 6 19 5 21 4 22 23 23 3 24
REMARK SMILES IDX 25 25 2 26 24 27 1 28
REMARK H PARENT 10 2 13 8 6 20
ROOT
ATOM      1  N   UNL     1       4.294  47.075  54.968  1.00  0.00    -0.348 N 
ATOM      2  H   UNL     1       3.674  47.654  54.404  1.00  0.00     0.163 HD
ENDROOT
BRANCH   1   3
ATOM      3  C   UNL     1       3.743  45.875  55.566  1.00  0.00     0.177 C 
BRANCH   3   4
ATOM      4  C   UNL     1       2.319  45.603  55.029  1.00  0.00     0.283 C 
BRANCH   4   5
ATOM      5  N   UNL     1       2.328  45.064  53.607  1.00  0.00    -0.338 N 
ATOM      6  C   UNL     1       1.757  46.066  52.641  1.00  0.00     0.332 C 
ATOM      7  C   UNL     1       1.588  43.752  53.510  1.00  0.00     0.332 C 
ATOM      8  H   UNL     1       3.302  44.896  53.327  1.00  0.00     0.347 HD
ENDBRANCH   4   5
ENDBRANCH   3   4
ENDBRANCH   1   3
BRANCH   1   9
ATOM      9  C   UNL     1       5.465  46.918  54.241  1.00  0.00     0.227 A 
ATOM     10  N   UNL     1       5.414  46.462  52.990  1.00  0.00    -0.193 NA
ATOM     11  N   UNL     1       6.583  47.243  54.874  1.00  0.00    -0.191 NA
ATOM     12  C   UNL     1       6.594  46.305  52.349  1.00  0.00     0.164 A 
ATOM     13  C   UNL     1       7.738  47.063  54.243  1.00  0.00     0.185 A 
ATOM     14  C   UNL     1       7.826  46.572  52.936  1.00  0.00     0.150 A 
ATOM     15  N   UNL     1       8.860  47.380  54.899  1.00  0.00    -0.233 NA
ATOM     16  N   UNL     1       9.013  46.402  52.279  1.00  0.00    -0.247 NA
ATOM     17  C   UNL     1      10.042  47.204  54.265  1.00  0.00     0.133 A 
ATOM     18  C   UNL     1      10.120  46.723  52.976  1.00  0.00     0.132 A 
BRANCH  12  19
ATOM     19  N   UNL     1       6.597  45.763  51.026  1.00  0.00    -0.338 N 
ATOM     20  H   UNL     1       6.309  46.513  50.387  1.00  0.00     0.168 HD
BRANCH  19  21
ATOM     21  C   UNL     1       5.991  44.548  50.635  1.00  0.00     0.043 A 
ATOM     22  C   UNL     1       4.748  44.241  51.208  1.00  0.00     0.026 A 
ATOM     23  C   UNL     1       6.635  43.575  49.845  1.00  0.00    -0.027 A 
ATOM     24  C   UNL     1       4.107  43.030  50.942  1.00  0.00     0.005 A 
ATOM     25  C   UNL     1       5.972  42.363  49.573  1.00  0.00     0.009 A 
ATOM     26  C   UNL     1       4.705  42.088  50.104  1.00  0.00    -0.051 A 
ATOM     27  C   UNL     1       8.016  43.776  49.282  1.00  0.00     0.046 C 
ATOM     28  C   UNL     1       4.050  40.760  49.860  1.00  0.00     0.044 C 
ENDBRANCH  19  21
ENDBRANCH  12  19
ENDBRANCH   1   9
TORSDOF 6
ENDMDL
MODEL 2
REMARK VINA RESULT:    -8.674      1.949      5.514
REMARK INTER + INTRA:         -12.389
REMARK INTER:                 -11.903
REMARK INTRA:                  -0.486
REMARK UNBOUND:                -0.672
REMARK SMILES Cc1ccc(Nc2nc(NCC[NH+](C)C)nc3nccnc23)c(C)c1
REMARK SMILES IDX 10 1 11 3 12 4 13 5 14 6 15 7 9 9 8 10 16 11 7 12 17 13
REMARK SMILES IDX 22 14 18 15 21 16 19 17 20 18 6 19 5 21 4 22 23 23 3 24
REMARK SMILES IDX 25 25 2 26 24 27 1 28
REMARK H PARENT 10 2 13 8 6 20
ROOT
ATOM      1  N   UNL     1       2.204  43.200  53.485  1.00  0.00    -0.348 N 
ATOM      2  H   UNL     1       2.557  42.702  54.301  1.00  0.00     0.163 HD
ENDROOT
BRANCH   1   3
ATOM      3  C   UNL     1       1.363  44.359  53.710  1.00  0.00     0.177 C 
BRANCH   3   4
ATOM      4  C   UNL     1       1.560  44.905  55.143  1.00  0.00     0.283 C 
BRANCH   4   5
ATOM      5  N   UNL     1       0.324  45.620  55.667  1.00  0.00    -0.338 N 
ATOM      6  C   UNL     1       0.381  45.783  57.161  1.00  0.00     0.332 C 
ATOM      7  C   UNL     1      -0.941  44.905  55.258  1.00  0.00     0.332 C 
ATOM      8  H   UNL     1       0.296  46.564  55.262  1.00  0.00     0.347 HD
ENDBRANCH   4   5
ENDBRANCH   3   4
ENDBRANCH   1   3
BRANCH   1   9
ATOM      9  C   UNL     1       3.278  43.378  52.628  1.00  0.00     0.227 A 
ATOM     10  N   UNL     1       3.911  44.550  52.589  1.00  0.00    -0.193 NA
ATOM     11  N   UNL     1       3.603  42.329  51.885  1.00  0.00    -0.191 NA
ATOM     12  C   UNL     1       4.931  44.665  51.710  1.00  0.00     0.164 A 
ATOM     13  C   UNL     1       4.592  42.460  51.008  1.00  0.00     0.185 A 
ATOM     14  C   UNL     1       5.322  43.643  50.852  1.00  0.00     0.150 A 
ATOM     15  N   UNL     1       4.898  41.399  50.254  1.00  0.00    -0.233 NA
ATOM     16  N   UNL     1       6.352  43.774  49.963  1.00  0.00    -0.247 NA
ATOM     17  C   UNL     1       5.907  41.519  49.360  1.00  0.00     0.133 A 
ATOM     18  C   UNL     1       6.624  42.687  49.215  1.00  0.00     0.132 A 
BRANCH  12  19
ATOM     19  N   UNL     1       5.603  45.922  51.588  1.00  0.00    -0.338 N 
ATOM     20  H   UNL     1       5.816  46.061  50.594  1.00  0.00     0.168 HD
BRANCH  19  21
ATOM     21  C   UNL     1       6.699  46.346  52.373  1.00  0.00     0.043 A 
ATOM     22  C   UNL     1       7.981  46.123  51.852  1.00  0.00     0.026 A 
ATOM     23  C   UNL     1       6.574  46.820  53.694  1.00  0.00    -0.027 A 
ATOM     24  C   UNL     1       9.127  46.439  52.586  1.00  0.00     0.005 A 
ATOM     25  C   UNL     1       7.736  47.148  54.418  1.00  0.00     0.009 A 
ATOM     26  C   UNL     1       9.013  46.975  53.869  1.00  0.00    -0.051 A 
ATOM     27  C   UNL     1       5.240  46.985  54.371  1.00  0.00     0.046 C 
ATOM     28  C   UNL     1      10.238  47.262  54.686  1.00  0.00     0.044 C 
ENDBRANCH  19  21
ENDBRANCH  12  19
ENDBRANCH   1   9
TORSDOF 6
ENDMDL
MODEL 3
REMARK VINA RESULT:    -8.667      1.977      5.485
REMARK INTER + INTRA:         -12.379
REMARK INTER:                 -11.731
REMARK INTRA:                  -0.648
REMARK UNBOUND:                -0.672
REMARK SMILES Cc1ccc(Nc2nc(NCC[NH+](C)C)nc3nccnc23)c(C)c1
REMARK SMILES IDX 10 1 11 3 12 4 13 5 14 6 15 7 9 9 8 10 16 11 7 12 17 13
REMARK SMILES IDX 22 14 18 15 21 16 19 17 20 18 6 19 5 21 4 22 23 23 3 24
REMARK SMILES IDX 25 25 2 26 24 27 1 28
REMARK H PARENT 10 2 13 8 6 20
ROOT
ATOM      1  N   UNL     1       2.363  42.456  53.110  1.00  0.00    -0.348 N 
ATOM      2  H   UNL     1       2.660  42.575  54.076  1.00  0.00     0.163 HD
ENDROOT
BRANCH   1   3
ATOM      3  C   UNL     1       1.056  42.960  52.736  1.00  0.00     0.177 C 
BRANCH   3   4
ATOM      4  C   UNL     1       0.366  43.635  53.944  1.00  0.00     0.283 C 
BRANCH   4   5
ATOM      5  N   UNL     1       0.526  45.148  53.933  1.00  0.00    -0.338 N 
ATOM      6  C   UNL     1       0.778  45.658  52.541  1.00  0.00     0.332 C 
ATOM      7  C   UNL     1       1.623  45.593  54.870  1.00  0.00     0.332 C 
ATOM      8  H   UNL     1      -0.353  45.571  54.255  1.00  0.00     0.347 HD
ENDBRANCH   4   5
ENDBRANCH   3   4
ENDBRANCH   1   3
BRANCH   1   9
ATOM      9  C   UNL     1       3.425  42.852  52.312  1.00  0.00     0.227 A 
ATOM     10  N   UNL     1       3.892  44.098  52.396  1.00  0.00    -0.193 NA
ATOM     11  N   UNL     1       3.909  41.926  51.496  1.00  0.00    -0.191 NA
ATOM     12  C   UNL     1       4.910  44.426  51.569  1.00  0.00     0.164 A 
ATOM     13  C   UNL     1       4.894  42.266  50.672  1.00  0.00     0.185 A 
ATOM     14  C   UNL     1       5.459  43.545  50.644  1.00  0.00     0.150 A 
ATOM     15  N   UNL     1       5.362  41.327  49.843  1.00  0.00    -0.233 NA
ATOM     16  N   UNL     1       6.484  43.891  49.809  1.00  0.00    -0.247 NA
ATOM     17  C   UNL     1       6.367  41.660  49.001  1.00  0.00     0.133 A 
ATOM     18  C   UNL     1       6.922  42.922  48.982  1.00  0.00     0.132 A 
BRANCH  12  19
ATOM     19  N   UNL     1       5.406  45.767  51.580  1.00  0.00    -0.338 N 
ATOM     20  H   UNL     1       5.480  46.074  50.604  1.00  0.00     0.168 HD
BRANCH  19  21
ATOM     21  C   UNL     1       6.529  46.220  52.309  1.00  0.00     0.043 A 
ATOM     22  C   UNL     1       7.781  46.108  51.687  1.00  0.00     0.026 A 
ATOM     23  C   UNL     1       6.473  46.617  53.659  1.00  0.00    -0.027 A 
ATOM     24  C   UNL     1       8.956  46.459  52.354  1.00  0.00     0.005 A 
ATOM     25  C   UNL     1       7.663  46.983  54.317  1.00  0.00     0.009 A 
ATOM     26  C   UNL     1       8.904  46.921  53.670  1.00  0.00    -0.051 A 
ATOM     27  C   UNL     1       5.185  46.660  54.436  1.00  0.00     0.046 C 
ATOM     28  C   UNL     1      10.167  47.245  54.413  1.00  0.00     0.044 C 
ENDBRANCH  19  21
ENDBRANCH  12  19
ENDBRANCH   1   9
TORSDOF 6
ENDMDL
MODEL 4
REMARK VINA RESULT:    -8.647      1.851      5.318
REMARK INTER + INTRA:         -12.352
REMARK INTER:                 -11.673
REMARK INTRA:                  -0.678
REMARK UNBOUND:                -0.672
REMARK SMILES Cc1ccc(Nc2nc(NCC[NH+](C)C)nc3nccnc23)c(C)c1
REMARK SMILES IDX 10 1 11 3 12 4 13 5 14 6 15 7 9 9 8 10 16 11 7 12 17 13
REMARK SMILES IDX 22 14 18 15 21 16 19 17 20 18 6 19 5 21 4 22 23 23 3 24
REMARK SMILES IDX 25 25 2 26 24 27 1 28
REMARK H PARENT 10 2 13 8 6 20
ROOT
ATOM      1  N   UNL     1       2.858  43.742  53.570  1.00  0.00    -0.348 N 
ATOM      2  H   UNL     1       2.968  42.888  54.114  1.00  0.00     0.163 HD
ENDROOT
BRANCH   1   3
ATOM      3  C   UNL     1       2.645  44.981  54.291  1.00  0.00     0.177 C 
BRANCH   3   4
ATOM      4  C   UNL     1       1.300  45.626  53.882  1.00  0.00     0.283 C 
BRANCH   4   5
ATOM      5  N   UNL     1       0.233  45.473  54.955  1.00  0.00    -0.338 N 
ATOM      6  C   UNL     1       0.851  45.300  56.316  1.00  0.00     0.332 C 
ATOM      7  C   UNL     1      -0.700  44.327  54.645  1.00  0.00     0.332 C 
ATOM      8  H   UNL     1      -0.326  46.334  54.984  1.00  0.00     0.347 HD
ENDBRANCH   4   5
ENDBRANCH   3   4
ENDBRANCH   1   3
BRANCH   1   9
ATOM      9  C   UNL     1       3.873  43.749  52.625  1.00  0.00     0.227 A 
ATOM     10  N   UNL     1       4.726  44.771  52.572  1.00  0.00    -0.193 NA
ATOM     11  N   UNL     1       3.914  42.699  51.817  1.00  0.00    -0.191 NA
ATOM     12  C   UNL     1       5.673  44.728  51.609  1.00  0.00     0.164 A 
ATOM     13  C   UNL     1       4.834  42.678  50.858  1.00  0.00     0.185 A 
ATOM     14  C   UNL     1       5.775  43.697  50.681  1.00  0.00     0.150 A 
ATOM     15  N   UNL     1       4.853  41.620  50.040  1.00  0.00    -0.233 NA
ATOM     16  N   UNL     1       6.733  43.668  49.707  1.00  0.00    -0.247 NA
ATOM     17  C   UNL     1       5.788  41.586  49.063  1.00  0.00     0.133 A 
ATOM     18  C   UNL     1       6.715  42.592  48.896  1.00  0.00     0.132 A 
BRANCH  12  19
ATOM     19  N   UNL     1       6.575  45.829  51.474  1.00  0.00    -0.338 N 
ATOM     20  H   UNL     1       6.984  45.777  50.534  1.00  0.00     0.168 HD
BRANCH  19  21
ATOM     21  C   UNL     1       7.573  46.191  52.407  1.00  0.00     0.043 A 
ATOM     22  C   UNL     1       7.142  46.779  53.605  1.00  0.00     0.026 A 
ATOM     23  C   UNL     1       8.953  46.144  52.130  1.00  0.00    -0.027 A 
ATOM     24  C   UNL     1       8.056  47.239  54.556  1.00  0.00     0.005 A 
ATOM     25  C   UNL     1       9.864  46.598  53.102  1.00  0.00     0.009 A 
ATOM     26  C   UNL     1       9.427  47.133  54.321  1.00  0.00    -0.051 A 
ATOM     27  C   UNL     1       9.498  45.632  50.824  1.00  0.00     0.046 C 
ATOM     28  C   UNL     1      10.414  47.678  55.311  1.00  0.00     0.044 C 
ENDBRANCH  19  21
ENDBRANCH  12  19
ENDBRANCH   1   9
TORSDOF 6
ENDMDL
MODEL 5
REMARK VINA RESULT:    -8.642      2.323      6.604
REMARK INTER + INTRA:         -12.345
REMARK INTER:                 -11.614
REMARK INTRA:                  -0.732
REMARK UNBOUND:                -0.672
REMARK SMILES Cc1ccc(Nc2nc(NCC[NH+](C)C)nc3nccnc23)c(C)c1
REMARK SMILES IDX 10 1 11 3 12 4 13 5 14 6 15 7 9 9 8 10 16 11 7 12 17 13
REMARK SMILES IDX 22 14 18 15 21 16 19 17 20 18 6 19 5 21 4 22 23 23 3 24
REMARK SMILES IDX 25 25 2 26 24 27 1 28
REMARK H PARENT 10 2 13 8 6 20
ROOT
ATOM      1  N   UNL     1       6.212  41.899  50.039  1.00  0.00    -0.348 N 
ATOM      2  H   UNL     1       6.392  41.337  50.869  1.00  0.00     0.163 HD
ENDROOT
BRANCH   1   3
ATOM      3  C   UNL     1       5.421  41.306  48.979  1.00  0.00     0.177 C 
BRANCH   3   4
ATOM      4  C   UNL     1       5.801  41.915  47.609  1.00  0.00     0.283 C 
BRANCH   4   5
ATOM      5  N   UNL     1       5.183  41.156  46.445  1.00  0.00    -0.338 N 
ATOM      6  C   UNL     1       5.095  42.021  45.217  1.00  0.00     0.332 C 
ATOM      7  C   UNL     1       3.825  40.605  46.805  1.00  0.00     0.332 C 
ATOM      8  H   UNL     1       5.792  40.363  46.212  1.00  0.00     0.347 HD
ENDBRANCH   4   5
ENDBRANCH   3   4
ENDBRANCH   1   3
BRANCH   1   9
ATOM      9  C   UNL     1       5.810  43.150  50.480  1.00  0.00     0.227 A 
ATOM     10  N   UNL     1       6.694  44.145  50.555  1.00  0.00    -0.193 NA
ATOM     11  N   UNL     1       4.530  43.261  50.807  1.00  0.00    -0.191 NA
ATOM     12  C   UNL     1       6.242  45.330  51.020  1.00  0.00     0.164 A 
ATOM     13  C   UNL     1       4.102  44.424  51.286  1.00  0.00     0.185 A 
ATOM     14  C   UNL     1       4.931  45.540  51.435  1.00  0.00     0.150 A 
ATOM     15  N   UNL     1       2.812  44.518  51.627  1.00  0.00    -0.233 NA
ATOM     16  N   UNL     1       4.487  46.743  51.910  1.00  0.00    -0.247 NA
ATOM     17  C   UNL     1       2.363  45.698  52.111  1.00  0.00     0.133 A 
ATOM     18  C   UNL     1       3.185  46.795  52.252  1.00  0.00     0.132 A 
BRANCH  12  19
ATOM     19  N   UNL     1       7.164  46.411  51.175  1.00  0.00    -0.338 N 
ATOM     20  H   UNL     1       7.689  46.494  50.297  1.00  0.00     0.168 HD
BRANCH  19  21
ATOM     21  C   UNL     1       8.038  46.594  52.270  1.00  0.00     0.043 A 
ATOM     22  C   UNL     1       7.537  47.296  53.376  1.00  0.00     0.026 A 
ATOM     23  C   UNL     1       9.406  46.259  52.239  1.00  0.00    -0.027 A 
ATOM     24  C   UNL     1       8.347  47.592  54.474  1.00  0.00     0.005 A 
ATOM     25  C   UNL     1      10.209  46.550  53.359  1.00  0.00     0.009 A 
ATOM     26  C   UNL     1       9.687  47.202  54.484  1.00  0.00    -0.051 A 
ATOM     27  C   UNL     1      10.051  45.604  51.048  1.00  0.00     0.046 C 
ATOM     28  C   UNL     1      10.578  47.567  55.634  1.00  0.00     0.044 C 
ENDBRANCH  19  21
ENDBRANCH  12  19
ENDBRANCH   1   9
TORSDOF 6
ENDMDL
MODEL 6
REMARK VINA RESULT:    -8.568      1.793      5.242
REMARK INTER + INTRA:         -12.245
REMARK INTER:                 -11.540
REMARK INTRA:                  -0.705
REMARK UNBOUND:                -0.672
REMARK SMILES Cc1ccc(Nc2nc(NCC[NH+](C)C)nc3nccnc23)c(C)c1
REMARK SMILES IDX 10 1 11 3 12 4 13 5 14 6 15 7 9 9 8 10 16 11 7 12 17 13
REMARK SMILES IDX 22 14 18 15 21 16 19 17 20 18 6 19 5 21 4 22 23 23 3 24
REMARK SMILES IDX 25 25 2 26 24 27 1 28
REMARK H PARENT 10 2 13 8 6 20
ROOT
ATOM      1  N   UNL     1       3.017  46.016  52.422  1.00  0.00    -0.348 N 
ATOM      2  H   UNL     1       2.318  45.404  52.004  1.00  0.00     0.163 HD
ENDROOT
BRANCH   1   3
ATOM      3  C   UNL     1       2.999  46.179  53.862  1.00  0.00     0.177 C 
BRANCH   3   4
ATOM      4  C   UNL     1       3.117  44.808  54.568  1.00  0.00     0.283 C 
BRANCH   4   5
ATOM      5  N   UNL     1       1.759  44.203  54.890  1.00  0.00    -0.338 N 
ATOM      6  C   UNL     1       1.291  43.297  53.784  1.00  0.00     0.332 C 
ATOM      7  C   UNL     1       0.733  45.272  55.173  1.00  0.00     0.332 C 
ATOM      8  H   UNL     1       1.851  43.625  55.734  1.00  0.00     0.347 HD
ENDBRANCH   4   5
ENDBRANCH   3   4
ENDBRANCH   1   3
BRANCH   1   9
ATOM      9  C   UNL     1       4.236  45.677  51.857  1.00  0.00     0.227 A 
ATOM     10  N   UNL     1       5.295  46.467  52.038  1.00  0.00    -0.193 NA
ATOM     11  N   UNL     1       4.253  44.554  51.154  1.00  0.00    -0.191 NA
ATOM     12  C   UNL     1       6.446  46.093  51.435  1.00  0.00     0.164 A 
ATOM     13  C   UNL     1       5.384  44.209  50.547  1.00  0.00     0.185 A 
ATOM     14  C   UNL     1       6.560  44.960  50.637  1.00  0.00     0.150 A 
ATOM     15  N   UNL     1       5.382  43.081  49.827  1.00  0.00    -0.233 NA
ATOM     16  N   UNL     1       7.728  44.596  50.028  1.00  0.00    -0.247 NA
ATOM     17  C   UNL     1       6.528  42.717  49.208  1.00  0.00     0.133 A 
ATOM     18  C   UNL     1       7.684  43.461  49.305  1.00  0.00     0.132 A 
BRANCH  12  19
ATOM     19  N   UNL     1       7.594  46.938  51.550  1.00  0.00    -0.338 N 
ATOM     20  H   UNL     1       8.161  46.800  50.706  1.00  0.00     0.168 HD
BRANCH  19  21
ATOM     21  C   UNL     1       8.437  47.027  52.681  1.00  0.00     0.043 A 
ATOM     22  C   UNL     1       7.973  47.785  53.765  1.00  0.00     0.026 A 
ATOM     23  C   UNL     1       9.759  46.541  52.707  1.00  0.00    -0.027 A 
ATOM     24  C   UNL     1       8.764  47.994  54.896  1.00  0.00     0.005 A 
ATOM     25  C   UNL     1      10.543  46.746  53.858  1.00  0.00     0.009 A 
ATOM     26  C   UNL     1      10.051  47.457  54.961  1.00  0.00    -0.051 A 
ATOM     27  C   UNL     1      10.376  45.813  51.543  1.00  0.00     0.046 C 
ATOM     28  C   UNL     1      10.929  47.726  56.147  1.00  0.00     0.044 C 
ENDBRANCH  19  21
ENDBRANCH  12  19
ENDBRANCH   1   9
TORSDOF 6
ENDMDL
MODEL 7
REMARK VINA RESULT:    -8.562      2.114      6.494
REMARK INTER + INTRA:         -12.237
REMARK INTER:                 -11.361
REMARK INTRA:                  -0.875
REMARK UNBOUND:                -0.672
REMARK SMILES Cc1ccc(Nc2nc(NCC[NH+](C)C)nc3nccnc23)c(C)c1
REMARK SMILES IDX 10 1 11 3 12 4 13 5 14 6 15 7 9 9 8 10 16 11 7 12 17 13
REMARK SMILES IDX 22 14 18 15 21 16 19 17 20 18 6 19 5 21 4 22 23 23 3 24
REMARK SMILES IDX 25 25 2 26 24 27 1 28
REMARK H PARENT 10 2 13 8 6 20
ROOT
ATOM      1  N   UNL     1       4.118  41.387  50.946  1.00  0.00    -0.348 N 
ATOM      2  H   UNL     1       3.263  41.010  50.539  1.00  0.00     0.163 HD
ENDROOT
BRANCH   1   3
ATOM      3  C   UNL     1       5.298  41.447  50.107  1.00  0.00     0.177 C 
BRANCH   3   4
ATOM      4  C   UNL     1       4.969  40.985  48.668  1.00  0.00     0.283 C 
BRANCH   4   5
ATOM      5  N   UNL     1       5.988  41.478  47.653  1.00  0.00    -0.338 N 
ATOM      6  C   UNL     1       6.672  42.729  48.131  1.00  0.00     0.332 C 
ATOM      7  C   UNL     1       5.356  41.701  46.301  1.00  0.00     0.332 C 
ATOM      8  H   UNL     1       6.715  40.760  47.545  1.00  0.00     0.347 HD
ENDBRANCH   4   5
ENDBRANCH   3   4
ENDBRANCH   1   3
BRANCH   1   9
ATOM      9  C   UNL     1       3.767  42.559  51.598  1.00  0.00     0.227 A 
ATOM     10  N   UNL     1       4.480  43.668  51.401  1.00  0.00    -0.193 NA
ATOM     11  N   UNL     1       2.713  42.481  52.397  1.00  0.00    -0.191 NA
ATOM     12  C   UNL     1       4.102  44.768  52.090  1.00  0.00     0.164 A 
ATOM     13  C   UNL     1       2.364  43.561  53.087  1.00  0.00     0.185 A 
ATOM     14  C   UNL     1       3.041  44.781  52.989  1.00  0.00     0.150 A 
ATOM     15  N   UNL     1       1.308  43.463  53.902  1.00  0.00    -0.233 NA
ATOM     16  N   UNL     1       2.672  45.898  53.685  1.00  0.00    -0.247 NA
ATOM     17  C   UNL     1       0.941  44.558  54.606  1.00  0.00     0.133 A 
ATOM     18  C   UNL     1       1.610  45.758  54.502  1.00  0.00     0.132 A 
BRANCH  12  19
ATOM     19  N   UNL     1       4.871  45.966  51.959  1.00  0.00    -0.338 N 
ATOM     20  H   UNL     1       4.851  46.236  50.969  1.00  0.00     0.168 HD
BRANCH  19  21
ATOM     21  C   UNL     1       6.168  46.171  52.481  1.00  0.00     0.043 A 
ATOM     22  C   UNL     1       6.258  46.685  53.783  1.00  0.00     0.026 A 
ATOM     23  C   UNL     1       7.344  46.042  51.718  1.00  0.00    -0.027 A 
ATOM     24  C   UNL     1       7.493  46.991  54.358  1.00  0.00     0.005 A 
ATOM     25  C   UNL     1       8.585  46.341  52.313  1.00  0.00     0.009 A 
ATOM     26  C   UNL     1       8.670  46.801  53.633  1.00  0.00    -0.051 A 
ATOM     27  C   UNL     1       7.330  45.603  50.278  1.00  0.00     0.046 C 
ATOM     28  C   UNL     1       9.997  47.182  54.223  1.00  0.00     0.044 C 
ENDBRANCH  19  21
ENDBRANCH  12  19
ENDBRANCH   1   9
TORSDOF 6
ENDMDL
MODEL 8
REMARK VINA RESULT:    -8.550      2.152      6.536
REMARK INTER + INTRA:         -12.220
REMARK INTER:                 -11.419
REMARK INTRA:                  -0.801
REMARK UNBOUND:                -0.672
REMARK SMILES Cc1ccc(Nc2nc(NCC[NH+](C)C)nc3nccnc23)c(C)c1
REMARK SMILES IDX 10 1 11 3 12 4 13 5 14 6 15 7 9 9 8 10 16 11 7 12 17 13
REMARK SMILES IDX 22 14 18 15 21 16 19 17 20 18 6 19 5 21 4 22 23 23 3 24
REMARK SMILES IDX 25 25 2 26 24 27 1 28
REMARK H PARENT 10 2 13 8 6 20
ROOT
ATOM      1  N   UNL     1       3.889  41.393  51.002  1.00  0.00    -0.348 N 
ATOM      2  H   UNL     1       3.067  41.041  50.515  1.00  0.00     0.163 HD
ENDROOT
BRANCH   1   3
ATOM      3  C   UNL     1       5.139  41.447  50.270  1.00  0.00     0.177 C 
BRANCH   3   4
ATOM      4  C   UNL     1       4.924  41.043  48.793  1.00  0.00     0.283 C 
BRANCH   4   5
ATOM      5  N   UNL     1       6.035  41.548  47.886  1.00  0.00    -0.338 N 
ATOM      6  C   UNL     1       6.667  42.795  48.441  1.00  0.00     0.332 C 
ATOM      7  C   UNL     1       5.535  41.785  46.482  1.00  0.00     0.332 C 
ATOM      8  H   UNL     1       6.770  40.832  47.840  1.00  0.00     0.347 HD
ENDBRANCH   4   5
ENDBRANCH   3   4
ENDBRANCH   1   3
BRANCH   1   9
ATOM      9  C   UNL     1       3.504  42.558  51.648  1.00  0.00     0.227 A 
ATOM     10  N   UNL     1       4.143  43.700  51.394  1.00  0.00    -0.193 NA
ATOM     11  N   UNL     1       2.496  42.438  52.500  1.00  0.00    -0.191 NA
ATOM     12  C   UNL     1       3.736  44.792  52.079  1.00  0.00     0.164 A 
ATOM     13  C   UNL     1       2.121  43.513  53.185  1.00  0.00     0.185 A 
ATOM     14  C   UNL     1       2.721  44.766  53.030  1.00  0.00     0.150 A 
ATOM     15  N   UNL     1       1.113  43.374  54.054  1.00  0.00    -0.233 NA
ATOM     16  N   UNL     1       2.323  45.876  53.720  1.00  0.00    -0.247 NA
ATOM     17  C   UNL     1       0.719  44.462  54.754  1.00  0.00     0.133 A 
ATOM     18  C   UNL     1       1.312  45.695  54.592  1.00  0.00     0.132 A 
BRANCH  12  19
ATOM     19  N   UNL     1       4.428  46.028  51.886  1.00  0.00    -0.338 N 
ATOM     20  H   UNL     1       4.112  46.420  50.991  1.00  0.00     0.168 HD
BRANCH  19  21
ATOM     21  C   UNL     1       5.821  46.220  52.023  1.00  0.00     0.043 A 
ATOM     22  C   UNL     1       6.625  45.860  50.931  1.00  0.00     0.026 A 
ATOM     23  C   UNL     1       6.441  46.589  53.232  1.00  0.00    -0.027 A 
ATOM     24  C   UNL     1       8.017  45.941  50.998  1.00  0.00     0.005 A 
ATOM     25  C   UNL     1       7.846  46.681  53.283  1.00  0.00     0.009 A 
ATOM     26  C   UNL     1       8.639  46.374  52.170  1.00  0.00    -0.051 A 
ATOM     27  C   UNL     1       5.660  46.885  54.484  1.00  0.00     0.046 C 
ATOM     28  C   UNL     1      10.136  46.409  52.269  1.00  0.00     0.044 C 
ENDBRANCH  19  21
ENDBRANCH  12  19
ENDBRANCH   1   9
TORSDOF 6
ENDMDL
MODEL 9
REMARK VINA RESULT:    -8.281      2.492      6.956
REMARK INTER + INTRA:         -11.858
REMARK INTER:                 -11.382
REMARK INTRA:                  -0.476
REMARK UNBOUND:                -0.672
REMARK SMILES Cc1ccc(Nc2nc(NCC[NH+](C)C)nc3nccnc23)c(C)c1
REMARK SMILES IDX 10 1 11 3 12 4 13 5 14 6 15 7 9 9 8 10 16 11 7 12 17 13
REMARK SMILES IDX 22 14 18 15 21 16 19 17 20 18 6 19 5 21 4 22 23 23 3 24
REMARK SMILES IDX 25 25 2 26 24 27 1 28
REMARK H PARENT 10 2 13 8 6 20
ROOT
ATOM      1  N   UNL     1       6.123  41.796  49.620  1.00  0.00    -0.348 N 
ATOM      2  H   UNL     1       6.608  41.187  50.278  1.00  0.00     0.163 HD
ENDROOT
BRANCH   1   3
ATOM      3  C   UNL     1       5.407  41.174  48.524  1.00  0.00     0.177 C 
BRANCH   3   4
ATOM      4  C   UNL     1       5.748  41.868  47.186  1.00  0.00     0.283 C 
BRANCH   4   5
ATOM      5  N   UNL     1       5.126  41.163  45.990  1.00  0.00    -0.338 N 
ATOM      6  C   UNL     1       5.039  42.081  44.802  1.00  0.00     0.332 C 
ATOM      7  C   UNL     1       3.768  40.600  46.329  1.00  0.00     0.332 C 
ATOM      8  H   UNL     1       5.733  40.379  45.722  1.00  0.00     0.347 HD
ENDBRANCH   4   5
ENDBRANCH   3   4
ENDBRANCH   1   3
BRANCH   1   9
ATOM      9  C   UNL     1       5.411  42.716  50.375  1.00  0.00     0.227 A 
ATOM     10  N   UNL     1       5.862  43.964  50.498  1.00  0.00    -0.193 NA
ATOM     11  N   UNL     1       4.299  42.264  50.936  1.00  0.00    -0.191 NA
ATOM     12  C   UNL     1       5.136  44.802  51.272  1.00  0.00     0.164 A 
ATOM     13  C   UNL     1       3.606  43.089  51.713  1.00  0.00     0.185 A 
ATOM     14  C   UNL     1       3.981  44.416  51.943  1.00  0.00     0.150 A 
ATOM     15  N   UNL     1       2.494  42.615  52.286  1.00  0.00    -0.233 NA
ATOM     16  N   UNL     1       3.259  45.272  52.727  1.00  0.00    -0.247 NA
ATOM     17  C   UNL     1       1.778  43.447  53.076  1.00  0.00     0.133 A 
ATOM     18  C   UNL     1       2.151  44.755  53.295  1.00  0.00     0.132 A 
BRANCH  12  19
ATOM     19  N   UNL     1       5.609  46.135  51.483  1.00  0.00    -0.338 N 
ATOM     20  H   UNL     1       5.677  46.585  50.564  1.00  0.00     0.168 HD
BRANCH  19  21
ATOM     21  C   UNL     1       6.725  46.494  52.272  1.00  0.00     0.043 A 
ATOM     22  C   UNL     1       7.995  46.259  51.726  1.00  0.00     0.026 A 
ATOM     23  C   UNL     1       6.628  46.913  53.613  1.00  0.00    -0.027 A 
ATOM     24  C   UNL     1       9.157  46.511  52.458  1.00  0.00     0.005 A 
ATOM     25  C   UNL     1       7.807  47.177  54.337  1.00  0.00     0.009 A 
ATOM     26  C   UNL     1       9.072  46.993  53.764  1.00  0.00    -0.051 A 
ATOM     27  C   UNL     1       5.307  47.083  54.313  1.00  0.00     0.046 C 
ATOM     28  C   UNL     1      10.314  47.211  54.578  1.00  0.00     0.044 C 
ENDBRANCH  19  21
ENDBRANCH  12  19
ENDBRANCH   1   9
TORSDOF 6
ENDMDL
MODEL 10
REMARK VINA RESULT:    -8.007      1.348      4.680
REMARK INTER + INTRA:         -11.487
REMARK INTER:                 -10.517
REMARK INTRA:                  -0.971
REMARK UNBOUND:                -0.672
REMARK SMILES Cc1ccc(Nc2nc(NCC[NH+](C)C)nc3nccnc23)c(C)c1
REMARK SMILES IDX 10 1 11 3 12 4 13 5 14 6 15 7 9 9 8 10 16 11 7 12 17 13
REMARK SMILES IDX 22 14 18 15 21 16 19 17 20 18 6 19 5 21 4 22 23 23 3 24
REMARK SMILES IDX 25 25 2 26 24 27 1 28
REMARK H PARENT 10 2 13 8 6 20
ROOT
ATOM      1  N   UNL     1       7.633  45.009  49.621  1.00  0.00    -0.348 N 
ATOM      2  H   UNL     1       8.348  45.460  49.053  1.00  0.00     0.163 HD
ENDROOT
BRANCH   1   3
ATOM      3  C   UNL     1       7.591  43.560  49.633  1.00  0.00     0.177 C 
BRANCH   3   4
ATOM      4  C   UNL     1       6.174  43.052  49.278  1.00  0.00     0.283 C 
BRANCH   4   5
ATOM      5  N   UNL     1       5.489  42.374  50.455  1.00  0.00    -0.338 N 
ATOM      6  C   UNL     1       4.685  41.185  50.004  1.00  0.00     0.332 C 
ATOM      7  C   UNL     1       4.623  43.343  51.222  1.00  0.00     0.332 C 
ATOM      8  H   UNL     1       6.212  42.024  51.095  1.00  0.00     0.347 HD
ENDBRANCH   4   5
ENDBRANCH   3   4
ENDBRANCH   1   3
BRANCH   1   9
ATOM      9  C   UNL     1       7.653  45.633  50.859  1.00  0.00     0.227 A 
ATOM     10  N   UNL     1       6.511  46.028  51.423  1.00  0.00    -0.193 NA
ATOM     11  N   UNL     1       8.850  45.795  51.403  1.00  0.00    -0.191 NA
ATOM     12  C   UNL     1       6.605  46.655  52.617  1.00  0.00     0.164 A 
ATOM     13  C   UNL     1       8.933  46.435  52.565  1.00  0.00     0.185 A 
ATOM     14  C   UNL     1       7.814  46.918  53.251  1.00  0.00     0.150 A 
ATOM     15  N   UNL     1      10.149  46.606  53.095  1.00  0.00    -0.233 NA
ATOM     16  N   UNL     1       7.896  47.560  54.455  1.00  0.00    -0.247 NA
ATOM     17  C   UNL     1      10.245  47.252  54.279  1.00  0.00     0.133 A 
ATOM     18  C   UNL     1       9.138  47.722  54.951  1.00  0.00     0.132 A 
BRANCH  12  19
ATOM     19  N   UNL     1       5.414  47.150  53.234  1.00  0.00    -0.338 N 
ATOM     20  H   UNL     1       5.685  47.569  54.131  1.00  0.00     0.168 HD
BRANCH  19  21
ATOM     21  C   UNL     1       4.210  46.427  53.392  1.00  0.00     0.043 A 
ATOM     22  C   UNL     1       3.119  46.826  52.606  1.00  0.00     0.026 A 
ATOM     23  C   UNL     1       4.009  45.457  54.392  1.00  0.00    -0.027 A 
ATOM     24  C   UNL     1       1.867  46.223  52.744  1.00  0.00     0.005 A 
ATOM     25  C   UNL     1       2.746  44.846  54.513  1.00  0.00     0.009 A 
ATOM     26  C   UNL     1       1.676  45.211  53.686  1.00  0.00    -0.051 A 
ATOM     27  C   UNL     1       5.094  45.049  55.352  1.00  0.00     0.046 C 
ATOM     28  C   UNL     1       0.320  44.598  53.880  1.00  0.00     0.044 C 
ENDBRANCH  19  21
ENDBRANCH  12  19
ENDBRANCH   1   9
TORSDOF 6
ENDMDL
MODEL 11
REMARK VINA RESULT:    -7.922      2.569      5.784
REMARK INTER + INTRA:         -11.373
REMARK INTER:                 -10.787
REMARK INTRA:                  -0.586
REMARK UNBOUND:                -0.672
REMARK SMILES Cc1ccc(Nc2nc(NCC[NH+](C)C)nc3nccnc23)c(C)c1
REMARK SMILES IDX 10 1 11 3 12 4 13 5 14 6 15 7 9 9 8 10 16 11 7 12 17 13
REMARK SMILES IDX 22 14 18 15 21 16 19 17 20 18 6 19 5 21 4 22 23 23 3 24
REMARK SMILES IDX 25 25 2 26 24 27 1 28
REMARK H PARENT 10 2 13 8 6 20
ROOT
ATOM      1  N   UNL     1       2.366  46.029  56.475  1.00  0.00    -0.348 N 
ATOM      2  H   UNL     1       2.755  46.970  56.490  1.00  0.00     0.163 HD
ENDROOT
BRANCH   1   3
ATOM      3  C   UNL     1       1.105  45.806  57.153  1.00  0.00     0.177 C 
BRANCH   3   4
ATOM      4  C   UNL     1       0.955  46.766  58.356  1.00  0.00     0.283 C 
BRANCH   4   5
ATOM      5  N   UNL     1      -0.315  47.600  58.278  1.00  0.00    -0.338 N 
ATOM      6  C   UNL     1      -0.648  48.209  59.613  1.00  0.00     0.332 C 
ATOM      7  C   UNL     1      -1.476  46.788  57.759  1.00  0.00     0.332 C 
ATOM      8  H   UNL     1      -0.157  48.376  57.624  1.00  0.00     0.347 HD
ENDBRANCH   4   5
ENDBRANCH   3   4
ENDBRANCH   1   3
BRANCH   1   9
ATOM      9  C   UNL     1       2.447  45.582  55.165  1.00  0.00     0.227 A 
ATOM     10  N   UNL     1       3.264  46.190  54.304  1.00  0.00    -0.193 NA
ATOM     11  N   UNL     1       1.675  44.549  54.860  1.00  0.00    -0.191 NA
ATOM     12  C   UNL     1       3.273  45.723  53.036  1.00  0.00     0.164 A 
ATOM     13  C   UNL     1       1.674  44.113  53.605  1.00  0.00     0.185 A 
ATOM     14  C   UNL     1       2.467  44.676  52.600  1.00  0.00     0.150 A 
ATOM     15  N   UNL     1       0.878  43.080  53.307  1.00  0.00    -0.233 NA
ATOM     16  N   UNL     1       2.481  44.217  51.313  1.00  0.00    -0.247 NA
ATOM     17  C   UNL     1       0.871  42.625  52.033  1.00  0.00     0.133 A 
ATOM     18  C   UNL     1       1.659  43.182  51.050  1.00  0.00     0.132 A 
BRANCH  12  19
ATOM     19  N   UNL     1       4.088  46.379  52.062  1.00  0.00    -0.338 N 
ATOM     20  H   UNL     1       3.730  46.117  51.136  1.00  0.00     0.168 HD
BRANCH  19  21
ATOM     21  C   UNL     1       5.501  46.383  52.042  1.00  0.00     0.043 A 
ATOM     22  C   UNL     1       6.146  47.400  52.762  1.00  0.00     0.026 A 
ATOM     23  C   UNL     1       6.271  45.536  51.222  1.00  0.00    -0.027 A 
ATOM     24  C   UNL     1       7.536  47.532  52.742  1.00  0.00     0.005 A 
ATOM     25  C   UNL     1       7.673  45.670  51.221  1.00  0.00     0.009 A 
ATOM     26  C   UNL     1       8.313  46.653  51.987  1.00  0.00    -0.051 A 
ATOM     27  C   UNL     1       5.653  44.491  50.333  1.00  0.00     0.046 C 
ATOM     28  C   UNL     1       9.802  46.824  51.914  1.00  0.00     0.044 C 
ENDBRANCH  19  21
ENDBRANCH  12  19
ENDBRANCH   1   9
TORSDOF 6
ENDMDL
MODEL 12
REMARK VINA RESULT:    -7.790      2.639      7.129
REMARK INTER + INTRA:         -11.195
REMARK INTER:                 -10.474
REMARK INTRA:                  -0.720
REMARK UNBOUND:                -0.672
REMARK SMILES Cc1ccc(Nc2nc(NCC[NH+](C)C)nc3nccnc23)c(C)c1
REMARK SMILES IDX 10 1 11 3 12 4 13 5 14 6 15 7 9 9 8 10 16 11 7 12 17 13
REMARK SMILES IDX 22 14 18 15 21 16 19 17 20 18 6 19 5 21 4 22 23 23 3 24
REMARK SMILES IDX 25 25 2 26 24 27 1 28
REMARK H PARENT 10 2 13 8 6 20
ROOT
ATOM      1  N   UNL     1       4.270  41.312  50.847  1.00  0.00    -0.348 N 
ATOM      2  H   UNL     1       4.243  40.633  51.605  1.00  0.00     0.163 HD
ENDROOT
BRANCH   1   3
ATOM      3  C   UNL     1       4.028  40.833  49.500  1.00  0.00     0.177 C 
BRANCH   3   4
ATOM      4  C   UNL     1       5.198  41.217  48.566  1.00  0.00     0.283 C 
BRANCH   4   5
ATOM      5  N   UNL     1       4.948  40.805  47.123  1.00  0.00    -0.338 N 
ATOM      6  C   UNL     1       5.396  41.876  46.166  1.00  0.00     0.332 C 
ATOM      7  C   UNL     1       3.498  40.458  46.893  1.00  0.00     0.332 C 
ATOM      8  H   UNL     1       5.508  39.967  46.921  1.00  0.00     0.347 HD
ENDBRANCH   4   5
ENDBRANCH   3   4
ENDBRANCH   1   3
BRANCH   1   9
ATOM      9  C   UNL     1       3.517  42.401  51.256  1.00  0.00     0.227 A 
ATOM     10  N   UNL     1       4.100  43.403  51.915  1.00  0.00    -0.193 NA
ATOM     11  N   UNL     1       2.228  42.358  50.951  1.00  0.00    -0.191 NA
ATOM     12  C   UNL     1       3.302  44.420  52.311  1.00  0.00     0.164 A 
ATOM     13  C   UNL     1       1.449  43.351  51.365  1.00  0.00     0.185 A 
ATOM     14  C   UNL     1       1.931  44.450  52.083  1.00  0.00     0.150 A 
ATOM     15  N   UNL     1       0.148  43.287  51.063  1.00  0.00    -0.233 NA
ATOM     16  N   UNL     1       1.134  45.482  52.494  1.00  0.00    -0.247 NA
ATOM     17  C   UNL     1      -0.654  44.295  51.476  1.00  0.00     0.133 A 
ATOM     18  C   UNL     1      -0.172  45.376  52.181  1.00  0.00     0.132 A 
BRANCH  12  19
ATOM     19  N   UNL     1       3.869  45.489  53.072  1.00  0.00    -0.338 N 
ATOM     20  H   UNL     1       3.275  46.313  52.933  1.00  0.00     0.168 HD
BRANCH  19  21
ATOM     21  C   UNL     1       5.229  45.875  53.059  1.00  0.00     0.043 A 
ATOM     22  C   UNL     1       5.731  46.402  51.860  1.00  0.00     0.026 A 
ATOM     23  C   UNL     1       6.124  45.610  54.113  1.00  0.00    -0.027 A 
ATOM     24  C   UNL     1       7.078  46.742  51.726  1.00  0.00     0.005 A 
ATOM     25  C   UNL     1       7.478  45.970  53.971  1.00  0.00     0.009 A 
ATOM     26  C   UNL     1       7.960  46.549  52.789  1.00  0.00    -0.051 A 
ATOM     27  C   UNL     1       5.693  44.945  55.393  1.00  0.00     0.046 C 
ATOM     28  C   UNL     1       9.420  46.857  52.634  1.00  0.00     0.044 C 
ENDBRANCH  19  21
ENDBRANCH  12  19
ENDBRANCH   1   9
TORSDOF 6
ENDMDL
MODEL 13
REMARK VINA RESULT:    -7.732      1.427      5.661
REMARK INTER + INTRA:         -11.116
REMARK INTER:                 -10.967
REMARK INTRA:                  -0.149
REMARK UNBOUND:                -0.672
REMARK SMILES Cc1ccc(Nc2nc(NCC[NH+](C)C)nc3nccnc23)c(C)c1
REMARK SMILES IDX 10 1 11 3 12 4 13 5 14 6 15 7 9 9 8 10 16 11 7 12 17 13
REMARK SMILES IDX 22 14 18 15 21 16 19 17 20 18 6 19 5 21 4 22 23 23 3 24
REMARK SMILES IDX 25 25 2 26 24 27 1 28
REMARK H PARENT 10 2 13 8 6 20
ROOT
ATOM      1  N   UNL     1       4.545  46.611  55.314  1.00  0.00    -0.348 N 
ATOM      2  H   UNL     1       4.860  46.155  56.168  1.00  0.00     0.163 HD
ENDROOT
BRANCH   1   3
ATOM      3  C   UNL     1       5.551  47.178  54.438  1.00  0.00     0.177 C 
BRANCH   3   4
ATOM      4  C   UNL     1       6.894  46.427  54.593  1.00  0.00     0.283 C 
BRANCH   4   5
ATOM      5  N   UNL     1       7.921  46.854  53.554  1.00  0.00    -0.338 N 
ATOM      6  C   UNL     1       9.076  47.573  54.196  1.00  0.00     0.332 C 
ATOM      7  C   UNL     1       7.294  47.707  52.479  1.00  0.00     0.332 C 
ATOM      8  H   UNL     1       8.301  46.012  53.106  1.00  0.00     0.347 HD
ENDBRANCH   4   5
ENDBRANCH   3   4
ENDBRANCH   1   3
BRANCH   1   9
ATOM      9  C   UNL     1       3.623  45.762  54.722  1.00  0.00     0.227 A 
ATOM     10  N   UNL     1       3.949  45.094  53.615  1.00  0.00    -0.193 NA
ATOM     11  N   UNL     1       2.446  45.678  55.326  1.00  0.00    -0.191 NA
ATOM     12  C   UNL     1       2.994  44.305  53.074  1.00  0.00     0.164 A 
ATOM     13  C   UNL     1       1.507  44.919  54.772  1.00  0.00     0.185 A 
ATOM     14  C   UNL     1       1.712  44.184  53.600  1.00  0.00     0.150 A 
ATOM     15  N   UNL     1       0.319  44.857  55.383  1.00  0.00    -0.233 NA
ATOM     16  N   UNL     1       0.753  43.387  53.039  1.00  0.00    -0.247 NA
ATOM     17  C   UNL     1      -0.644  44.083  54.830  1.00  0.00     0.133 A 
ATOM     18  C   UNL     1      -0.433  43.359  53.677  1.00  0.00     0.132 A 
BRANCH  12  19
ATOM     19  N   UNL     1       3.275  43.615  51.854  1.00  0.00    -0.338 N 
ATOM     20  H   UNL     1       2.897  42.665  51.945  1.00  0.00     0.168 HD
BRANCH  19  21
ATOM     21  C   UNL     1       4.532  43.567  51.209  1.00  0.00     0.043 A 
ATOM     22  C   UNL     1       5.256  44.766  51.131  1.00  0.00     0.026 A 
ATOM     23  C   UNL     1       5.007  42.438  50.513  1.00  0.00    -0.027 A 
ATOM     24  C   UNL     1       6.471  44.835  50.448  1.00  0.00     0.005 A 
ATOM     25  C   UNL     1       6.242  42.517  49.840  1.00  0.00     0.009 A 
ATOM     26  C   UNL     1       6.986  43.704  49.814  1.00  0.00    -0.051 A 
ATOM     27  C   UNL     1       4.241  41.144  50.452  1.00  0.00     0.046 C 
ATOM     28  C   UNL     1       8.263  43.784  49.030  1.00  0.00     0.044 C 
ENDBRANCH  19  21
ENDBRANCH  12  19
ENDBRANCH   1   9
TORSDOF 6
ENDMDL
MODEL 14
REMARK VINA RESULT:    -7.679      1.911      6.311
REMARK INTER + INTRA:         -11.045
REMARK INTER:                 -10.250
REMARK INTRA:                  -0.795
REMARK UNBOUND:                -0.672
REMARK SMILES Cc1ccc(Nc2nc(NCC[NH+](C)C)nc3nccnc23)c(C)c1
REMARK SMILES IDX 10 1 11 3 12 4 13 5 14 6 15 7 9 9 8 10 16 11 7 12 17 13
REMARK SMILES IDX 22 14 18 15 21 16 19 17 20 18 6 19 5 21 4 22 23 23 3 24
REMARK SMILES IDX 25 25 2 26 24 27 1 28
REMARK H PARENT 10 2 13 8 6 20
ROOT
ATOM      1  N   UNL     1       6.033  46.798  52.159  1.00  0.00    -0.348 N 
ATOM      2  H   UNL     1       5.243  47.314  52.543  1.00  0.00     0.163 HD
ENDROOT
BRANCH   1   3
ATOM      3  C   UNL     1       7.293  46.859  52.872  1.00  0.00     0.177 C 
BRANCH   3   4
ATOM      4  C   UNL     1       8.377  47.544  52.007  1.00  0.00     0.283 C 
BRANCH   4   5
ATOM      5  N   UNL     1       9.786  47.152  52.425  1.00  0.00    -0.338 N 
ATOM      6  C   UNL     1      10.270  45.956  51.653  1.00  0.00     0.332 C 
ATOM      7  C   UNL     1       9.869  46.896  53.910  1.00  0.00     0.332 C 
ATOM      8  H   UNL     1      10.420  47.930  52.205  1.00  0.00     0.347 HD
ENDBRANCH   4   5
ENDBRANCH   3   4
ENDBRANCH   1   3
BRANCH   1   9
ATOM      9  C   UNL     1       5.568  45.531  51.841  1.00  0.00     0.227 A 
ATOM     10  N   UNL     1       4.620  44.965  52.587  1.00  0.00    -0.193 NA
ATOM     11  N   UNL     1       6.125  44.962  50.782  1.00  0.00    -0.191 NA
ATOM     12  C   UNL     1       4.232  43.717  52.239  1.00  0.00     0.164 A 
ATOM     13  C   UNL     1       5.755  43.727  50.463  1.00  0.00     0.185 A 
ATOM     14  C   UNL     1       4.786  43.012  51.176  1.00  0.00     0.150 A 
ATOM     15  N   UNL     1       6.337  43.158  49.402  1.00  0.00    -0.233 NA
ATOM     16  N   UNL     1       4.390  41.748  50.838  1.00  0.00    -0.247 NA
ATOM     17  C   UNL     1       5.964  41.902  49.065  1.00  0.00     0.133 A 
ATOM     18  C   UNL     1       5.007  41.206  49.770  1.00  0.00     0.132 A 
BRANCH  12  19
ATOM     19  N   UNL     1       3.261  43.044  53.043  1.00  0.00    -0.338 N 
ATOM     20  H   UNL     1       3.409  42.036  52.923  1.00  0.00     0.168 HD
BRANCH  19  21
ATOM     21  C   UNL     1       1.875  43.322  53.060  1.00  0.00     0.043 A 
ATOM     22  C   UNL     1       1.115  42.845  51.983  1.00  0.00     0.026 A 
ATOM     23  C   UNL     1       1.263  44.175  54.000  1.00  0.00    -0.027 A 
ATOM     24  C   UNL     1      -0.247  43.132  51.873  1.00  0.00     0.005 A 
ATOM     25  C   UNL     1      -0.114  44.446  53.886  1.00  0.00     0.009 A 
ATOM     26  C   UNL     1      -0.878  43.919  52.837  1.00  0.00    -0.051 A 
ATOM     27  C   UNL     1       2.028  44.820  55.124  1.00  0.00     0.046 C 
ATOM     28  C   UNL     1      -2.327  44.281  52.695  1.00  0.00     0.044 C 
ENDBRANCH  19  21
ENDBRANCH  12  19
ENDBRANCH   1   9
TORSDOF 6
ENDMDL
MODEL 15
REMARK VINA RESULT:    -7.636      2.240      6.914
REMARK INTER + INTRA:         -10.987
REMARK INTER:                 -10.051
REMARK INTRA:                  -0.935
REMARK UNBOUND:                -0.672
REMARK SMILES Cc1ccc(Nc2nc(NCC[NH+](C)C)nc3nccnc23)c(C)c1
REMARK SMILES IDX 10 1 11 3 12 4 13 5 14 6 15 7 9 9 8 10 16 11 7 12 17 13
REMARK SMILES IDX 22 14 18 15 21 16 19 17 20 18 6 19 5 21 4 22 23 23 3 24
REMARK SMILES IDX 25 25 2 26 24 27 1 28
REMARK H PARENT 10 2 13 8 6 20
ROOT
ATOM      1  N   UNL     1       2.878  41.929  51.137  1.00  0.00    -0.348 N 
ATOM      2  H   UNL     1       2.498  42.314  50.274  1.00  0.00     0.163 HD
ENDROOT
BRANCH   1   3
ATOM      3  C   UNL     1       4.279  41.558  51.154  1.00  0.00     0.177 C 
BRANCH   3   4
ATOM      4  C   UNL     1       5.015  42.151  49.930  1.00  0.00     0.283 C 
BRANCH   4   5
ATOM      5  N   UNL     1       6.142  43.091  50.330  1.00  0.00    -0.338 N 
ATOM      6  C   UNL     1       5.641  44.499  50.504  1.00  0.00     0.332 C 
ATOM      7  C   UNL     1       7.274  43.050  49.333  1.00  0.00     0.332 C 
ATOM      8  H   UNL     1       6.513  42.788  51.238  1.00  0.00     0.347 HD
ENDBRANCH   4   5
ENDBRANCH   3   4
ENDBRANCH   1   3
BRANCH   1   9
ATOM      9  C   UNL     1       2.448  42.753  52.166  1.00  0.00     0.227 A 
ATOM     10  N   UNL     1       3.313  43.569  52.769  1.00  0.00    -0.193 NA
ATOM     11  N   UNL     1       1.165  42.660  52.481  1.00  0.00    -0.191 NA
ATOM     12  C   UNL     1       2.835  44.324  53.783  1.00  0.00     0.164 A 
ATOM     13  C   UNL     1       0.710  43.389  53.495  1.00  0.00     0.185 A 
ATOM     14  C   UNL     1       1.517  44.268  54.224  1.00  0.00     0.150 A 
ATOM     15  N   UNL     1      -0.584  43.272  53.812  1.00  0.00    -0.233 NA
ATOM     16  N   UNL     1       1.047  45.032  55.256  1.00  0.00    -0.247 NA
ATOM     17  C   UNL     1      -1.058  44.013  54.840  1.00  0.00     0.133 A 
ATOM     18  C   UNL     1      -0.258  44.880  55.552  1.00  0.00     0.132 A 
BRANCH  12  19
ATOM     19  N   UNL     1       3.735  45.172  54.501  1.00  0.00    -0.338 N 
ATOM     20  H   UNL     1       3.168  45.844  55.029  1.00  0.00     0.168 HD
BRANCH  19  21
ATOM     21  C   UNL     1       4.860  45.827  53.950  1.00  0.00     0.043 A 
ATOM     22  C   UNL     1       6.123  45.410  54.395  1.00  0.00     0.026 A 
ATOM     23  C   UNL     1       4.771  46.962  53.121  1.00  0.00    -0.027 A 
ATOM     24  C   UNL     1       7.289  46.046  53.966  1.00  0.00     0.005 A 
ATOM     25  C   UNL     1       5.955  47.587  52.684  1.00  0.00     0.009 A 
ATOM     26  C   UNL     1       7.216  47.129  53.089  1.00  0.00    -0.051 A 
ATOM     27  C   UNL     1       3.454  47.545  52.686  1.00  0.00     0.046 C 
ATOM     28  C   UNL     1       8.460  47.855  52.669  1.00  0.00     0.044 C 
ENDBRANCH  19  21
ENDBRANCH  12  19
ENDBRANCH   1   9
TORSDOF 6
ENDMDL
MODEL 16
REMARK VINA RESULT:    -7.563      1.887      6.220
REMARK INTER + INTRA:         -10.887
REMARK INTER:                 -10.171
REMARK INTRA:                  -0.716
REMARK UNBOUND:                -0.672
REMARK SMILES Cc1ccc(Nc2nc(NCC[NH+](C)C)nc3nccnc23)c(C)c1
REMARK SMILES IDX 10 1 11 3 12 4 13 5 14 6 15 7 9 9 8 10 16 11 7 12 17 13
REMARK SMILES IDX 22 14 18 15 21 16 19 17 20 18 6 19 5 21 4 22 23 23 3 24
REMARK SMILES IDX 25 25 2 26 24 27 1 28
REMARK H PARENT 10 2 13 8 6 20
ROOT
ATOM      1  N   UNL     1       5.987  47.020  52.530  1.00  0.00    -0.348 N 
ATOM      2  H   UNL     1       5.191  47.503  52.941  1.00  0.00     0.163 HD
ENDROOT
BRANCH   1   3
ATOM      3  C   UNL     1       7.250  47.069  53.239  1.00  0.00     0.177 C 
BRANCH   3   4
ATOM      4  C   UNL     1       8.325  47.786  52.390  1.00  0.00     0.283 C 
BRANCH   4   5
ATOM      5  N   UNL     1       9.738  47.361  52.763  1.00  0.00    -0.338 N 
ATOM      6  C   UNL     1      10.143  46.114  52.026  1.00  0.00     0.332 C 
ATOM      7  C   UNL     1       9.880  47.169  54.253  1.00  0.00     0.332 C 
ATOM      8  H   UNL     1      10.388  48.104  52.479  1.00  0.00     0.347 HD
ENDBRANCH   4   5
ENDBRANCH   3   4
ENDBRANCH   1   3
BRANCH   1   9
ATOM      9  C   UNL     1       5.543  45.761  52.155  1.00  0.00     0.227 A 
ATOM     10  N   UNL     1       4.523  45.196  52.803  1.00  0.00    -0.193 NA
ATOM     11  N   UNL     1       6.191  45.197  51.147  1.00  0.00    -0.191 NA
ATOM     12  C   UNL     1       4.159  43.956  52.406  1.00  0.00     0.164 A 
ATOM     13  C   UNL     1       5.841  43.969  50.781  1.00  0.00     0.185 A 
ATOM     14  C   UNL     1       4.804  43.257  51.391  1.00  0.00     0.150 A 
ATOM     15  N   UNL     1       6.515  43.405  49.772  1.00  0.00    -0.233 NA
ATOM     16  N   UNL     1       4.429  42.001  51.003  1.00  0.00    -0.247 NA
ATOM     17  C   UNL     1       6.164  42.157  49.388  1.00  0.00     0.133 A 
ATOM     18  C   UNL     1       5.138  41.463  49.992  1.00  0.00     0.132 A 
BRANCH  12  19
ATOM     19  N   UNL     1       3.110  43.285  53.108  1.00  0.00    -0.338 N 
ATOM     20  H   UNL     1       3.073  42.322  52.755  1.00  0.00     0.168 HD
BRANCH  19  21
ATOM     21  C   UNL     1       1.797  43.776  53.288  1.00  0.00     0.043 A 
ATOM     22  C   UNL     1       1.451  44.216  54.574  1.00  0.00     0.026 A 
ATOM     23  C   UNL     1       0.793  43.694  52.304  1.00  0.00    -0.027 A 
ATOM     24  C   UNL     1       0.157  44.649  54.868  1.00  0.00     0.005 A 
ATOM     25  C   UNL     1      -0.505  44.145  52.609  1.00  0.00     0.009 A 
ATOM     26  C   UNL     1      -0.828  44.637  53.881  1.00  0.00    -0.051 A 
ATOM     27  C   UNL     1       1.050  43.131  50.932  1.00  0.00     0.046 C 
ATOM     28  C   UNL     1      -2.236  45.044  54.204  1.00  0.00     0.044 C 
ENDBRANCH  19  21
ENDBRANCH  12  19
ENDBRANCH   1   9
TORSDOF 6
ENDMDL
MODEL 17
REMARK VINA RESULT:    -7.488      2.038      6.230
REMARK INTER + INTRA:         -10.786
REMARK INTER:                  -9.902
REMARK INTRA:                  -0.883
REMARK UNBOUND:                -0.672
REMARK SMILES Cc1ccc(Nc2nc(NCC[NH+](C)C)nc3nccnc23)c(C)c1
REMARK SMILES IDX 10 1 11 3 12 4 13 5 14 6 15 7 9 9 8 10 16 11 7 12 17 13
REMARK SMILES IDX 22 14 18 15 21 16 19 17 20 18 6 19 5 21 4 22 23 23 3 24
REMARK SMILES IDX 25 25 2 26 24 27 1 28
REMARK H PARENT 10 2 13 8 6 20
ROOT
ATOM      1  N   UNL     1       2.394  44.851  55.807  1.00  0.00    -0.348 N 
ATOM      2  H   UNL     1       2.756  44.011  56.254  1.00  0.00     0.163 HD
ENDROOT
BRANCH   1   3
ATOM      3  C   UNL     1       3.282  45.991  55.688  1.00  0.00     0.177 C 
BRANCH   3   4
ATOM      4  C   UNL     1       4.727  45.528  55.389  1.00  0.00     0.283 C 
BRANCH   4   5
ATOM      5  N   UNL     1       5.287  46.156  54.123  1.00  0.00    -0.338 N 
ATOM      6  C   UNL     1       6.774  46.357  54.227  1.00  0.00     0.332 C 
ATOM      7  C   UNL     1       4.596  47.458  53.801  1.00  0.00     0.332 C 
ATOM      8  H   UNL     1       5.124  45.512  53.339  1.00  0.00     0.347 HD
ENDBRANCH   4   5
ENDBRANCH   3   4
ENDBRANCH   1   3
BRANCH   1   9
ATOM      9  C   UNL     1       1.757  44.445  54.645  1.00  0.00     0.227 A 
ATOM     10  N   UNL     1       2.458  44.296  53.520  1.00  0.00    -0.193 NA
ATOM     11  N   UNL     1       0.454  44.230  54.747  1.00  0.00    -0.191 NA
ATOM     12  C   UNL     1       1.771  43.925  52.417  1.00  0.00     0.164 A 
ATOM     13  C   UNL     1      -0.216  43.889  53.651  1.00  0.00     0.185 A 
ATOM     14  C   UNL     1       0.395  43.721  52.404  1.00  0.00     0.150 A 
ATOM     15  N   UNL     1      -1.534  43.692  53.765  1.00  0.00    -0.233 NA
ATOM     16  N   UNL     1      -0.289  43.352  51.280  1.00  0.00    -0.247 NA
ATOM     17  C   UNL     1      -2.225  43.340  52.657  1.00  0.00     0.133 A 
ATOM     18  C   UNL     1      -1.616  43.172  51.432  1.00  0.00     0.132 A 
BRANCH  12  19
ATOM     19  N   UNL     1       2.467  43.809  51.173  1.00  0.00    -0.338 N 
ATOM     20  H   UNL     1       2.192  42.916  50.751  1.00  0.00     0.168 HD
BRANCH  19  21
ATOM     21  C   UNL     1       3.852  44.019  50.986  1.00  0.00     0.043 A 
ATOM     22  C   UNL     1       4.280  45.345  50.821  1.00  0.00     0.026 A 
ATOM     23  C   UNL     1       4.779  42.976  50.796  1.00  0.00    -0.027 A 
ATOM     24  C   UNL     1       5.617  45.647  50.555  1.00  0.00     0.005 A 
ATOM     25  C   UNL     1       6.127  43.294  50.542  1.00  0.00     0.009 A 
ATOM     26  C   UNL     1       6.557  44.623  50.434  1.00  0.00    -0.051 A 
ATOM     27  C   UNL     1       4.384  41.525  50.845  1.00  0.00     0.046 C 
ATOM     28  C   UNL     1       7.984  44.935  50.091  1.00  0.00     0.044 C 
ENDBRANCH  19  21
ENDBRANCH  12  19
ENDBRANCH   1   9
TORSDOF 6
ENDMDL
MODEL 18
REMARK VINA RESULT:    -7.351      3.243      6.746
REMARK INTER + INTRA:         -10.602
REMARK INTER:                  -9.889
REMARK INTRA:                  -0.713
REMARK UNBOUND:                -0.672
REMARK SMILES Cc1ccc(Nc2nc(NCC[NH+](C)C)nc3nccnc23)c(C)c1
REMARK SMILES IDX 10 1 11 3 12 4 13 5 14 6 15 7 9 9 8 10 16 11 7 12 17 13
REMARK SMILES IDX 22 14 18 15 21 16 19 17 20 18 6 19 5 21 4 22 23 23 3 24
REMARK SMILES IDX 25 25 2 26 24 27 1 28
REMARK H PARENT 10 2 13 8 6 20
ROOT
ATOM      1  N   UNL     1      -0.311  43.442  50.462  1.00  0.00    -0.348 N 
ATOM      2  H   UNL     1       0.346  42.868  49.937  1.00  0.00     0.163 HD
ENDROOT
BRANCH   1   3
ATOM      3  C   UNL     1      -1.689  42.998  50.537  1.00  0.00     0.177 C 
BRANCH   3   4
ATOM      4  C   UNL     1      -2.480  43.464  49.293  1.00  0.00     0.283 C 
BRANCH   4   5
ATOM      5  N   UNL     1      -2.472  44.977  49.132  1.00  0.00    -0.338 N 
ATOM      6  C   UNL     1      -3.005  45.657  50.363  1.00  0.00     0.332 C 
ATOM      7  C   UNL     1      -3.246  45.405  47.910  1.00  0.00     0.332 C 
ATOM      8  H   UNL     1      -1.500  45.287  49.013  1.00  0.00     0.347 HD
ENDBRANCH   4   5
ENDBRANCH   3   4
ENDBRANCH   1   3
BRANCH   1   9
ATOM      9  C   UNL     1       0.301  43.752  51.667  1.00  0.00     0.227 A 
ATOM     10  N   UNL     1       1.608  43.541  51.822  1.00  0.00    -0.193 NA
ATOM     11  N   UNL     1      -0.493  44.251  52.604  1.00  0.00    -0.191 NA
ATOM     12  C   UNL     1       2.135  43.839  53.031  1.00  0.00     0.164 A 
ATOM     13  C   UNL     1       0.031  44.517  53.796  1.00  0.00     0.185 A 
ATOM     14  C   UNL     1       1.382  44.321  54.097  1.00  0.00     0.150 A 
ATOM     15  N   UNL     1      -0.784  45.005  54.737  1.00  0.00    -0.233 NA
ATOM     16  N   UNL     1       1.927  44.612  55.317  1.00  0.00    -0.247 NA
ATOM     17  C   UNL     1      -0.261  45.283  55.953  1.00  0.00     0.133 A 
ATOM     18  C   UNL     1       1.072  45.091  56.242  1.00  0.00     0.132 A 
BRANCH  12  19
ATOM     19  N   UNL     1       3.520  43.575  53.267  1.00  0.00    -0.338 N 
ATOM     20  H   UNL     1       3.629  43.379  54.268  1.00  0.00     0.168 HD
BRANCH  19  21
ATOM     21  C   UNL     1       4.596  44.374  52.818  1.00  0.00     0.043 A 
ATOM     22  C   UNL     1       4.823  44.421  51.435  1.00  0.00     0.026 A 
ATOM     23  C   UNL     1       5.529  44.979  53.682  1.00  0.00    -0.027 A 
ATOM     24  C   UNL     1       5.906  45.122  50.902  1.00  0.00     0.005 A 
ATOM     25  C   UNL     1       6.610  45.695  53.132  1.00  0.00     0.009 A 
ATOM     26  C   UNL     1       6.798  45.784  51.746  1.00  0.00    -0.051 A 
ATOM     27  C   UNL     1       5.424  44.885  55.180  1.00  0.00     0.046 C 
ATOM     28  C   UNL     1       7.996  46.491  51.184  1.00  0.00     0.044 C 
ENDBRANCH  19  21
ENDBRANCH  12  19
ENDBRANCH   1   9
TORSDOF 6
ENDMDL
MODEL 19
REMARK VINA RESULT:    -7.192      3.112      6.503
REMARK INTER + INTRA:         -10.386
REMARK INTER:                  -9.687
REMARK INTRA:                  -0.699
REMARK UNBOUND:                -0.672
REMARK SMILES Cc1ccc(Nc2nc(NCC[NH+](C)C)nc3nccnc23)c(C)c1
REMARK SMILES IDX 10 1 11 3 12 4 13 5 14 6 15 7 9 9 8 10 16 11 7 12 17 13
REMARK SMILES IDX 22 14 18 15 21 16 19 17 20 18 6 19 5 21 4 22 23 23 3 24
REMARK SMILES IDX 25 25 2 26 24 27 1 28
REMARK H PARENT 10 2 13 8 6 20
ROOT
ATOM      1  N   UNL     1       0.756  45.776  56.520  1.00  0.00    -0.348 N 
ATOM      2  H   UNL     1       1.431  46.532  56.627  1.00  0.00     0.163 HD
ENDROOT
BRANCH   1   3
ATOM      3  C   UNL     1      -0.634  46.064  56.813  1.00  0.00     0.177 C 
BRANCH   3   4
ATOM      4  C   UNL     1      -0.748  47.138  57.919  1.00  0.00     0.283 C 
BRANCH   4   5
ATOM      5  N   UNL     1      -1.693  48.267  57.537  1.00  0.00    -0.338 N 
ATOM      6  C   UNL     1      -2.022  49.127  58.726  1.00  0.00     0.332 C 
ATOM      7  C   UNL     1      -2.953  47.738  56.897  1.00  0.00     0.332 C 
ATOM      8  H   UNL     1      -1.221  48.869  56.851  1.00  0.00     0.347 HD
ENDBRANCH   4   5
ENDBRANCH   3   4
ENDBRANCH   1   3
BRANCH   1   9
ATOM      9  C   UNL     1       1.015  45.178  55.296  1.00  0.00     0.227 A 
ATOM     10  N   UNL     1       2.245  44.751  55.012  1.00  0.00    -0.193 NA
ATOM     11  N   UNL     1      -0.020  45.077  54.474  1.00  0.00    -0.191 NA
ATOM     12  C   UNL     1       2.435  44.204  53.791  1.00  0.00     0.164 A 
ATOM     13  C   UNL     1       0.183  44.560  53.267  1.00  0.00     0.185 A 
ATOM     14  C   UNL     1       1.429  44.093  52.836  1.00  0.00     0.150 A 
ATOM     15  N   UNL     1      -0.866  44.478  52.442  1.00  0.00    -0.233 NA
ATOM     16  N   UNL     1       1.636  43.543  51.602  1.00  0.00    -0.247 NA
ATOM     17  C   UNL     1      -0.672  43.949  51.212  1.00  0.00     0.133 A 
ATOM     18  C   UNL     1       0.558  43.488  50.796  1.00  0.00     0.132 A 
BRANCH  12  19
ATOM     19  N   UNL     1       3.749  43.784  53.417  1.00  0.00    -0.338 N 
ATOM     20  H   UNL     1       4.081  43.134  54.139  1.00  0.00     0.168 HD
BRANCH  19  21
ATOM     21  C   UNL     1       4.804  44.639  53.026  1.00  0.00     0.043 A 
ATOM     22  C   UNL     1       4.968  44.863  51.651  1.00  0.00     0.026 A 
ATOM     23  C   UNL     1       5.776  45.134  53.917  1.00  0.00    -0.027 A 
ATOM     24  C   UNL     1       6.026  45.633  51.164  1.00  0.00     0.005 A 
ATOM     25  C   UNL     1       6.831  45.920  53.415  1.00  0.00     0.009 A 
ATOM     26  C   UNL     1       6.956  46.186  52.045  1.00  0.00    -0.051 A 
ATOM     27  C   UNL     1       5.739  44.848  55.394  1.00  0.00     0.046 C 
ATOM     28  C   UNL     1       8.129  46.964  51.525  1.00  0.00     0.044 C 
ENDBRANCH  19  21
ENDBRANCH  12  19
ENDBRANCH   1   9
TORSDOF 6
ENDMDL
