MODEL 1
REMARK VINA RESULT:    -8.160      0.000      0.000
REMARK INTER + INTRA:         -11.712
REMARK INTER:                 -11.261
REMARK INTRA:                  -0.452
REMARK UNBOUND:                -0.452
REMARK SMILES COc1ccc(Nc2nc(NCCO)c3nccnc3n2)cc1
REMARK SMILES IDX 8 1 9 2 10 3 15 4 16 5 17 6 18 7 19 8 20 9 21 10 7 11 6 13
REMARK SMILES IDX 3 14 4 15 23 16 5 17 22 18 2 19 1 20 11 21 12 23 13 24 14 25
REMARK H PARENT 7 12 11 22 14 26
ROOT
ATOM      1  C   UNL     1       6.339  44.847  51.292  1.00  0.00     0.231 A 
ATOM      2  N   UNL     1       5.347  44.572  52.140  1.00  0.00    -0.193 NA
ATOM      3  C   UNL     1       4.572  43.501  51.888  1.00  0.00     0.160 A 
ATOM      4  C   UNL     1       4.767  42.669  50.787  1.00  0.00     0.150 A 
ATOM      5  N   UNL     1       3.973  41.587  50.507  1.00  0.00    -0.247 NA
ATOM      6  C   UNL     1       4.294  40.888  49.404  1.00  0.00     0.132 A 
ATOM      7  C   UNL     1       5.352  41.256  48.604  1.00  0.00     0.133 A 
ATOM      8  N   UNL     1       6.121  42.334  48.876  1.00  0.00    -0.233 NA
ATOM      9  C   UNL     1       5.838  43.051  49.970  1.00  0.00     0.185 A 
ATOM     10  N   UNL     1       6.600  44.109  50.213  1.00  0.00    -0.191 NA
ENDROOT
BRANCH   1  11
ATOM     11  N   UNL     1       7.183  45.939  51.468  1.00  0.00    -0.324 N 
ATOM     12  H   UNL     1       7.299  46.408  50.581  1.00  0.00     0.170 HD
BRANCH  11  13
ATOM     13  C   UNL     1       7.875  46.474  52.559  1.00  0.00     0.041 A 
ATOM     14  C   UNL     1       9.403  47.551  54.694  1.00  0.00     0.119 A 
ATOM     15  C   UNL     1      10.033  47.097  53.539  1.00  0.00     0.048 A 
ATOM     16  C   UNL     1       8.015  47.466  54.779  1.00  0.00     0.048 A 
ATOM     17  C   UNL     1       9.274  46.567  52.487  1.00  0.00     0.030 A 
ATOM     18  C   UNL     1       7.260  46.934  53.724  1.00  0.00     0.030 A 
BRANCH  14  19
ATOM     19  O   UNL     1      10.016  48.087  55.792  1.00  0.00    -0.497 OA
ATOM     20  C   UNL     1      11.175  47.418  56.272  1.00  0.00     0.278 C 
ENDBRANCH  14  19
ENDBRANCH  11  13
ENDBRANCH   1  11
BRANCH   3  21
ATOM     21  N   UNL     1       3.559  43.145  52.820  1.00  0.00    -0.366 N 
ATOM     22  H   UNL     1       3.241  42.204  52.583  1.00  0.00     0.162 HD
BRANCH  21  23
ATOM     23  C   UNL     1       2.476  44.115  52.956  1.00  0.00     0.142 C 
BRANCH  23  24
ATOM     24  C   UNL     1       1.246  43.447  53.581  1.00  0.00     0.177 C 
BRANCH  24  25
ATOM     25  O   UNL     1       1.444  42.042  53.689  1.00  0.00    -0.395 OA
ATOM     26  H   UNL     1       0.984  41.753  54.496  1.00  0.00     0.210 HD
ENDBRANCH  24  25
ENDBRANCH  23  24
ENDBRANCH  21  23
ENDBRANCH   3  21
TORSDOF 7
ENDMDL
MODEL 2
REMARK VINA RESULT:    -7.983      1.570      3.065
REMARK INTER + INTRA:         -11.469
REMARK INTER:                 -10.729
REMARK INTRA:                  -0.740
REMARK UNBOUND:                -0.452
REMARK SMILES COc1ccc(Nc2nc(NCCO)c3nccnc3n2)cc1
REMARK SMILES IDX 8 1 9 2 10 3 15 4 16 5 17 6 18 7 19 8 20 9 21 10 7 11 6 13
REMARK SMILES IDX 3 14 4 15 23 16 5 17 22 18 2 19 1 20 11 21 12 23 13 24 14 25
REMARK H PARENT 7 12 11 22 14 26
ROOT
ATOM      1  C   UNL     1       5.876  44.917  51.183  1.00  0.00     0.231 A 
ATOM      2  N   UNL     1       5.998  43.610  50.945  1.00  0.00    -0.193 NA
ATOM      3  C   UNL     1       4.878  42.870  50.866  1.00  0.00     0.160 A 
ATOM      4  C   UNL     1       3.602  43.411  51.015  1.00  0.00     0.150 A 
ATOM      5  N   UNL     1       2.453  42.665  50.957  1.00  0.00    -0.247 NA
ATOM      6  C   UNL     1       1.301  43.339  51.124  1.00  0.00     0.132 A 
ATOM      7  C   UNL     1       1.291  44.696  51.352  1.00  0.00     0.133 A 
ATOM      8  N   UNL     1       2.428  45.425  51.425  1.00  0.00    -0.233 NA
ATOM      9  C   UNL     1       3.594  44.790  51.257  1.00  0.00     0.185 A 
ATOM     10  N   UNL     1       4.698  45.522  51.340  1.00  0.00    -0.191 NA
ENDROOT
BRANCH   1  11
ATOM     11  N   UNL     1       6.979  45.757  51.292  1.00  0.00    -0.324 N 
ATOM     12  H   UNL     1       7.332  45.955  50.366  1.00  0.00     0.170 HD
BRANCH  11  13
ATOM     13  C   UNL     1       7.667  46.334  52.364  1.00  0.00     0.041 A 
ATOM     14  C   UNL     1       9.183  47.510  54.455  1.00  0.00     0.119 A 
ATOM     15  C   UNL     1       9.795  47.163  53.255  1.00  0.00     0.048 A 
ATOM     16  C   UNL     1       7.819  47.271  54.608  1.00  0.00     0.048 A 
ATOM     17  C   UNL     1       9.042  46.583  52.225  1.00  0.00     0.030 A 
ATOM     18  C   UNL     1       7.070  46.690  53.575  1.00  0.00     0.030 A 
BRANCH  14  19
ATOM     19  O   UNL     1       9.793  48.079  55.538  1.00  0.00    -0.497 OA
ATOM     20  C   UNL     1      10.983  47.458  56.005  1.00  0.00     0.278 C 
ENDBRANCH  14  19
ENDBRANCH  11  13
ENDBRANCH   1  11
BRANCH   3  21
ATOM     21  N   UNL     1       4.981  41.491  50.535  1.00  0.00    -0.366 N 
ATOM     22  H   UNL     1       5.715  41.089  51.119  1.00  0.00     0.162 HD
BRANCH  21  23
ATOM     23  C   UNL     1       5.141  41.208  49.111  1.00  0.00     0.142 C 
BRANCH  23  24
ATOM     24  C   UNL     1       3.917  40.452  48.583  1.00  0.00     0.177 C 
BRANCH  24  25
ATOM     25  O   UNL     1       3.137  39.953  49.663  1.00  0.00    -0.395 OA
ATOM     26  H   UNL     1       2.308  40.462  49.672  1.00  0.00     0.210 HD
ENDBRANCH  24  25
ENDBRANCH  23  24
ENDBRANCH  21  23
ENDBRANCH   3  21
TORSDOF 7
ENDMDL
MODEL 3
REMARK VINA RESULT:    -7.730      2.853      7.285
REMARK INTER + INTRA:         -11.119
REMARK INTER:                 -10.585
REMARK INTRA:                  -0.534
REMARK UNBOUND:                -0.452
REMARK SMILES COc1ccc(Nc2nc(NCCO)c3nccnc3n2)cc1
REMARK SMILES IDX 8 1 9 2 10 3 15 4 16 5 17 6 18 7 19 8 20 9 21 10 7 11 6 13
REMARK SMILES IDX 3 14 4 15 23 16 5 17 22 18 2 19 1 20 11 21 12 23 13 24 14 25
REMARK H PARENT 7 12 11 22 14 26
ROOT
ATOM      1  C   UNL     1       5.213  46.832  52.916  1.00  0.00     0.231 A 
ATOM      2  N   UNL     1       5.591  46.172  51.821  1.00  0.00    -0.193 NA
ATOM      3  C   UNL     1       6.908  45.994  51.608  1.00  0.00     0.160 A 
ATOM      4  C   UNL     1       7.885  46.462  52.485  1.00  0.00     0.150 A 
ATOM      5  N   UNL     1       9.230  46.304  52.270  1.00  0.00    -0.247 NA
ATOM      6  C   UNL     1      10.043  46.817  53.212  1.00  0.00     0.132 A 
ATOM      7  C   UNL     1       9.541  47.470  54.314  1.00  0.00     0.133 A 
ATOM      8  N   UNL     1       8.214  47.637  54.512  1.00  0.00    -0.233 NA
ATOM      9  C   UNL     1       7.373  47.134  53.600  1.00  0.00     0.185 A 
ATOM     10  N   UNL     1       6.075  47.316  53.810  1.00  0.00    -0.191 NA
ENDROOT
BRANCH   1  11
ATOM     11  N   UNL     1       3.874  47.072  53.212  1.00  0.00    -0.324 N 
ATOM     12  H   UNL     1       3.718  48.070  53.233  1.00  0.00     0.170 HD
BRANCH  11  13
ATOM     13  C   UNL     1       2.772  46.256  53.485  1.00  0.00     0.041 A 
ATOM     14  C   UNL     1       0.588  44.581  54.178  1.00  0.00     0.119 A 
ATOM     15  C   UNL     1       1.638  44.771  55.072  1.00  0.00     0.048 A 
ATOM     16  C   UNL     1       0.632  45.227  52.944  1.00  0.00     0.048 A 
ATOM     17  C   UNL     1       2.714  45.600  54.725  1.00  0.00     0.030 A 
ATOM     18  C   UNL     1       1.710  46.055  52.602  1.00  0.00     0.030 A 
BRANCH  14  19
ATOM     19  O   UNL     1      -0.517  43.804  54.383  1.00  0.00    -0.497 OA
ATOM     20  C   UNL     1      -1.380  44.182  55.447  1.00  0.00     0.278 C 
ENDBRANCH  14  19
ENDBRANCH  11  13
ENDBRANCH   1  11
BRANCH   3  21
ATOM     21  N   UNL     1       7.331  45.226  50.488  1.00  0.00    -0.366 N 
ATOM     22  H   UNL     1       7.539  45.878  49.730  1.00  0.00     0.162 HD
BRANCH  21  23
ATOM     23  C   UNL     1       6.426  44.146  50.103  1.00  0.00     0.142 C 
BRANCH  23  24
ATOM     24  C   UNL     1       7.205  43.036  49.387  1.00  0.00     0.177 C 
BRANCH  24  25
ATOM     25  O   UNL     1       8.480  43.513  48.973  1.00  0.00    -0.395 OA
ATOM     26  H   UNL     1       8.859  43.999  49.726  1.00  0.00     0.210 HD
ENDBRANCH  24  25
ENDBRANCH  23  24
ENDBRANCH  21  23
ENDBRANCH   3  21
TORSDOF 7
ENDMDL
MODEL 4
REMARK VINA RESULT:    -7.708      2.855      7.291
REMARK INTER + INTRA:         -11.089
REMARK INTER:                 -10.555
REMARK INTRA:                  -0.533
REMARK UNBOUND:                -0.452
REMARK SMILES COc1ccc(Nc2nc(NCCO)c3nccnc3n2)cc1
REMARK SMILES IDX 8 1 9 2 10 3 15 4 16 5 17 6 18 7 19 8 20 9 21 10 7 11 6 13
REMARK SMILES IDX 3 14 4 15 23 16 5 17 22 18 2 19 1 20 11 21 12 23 13 24 14 25
REMARK H PARENT 7 12 11 22 14 26
ROOT
ATOM      1  C   UNL     1       5.181  46.795  53.017  1.00  0.00     0.231 A 
ATOM      2  N   UNL     1       5.535  46.168  51.895  1.00  0.00    -0.193 NA
ATOM      3  C   UNL     1       6.846  46.012  51.638  1.00  0.00     0.160 A 
ATOM      4  C   UNL     1       7.844  46.469  52.497  1.00  0.00     0.150 A 
ATOM      5  N   UNL     1       9.184  46.334  52.239  1.00  0.00    -0.247 NA
ATOM      6  C   UNL     1      10.018  46.832  53.169  1.00  0.00     0.132 A 
ATOM      7  C   UNL     1       9.542  47.451  54.302  1.00  0.00     0.133 A 
ATOM      8  N   UNL     1       8.219  47.597  54.544  1.00  0.00    -0.233 NA
ATOM      9  C   UNL     1       7.357  47.107  53.645  1.00  0.00     0.185 A 
ATOM     10  N   UNL     1       6.064  47.267  53.897  1.00  0.00    -0.191 NA
ENDROOT
BRANCH   1  11
ATOM     11  N   UNL     1       3.850  47.011  53.358  1.00  0.00    -0.324 N 
ATOM     12  H   UNL     1       3.686  48.006  53.425  1.00  0.00     0.170 HD
BRANCH  11  13
ATOM     13  C   UNL     1       2.762  46.175  53.628  1.00  0.00     0.041 A 
ATOM     14  C   UNL     1       0.505  44.505  54.040  1.00  0.00     0.119 A 
ATOM     15  C   UNL     1       0.631  45.235  52.862  1.00  0.00     0.048 A 
ATOM     16  C   UNL     1       1.503  44.610  55.006  1.00  0.00     0.048 A 
ATOM     17  C   UNL     1       1.749  46.058  52.663  1.00  0.00     0.030 A 
ATOM     18  C   UNL     1       2.618  45.435  54.803  1.00  0.00     0.030 A 
BRANCH  14  19
ATOM     19  O   UNL     1      -0.526  43.668  54.364  1.00  0.00    -0.497 OA
ATOM     20  C   UNL     1      -1.438  44.125  55.355  1.00  0.00     0.278 C 
ENDBRANCH  14  19
ENDBRANCH  11  13
ENDBRANCH   1  11
BRANCH   3  21
ATOM     21  N   UNL     1       7.244  45.278  50.487  1.00  0.00    -0.366 N 
ATOM     22  H   UNL     1       7.420  45.951  49.739  1.00  0.00     0.162 HD
BRANCH  21  23
ATOM     23  C   UNL     1       6.343  44.195  50.103  1.00  0.00     0.142 C 
BRANCH  23  24
ATOM     24  C   UNL     1       7.148  42.991  49.602  1.00  0.00     0.177 C 
BRANCH  24  25
ATOM     25  O   UNL     1       8.294  43.427  48.879  1.00  0.00    -0.395 OA
ATOM     26  H   UNL     1       8.485  42.745  48.212  1.00  0.00     0.210 HD
ENDBRANCH  24  25
ENDBRANCH  23  24
ENDBRANCH  21  23
ENDBRANCH   3  21
TORSDOF 7
ENDMDL
MODEL 5
REMARK VINA RESULT:    -7.680      1.832      3.897
REMARK INTER + INTRA:         -11.050
REMARK INTER:                 -10.504
REMARK INTRA:                  -0.546
REMARK UNBOUND:                -0.452
REMARK SMILES COc1ccc(Nc2nc(NCCO)c3nccnc3n2)cc1
REMARK SMILES IDX 8 1 9 2 10 3 15 4 16 5 17 6 18 7 19 8 20 9 21 10 7 11 6 13
REMARK SMILES IDX 3 14 4 15 23 16 5 17 22 18 2 19 1 20 11 21 12 23 13 24 14 25
REMARK H PARENT 7 12 11 22 14 26
ROOT
ATOM      1  C   UNL     1       4.409  45.218  51.945  1.00  0.00     0.231 A 
ATOM      2  N   UNL     1       4.502  43.928  51.621  1.00  0.00    -0.193 NA
ATOM      3  C   UNL     1       3.488  43.111  51.961  1.00  0.00     0.160 A 
ATOM      4  C   UNL     1       2.348  43.558  52.628  1.00  0.00     0.150 A 
ATOM      5  N   UNL     1       1.317  42.734  52.998  1.00  0.00    -0.247 NA
ATOM      6  C   UNL     1       0.290  43.323  53.637  1.00  0.00     0.132 A 
ATOM      7  C   UNL     1       0.294  44.672  53.910  1.00  0.00     0.133 A 
ATOM      8  N   UNL     1       1.321  45.477  53.557  1.00  0.00    -0.233 NA
ATOM      9  C   UNL     1       2.358  44.929  52.912  1.00  0.00     0.185 A 
ATOM     10  N   UNL     1       3.359  45.735  52.583  1.00  0.00    -0.191 NA
ENDROOT
BRANCH   1  11
ATOM     11  N   UNL     1       5.414  46.132  51.643  1.00  0.00    -0.324 N 
ATOM     12  H   UNL     1       5.154  46.641  50.810  1.00  0.00     0.170 HD
BRANCH  11  13
ATOM     13  C   UNL     1       6.646  46.455  52.219  1.00  0.00     0.041 A 
ATOM     14  C   UNL     1       9.083  47.107  53.520  1.00  0.00     0.119 A 
ATOM     15  C   UNL     1       7.903  47.006  54.251  1.00  0.00     0.048 A 
ATOM     16  C   UNL     1       9.044  46.882  52.146  1.00  0.00     0.048 A 
ATOM     17  C   UNL     1       6.702  46.683  53.603  1.00  0.00     0.030 A 
ATOM     18  C   UNL     1       7.840  46.560  51.503  1.00  0.00     0.030 A 
BRANCH  14  19
ATOM     19  O   UNL     1      10.318  47.413  54.019  1.00  0.00    -0.497 OA
ATOM     20  C   UNL     1      10.463  47.394  55.433  1.00  0.00     0.278 C 
ENDBRANCH  14  19
ENDBRANCH  11  13
ENDBRANCH   1  11
BRANCH   3  21
ATOM     21  N   UNL     1       3.530  41.749  51.557  1.00  0.00    -0.366 N 
ATOM     22  H   UNL     1       3.623  41.180  52.401  1.00  0.00     0.162 HD
BRANCH  21  23
ATOM     23  C   UNL     1       4.521  41.440  50.529  1.00  0.00     0.142 C 
BRANCH  23  24
ATOM     24  C   UNL     1       3.841  40.782  49.323  1.00  0.00     0.177 C 
BRANCH  24  25
ATOM     25  O   UNL     1       3.041  39.683  49.742  1.00  0.00    -0.395 OA
ATOM     26  H   UNL     1       2.511  39.992  50.497  1.00  0.00     0.210 HD
ENDBRANCH  24  25
ENDBRANCH  23  24
ENDBRANCH  21  23
ENDBRANCH   3  21
TORSDOF 7
ENDMDL
MODEL 6
REMARK VINA RESULT:    -7.623      2.462      7.003
REMARK INTER + INTRA:         -10.972
REMARK INTER:                 -10.574
REMARK INTRA:                  -0.398
REMARK UNBOUND:                -0.452
REMARK SMILES COc1ccc(Nc2nc(NCCO)c3nccnc3n2)cc1
REMARK SMILES IDX 8 1 9 2 10 3 15 4 16 5 17 6 18 7 19 8 20 9 21 10 7 11 6 13
REMARK SMILES IDX 3 14 4 15 23 16 5 17 22 18 2 19 1 20 11 21 12 23 13 24 14 25
REMARK H PARENT 7 12 11 22 14 26
ROOT
ATOM      1  C   UNL     1       6.789  45.522  51.632  1.00  0.00     0.231 A 
ATOM      2  N   UNL     1       5.888  45.942  52.521  1.00  0.00    -0.193 NA
ATOM      3  C   UNL     1       6.325  46.618  53.599  1.00  0.00     0.160 A 
ATOM      4  C   UNL     1       7.672  46.902  53.818  1.00  0.00     0.150 A 
ATOM      5  N   UNL     1       8.133  47.573  54.922  1.00  0.00    -0.247 NA
ATOM      6  C   UNL     1       9.463  47.764  54.985  1.00  0.00     0.132 A 
ATOM      7  C   UNL     1      10.301  47.296  53.999  1.00  0.00     0.133 A 
ATOM      8  N   UNL     1       9.843  46.621  52.921  1.00  0.00    -0.233 NA
ATOM      9  C   UNL     1       8.524  46.418  52.819  1.00  0.00     0.185 A 
ATOM     10  N   UNL     1       8.097  45.746  51.758  1.00  0.00    -0.191 NA
ENDROOT
BRANCH   1  11
ATOM     11  N   UNL     1       6.429  44.806  50.494  1.00  0.00    -0.324 N 
ATOM     12  H   UNL     1       6.757  45.303  49.678  1.00  0.00     0.170 HD
BRANCH  11  13
ATOM     13  C   UNL     1       5.730  43.616  50.268  1.00  0.00     0.041 A 
ATOM     14  C   UNL     1       4.208  41.249  49.904  1.00  0.00     0.119 A 
ATOM     15  C   UNL     1       3.814  42.198  50.842  1.00  0.00     0.048 A 
ATOM     16  C   UNL     1       5.357  41.483  49.152  1.00  0.00     0.048 A 
ATOM     17  C   UNL     1       4.569  43.367  51.017  1.00  0.00     0.030 A 
ATOM     18  C   UNL     1       6.109  42.653  49.332  1.00  0.00     0.030 A 
BRANCH  14  19
ATOM     19  O   UNL     1       3.570  40.071  49.630  1.00  0.00    -0.497 OA
ATOM     20  C   UNL     1       3.449  39.709  48.261  1.00  0.00     0.278 C 
ENDBRANCH  14  19
ENDBRANCH  11  13
ENDBRANCH   1  11
BRANCH   3  21
ATOM     21  N   UNL     1       5.376  47.142  54.519  1.00  0.00    -0.366 N 
ATOM     22  H   UNL     1       5.682  46.882  55.458  1.00  0.00     0.162 HD
BRANCH  21  23
ATOM     23  C   UNL     1       3.985  46.796  54.237  1.00  0.00     0.142 C 
BRANCH  23  24
ATOM     24  C   UNL     1       3.418  45.931  55.368  1.00  0.00     0.177 C 
BRANCH  24  25
ATOM     25  O   UNL     1       4.320  44.878  55.688  1.00  0.00    -0.395 OA
ATOM     26  H   UNL     1       5.214  45.261  55.687  1.00  0.00     0.210 HD
ENDBRANCH  24  25
ENDBRANCH  23  24
ENDBRANCH  21  23
ENDBRANCH   3  21
TORSDOF 7
ENDMDL
MODEL 7
REMARK VINA RESULT:    -7.338      3.197      4.218
REMARK INTER + INTRA:         -10.578
REMARK INTER:                  -9.994
REMARK INTRA:                  -0.584
REMARK UNBOUND:                -0.452
REMARK SMILES COc1ccc(Nc2nc(NCCO)c3nccnc3n2)cc1
REMARK SMILES IDX 8 1 9 2 10 3 15 4 16 5 17 6 18 7 19 8 20 9 21 10 7 11 6 13
REMARK SMILES IDX 3 14 4 15 23 16 5 17 22 18 2 19 1 20 11 21 12 23 13 24 14 25
REMARK H PARENT 7 12 11 22 14 26
ROOT
ATOM      1  C   UNL     1       3.722  46.081  53.926  1.00  0.00     0.231 A 
ATOM      2  N   UNL     1       3.086  45.895  55.083  1.00  0.00    -0.193 NA
ATOM      3  C   UNL     1       2.115  44.964  55.135  1.00  0.00     0.160 A 
ATOM      4  C   UNL     1       1.755  44.186  54.035  1.00  0.00     0.150 A 
ATOM      5  N   UNL     1       0.755  43.249  54.068  1.00  0.00    -0.247 NA
ATOM      6  C   UNL     1       0.531  42.584  52.920  1.00  0.00     0.132 A 
ATOM      7  C   UNL     1       1.259  42.850  51.783  1.00  0.00     0.133 A 
ATOM      8  N   UNL     1       2.233  43.787  51.752  1.00  0.00    -0.233 NA
ATOM      9  C   UNL     1       2.492  44.464  52.878  1.00  0.00     0.185 A 
ATOM     10  N   UNL     1       3.445  45.385  52.823  1.00  0.00    -0.191 NA
ENDROOT
BRANCH   1  11
ATOM     11  N   UNL     1       4.730  47.028  53.778  1.00  0.00    -0.324 N 
ATOM     12  H   UNL     1       4.336  47.949  53.913  1.00  0.00     0.170 HD
BRANCH  11  13
ATOM     13  C   UNL     1       6.095  46.964  53.480  1.00  0.00     0.041 A 
ATOM     14  C   UNL     1       8.892  46.836  53.021  1.00  0.00     0.119 A 
ATOM     15  C   UNL     1       8.400  46.986  54.314  1.00  0.00     0.048 A 
ATOM     16  C   UNL     1       7.989  46.750  51.964  1.00  0.00     0.048 A 
ATOM     17  C   UNL     1       7.017  47.048  54.535  1.00  0.00     0.030 A 
ATOM     18  C   UNL     1       6.607  46.813  52.191  1.00  0.00     0.030 A 
BRANCH  14  19
ATOM     19  O   UNL     1      10.209  46.762  52.661  1.00  0.00    -0.497 OA
ATOM     20  C   UNL     1      10.526  45.940  51.546  1.00  0.00     0.278 C 
ENDBRANCH  14  19
ENDBRANCH  11  13
ENDBRANCH   1  11
BRANCH   3  21
ATOM     21  N   UNL     1       1.479  44.695  56.377  1.00  0.00    -0.366 N 
ATOM     22  H   UNL     1       1.340  43.685  56.439  1.00  0.00     0.162 HD
BRANCH  21  23
ATOM     23  C   UNL     1       0.267  45.470  56.631  1.00  0.00     0.142 C 
BRANCH  23  24
ATOM     24  C   UNL     1       0.501  46.450  57.787  1.00  0.00     0.177 C 
BRANCH  24  25
ATOM     25  O   UNL     1       1.888  46.534  58.093  1.00  0.00    -0.395 OA
ATOM     26  H   UNL     1       1.957  46.668  59.055  1.00  0.00     0.210 HD
ENDBRANCH  24  25
ENDBRANCH  23  24
ENDBRANCH  21  23
ENDBRANCH   3  21
TORSDOF 7
ENDMDL
MODEL 8
REMARK VINA RESULT:    -7.305      2.240      4.497
REMARK INTER + INTRA:         -10.532
REMARK INTER:                  -9.998
REMARK INTRA:                  -0.533
REMARK UNBOUND:                -0.452
REMARK SMILES COc1ccc(Nc2nc(NCCO)c3nccnc3n2)cc1
REMARK SMILES IDX 8 1 9 2 10 3 15 4 16 5 17 6 18 7 19 8 20 9 21 10 7 11 6 13
REMARK SMILES IDX 3 14 4 15 23 16 5 17 22 18 2 19 1 20 11 21 12 23 13 24 14 25
REMARK H PARENT 7 12 11 22 14 26
ROOT
ATOM      1  C   UNL     1       3.626  45.562  53.226  1.00  0.00     0.231 A 
ATOM      2  N   UNL     1       3.837  44.421  52.568  1.00  0.00    -0.193 NA
ATOM      3  C   UNL     1       2.873  43.484  52.593  1.00  0.00     0.160 A 
ATOM      4  C   UNL     1       1.666  43.658  53.269  1.00  0.00     0.150 A 
ATOM      5  N   UNL     1       0.683  42.703  53.320  1.00  0.00    -0.247 NA
ATOM      6  C   UNL     1      -0.421  43.028  54.017  1.00  0.00     0.132 A 
ATOM      7  C   UNL     1      -0.538  44.245  54.649  1.00  0.00     0.133 A 
ATOM      8  N   UNL     1       0.442  45.176  54.609  1.00  0.00    -0.233 NA
ATOM      9  C   UNL     1       1.553  44.893  53.919  1.00  0.00     0.185 A 
ATOM     10  N   UNL     1       2.504  45.818  53.900  1.00  0.00    -0.191 NA
ENDROOT
BRANCH   1  11
ATOM     11  N   UNL     1       4.571  46.582  53.263  1.00  0.00    -0.324 N 
ATOM     12  H   UNL     1       4.098  47.460  53.427  1.00  0.00     0.170 HD
BRANCH  11  13
ATOM     13  C   UNL     1       5.960  46.634  53.110  1.00  0.00     0.041 A 
ATOM     14  C   UNL     1       8.791  46.746  52.948  1.00  0.00     0.119 A 
ATOM     15  C   UNL     1       8.153  46.884  54.177  1.00  0.00     0.048 A 
ATOM     16  C   UNL     1       8.016  46.552  51.807  1.00  0.00     0.048 A 
ATOM     17  C   UNL     1       6.754  46.827  54.252  1.00  0.00     0.030 A 
ATOM     18  C   UNL     1       6.618  46.496  51.887  1.00  0.00     0.030 A 
BRANCH  14  19
ATOM     19  O   UNL     1      10.140  46.781  52.730  1.00  0.00    -0.497 OA
ATOM     20  C   UNL     1      10.634  46.023  51.633  1.00  0.00     0.278 C 
ENDBRANCH  14  19
ENDBRANCH  11  13
ENDBRANCH   1  11
BRANCH   3  21
ATOM     21  N   UNL     1       3.044  42.293  51.835  1.00  0.00    -0.366 N 
ATOM     22  H   UNL     1       2.716  41.514  52.408  1.00  0.00     0.162 HD
BRANCH  21  23
ATOM     23  C   UNL     1       4.384  42.097  51.288  1.00  0.00     0.142 C 
BRANCH  23  24
ATOM     24  C   UNL     1       4.318  41.222  50.032  1.00  0.00     0.177 C 
BRANCH  24  25
ATOM     25  O   UNL     1       3.218  40.322  50.110  1.00  0.00    -0.395 OA
ATOM     26  H   UNL     1       2.757  40.512  50.946  1.00  0.00     0.210 HD
ENDBRANCH  24  25
ENDBRANCH  23  24
ENDBRANCH  21  23
ENDBRANCH   3  21
TORSDOF 7
ENDMDL
MODEL 9
REMARK VINA RESULT:    -7.304      2.367      4.187
REMARK INTER + INTRA:         -10.531
REMARK INTER:                  -9.918
REMARK INTRA:                  -0.612
REMARK UNBOUND:                -0.452
REMARK SMILES COc1ccc(Nc2nc(NCCO)c3nccnc3n2)cc1
REMARK SMILES IDX 8 1 9 2 10 3 15 4 16 5 17 6 18 7 19 8 20 9 21 10 7 11 6 13
REMARK SMILES IDX 3 14 4 15 23 16 5 17 22 18 2 19 1 20 11 21 12 23 13 24 14 25
REMARK H PARENT 7 12 11 22 14 26
ROOT
ATOM      1  C   UNL     1       3.491  45.610  52.777  1.00  0.00     0.231 A 
ATOM      2  N   UNL     1       3.826  44.322  52.707  1.00  0.00    -0.193 NA
ATOM      3  C   UNL     1       2.853  43.422  52.476  1.00  0.00     0.160 A 
ATOM      4  C   UNL     1       1.517  43.781  52.301  1.00  0.00     0.150 A 
ATOM      5  N   UNL     1       0.512  42.874  52.085  1.00  0.00    -0.247 NA
ATOM      6  C   UNL     1      -0.724  43.384  51.939  1.00  0.00     0.132 A 
ATOM      7  C   UNL     1      -0.954  44.738  52.017  1.00  0.00     0.133 A 
ATOM      8  N   UNL     1       0.038  45.628  52.247  1.00  0.00    -0.233 NA
ATOM      9  C   UNL     1       1.283  45.159  52.391  1.00  0.00     0.185 A 
ATOM     10  N   UNL     1       2.241  46.047  52.623  1.00  0.00    -0.191 NA
ENDROOT
BRANCH   1  11
ATOM     11  N   UNL     1       4.429  46.608  53.023  1.00  0.00    -0.324 N 
ATOM     12  H   UNL     1       3.944  47.454  53.288  1.00  0.00     0.170 HD
BRANCH  11  13
ATOM     13  C   UNL     1       5.824  46.674  52.963  1.00  0.00     0.041 A 
ATOM     14  C   UNL     1       8.659  46.816  52.987  1.00  0.00     0.119 A 
ATOM     15  C   UNL     1       7.939  46.953  54.170  1.00  0.00     0.048 A 
ATOM     16  C   UNL     1       7.963  46.608  51.798  1.00  0.00     0.048 A 
ATOM     17  C   UNL     1       6.539  46.882  54.153  1.00  0.00     0.030 A 
ATOM     18  C   UNL     1       6.563  46.537  51.786  1.00  0.00     0.030 A 
BRANCH  14  19
ATOM     19  O   UNL     1      10.019  46.864  52.858  1.00  0.00    -0.497 OA
ATOM     20  C   UNL     1      10.588  46.144  51.773  1.00  0.00     0.278 C 
ENDBRANCH  14  19
ENDBRANCH  11  13
ENDBRANCH   1  11
BRANCH   3  21
ATOM     21  N   UNL     1       3.198  42.052  52.320  1.00  0.00    -0.366 N 
ATOM     22  H   UNL     1       3.429  41.685  53.245  1.00  0.00     0.162 HD
BRANCH  21  23
ATOM     23  C   UNL     1       4.220  41.784  51.311  1.00  0.00     0.142 C 
BRANCH  23  24
ATOM     24  C   UNL     1       3.561  41.365  49.992  1.00  0.00     0.177 C 
BRANCH  24  25
ATOM     25  O   UNL     1       3.126  40.012  50.063  1.00  0.00    -0.395 OA
ATOM     26  H   UNL     1       2.358  39.931  49.471  1.00  0.00     0.210 HD
ENDBRANCH  24  25
ENDBRANCH  23  24
ENDBRANCH  21  23
ENDBRANCH   3  21
TORSDOF 7
ENDMDL
MODEL 10
REMARK VINA RESULT:    -7.265      2.085      6.634
REMARK INTER + INTRA:         -10.477
REMARK INTER:                 -10.022
REMARK INTRA:                  -0.455
REMARK UNBOUND:                -0.452
REMARK SMILES COc1ccc(Nc2nc(NCCO)c3nccnc3n2)cc1
REMARK SMILES IDX 8 1 9 2 10 3 15 4 16 5 17 6 18 7 19 8 20 9 21 10 7 11 6 13
REMARK SMILES IDX 3 14 4 15 23 16 5 17 22 18 2 19 1 20 11 21 12 23 13 24 14 25
REMARK H PARENT 7 12 11 22 14 26
ROOT
ATOM      1  C   UNL     1       5.398  46.368  52.313  1.00  0.00     0.231 A 
ATOM      2  N   UNL     1       6.572  47.002  52.337  1.00  0.00    -0.193 NA
ATOM      3  C   UNL     1       7.572  46.519  51.578  1.00  0.00     0.160 A 
ATOM      4  C   UNL     1       7.430  45.395  50.766  1.00  0.00     0.150 A 
ATOM      5  N   UNL     1       8.447  44.881  50.003  1.00  0.00    -0.247 NA
ATOM      6  C   UNL     1       8.147  43.788  49.278  1.00  0.00     0.132 A 
ATOM      7  C   UNL     1       6.893  43.222  49.319  1.00  0.00     0.133 A 
ATOM      8  N   UNL     1       5.899  43.724  50.086  1.00  0.00    -0.233 NA
ATOM      9  C   UNL     1       6.157  44.815  50.817  1.00  0.00     0.185 A 
ATOM     10  N   UNL     1       5.170  45.286  51.569  1.00  0.00    -0.191 NA
ENDROOT
BRANCH   1  11
ATOM     11  N   UNL     1       4.312  46.790  53.073  1.00  0.00    -0.324 N 
ATOM     12  H   UNL     1       4.435  47.765  53.307  1.00  0.00     0.170 HD
BRANCH  11  13
ATOM     13  C   UNL     1       3.161  46.165  53.563  1.00  0.00     0.041 A 
ATOM     14  C   UNL     1       0.894  44.881  54.688  1.00  0.00     0.119 A 
ATOM     15  C   UNL     1       2.073  44.991  55.420  1.00  0.00     0.048 A 
ATOM     16  C   UNL     1       0.850  45.412  53.401  1.00  0.00     0.048 A 
ATOM     17  C   UNL     1       3.190  45.626  54.860  1.00  0.00     0.030 A 
ATOM     18  C   UNL     1       1.970  46.047  52.846  1.00  0.00     0.030 A 
BRANCH  14  19
ATOM     19  O   UNL     1      -0.265  44.290  55.108  1.00  0.00    -0.497 OA
ATOM     20  C   UNL     1      -0.966  43.502  54.154  1.00  0.00     0.278 C 
ENDBRANCH  14  19
ENDBRANCH  11  13
ENDBRANCH   1  11
BRANCH   3  21
ATOM     21  N   UNL     1       8.806  47.224  51.528  1.00  0.00    -0.366 N 
ATOM     22  H   UNL     1       9.075  47.304  50.546  1.00  0.00     0.162 HD
BRANCH  21  23
ATOM     23  C   UNL     1       9.860  46.684  52.384  1.00  0.00     0.142 C 
BRANCH  23  24
ATOM     24  C   UNL     1       9.798  47.334  53.770  1.00  0.00     0.177 C 
BRANCH  24  25
ATOM     25  O   UNL     1       8.817  48.365  53.792  1.00  0.00    -0.395 OA
ATOM     26  H   UNL     1       8.781  48.740  52.895  1.00  0.00     0.210 HD
ENDBRANCH  24  25
ENDBRANCH  23  24
ENDBRANCH  21  23
ENDBRANCH   3  21
TORSDOF 7
ENDMDL
MODEL 11
REMARK VINA RESULT:    -7.253      2.258      7.770
REMARK INTER + INTRA:         -10.460
REMARK INTER:                  -9.960
REMARK INTRA:                  -0.500
REMARK UNBOUND:                -0.452
REMARK SMILES COc1ccc(Nc2nc(NCCO)c3nccnc3n2)cc1
REMARK SMILES IDX 8 1 9 2 10 3 15 4 16 5 17 6 18 7 19 8 20 9 21 10 7 11 6 13
REMARK SMILES IDX 3 14 4 15 23 16 5 17 22 18 2 19 1 20 11 21 12 23 13 24 14 25
REMARK H PARENT 7 12 11 22 14 26
ROOT
ATOM      1  C   UNL     1       6.480  44.437  50.977  1.00  0.00     0.231 A 
ATOM      2  N   UNL     1       7.347  45.449  50.933  1.00  0.00    -0.193 NA
ATOM      3  C   UNL     1       7.140  46.501  51.746  1.00  0.00     0.160 A 
ATOM      4  C   UNL     1       6.068  46.571  52.633  1.00  0.00     0.150 A 
ATOM      5  N   UNL     1       5.834  47.645  53.453  1.00  0.00    -0.247 NA
ATOM      6  C   UNL     1       4.753  47.557  54.249  1.00  0.00     0.132 A 
ATOM      7  C   UNL     1       3.930  46.455  54.221  1.00  0.00     0.133 A 
ATOM      8  N   UNL     1       4.156  45.405  53.398  1.00  0.00    -0.233 NA
ATOM      9  C   UNL     1       5.227  45.452  52.597  1.00  0.00     0.185 A 
ATOM     10  N   UNL     1       5.425  44.416  51.792  1.00  0.00    -0.191 NA
ENDROOT
BRANCH   1  11
ATOM     11  N   UNL     1       6.608  43.314  50.165  1.00  0.00    -0.324 N 
ATOM     12  H   UNL     1       7.581  43.196  49.921  1.00  0.00     0.170 HD
BRANCH  11  13
ATOM     13  C   UNL     1       5.709  42.383  49.636  1.00  0.00     0.041 A 
ATOM     14  C   UNL     1       3.961  40.496  48.436  1.00  0.00     0.119 A 
ATOM     15  C   UNL     1       4.971  41.092  47.687  1.00  0.00     0.048 A 
ATOM     16  C   UNL     1       3.828  40.842  49.779  1.00  0.00     0.048 A 
ATOM     17  C   UNL     1       5.832  42.023  48.284  1.00  0.00     0.030 A 
ATOM     18  C   UNL     1       4.691  41.773  50.372  1.00  0.00     0.030 A 
BRANCH  14  19
ATOM     19  O   UNL     1       3.055  39.578  47.985  1.00  0.00    -0.497 OA
ATOM     20  C   UNL     1       3.071  39.288  46.593  1.00  0.00     0.278 C 
ENDBRANCH  14  19
ENDBRANCH  11  13
ENDBRANCH   1  11
BRANCH   3  21
ATOM     21  N   UNL     1       8.094  47.554  51.771  1.00  0.00    -0.366 N 
ATOM     22  H   UNL     1       8.075  48.009  50.857  1.00  0.00     0.162 HD
BRANCH  21  23
ATOM     23  C   UNL     1       9.434  47.165  52.205  1.00  0.00     0.142 C 
BRANCH  23  24
ATOM     24  C   UNL     1       9.523  47.196  53.735  1.00  0.00     0.177 C 
BRANCH  24  25
ATOM     25  O   UNL     1       8.812  48.315  54.251  1.00  0.00    -0.395 OA
ATOM     26  H   UNL     1       8.912  48.292  55.218  1.00  0.00     0.210 HD
ENDBRANCH  24  25
ENDBRANCH  23  24
ENDBRANCH  21  23
ENDBRANCH   3  21
TORSDOF 7
ENDMDL
MODEL 12
REMARK VINA RESULT:    -7.248      3.709      6.569
REMARK INTER + INTRA:         -10.454
REMARK INTER:                 -10.154
REMARK INTRA:                  -0.300
REMARK UNBOUND:                -0.452
REMARK SMILES COc1ccc(Nc2nc(NCCO)c3nccnc3n2)cc1
REMARK SMILES IDX 8 1 9 2 10 3 15 4 16 5 17 6 18 7 19 8 20 9 21 10 7 11 6 13
REMARK SMILES IDX 3 14 4 15 23 16 5 17 22 18 2 19 1 20 11 21 12 23 13 24 14 25
REMARK H PARENT 7 12 11 22 14 26
ROOT
ATOM      1  C   UNL     1       2.377  43.112  52.778  1.00  0.00     0.231 A 
ATOM      2  N   UNL     1       2.946  44.110  53.455  1.00  0.00    -0.193 NA
ATOM      3  C   UNL     1       2.194  44.789  54.340  1.00  0.00     0.160 A 
ATOM      4  C   UNL     1       0.855  44.487  54.583  1.00  0.00     0.150 A 
ATOM      5  N   UNL     1       0.071  45.182  55.467  1.00  0.00    -0.247 NA
ATOM      6  C   UNL     1      -1.202  44.765  55.583  1.00  0.00     0.132 A 
ATOM      7  C   UNL     1      -1.682  43.711  54.841  1.00  0.00     0.133 A 
ATOM      8  N   UNL     1      -0.910  43.039  53.958  1.00  0.00    -0.233 NA
ATOM      9  C   UNL     1       0.366  43.419  53.820  1.00  0.00     0.185 A 
ATOM     10  N   UNL     1       1.104  42.752  52.942  1.00  0.00    -0.191 NA
ENDROOT
BRANCH   1  11
ATOM     11  N   UNL     1       3.075  42.363  51.835  1.00  0.00    -0.324 N 
ATOM     12  H   UNL     1       2.568  41.508  51.656  1.00  0.00     0.170 HD
BRANCH  11  13
ATOM     13  C   UNL     1       4.276  42.541  51.141  1.00  0.00     0.041 A 
ATOM     14  C   UNL     1       6.707  42.759  49.692  1.00  0.00     0.119 A 
ATOM     15  C   UNL     1       6.086  41.522  49.839  1.00  0.00     0.048 A 
ATOM     16  C   UNL     1       6.113  43.881  50.267  1.00  0.00     0.048 A 
ATOM     17  C   UNL     1       4.885  41.420  50.554  1.00  0.00     0.030 A 
ATOM     18  C   UNL     1       4.913  43.773  50.982  1.00  0.00     0.030 A 
BRANCH  14  19
ATOM     19  O   UNL     1       7.875  43.003  49.025  1.00  0.00    -0.497 OA
ATOM     20  C   UNL     1       8.542  44.222  49.322  1.00  0.00     0.278 C 
ENDBRANCH  14  19
ENDBRANCH  11  13
ENDBRANCH   1  11
BRANCH   3  21
ATOM     21  N   UNL     1       2.800  45.805  55.129  1.00  0.00    -0.366 N 
ATOM     22  H   UNL     1       2.280  46.669  54.969  1.00  0.00     0.162 HD
BRANCH  21  23
ATOM     23  C   UNL     1       4.242  45.946  54.952  1.00  0.00     0.142 C 
BRANCH  23  24
ATOM     24  C   UNL     1       4.550  47.174  54.087  1.00  0.00     0.177 C 
BRANCH  24  25
ATOM     25  O   UNL     1       4.641  48.341  54.897  1.00  0.00    -0.395 OA
ATOM     26  H   UNL     1       3.745  48.525  55.228  1.00  0.00     0.210 HD
ENDBRANCH  24  25
ENDBRANCH  23  24
ENDBRANCH  21  23
ENDBRANCH   3  21
TORSDOF 7
ENDMDL
MODEL 13
REMARK VINA RESULT:    -7.245      2.847      6.980
REMARK INTER + INTRA:         -10.450
REMARK INTER:                  -9.917
REMARK INTRA:                  -0.532
REMARK UNBOUND:                -0.452
REMARK SMILES COc1ccc(Nc2nc(NCCO)c3nccnc3n2)cc1
REMARK SMILES IDX 8 1 9 2 10 3 15 4 16 5 17 6 18 7 19 8 20 9 21 10 7 11 6 13
REMARK SMILES IDX 3 14 4 15 23 16 5 17 22 18 2 19 1 20 11 21 12 23 13 24 14 25
REMARK H PARENT 7 12 11 22 14 26
ROOT
ATOM      1  C   UNL     1       4.677  46.494  52.219  1.00  0.00     0.231 A 
ATOM      2  N   UNL     1       4.936  45.530  51.335  1.00  0.00    -0.193 NA
ATOM      3  C   UNL     1       6.218  45.301  50.999  1.00  0.00     0.160 A 
ATOM      4  C   UNL     1       7.281  46.022  51.541  1.00  0.00     0.150 A 
ATOM      5  N   UNL     1       8.591  45.813  51.193  1.00  0.00    -0.247 NA
ATOM      6  C   UNL     1       9.497  46.596  51.806  1.00  0.00     0.132 A 
ATOM      7  C   UNL     1       9.118  47.555  52.717  1.00  0.00     0.133 A 
ATOM      8  N   UNL     1       7.823  47.768  53.044  1.00  0.00    -0.233 NA
ATOM      9  C   UNL     1       6.892  47.004  52.460  1.00  0.00     0.185 A 
ATOM     10  N   UNL     1       5.628  47.235  52.789  1.00  0.00    -0.191 NA
ENDROOT
BRANCH   1  11
ATOM     11  N   UNL     1       3.381  46.807  52.617  1.00  0.00    -0.324 N 
ATOM     12  H   UNL     1       3.215  47.789  52.448  1.00  0.00     0.170 HD
BRANCH  11  13
ATOM     13  C   UNL     1       2.330  46.080  53.185  1.00  0.00     0.041 A 
ATOM     14  C   UNL     1       0.137  44.594  54.205  1.00  0.00     0.119 A 
ATOM     15  C   UNL     1       0.155  44.993  52.872  1.00  0.00     0.048 A 
ATOM     16  C   UNL     1       1.212  44.936  55.023  1.00  0.00     0.048 A 
ATOM     17  C   UNL     1       1.241  45.726  52.373  1.00  0.00     0.030 A 
ATOM     18  C   UNL     1       2.295  45.670  54.519  1.00  0.00     0.030 A 
BRANCH  14  19
ATOM     19  O   UNL     1      -0.852  43.880  54.821  1.00  0.00    -0.497 OA
ATOM     20  C   UNL     1      -1.329  44.382  56.063  1.00  0.00     0.278 C 
ENDBRANCH  14  19
ENDBRANCH  11  13
ENDBRANCH   1  11
BRANCH   3  21
ATOM     21  N   UNL     1       6.523  44.228  50.118  1.00  0.00    -0.366 N 
ATOM     22  H   UNL     1       6.290  44.531  49.171  1.00  0.00     0.162 HD
BRANCH  21  23
ATOM     23  C   UNL     1       5.935  42.942  50.485  1.00  0.00     0.142 C 
BRANCH  23  24
ATOM     24  C   UNL     1       6.353  41.864  49.479  1.00  0.00     0.177 C 
BRANCH  24  25
ATOM     25  O   UNL     1       7.205  40.909  50.101  1.00  0.00    -0.395 OA
ATOM     26  H   UNL     1       7.870  40.650  49.440  1.00  0.00     0.210 HD
ENDBRANCH  24  25
ENDBRANCH  23  24
ENDBRANCH  21  23
ENDBRANCH   3  21
TORSDOF 7
ENDMDL
MODEL 14
REMARK VINA RESULT:    -7.160      2.827      7.598
REMARK INTER + INTRA:         -10.332
REMARK INTER:                  -9.848
REMARK INTRA:                  -0.484
REMARK UNBOUND:                -0.452
REMARK SMILES COc1ccc(Nc2nc(NCCO)c3nccnc3n2)cc1
REMARK SMILES IDX 8 1 9 2 10 3 15 4 16 5 17 6 18 7 19 8 20 9 21 10 7 11 6 13
REMARK SMILES IDX 3 14 4 15 23 16 5 17 22 18 2 19 1 20 11 21 12 23 13 24 14 25
REMARK H PARENT 7 12 11 22 14 26
ROOT
ATOM      1  C   UNL     1       4.071  44.678  53.367  1.00  0.00     0.231 A 
ATOM      2  N   UNL     1       4.371  43.976  52.274  1.00  0.00    -0.193 NA
ATOM      3  C   UNL     1       5.434  44.358  51.543  1.00  0.00     0.160 A 
ATOM      4  C   UNL     1       6.234  45.446  51.885  1.00  0.00     0.150 A 
ATOM      5  N   UNL     1       7.308  45.858  51.139  1.00  0.00    -0.247 NA
ATOM      6  C   UNL     1       7.976  46.929  51.606  1.00  0.00     0.132 A 
ATOM      7  C   UNL     1       7.585  47.572  52.758  1.00  0.00     0.133 A 
ATOM      8  N   UNL     1       6.515  47.171  53.481  1.00  0.00    -0.233 NA
ATOM      9  C   UNL     1       5.829  46.104  53.053  1.00  0.00     0.185 A 
ATOM     10  N   UNL     1       4.778  45.733  53.772  1.00  0.00    -0.191 NA
ENDROOT
BRANCH   1  11
ATOM     11  N   UNL     1       2.984  44.362  54.176  1.00  0.00    -0.324 N 
ATOM     12  H   UNL     1       3.284  44.358  55.141  1.00  0.00     0.170 HD
BRANCH  11  13
ATOM     13  C   UNL     1       1.643  44.051  53.933  1.00  0.00     0.041 A 
ATOM     14  C   UNL     1      -1.039  43.279  53.414  1.00  0.00     0.119 A 
ATOM     15  C   UNL     1      -0.001  42.368  53.243  1.00  0.00     0.048 A 
ATOM     16  C   UNL     1      -0.736  44.569  53.844  1.00  0.00     0.048 A 
ATOM     17  C   UNL     1       1.321  42.754  53.501  1.00  0.00     0.030 A 
ATOM     18  C   UNL     1       0.588  44.950  54.100  1.00  0.00     0.030 A 
BRANCH  14  19
ATOM     19  O   UNL     1      -2.368  43.040  53.200  1.00  0.00    -0.497 OA
ATOM     20  C   UNL     1      -3.273  44.076  53.558  1.00  0.00     0.278 C 
ENDBRANCH  14  19
ENDBRANCH  11  13
ENDBRANCH   1  11
BRANCH   3  21
ATOM     21  N   UNL     1       5.817  43.578  50.418  1.00  0.00    -0.366 N 
ATOM     22  H   UNL     1       5.581  44.111  49.579  1.00  0.00     0.162 HD
BRANCH  21  23
ATOM     23  C   UNL     1       5.302  42.211  50.409  1.00  0.00     0.142 C 
BRANCH  23  24
ATOM     24  C   UNL     1       6.104  41.351  49.427  1.00  0.00     0.177 C 
BRANCH  24  25
ATOM     25  O   UNL     1       7.272  40.837  50.057  1.00  0.00    -0.395 OA
ATOM     26  H   UNL     1       7.892  41.580  50.153  1.00  0.00     0.210 HD
ENDBRANCH  24  25
ENDBRANCH  23  24
ENDBRANCH  21  23
ENDBRANCH   3  21
TORSDOF 7
ENDMDL
MODEL 15
REMARK VINA RESULT:    -7.102      3.146      5.047
REMARK INTER + INTRA:         -10.252
REMARK INTER:                  -9.459
REMARK INTRA:                  -0.792
REMARK UNBOUND:                -0.452
REMARK SMILES COc1ccc(Nc2nc(NCCO)c3nccnc3n2)cc1
REMARK SMILES IDX 8 1 9 2 10 3 15 4 16 5 17 6 18 7 19 8 20 9 21 10 7 11 6 13
REMARK SMILES IDX 3 14 4 15 23 16 5 17 22 18 2 19 1 20 11 21 12 23 13 24 14 25
REMARK H PARENT 7 12 11 22 14 26
ROOT
ATOM      1  C   UNL     1       2.683  44.130  53.414  1.00  0.00     0.231 A 
ATOM      2  N   UNL     1       2.070  44.853  54.352  1.00  0.00    -0.193 NA
ATOM      3  C   UNL     1       0.735  44.999  54.273  1.00  0.00     0.160 A 
ATOM      4  C   UNL     1      -0.029  44.423  53.259  1.00  0.00     0.150 A 
ATOM      5  N   UNL     1      -1.387  44.581  53.154  1.00  0.00    -0.247 NA
ATOM      6  C   UNL     1      -1.976  43.961  52.116  1.00  0.00     0.132 A 
ATOM      7  C   UNL     1      -1.244  43.226  51.211  1.00  0.00     0.133 A 
ATOM      8  N   UNL     1       0.098  43.088  51.310  1.00  0.00    -0.233 NA
ATOM      9  C   UNL     1       0.718  43.684  52.335  1.00  0.00     0.185 A 
ATOM     10  N   UNL     1       2.036  43.543  52.408  1.00  0.00    -0.191 NA
ENDROOT
BRANCH   1  11
ATOM     11  N   UNL     1       4.061  43.934  53.411  1.00  0.00    -0.324 N 
ATOM     12  H   UNL     1       4.272  43.084  53.914  1.00  0.00     0.170 HD
BRANCH  11  13
ATOM     13  C   UNL     1       5.148  44.647  52.896  1.00  0.00     0.041 A 
ATOM     14  C   UNL     1       7.307  46.062  51.715  1.00  0.00     0.119 A 
ATOM     15  C   UNL     1       6.423  45.339  50.920  1.00  0.00     0.048 A 
ATOM     16  C   UNL     1       7.110  46.077  53.094  1.00  0.00     0.048 A 
ATOM     17  C   UNL     1       5.357  44.643  51.508  1.00  0.00     0.030 A 
ATOM     18  C   UNL     1       6.044  45.379  53.678  1.00  0.00     0.030 A 
BRANCH  14  19
ATOM     19  O   UNL     1       8.383  46.782  51.278  1.00  0.00    -0.497 OA
ATOM     20  C   UNL     1       9.602  46.610  51.987  1.00  0.00     0.278 C 
ENDBRANCH  14  19
ENDBRANCH  11  13
ENDBRANCH   1  11
BRANCH   3  21
ATOM     21  N   UNL     1       0.052  45.700  55.304  1.00  0.00    -0.366 N 
ATOM     22  H   UNL     1       0.355  46.675  55.267  1.00  0.00     0.162 HD
BRANCH  21  23
ATOM     23  C   UNL     1       0.160  45.102  56.633  1.00  0.00     0.142 C 
BRANCH  23  24
ATOM     24  C   UNL     1       0.881  46.062  57.586  1.00  0.00     0.177 C 
BRANCH  24  25
ATOM     25  O   UNL     1       2.230  46.248  57.175  1.00  0.00    -0.395 OA
ATOM     26  H   UNL     1       2.205  46.740  56.336  1.00  0.00     0.210 HD
ENDBRANCH  24  25
ENDBRANCH  23  24
ENDBRANCH  21  23
ENDBRANCH   3  21
TORSDOF 7
ENDMDL
MODEL 16
REMARK VINA RESULT:    -7.076      3.671      5.118
REMARK INTER + INTRA:         -10.216
REMARK INTER:                  -9.364
REMARK INTRA:                  -0.852
REMARK UNBOUND:                -0.452
REMARK SMILES COc1ccc(Nc2nc(NCCO)c3nccnc3n2)cc1
REMARK SMILES IDX 8 1 9 2 10 3 15 4 16 5 17 6 18 7 19 8 20 9 21 10 7 11 6 13
REMARK SMILES IDX 3 14 4 15 23 16 5 17 22 18 2 19 1 20 11 21 12 23 13 24 14 25
REMARK H PARENT 7 12 11 22 14 26
ROOT
ATOM      1  C   UNL     1       2.770  46.332  53.257  1.00  0.00     0.231 A 
ATOM      2  N   UNL     1       2.664  46.036  54.553  1.00  0.00    -0.193 NA
ATOM      3  C   UNL     1       1.592  45.332  54.959  1.00  0.00     0.160 A 
ATOM      4  C   UNL     1       0.598  44.896  54.085  1.00  0.00     0.150 A 
ATOM      5  N   UNL     1      -0.509  44.195  54.488  1.00  0.00    -0.247 NA
ATOM      6  C   UNL     1      -1.376  43.850  53.519  1.00  0.00     0.132 A 
ATOM      7  C   UNL     1      -1.159  44.200  52.206  1.00  0.00     0.133 A 
ATOM      8  N   UNL     1      -0.074  44.905  51.816  1.00  0.00    -0.233 NA
ATOM      9  C   UNL     1       0.816  45.260  52.751  1.00  0.00     0.185 A 
ATOM     10  N   UNL     1       1.870  45.959  52.348  1.00  0.00    -0.191 NA
ENDROOT
BRANCH   1  11
ATOM     11  N   UNL     1       3.838  47.065  52.749  1.00  0.00    -0.324 N 
ATOM     12  H   UNL     1       3.550  48.027  52.635  1.00  0.00     0.170 HD
BRANCH  11  13
ATOM     13  C   UNL     1       5.147  46.751  52.371  1.00  0.00     0.041 A 
ATOM     14  C   UNL     1       7.750  46.045  51.484  1.00  0.00     0.119 A 
ATOM     15  C   UNL     1       6.627  45.583  50.804  1.00  0.00     0.048 A 
ATOM     16  C   UNL     1       7.570  46.857  52.602  1.00  0.00     0.048 A 
ATOM     17  C   UNL     1       5.344  45.935  51.245  1.00  0.00     0.030 A 
ATOM     18  C   UNL     1       6.285  47.206  53.040  1.00  0.00     0.030 A 
BRANCH  14  19
ATOM     19  O   UNL     1       9.053  45.781  51.167  1.00  0.00    -0.497 OA
ATOM     20  C   UNL     1      10.048  46.462  51.919  1.00  0.00     0.278 C 
ENDBRANCH  14  19
ENDBRANCH  11  13
ENDBRANCH   1  11
BRANCH   3  21
ATOM     21  N   UNL     1       1.499  44.938  56.322  1.00  0.00    -0.366 N 
ATOM     22  H   UNL     1       0.823  44.174  56.376  1.00  0.00     0.162 HD
BRANCH  21  23
ATOM     23  C   UNL     1       1.233  46.024  57.262  1.00  0.00     0.142 C 
BRANCH  23  24
ATOM     24  C   UNL     1      -0.277  46.189  57.465  1.00  0.00     0.177 C 
BRANCH  24  25
ATOM     25  O   UNL     1      -0.929  44.927  57.384  1.00  0.00    -0.395 OA
ATOM     26  H   UNL     1      -0.251  44.247  57.542  1.00  0.00     0.210 HD
ENDBRANCH  24  25
ENDBRANCH  23  24
ENDBRANCH  21  23
ENDBRANCH   3  21
TORSDOF 7
ENDMDL
MODEL 17
REMARK VINA RESULT:    -7.043      3.576      7.592
REMARK INTER + INTRA:         -10.171
REMARK INTER:                  -9.624
REMARK INTRA:                  -0.546
REMARK UNBOUND:                -0.452
REMARK SMILES COc1ccc(Nc2nc(NCCO)c3nccnc3n2)cc1
REMARK SMILES IDX 8 1 9 2 10 3 15 4 16 5 17 6 18 7 19 8 20 9 21 10 7 11 6 13
REMARK SMILES IDX 3 14 4 15 23 16 5 17 22 18 2 19 1 20 11 21 12 23 13 24 14 25
REMARK H PARENT 7 12 11 22 14 26
ROOT
ATOM      1  C   UNL     1       5.020  42.234  50.522  1.00  0.00     0.231 A 
ATOM      2  N   UNL     1       3.983  41.912  51.297  1.00  0.00    -0.193 NA
ATOM      3  C   UNL     1       3.657  42.744  52.303  1.00  0.00     0.160 A 
ATOM      4  C   UNL     1       4.350  43.926  52.562  1.00  0.00     0.150 A 
ATOM      5  N   UNL     1       4.041  44.772  53.595  1.00  0.00    -0.247 NA
ATOM      6  C   UNL     1       4.810  45.870  53.709  1.00  0.00     0.132 A 
ATOM      7  C   UNL     1       5.851  46.110  52.842  1.00  0.00     0.133 A 
ATOM      8  N   UNL     1       6.161  45.264  51.835  1.00  0.00    -0.233 NA
ATOM      9  C   UNL     1       5.414  44.163  51.684  1.00  0.00     0.185 A 
ATOM     10  N   UNL     1       5.741  43.342  50.694  1.00  0.00    -0.191 NA
ENDROOT
BRANCH   1  11
ATOM     11  N   UNL     1       5.435  41.429  49.467  1.00  0.00    -0.324 N 
ATOM     12  H   UNL     1       6.271  40.934  49.742  1.00  0.00     0.170 HD
BRANCH  11  13
ATOM     13  C   UNL     1       4.963  41.195  48.172  1.00  0.00     0.041 A 
ATOM     14  C   UNL     1       4.122  40.793  45.491  1.00  0.00     0.119 A 
ATOM     15  C   UNL     1       5.237  41.579  45.766  1.00  0.00     0.048 A 
ATOM     16  C   UNL     1       3.432  40.211  46.552  1.00  0.00     0.048 A 
ATOM     17  C   UNL     1       5.648  41.773  47.092  1.00  0.00     0.030 A 
ATOM     18  C   UNL     1       3.847  40.409  47.876  1.00  0.00     0.030 A 
BRANCH  14  19
ATOM     19  O   UNL     1       3.611  40.520  44.253  1.00  0.00    -0.497 OA
ATOM     20  C   UNL     1       2.238  40.158  44.189  1.00  0.00     0.278 C 
ENDBRANCH  14  19
ENDBRANCH  11  13
ENDBRANCH   1  11
BRANCH   3  21
ATOM     21  N   UNL     1       2.509  42.460  53.092  1.00  0.00    -0.366 N 
ATOM     22  H   UNL     1       2.611  41.511  53.454  1.00  0.00     0.162 HD
BRANCH  21  23
ATOM     23  C   UNL     1       1.229  42.701  52.430  1.00  0.00     0.142 C 
BRANCH  23  24
ATOM     24  C   UNL     1       0.075  42.458  53.408  1.00  0.00     0.177 C 
BRANCH  24  25
ATOM     25  O   UNL     1      -0.275  41.078  53.428  1.00  0.00    -0.395 OA
ATOM     26  H   UNL     1      -0.801  40.908  52.628  1.00  0.00     0.210 HD
ENDBRANCH  24  25
ENDBRANCH  23  24
ENDBRANCH  21  23
ENDBRANCH   3  21
TORSDOF 7
ENDMDL
MODEL 18
REMARK VINA RESULT:    -7.030      4.471      6.636
REMARK INTER + INTRA:         -10.152
REMARK INTER:                  -9.319
REMARK INTRA:                  -0.833
REMARK UNBOUND:                -0.452
REMARK SMILES COc1ccc(Nc2nc(NCCO)c3nccnc3n2)cc1
REMARK SMILES IDX 8 1 9 2 10 3 15 4 16 5 17 6 18 7 19 8 20 9 21 10 7 11 6 13
REMARK SMILES IDX 3 14 4 15 23 16 5 17 22 18 2 19 1 20 11 21 12 23 13 24 14 25
REMARK H PARENT 7 12 11 22 14 26
ROOT
ATOM      1  C   UNL     1       1.784  42.968  52.975  1.00  0.00     0.231 A 
ATOM      2  N   UNL     1       1.735  44.015  53.799  1.00  0.00    -0.193 NA
ATOM      3  C   UNL     1       0.547  44.611  54.002  1.00  0.00     0.160 A 
ATOM      4  C   UNL     1      -0.631  44.176  53.396  1.00  0.00     0.150 A 
ATOM      5  N   UNL     1      -1.845  44.786  53.578  1.00  0.00    -0.247 NA
ATOM      6  C   UNL     1      -2.884  44.243  52.918  1.00  0.00     0.132 A 
ATOM      7  C   UNL     1      -2.721  43.149  52.100  1.00  0.00     0.133 A 
ATOM      8  N   UNL     1      -1.518  42.561  51.911  1.00  0.00    -0.233 NA
ATOM      9  C   UNL     1      -0.461  43.068  52.557  1.00  0.00     0.185 A 
ATOM     10  N   UNL     1       0.711  42.482  52.350  1.00  0.00    -0.191 NA
ENDROOT
BRANCH   1  11
ATOM     11  N   UNL     1       2.971  42.297  52.697  1.00  0.00    -0.324 N 
ATOM     12  H   UNL     1       3.084  41.544  53.361  1.00  0.00     0.170 HD
BRANCH  11  13
ATOM     13  C   UNL     1       3.986  42.459  51.750  1.00  0.00     0.041 A 
ATOM     14  C   UNL     1       6.074  42.922  49.883  1.00  0.00     0.119 A 
ATOM     15  C   UNL     1       5.676  43.931  50.755  1.00  0.00     0.048 A 
ATOM     16  C   UNL     1       5.430  41.688  49.946  1.00  0.00     0.048 A 
ATOM     17  C   UNL     1       4.645  43.697  51.676  1.00  0.00     0.030 A 
ATOM     18  C   UNL     1       4.400  41.459  50.867  1.00  0.00     0.030 A 
BRANCH  14  19
ATOM     19  O   UNL     1       7.059  43.012  48.940  1.00  0.00    -0.497 OA
ATOM     20  C   UNL     1       8.132  43.902  49.213  1.00  0.00     0.278 C 
ENDBRANCH  14  19
ENDBRANCH  11  13
ENDBRANCH   1  11
BRANCH   3  21
ATOM     21  N   UNL     1       0.458  45.679  54.936  1.00  0.00    -0.366 N 
ATOM     22  H   UNL     1       1.188  46.355  54.701  1.00  0.00     0.162 HD
BRANCH  21  23
ATOM     23  C   UNL     1       0.462  45.275  56.339  1.00  0.00     0.142 C 
BRANCH  23  24
ATOM     24  C   UNL     1      -0.801  45.789  57.040  1.00  0.00     0.177 C 
BRANCH  24  25
ATOM     25  O   UNL     1      -1.626  46.495  56.121  1.00  0.00    -0.395 OA
ATOM     26  H   UNL     1      -1.079  46.685  55.338  1.00  0.00     0.210 HD
ENDBRANCH  24  25
ENDBRANCH  23  24
ENDBRANCH  21  23
ENDBRANCH   3  21
TORSDOF 7
ENDMDL
MODEL 19
REMARK VINA RESULT:    -6.968      2.873      7.415
REMARK INTER + INTRA:         -10.068
REMARK INTER:                  -9.694
REMARK INTRA:                  -0.374
REMARK UNBOUND:                -0.452
REMARK SMILES COc1ccc(Nc2nc(NCCO)c3nccnc3n2)cc1
REMARK SMILES IDX 8 1 9 2 10 3 15 4 16 5 17 6 18 7 19 8 20 9 21 10 7 11 6 13
REMARK SMILES IDX 3 14 4 15 23 16 5 17 22 18 2 19 1 20 11 21 12 23 13 24 14 25
REMARK H PARENT 7 12 11 22 14 26
ROOT
ATOM      1  C   UNL     1       4.765  45.243  54.405  1.00  0.00     0.231 A 
ATOM      2  N   UNL     1       4.724  44.901  53.116  1.00  0.00    -0.193 NA
ATOM      3  C   UNL     1       5.721  45.318  52.315  1.00  0.00     0.160 A 
ATOM      4  C   UNL     1       6.792  46.081  52.775  1.00  0.00     0.150 A 
ATOM      5  N   UNL     1       7.804  46.529  51.966  1.00  0.00    -0.247 NA
ATOM      6  C   UNL     1       8.763  47.257  52.566  1.00  0.00     0.132 A 
ATOM      7  C   UNL     1       8.711  47.541  53.911  1.00  0.00     0.133 A 
ATOM      8  N   UNL     1       7.702  47.111  54.702  1.00  0.00    -0.233 NA
ATOM      9  C   UNL     1       6.733  46.376  54.142  1.00  0.00     0.185 A 
ATOM     10  N   UNL     1       5.748  45.971  54.934  1.00  0.00    -0.191 NA
ENDROOT
BRANCH   1  11
ATOM     11  N   UNL     1       3.772  44.867  55.304  1.00  0.00    -0.324 N 
ATOM     12  H   UNL     1       4.208  44.485  56.131  1.00  0.00     0.170 HD
BRANCH  11  13
ATOM     13  C   UNL     1       2.374  44.893  55.284  1.00  0.00     0.041 A 
ATOM     14  C   UNL     1      -0.460  44.853  55.129  1.00  0.00     0.119 A 
ATOM     15  C   UNL     1       0.304  44.184  54.177  1.00  0.00     0.048 A 
ATOM     16  C   UNL     1       0.192  45.538  56.153  1.00  0.00     0.048 A 
ATOM     17  C   UNL     1       1.703  44.207  54.259  1.00  0.00     0.030 A 
ATOM     18  C   UNL     1       1.591  45.557  56.229  1.00  0.00     0.030 A 
BRANCH  14  19
ATOM     19  O   UNL     1      -1.825  44.915  55.171  1.00  0.00    -0.497 OA
ATOM     20  C   UNL     1      -2.530  44.267  54.121  1.00  0.00     0.278 C 
ENDBRANCH  14  19
ENDBRANCH  11  13
ENDBRANCH   1  11
BRANCH   3  21
ATOM     21  N   UNL     1       5.738  44.899  50.956  1.00  0.00    -0.366 N 
ATOM     22  H   UNL     1       4.988  45.396  50.472  1.00  0.00     0.162 HD
BRANCH  21  23
ATOM     23  C   UNL     1       5.709  43.453  50.755  1.00  0.00     0.142 C 
BRANCH  23  24
ATOM     24  C   UNL     1       6.683  43.056  49.640  1.00  0.00     0.177 C 
BRANCH  24  25
ATOM     25  O   UNL     1       6.898  41.649  49.646  1.00  0.00    -0.395 OA
ATOM     26  H   UNL     1       6.023  41.230  49.571  1.00  0.00     0.210 HD
ENDBRANCH  24  25
ENDBRANCH  23  24
ENDBRANCH  21  23
ENDBRANCH   3  21
TORSDOF 7
ENDMDL
MODEL 20
REMARK VINA RESULT:    -6.887      2.580      6.685
REMARK INTER + INTRA:          -9.956
REMARK INTER:                  -9.206
REMARK INTRA:                  -0.750
REMARK UNBOUND:                -0.452
REMARK SMILES COc1ccc(Nc2nc(NCCO)c3nccnc3n2)cc1
REMARK SMILES IDX 8 1 9 2 10 3 15 4 16 5 17 6 18 7 19 8 20 9 21 10 7 11 6 13
REMARK SMILES IDX 3 14 4 15 23 16 5 17 22 18 2 19 1 20 11 21 12 23 13 24 14 25
REMARK H PARENT 7 12 11 22 14 26
ROOT
ATOM      1  C   UNL     1       3.191  43.309  52.556  1.00  0.00     0.231 A 
ATOM      2  N   UNL     1       3.735  44.527  52.520  1.00  0.00    -0.193 NA
ATOM      3  C   UNL     1       4.781  44.733  51.699  1.00  0.00     0.160 A 
ATOM      4  C   UNL     1       5.310  43.735  50.884  1.00  0.00     0.150 A 
ATOM      5  N   UNL     1       6.388  43.926  50.057  1.00  0.00    -0.247 NA
ATOM      6  C   UNL     1       6.777  42.859  49.337  1.00  0.00     0.132 A 
ATOM      7  C   UNL     1       6.133  41.648  49.444  1.00  0.00     0.133 A 
ATOM      8  N   UNL     1       5.081  41.460  50.273  1.00  0.00    -0.233 NA
ATOM      9  C   UNL     1       4.659  42.501  51.000  1.00  0.00     0.185 A 
ATOM     10  N   UNL     1       3.631  42.293  51.813  1.00  0.00    -0.191 NA
ENDROOT
BRANCH   1  11
ATOM     11  N   UNL     1       2.115  43.002  53.382  1.00  0.00    -0.324 N 
ATOM     12  H   UNL     1       1.958  42.004  53.357  1.00  0.00     0.170 HD
BRANCH  11  13
ATOM     13  C   UNL     1       1.249  43.756  54.179  1.00  0.00     0.041 A 
ATOM     14  C   UNL     1      -0.624  45.223  55.727  1.00  0.00     0.119 A 
ATOM     15  C   UNL     1      -1.060  44.404  54.690  1.00  0.00     0.048 A 
ATOM     16  C   UNL     1       0.742  45.307  55.988  1.00  0.00     0.048 A 
ATOM     17  C   UNL     1      -0.131  43.681  53.929  1.00  0.00     0.030 A 
ATOM     18  C   UNL     1       1.667  44.582  55.224  1.00  0.00     0.030 A 
BRANCH  14  19
ATOM     19  O   UNL     1      -1.415  45.981  56.546  1.00  0.00    -0.497 OA
ATOM     20  C   UNL     1      -0.754  46.795  57.504  1.00  0.00     0.278 C 
ENDBRANCH  14  19
ENDBRANCH  11  13
ENDBRANCH   1  11
BRANCH   3  21
ATOM     21  N   UNL     1       5.325  46.042  51.587  1.00  0.00    -0.366 N 
ATOM     22  H   UNL     1       5.665  46.153  50.630  1.00  0.00     0.162 HD
BRANCH  21  23
ATOM     23  C   UNL     1       6.313  46.389  52.605  1.00  0.00     0.142 C 
BRANCH  23  24
ATOM     24  C   UNL     1       7.555  47.002  51.948  1.00  0.00     0.177 C 
BRANCH  24  25
ATOM     25  O   UNL     1       8.241  46.024  51.174  1.00  0.00    -0.395 OA
ATOM     26  H   UNL     1       9.038  45.777  51.674  1.00  0.00     0.210 HD
ENDBRANCH  24  25
ENDBRANCH  23  24
ENDBRANCH  21  23
ENDBRANCH   3  21
TORSDOF 7
ENDMDL
