MODEL 1
REMARK VINA RESULT:    -8.308      0.000      0.000
REMARK INTER + INTRA:         -12.793
REMARK INTER:                 -11.707
REMARK INTRA:                  -1.086
REMARK UNBOUND:                -1.086
REMARK SMILES COc1ccc(Nc2nc(NCC[NH+](C)C)nc3nccnc23)cc1
REMARK SMILES IDX 10 1 9 2 17 3 8 4 18 5 23 6 19 7 22 8 20 9 21 10 11 11 12 13
REMARK SMILES IDX 13 14 14 15 15 16 16 17 7 19 6 21 5 22 24 23 4 24 25 25 3 26
REMARK SMILES IDX 2 27 1 28
REMARK H PARENT 11 12 14 18 7 20
ROOT
ATOM      1  C   UNL     1       5.473  46.941  54.242  1.00  0.00     0.227 A 
ATOM      2  N   UNL     1       5.415  46.537  52.979  1.00  0.00    -0.193 NA
ATOM      3  N   UNL     1       6.601  47.202  54.884  1.00  0.00    -0.191 NA
ATOM      4  C   UNL     1       6.578  46.380  52.313  1.00  0.00     0.164 A 
ATOM      5  C   UNL     1       7.747  47.049  54.225  1.00  0.00     0.185 A 
ATOM      6  C   UNL     1       7.818  46.632  52.888  1.00  0.00     0.150 A 
ATOM      7  N   UNL     1       8.875  47.329  54.884  1.00  0.00    -0.233 NA
ATOM      8  N   UNL     1       8.998  46.508  52.209  1.00  0.00    -0.247 NA
ATOM      9  C   UNL     1      10.051  47.190  54.227  1.00  0.00     0.133 A 
ATOM     10  C   UNL     1      10.114  46.787  52.912  1.00  0.00     0.132 A 
ENDROOT
BRANCH   1  11
ATOM     11  N   UNL     1       4.294  47.108  54.957  1.00  0.00    -0.348 N 
ATOM     12  H   UNL     1       3.691  47.654  54.341  1.00  0.00     0.163 HD
BRANCH  11  13
ATOM     13  C   UNL     1       3.696  45.886  55.485  1.00  0.00     0.177 C 
BRANCH  13  14
ATOM     14  C   UNL     1       2.353  45.526  54.803  1.00  0.00     0.283 C 
BRANCH  14  15
ATOM     15  N   UNL     1       2.476  45.112  53.344  1.00  0.00    -0.338 N 
ATOM     16  C   UNL     1       1.859  46.084  52.385  1.00  0.00     0.332 C 
ATOM     17  C   UNL     1       2.081  43.689  53.083  1.00  0.00     0.332 C 
ATOM     18  H   UNL     1       3.491  45.154  53.164  1.00  0.00     0.347 HD
ENDBRANCH  14  15
ENDBRANCH  13  14
ENDBRANCH  11  13
ENDBRANCH   1  11
BRANCH   4  19
ATOM     19  N   UNL     1       6.540  45.911  50.970  1.00  0.00    -0.338 N 
ATOM     20  H   UNL     1       6.238  46.653  50.342  1.00  0.00     0.168 HD
BRANCH  19  21
ATOM     21  C   UNL     1       6.260  44.602  50.543  1.00  0.00     0.040 A 
ATOM     22  C   UNL     1       5.108  43.929  50.965  1.00  0.00     0.030 A 
ATOM     23  C   UNL     1       7.100  43.966  49.622  1.00  0.00     0.030 A 
ATOM     24  C   UNL     1       4.796  42.660  50.468  1.00  0.00     0.048 A 
ATOM     25  C   UNL     1       6.788  42.696  49.119  1.00  0.00     0.048 A 
ATOM     26  C   UNL     1       5.631  42.041  49.539  1.00  0.00     0.119 A 
BRANCH  26  27
ATOM     27  O   UNL     1       5.197  40.821  49.102  1.00  0.00    -0.497 OA
ATOM     28  C   UNL     1       3.787  40.613  49.113  1.00  0.00     0.278 C 
ENDBRANCH  26  27
ENDBRANCH  19  21
ENDBRANCH   4  19
TORSDOF 7
ENDMDL
MODEL 2
REMARK VINA RESULT:    -8.000      2.614      5.615
REMARK INTER + INTRA:         -12.360
REMARK INTER:                 -11.487
REMARK INTRA:                  -0.873
REMARK UNBOUND:                -1.086
REMARK SMILES COc1ccc(Nc2nc(NCC[NH+](C)C)nc3nccnc23)cc1
REMARK SMILES IDX 10 1 9 2 17 3 8 4 18 5 23 6 19 7 22 8 20 9 21 10 11 11 12 13
REMARK SMILES IDX 13 14 14 15 15 16 16 17 7 19 6 21 5 22 24 23 4 24 25 25 3 26
REMARK SMILES IDX 2 27 1 28
REMARK H PARENT 11 12 14 18 7 20
ROOT
ATOM      1  C   UNL     1       3.442  43.702  52.569  1.00  0.00     0.227 A 
ATOM      2  N   UNL     1       4.188  44.781  52.368  1.00  0.00    -0.193 NA
ATOM      3  N   UNL     1       3.579  42.572  51.895  1.00  0.00    -0.191 NA
ATOM      4  C   UNL     1       5.140  44.721  51.413  1.00  0.00     0.164 A 
ATOM      5  C   UNL     1       4.521  42.513  50.955  1.00  0.00     0.185 A 
ATOM      6  C   UNL     1       5.373  43.583  50.650  1.00  0.00     0.150 A 
ATOM      7  N   UNL     1       4.653  41.360  50.293  1.00  0.00    -0.233 NA
ATOM      8  N   UNL     1       6.358  43.503  49.705  1.00  0.00    -0.247 NA
ATOM      9  C   UNL     1       5.613  41.277  49.341  1.00  0.00     0.133 A 
ATOM     10  C   UNL     1       6.452  42.329  49.051  1.00  0.00     0.132 A 
ENDROOT
BRANCH   1  11
ATOM     11  N   UNL     1       2.450  43.733  53.542  1.00  0.00    -0.348 N 
ATOM     12  H   UNL     1       2.752  43.055  54.242  1.00  0.00     0.163 HD
BRANCH  11  13
ATOM     13  C   UNL     1       2.116  45.055  54.062  1.00  0.00     0.177 C 
BRANCH  13  14
ATOM     14  C   UNL     1       2.594  45.270  55.519  1.00  0.00     0.283 C 
BRANCH  14  15
ATOM     15  N   UNL     1       3.924  45.998  55.646  1.00  0.00    -0.338 N 
ATOM     16  C   UNL     1       4.060  47.173  54.726  1.00  0.00     0.332 C 
ATOM     17  C   UNL     1       5.116  45.089  55.627  1.00  0.00     0.332 C 
ATOM     18  H   UNL     1       3.895  46.395  56.597  1.00  0.00     0.347 HD
ENDBRANCH  14  15
ENDBRANCH  13  14
ENDBRANCH  11  13
ENDBRANCH   1  11
BRANCH   4  19
ATOM     19  N   UNL     1       5.924  45.880  51.154  1.00  0.00    -0.338 N 
ATOM     20  H   UNL     1       5.876  46.130  50.169  1.00  0.00     0.168 HD
BRANCH  19  21
ATOM     21  C   UNL     1       7.096  46.270  51.824  1.00  0.00     0.040 A 
ATOM     22  C   UNL     1       7.062  46.726  53.146  1.00  0.00     0.030 A 
ATOM     23  C   UNL     1       8.341  46.142  51.198  1.00  0.00     0.030 A 
ATOM     24  C   UNL     1       8.242  47.031  53.831  1.00  0.00     0.048 A 
ATOM     25  C   UNL     1       9.526  46.444  51.883  1.00  0.00     0.048 A 
ATOM     26  C   UNL     1       9.478  46.886  53.204  1.00  0.00     0.119 A 
BRANCH  26  27
ATOM     27  O   UNL     1      10.558  47.179  53.990  1.00  0.00    -0.497 OA
ATOM     28  C   UNL     1      10.279  47.478  55.356  1.00  0.00     0.278 C 
ENDBRANCH  26  27
ENDBRANCH  19  21
ENDBRANCH   4  19
TORSDOF 7
ENDMDL
MODEL 3
REMARK VINA RESULT:    -7.837      2.749      5.689
REMARK INTER + INTRA:         -12.130
REMARK INTER:                 -11.436
REMARK INTRA:                  -0.694
REMARK UNBOUND:                -1.086
REMARK SMILES COc1ccc(Nc2nc(NCC[NH+](C)C)nc3nccnc23)cc1
REMARK SMILES IDX 10 1 9 2 17 3 8 4 18 5 23 6 19 7 22 8 20 9 21 10 11 11 12 13
REMARK SMILES IDX 13 14 14 15 15 16 16 17 7 19 6 21 5 22 24 23 4 24 25 25 3 26
REMARK SMILES IDX 2 27 1 28
REMARK H PARENT 11 12 14 18 7 20
ROOT
ATOM      1  C   UNL     1       3.175  43.665  52.835  1.00  0.00     0.227 A 
ATOM      2  N   UNL     1       3.886  44.764  52.611  1.00  0.00    -0.193 NA
ATOM      3  N   UNL     1       3.355  42.523  52.190  1.00  0.00    -0.191 NA
ATOM      4  C   UNL     1       4.846  44.712  51.665  1.00  0.00     0.164 A 
ATOM      5  C   UNL     1       4.305  42.473  51.259  1.00  0.00     0.185 A 
ATOM      6  C   UNL     1       5.124  43.564  50.933  1.00  0.00     0.150 A 
ATOM      7  N   UNL     1       4.482  41.309  50.627  1.00  0.00    -0.233 NA
ATOM      8  N   UNL     1       6.118  43.493  49.997  1.00  0.00    -0.247 NA
ATOM      9  C   UNL     1       5.451  41.234  49.684  1.00  0.00     0.133 A 
ATOM     10  C   UNL     1       6.257  42.307  49.373  1.00  0.00     0.132 A 
ENDROOT
BRANCH   1  11
ATOM     11  N   UNL     1       2.175  43.687  53.799  1.00  0.00    -0.348 N 
ATOM     12  H   UNL     1       2.494  43.038  54.519  1.00  0.00     0.163 HD
BRANCH  11  13
ATOM     13  C   UNL     1       1.793  45.009  54.283  1.00  0.00     0.177 C 
BRANCH  13  14
ATOM     14  C   UNL     1       2.203  45.256  55.756  1.00  0.00     0.283 C 
BRANCH  14  15
ATOM     15  N   UNL     1       1.058  45.159  56.754  1.00  0.00    -0.338 N 
ATOM     16  C   UNL     1      -0.277  44.907  56.121  1.00  0.00     0.332 C 
ATOM     17  C   UNL     1       1.036  46.269  57.761  1.00  0.00     0.332 C 
ATOM     18  H   UNL     1       1.274  44.305  57.290  1.00  0.00     0.347 HD
ENDBRANCH  14  15
ENDBRANCH  13  14
ENDBRANCH  11  13
ENDBRANCH   1  11
BRANCH   4  19
ATOM     19  N   UNL     1       5.593  45.889  51.383  1.00  0.00    -0.338 N 
ATOM     20  H   UNL     1       5.482  46.157  50.407  1.00  0.00     0.168 HD
BRANCH  19  21
ATOM     21  C   UNL     1       6.796  46.289  51.988  1.00  0.00     0.040 A 
ATOM     22  C   UNL     1       6.877  46.521  53.366  1.00  0.00     0.030 A 
ATOM     23  C   UNL     1       7.967  46.395  51.228  1.00  0.00     0.030 A 
ATOM     24  C   UNL     1       8.098  46.835  53.970  1.00  0.00     0.048 A 
ATOM     25  C   UNL     1       9.193  46.706  51.832  1.00  0.00     0.048 A 
ATOM     26  C   UNL     1       9.261  46.923  53.207  1.00  0.00     0.119 A 
BRANCH  26  27
ATOM     27  O   UNL     1      10.395  47.199  53.920  1.00  0.00    -0.497 OA
ATOM     28  C   UNL     1      10.212  47.510  55.298  1.00  0.00     0.278 C 
ENDBRANCH  26  27
ENDBRANCH  19  21
ENDBRANCH   4  19
TORSDOF 7
ENDMDL
MODEL 4
REMARK VINA RESULT:    -7.697      2.792      5.662
REMARK INTER + INTRA:         -11.933
REMARK INTER:                 -11.205
REMARK INTRA:                  -0.728
REMARK UNBOUND:                -1.086
REMARK SMILES COc1ccc(Nc2nc(NCC[NH+](C)C)nc3nccnc23)cc1
REMARK SMILES IDX 10 1 9 2 17 3 8 4 18 5 23 6 19 7 22 8 20 9 21 10 11 11 12 13
REMARK SMILES IDX 13 14 14 15 15 16 16 17 7 19 6 21 5 22 24 23 4 24 25 25 3 26
REMARK SMILES IDX 2 27 1 28
REMARK H PARENT 11 12 14 18 7 20
ROOT
ATOM      1  C   UNL     1       3.286  43.453  52.675  1.00  0.00     0.227 A 
ATOM      2  N   UNL     1       3.960  44.584  52.503  1.00  0.00    -0.193 NA
ATOM      3  N   UNL     1       3.508  42.347  51.982  1.00  0.00    -0.191 NA
ATOM      4  C   UNL     1       4.924  44.606  51.560  1.00  0.00     0.164 A 
ATOM      5  C   UNL     1       4.462  42.370  51.054  1.00  0.00     0.185 A 
ATOM      6  C   UNL     1       5.244  43.501  50.780  1.00  0.00     0.150 A 
ATOM      7  N   UNL     1       4.680  41.242  50.372  1.00  0.00    -0.233 NA
ATOM      8  N   UNL     1       6.243  43.506  49.847  1.00  0.00    -0.247 NA
ATOM      9  C   UNL     1       5.655  41.242  49.432  1.00  0.00     0.133 A 
ATOM     10  C   UNL     1       6.424  42.353  49.172  1.00  0.00     0.132 A 
ENDROOT
BRANCH   1  11
ATOM     11  N   UNL     1       2.283  43.398  53.634  1.00  0.00    -0.348 N 
ATOM     12  H   UNL     1       2.502  42.573  54.194  1.00  0.00     0.163 HD
BRANCH  11  13
ATOM     13  C   UNL     1       2.070  44.624  54.397  1.00  0.00     0.177 C 
BRANCH  13  14
ATOM     14  C   UNL     1       0.760  45.356  54.014  1.00  0.00     0.283 C 
BRANCH  14  15
ATOM     15  N   UNL     1      -0.348  45.248  55.050  1.00  0.00    -0.338 N 
ATOM     16  C   UNL     1       0.143  45.269  56.466  1.00  0.00     0.332 C 
ATOM     17  C   UNL     1      -1.327  44.145  54.779  1.00  0.00     0.332 C 
ATOM     18  H   UNL     1      -0.880  46.124  54.930  1.00  0.00     0.347 HD
ENDBRANCH  14  15
ENDBRANCH  13  14
ENDBRANCH  11  13
ENDBRANCH   1  11
BRANCH   4  19
ATOM     19  N   UNL     1       5.632  45.820  51.333  1.00  0.00    -0.338 N 
ATOM     20  H   UNL     1       5.518  46.123  50.368  1.00  0.00     0.168 HD
BRANCH  19  21
ATOM     21  C   UNL     1       6.815  46.236  51.965  1.00  0.00     0.040 A 
ATOM     22  C   UNL     1       6.895  46.351  53.358  1.00  0.00     0.030 A 
ATOM     23  C   UNL     1       7.969  46.478  51.212  1.00  0.00     0.030 A 
ATOM     24  C   UNL     1       8.101  46.684  53.982  1.00  0.00     0.048 A 
ATOM     25  C   UNL     1       9.181  46.808  51.836  1.00  0.00     0.048 A 
ATOM     26  C   UNL     1       9.249  46.908  53.224  1.00  0.00     0.119 A 
BRANCH  26  27
ATOM     27  O   UNL     1      10.372  47.188  53.953  1.00  0.00    -0.497 OA
ATOM     28  C   UNL     1      10.164  47.541  55.318  1.00  0.00     0.278 C 
ENDBRANCH  26  27
ENDBRANCH  19  21
ENDBRANCH   4  19
TORSDOF 7
ENDMDL
MODEL 5
REMARK VINA RESULT:    -7.429      3.116      6.892
REMARK INTER + INTRA:         -11.555
REMARK INTER:                 -10.851
REMARK INTRA:                  -0.705
REMARK UNBOUND:                -1.086
REMARK SMILES COc1ccc(Nc2nc(NCC[NH+](C)C)nc3nccnc23)cc1
REMARK SMILES IDX 10 1 9 2 17 3 8 4 18 5 23 6 19 7 22 8 20 9 21 10 11 11 12 13
REMARK SMILES IDX 13 14 14 15 15 16 16 17 7 19 6 21 5 22 24 23 4 24 25 25 3 26
REMARK SMILES IDX 2 27 1 28
REMARK H PARENT 11 12 14 18 7 20
ROOT
ATOM      1  C   UNL     1       4.961  42.373  50.745  1.00  0.00     0.227 A 
ATOM      2  N   UNL     1       5.522  43.572  50.646  1.00  0.00    -0.193 NA
ATOM      3  N   UNL     1       3.878  42.121  51.463  1.00  0.00    -0.191 NA
ATOM      4  C   UNL     1       4.956  44.592  51.322  1.00  0.00     0.164 A 
ATOM      5  C   UNL     1       3.318  43.129  52.128  1.00  0.00     0.185 A 
ATOM      6  C   UNL     1       3.814  44.440  52.101  1.00  0.00     0.150 A 
ATOM      7  N   UNL     1       2.218  42.859  52.837  1.00  0.00    -0.233 NA
ATOM      8  N   UNL     1       3.214  45.476  52.762  1.00  0.00    -0.247 NA
ATOM      9  C   UNL     1       1.628  43.874  53.511  1.00  0.00     0.133 A 
ATOM     10  C   UNL     1       2.115  45.161  53.475  1.00  0.00     0.132 A 
ENDROOT
BRANCH   1  11
ATOM     11  N   UNL     1       5.523  41.301  50.064  1.00  0.00    -0.348 N 
ATOM     12  H   UNL     1       5.250  40.478  50.604  1.00  0.00     0.163 HD
BRANCH  11  13
ATOM     13  C   UNL     1       5.226  41.232  48.638  1.00  0.00     0.177 C 
BRANCH  13  14
ATOM     14  C   UNL     1       3.933  40.439  48.326  1.00  0.00     0.283 C 
BRANCH  14  15
ATOM     15  N   UNL     1       3.904  39.795  46.948  1.00  0.00    -0.338 N 
ATOM     16  C   UNL     1       3.905  40.781  45.819  1.00  0.00     0.332 C 
ATOM     17  C   UNL     1       2.862  38.727  46.800  1.00  0.00     0.332 C 
ATOM     18  H   UNL     1       4.810  39.308  46.888  1.00  0.00     0.347 HD
ENDBRANCH  14  15
ENDBRANCH  13  14
ENDBRANCH  11  13
ENDBRANCH   1  11
BRANCH   4  19
ATOM     19  N   UNL     1       5.564  45.877  51.260  1.00  0.00    -0.338 N 
ATOM     20  H   UNL     1       5.371  46.320  50.365  1.00  0.00     0.168 HD
BRANCH  19  21
ATOM     21  C   UNL     1       6.754  46.276  51.891  1.00  0.00     0.040 A 
ATOM     22  C   UNL     1       6.802  46.524  53.267  1.00  0.00     0.030 A 
ATOM     23  C   UNL     1       7.944  46.365  51.160  1.00  0.00     0.030 A 
ATOM     24  C   UNL     1       8.009  46.838  53.899  1.00  0.00     0.048 A 
ATOM     25  C   UNL     1       9.157  46.675  51.791  1.00  0.00     0.048 A 
ATOM     26  C   UNL     1       9.191  46.909  53.164  1.00  0.00     0.119 A 
BRANCH  26  27
ATOM     27  O   UNL     1      10.309  47.187  53.902  1.00  0.00    -0.497 OA
ATOM     28  C   UNL     1      10.090  47.556  55.261  1.00  0.00     0.278 C 
ENDBRANCH  26  27
ENDBRANCH  19  21
ENDBRANCH   4  19
TORSDOF 7
ENDMDL
MODEL 6
REMARK VINA RESULT:    -7.305      2.984      6.785
REMARK INTER + INTRA:         -11.381
REMARK INTER:                 -10.731
REMARK INTRA:                  -0.650
REMARK UNBOUND:                -1.086
REMARK SMILES COc1ccc(Nc2nc(NCC[NH+](C)C)nc3nccnc23)cc1
REMARK SMILES IDX 10 1 9 2 17 3 8 4 18 5 23 6 19 7 22 8 20 9 21 10 11 11 12 13
REMARK SMILES IDX 13 14 14 15 15 16 16 17 7 19 6 21 5 22 24 23 4 24 25 25 3 26
REMARK SMILES IDX 2 27 1 28
REMARK H PARENT 11 12 14 18 7 20
ROOT
ATOM      1  C   UNL     1       3.937  42.384  51.328  1.00  0.00     0.227 A 
ATOM      2  N   UNL     1       4.732  43.404  51.029  1.00  0.00    -0.193 NA
ATOM      3  N   UNL     1       2.896  42.471  52.142  1.00  0.00    -0.191 NA
ATOM      4  C   UNL     1       4.465  44.599  51.595  1.00  0.00     0.164 A 
ATOM      5  C   UNL     1       2.632  43.652  52.697  1.00  0.00     0.185 A 
ATOM      6  C   UNL     1       3.396  44.803  52.459  1.00  0.00     0.150 A 
ATOM      7  N   UNL     1       1.572  43.724  53.507  1.00  0.00    -0.233 NA
ATOM      8  N   UNL     1       3.098  46.019  53.010  1.00  0.00    -0.247 NA
ATOM      9  C   UNL     1       1.280  44.919  54.072  1.00  0.00     0.133 A 
ATOM     10  C   UNL     1       2.029  46.049  53.829  1.00  0.00     0.132 A 
ENDROOT
BRANCH   1  11
ATOM     11  N   UNL     1       4.187  41.139  50.765  1.00  0.00    -0.348 N 
ATOM     12  H   UNL     1       3.301  40.638  50.837  1.00  0.00     0.163 HD
BRANCH  11  13
ATOM     13  C   UNL     1       4.783  41.156  49.434  1.00  0.00     0.177 C 
BRANCH  13  14
ATOM     14  C   UNL     1       3.873  40.516  48.355  1.00  0.00     0.283 C 
BRANCH  14  15
ATOM     15  N   UNL     1       4.388  40.657  46.931  1.00  0.00    -0.338 N 
ATOM     16  C   UNL     1       5.448  41.706  46.772  1.00  0.00     0.332 C 
ATOM     17  C   UNL     1       3.302  40.752  45.901  1.00  0.00     0.332 C 
ATOM     18  H   UNL     1       4.860  39.759  46.752  1.00  0.00     0.347 HD
ENDBRANCH  14  15
ENDBRANCH  13  14
ENDBRANCH  11  13
ENDBRANCH   1  11
BRANCH   4  19
ATOM     19  N   UNL     1       5.329  45.696  51.319  1.00  0.00    -0.338 N 
ATOM     20  H   UNL     1       5.264  45.962  50.339  1.00  0.00     0.168 HD
BRANCH  19  21
ATOM     21  C   UNL     1       6.551  45.983  51.947  1.00  0.00     0.040 A 
ATOM     22  C   UNL     1       7.736  46.110  51.212  1.00  0.00     0.030 A 
ATOM     23  C   UNL     1       6.598  46.221  53.325  1.00  0.00     0.030 A 
ATOM     24  C   UNL     1       8.931  46.480  51.836  1.00  0.00     0.048 A 
ATOM     25  C   UNL     1       7.794  46.596  53.953  1.00  0.00     0.048 A 
ATOM     26  C   UNL     1       8.964  46.730  53.207  1.00  0.00     0.119 A 
BRANCH  26  27
ATOM     27  O   UNL     1      10.182  47.120  53.690  1.00  0.00    -0.497 OA
ATOM     28  C   UNL     1      10.242  47.412  55.083  1.00  0.00     0.278 C 
ENDBRANCH  26  27
ENDBRANCH  19  21
ENDBRANCH   4  19
TORSDOF 7
ENDMDL
MODEL 7
REMARK VINA RESULT:    -7.286      2.075      4.843
REMARK INTER + INTRA:         -11.354
REMARK INTER:                 -10.343
REMARK INTRA:                  -1.011
REMARK UNBOUND:                -1.086
REMARK SMILES COc1ccc(Nc2nc(NCC[NH+](C)C)nc3nccnc23)cc1
REMARK SMILES IDX 10 1 9 2 17 3 8 4 18 5 23 6 19 7 22 8 20 9 21 10 11 11 12 13
REMARK SMILES IDX 13 14 14 15 15 16 16 17 7 19 6 21 5 22 24 23 4 24 25 25 3 26
REMARK SMILES IDX 2 27 1 28
REMARK H PARENT 11 12 14 18 7 20
ROOT
ATOM      1  C   UNL     1       7.648  45.703  50.835  1.00  0.00     0.227 A 
ATOM      2  N   UNL     1       6.537  46.233  51.333  1.00  0.00    -0.193 NA
ATOM      3  N   UNL     1       8.837  45.805  51.407  1.00  0.00    -0.191 NA
ATOM      4  C   UNL     1       6.630  46.921  52.490  1.00  0.00     0.164 A 
ATOM      5  C   UNL     1       8.926  46.482  52.550  1.00  0.00     0.185 A 
ATOM      6  C   UNL     1       7.827  47.085  53.177  1.00  0.00     0.150 A 
ATOM      7  N   UNL     1      10.132  46.565  53.119  1.00  0.00    -0.233 NA
ATOM      8  N   UNL     1       7.923  47.752  54.367  1.00  0.00    -0.247 NA
ATOM      9  C   UNL     1      10.242  47.241  54.288  1.00  0.00     0.133 A 
ATOM     10  C   UNL     1       9.157  47.824  54.903  1.00  0.00     0.132 A 
ENDROOT
BRANCH   1  11
ATOM     11  N   UNL     1       7.587  44.992  49.643  1.00  0.00    -0.348 N 
ATOM     12  H   UNL     1       8.382  45.329  49.098  1.00  0.00     0.163 HD
BRANCH  11  13
ATOM     13  C   UNL     1       7.497  43.542  49.776  1.00  0.00     0.177 C 
BRANCH  13  14
ATOM     14  C   UNL     1       6.104  42.984  49.391  1.00  0.00     0.283 C 
BRANCH  14  15
ATOM     15  N   UNL     1       5.309  42.416  50.556  1.00  0.00    -0.338 N 
ATOM     16  C   UNL     1       4.446  41.247  50.187  1.00  0.00     0.332 C 
ATOM     17  C   UNL     1       4.586  43.455  51.360  1.00  0.00     0.332 C 
ATOM     18  H   UNL     1       6.033  42.036  51.184  1.00  0.00     0.347 HD
ENDBRANCH  14  15
ENDBRANCH  13  14
ENDBRANCH  11  13
ENDBRANCH   1  11
BRANCH   4  19
ATOM     19  N   UNL     1       5.458  47.530  53.020  1.00  0.00    -0.338 N 
ATOM     20  H   UNL     1       5.699  48.367  53.547  1.00  0.00     0.168 HD
BRANCH  19  21
ATOM     21  C   UNL     1       4.278  46.880  53.417  1.00  0.00     0.040 A 
ATOM     22  C   UNL     1       3.143  46.865  52.598  1.00  0.00     0.030 A 
ATOM     23  C   UNL     1       4.236  46.168  54.622  1.00  0.00     0.030 A 
ATOM     24  C   UNL     1       2.003  46.145  52.965  1.00  0.00     0.048 A 
ATOM     25  C   UNL     1       3.096  45.442  54.990  1.00  0.00     0.048 A 
ATOM     26  C   UNL     1       1.977  45.426  54.159  1.00  0.00     0.119 A 
BRANCH  26  27
ATOM     27  O   UNL     1       0.820  44.733  54.386  1.00  0.00    -0.497 OA
ATOM     28  C   UNL     1       0.760  43.415  53.847  1.00  0.00     0.278 C 
ENDBRANCH  26  27
ENDBRANCH  19  21
ENDBRANCH   4  19
TORSDOF 7
ENDMDL
MODEL 8
REMARK VINA RESULT:    -7.252      2.788      6.707
REMARK INTER + INTRA:         -11.306
REMARK INTER:                 -10.489
REMARK INTRA:                  -0.817
REMARK UNBOUND:                -1.086
REMARK SMILES COc1ccc(Nc2nc(NCC[NH+](C)C)nc3nccnc23)cc1
REMARK SMILES IDX 10 1 9 2 17 3 8 4 18 5 23 6 19 7 22 8 20 9 21 10 11 11 12 13
REMARK SMILES IDX 13 14 14 15 15 16 16 17 7 19 6 21 5 22 24 23 4 24 25 25 3 26
REMARK SMILES IDX 2 27 1 28
REMARK H PARENT 11 12 14 18 7 20
ROOT
ATOM      1  C   UNL     1       2.846  42.675  51.618  1.00  0.00     0.227 A 
ATOM      2  N   UNL     1       3.590  43.770  51.526  1.00  0.00    -0.193 NA
ATOM      3  N   UNL     1       1.847  42.530  52.474  1.00  0.00    -0.191 NA
ATOM      4  C   UNL     1       3.313  44.794  52.359  1.00  0.00     0.164 A 
ATOM      5  C   UNL     1       1.572  43.542  53.294  1.00  0.00     0.185 A 
ATOM      6  C   UNL     1       2.283  44.750  53.292  1.00  0.00     0.150 A 
ATOM      7  N   UNL     1       0.552  43.382  54.143  1.00  0.00    -0.233 NA
ATOM      8  N   UNL     1       1.973  45.796  54.116  1.00  0.00    -0.247 NA
ATOM      9  C   UNL     1       0.250  44.405  54.977  1.00  0.00     0.133 A 
ATOM     10  C   UNL     1       0.947  45.593  54.965  1.00  0.00     0.132 A 
ENDROOT
BRANCH   1  11
ATOM     11  N   UNL     1       3.110  41.601  50.777  1.00  0.00    -0.348 N 
ATOM     12  H   UNL     1       2.466  41.719  49.994  1.00  0.00     0.163 HD
BRANCH  11  13
ATOM     13  C   UNL     1       4.509  41.418  50.406  1.00  0.00     0.177 C 
BRANCH  13  14
ATOM     14  C   UNL     1       4.688  40.903  48.956  1.00  0.00     0.283 C 
BRANCH  14  15
ATOM     15  N   UNL     1       5.876  41.499  48.217  1.00  0.00    -0.338 N 
ATOM     16  C   UNL     1       6.527  42.640  48.939  1.00  0.00     0.332 C 
ATOM     17  C   UNL     1       5.606  41.790  46.770  1.00  0.00     0.332 C 
ATOM     18  H   UNL     1       6.572  40.738  48.220  1.00  0.00     0.347 HD
ENDBRANCH  14  15
ENDBRANCH  13  14
ENDBRANCH  11  13
ENDBRANCH   1  11
BRANCH   4  19
ATOM     19  N   UNL     1       4.123  45.962  52.303  1.00  0.00    -0.338 N 
ATOM     20  H   UNL     1       3.736  46.634  51.644  1.00  0.00     0.168 HD
BRANCH  19  21
ATOM     21  C   UNL     1       5.513  46.032  52.495  1.00  0.00     0.040 A 
ATOM     22  C   UNL     1       6.401  45.973  51.414  1.00  0.00     0.030 A 
ATOM     23  C   UNL     1       6.039  46.236  53.775  1.00  0.00     0.030 A 
ATOM     24  C   UNL     1       7.777  46.129  51.607  1.00  0.00     0.048 A 
ATOM     25  C   UNL     1       7.418  46.397  53.971  1.00  0.00     0.048 A 
ATOM     26  C   UNL     1       8.290  46.347  52.884  1.00  0.00     0.119 A 
BRANCH  26  27
ATOM     27  O   UNL     1       9.645  46.522  52.936  1.00  0.00    -0.497 OA
ATOM     28  C   UNL     1      10.367  46.198  51.751  1.00  0.00     0.278 C 
ENDBRANCH  26  27
ENDBRANCH  19  21
ENDBRANCH   4  19
TORSDOF 7
ENDMDL
MODEL 9
REMARK VINA RESULT:    -7.158      2.732      4.485
REMARK INTER + INTRA:         -11.174
REMARK INTER:                 -10.299
REMARK INTRA:                  -0.875
REMARK UNBOUND:                -1.086
REMARK SMILES COc1ccc(Nc2nc(NCC[NH+](C)C)nc3nccnc23)cc1
REMARK SMILES IDX 10 1 9 2 17 3 8 4 18 5 23 6 19 7 22 8 20 9 21 10 11 11 12 13
REMARK SMILES IDX 13 14 14 15 15 16 16 17 7 19 6 21 5 22 24 23 4 24 25 25 3 26
REMARK SMILES IDX 2 27 1 28
REMARK H PARENT 11 12 14 18 7 20
ROOT
ATOM      1  C   UNL     1       3.836  42.666  52.041  1.00  0.00     0.227 A 
ATOM      2  N   UNL     1       4.203  41.866  51.048  1.00  0.00    -0.193 NA
ATOM      3  N   UNL     1       4.440  43.807  52.334  1.00  0.00    -0.191 NA
ATOM      4  C   UNL     1       5.261  42.237  50.296  1.00  0.00     0.164 A 
ATOM      5  C   UNL     1       5.482  44.173  51.590  1.00  0.00     0.185 A 
ATOM      6  C   UNL     1       5.964  43.416  50.513  1.00  0.00     0.150 A 
ATOM      7  N   UNL     1       6.072  45.333  51.892  1.00  0.00    -0.233 NA
ATOM      8  N   UNL     1       7.015  43.816  49.734  1.00  0.00    -0.247 NA
ATOM      9  C   UNL     1       7.126  45.729  51.140  1.00  0.00     0.133 A 
ATOM     10  C   UNL     1       7.591  44.985  50.078  1.00  0.00     0.132 A 
ENDROOT
BRANCH   1  11
ATOM     11  N   UNL     1       2.754  42.311  52.836  1.00  0.00    -0.348 N 
ATOM     12  H   UNL     1       3.115  42.330  53.790  1.00  0.00     0.163 HD
BRANCH  11  13
ATOM     13  C   UNL     1       1.532  43.078  52.621  1.00  0.00     0.177 C 
BRANCH  13  14
ATOM     14  C   UNL     1       0.985  43.722  53.919  1.00  0.00     0.283 C 
BRANCH  14  15
ATOM     15  N   UNL     1       1.393  45.173  54.123  1.00  0.00    -0.338 N 
ATOM     16  C   UNL     1       1.550  45.943  52.847  1.00  0.00     0.332 C 
ATOM     17  C   UNL     1       2.544  45.351  55.068  1.00  0.00     0.332 C 
ATOM     18  H   UNL     1       0.578  45.591  54.598  1.00  0.00     0.347 HD
ENDBRANCH  14  15
ENDBRANCH  13  14
ENDBRANCH  11  13
ENDBRANCH   1  11
BRANCH   4  19
ATOM     19  N   UNL     1       5.695  41.374  49.252  1.00  0.00    -0.338 N 
ATOM     20  H   UNL     1       6.709  41.285  49.261  1.00  0.00     0.168 HD
BRANCH  19  21
ATOM     21  C   UNL     1       5.081  41.190  48.002  1.00  0.00     0.040 A 
ATOM     22  C   UNL     1       5.635  41.722  46.832  1.00  0.00     0.030 A 
ATOM     23  C   UNL     1       3.929  40.402  47.891  1.00  0.00     0.030 A 
ATOM     24  C   UNL     1       5.063  41.461  45.584  1.00  0.00     0.048 A 
ATOM     25  C   UNL     1       3.355  40.136  46.641  1.00  0.00     0.048 A 
ATOM     26  C   UNL     1       3.925  40.663  45.482  1.00  0.00     0.119 A 
BRANCH  26  27
ATOM     27  O   UNL     1       3.484  40.452  44.205  1.00  0.00    -0.497 OA
ATOM     28  C   UNL     1       4.114  39.392  43.490  1.00  0.00     0.278 C 
ENDBRANCH  26  27
ENDBRANCH  19  21
ENDBRANCH   4  19
TORSDOF 7
ENDMDL
MODEL 10
REMARK VINA RESULT:    -7.130      2.415      5.113
REMARK INTER + INTRA:         -11.134
REMARK INTER:                  -9.801
REMARK INTRA:                  -1.333
REMARK UNBOUND:                -1.086
REMARK SMILES COc1ccc(Nc2nc(NCC[NH+](C)C)nc3nccnc23)cc1
REMARK SMILES IDX 10 1 9 2 17 3 8 4 18 5 23 6 19 7 22 8 20 9 21 10 11 11 12 13
REMARK SMILES IDX 13 14 14 15 15 16 16 17 7 19 6 21 5 22 24 23 4 24 25 25 3 26
REMARK SMILES IDX 2 27 1 28
REMARK H PARENT 11 12 14 18 7 20
ROOT
ATOM      1  C   UNL     1       6.172  44.445  50.444  1.00  0.00     0.227 A 
ATOM      2  N   UNL     1       5.196  45.126  51.030  1.00  0.00    -0.193 NA
ATOM      3  N   UNL     1       7.455  44.758  50.541  1.00  0.00    -0.191 NA
ATOM      4  C   UNL     1       5.533  46.206  51.765  1.00  0.00     0.164 A 
ATOM      5  C   UNL     1       7.786  45.822  51.269  1.00  0.00     0.185 A 
ATOM      6  C   UNL     1       6.848  46.620  51.939  1.00  0.00     0.150 A 
ATOM      7  N   UNL     1       9.086  46.117  51.367  1.00  0.00    -0.233 NA
ATOM      8  N   UNL     1       7.200  47.693  52.710  1.00  0.00    -0.247 NA
ATOM      9  C   UNL     1       9.444  47.189  52.112  1.00  0.00     0.133 A 
ATOM     10  C   UNL     1       8.519  47.965  52.774  1.00  0.00     0.132 A 
ENDROOT
BRANCH   1  11
ATOM     11  N   UNL     1       5.858  43.330  49.676  1.00  0.00    -0.348 N 
ATOM     12  H   UNL     1       6.573  43.306  48.948  1.00  0.00     0.163 HD
BRANCH  11  13
ATOM     13  C   UNL     1       5.682  42.084  50.414  1.00  0.00     0.177 C 
BRANCH  13  14
ATOM     14  C   UNL     1       4.197  41.670  50.558  1.00  0.00     0.283 C 
BRANCH  14  15
ATOM     15  N   UNL     1       3.320  42.699  51.256  1.00  0.00    -0.338 N 
ATOM     16  C   UNL     1       3.440  42.683  52.750  1.00  0.00     0.332 C 
ATOM     17  C   UNL     1       1.900  42.710  50.776  1.00  0.00     0.332 C 
ATOM     18  H   UNL     1       3.719  43.602  50.958  1.00  0.00     0.347 HD
ENDBRANCH  14  15
ENDBRANCH  13  14
ENDBRANCH  11  13
ENDBRANCH   1  11
BRANCH   4  19
ATOM     19  N   UNL     1       4.498  46.972  52.370  1.00  0.00    -0.338 N 
ATOM     20  H   UNL     1       4.835  47.904  52.605  1.00  0.00     0.168 HD
BRANCH  19  21
ATOM     21  C   UNL     1       3.447  46.488  53.167  1.00  0.00     0.040 A 
ATOM     22  C   UNL     1       2.182  46.231  52.627  1.00  0.00     0.030 A 
ATOM     23  C   UNL     1       3.667  46.184  54.515  1.00  0.00     0.030 A 
ATOM     24  C   UNL     1       1.168  45.670  53.408  1.00  0.00     0.048 A 
ATOM     25  C   UNL     1       2.653  45.617  55.301  1.00  0.00     0.048 A 
ATOM     26  C   UNL     1       1.401  45.356  54.746  1.00  0.00     0.119 A 
BRANCH  26  27
ATOM     27  O   UNL     1       0.344  44.777  55.392  1.00  0.00    -0.497 OA
ATOM     28  C   UNL     1       0.244  45.035  56.790  1.00  0.00     0.278 C 
ENDBRANCH  26  27
ENDBRANCH  19  21
ENDBRANCH   4  19
TORSDOF 7
ENDMDL
MODEL 11
REMARK VINA RESULT:    -7.121      2.923      7.202
REMARK INTER + INTRA:         -11.122
REMARK INTER:                 -10.108
REMARK INTRA:                  -1.014
REMARK UNBOUND:                -1.086
REMARK SMILES COc1ccc(Nc2nc(NCC[NH+](C)C)nc3nccnc23)cc1
REMARK SMILES IDX 10 1 9 2 17 3 8 4 18 5 23 6 19 7 22 8 20 9 21 10 11 11 12 13
REMARK SMILES IDX 13 14 14 15 15 16 16 17 7 19 6 21 5 22 24 23 4 24 25 25 3 26
REMARK SMILES IDX 2 27 1 28
REMARK H PARENT 11 12 14 18 7 20
ROOT
ATOM      1  C   UNL     1       3.227  42.157  51.331  1.00  0.00     0.227 A 
ATOM      2  N   UNL     1       3.724  42.885  52.323  1.00  0.00    -0.193 NA
ATOM      3  N   UNL     1       2.016  42.325  50.825  1.00  0.00    -0.191 NA
ATOM      4  C   UNL     1       2.944  43.851  52.850  1.00  0.00     0.164 A 
ATOM      5  C   UNL     1       1.247  43.281  51.344  1.00  0.00     0.185 A 
ATOM      6  C   UNL     1       1.659  44.117  52.392  1.00  0.00     0.150 A 
ATOM      7  N   UNL     1       0.032  43.445  50.814  1.00  0.00    -0.233 NA
ATOM      8  N   UNL     1       0.874  45.116  52.897  1.00  0.00    -0.247 NA
ATOM      9  C   UNL     1      -0.761  44.419  51.321  1.00  0.00     0.133 A 
ATOM     10  C   UNL     1      -0.348  45.242  52.344  1.00  0.00     0.132 A 
ENDROOT
BRANCH   1  11
ATOM     11  N   UNL     1       4.004  41.152  50.770  1.00  0.00    -0.348 N 
ATOM     12  H   UNL     1       3.354  40.382  50.604  1.00  0.00     0.163 HD
BRANCH  11  13
ATOM     13  C   UNL     1       4.807  41.543  49.616  1.00  0.00     0.177 C 
BRANCH  13  14
ATOM     14  C   UNL     1       6.234  42.006  50.001  1.00  0.00     0.283 C 
BRANCH  14  15
ATOM     15  N   UNL     1       6.571  43.428  49.580  1.00  0.00    -0.338 N 
ATOM     16  C   UNL     1       7.999  43.614  49.164  1.00  0.00     0.332 C 
ATOM     17  C   UNL     1       6.094  44.473  50.544  1.00  0.00     0.332 C 
ATOM     18  H   UNL     1       6.014  43.568  48.724  1.00  0.00     0.347 HD
ENDBRANCH  14  15
ENDBRANCH  13  14
ENDBRANCH  11  13
ENDBRANCH   1  11
BRANCH   4  19
ATOM     19  N   UNL     1       3.443  44.616  53.941  1.00  0.00    -0.338 N 
ATOM     20  H   UNL     1       2.683  44.902  54.554  1.00  0.00     0.168 HD
BRANCH  19  21
ATOM     21  C   UNL     1       4.566  45.460  53.932  1.00  0.00     0.040 A 
ATOM     22  C   UNL     1       5.758  45.093  54.567  1.00  0.00     0.030 A 
ATOM     23  C   UNL     1       4.537  46.666  53.222  1.00  0.00     0.030 A 
ATOM     24  C   UNL     1       6.896  45.900  54.481  1.00  0.00     0.048 A 
ATOM     25  C   UNL     1       5.678  47.476  53.131  1.00  0.00     0.048 A 
ATOM     26  C   UNL     1       6.862  47.092  53.759  1.00  0.00     0.119 A 
BRANCH  26  27
ATOM     27  O   UNL     1       8.047  47.772  53.718  1.00  0.00    -0.497 OA
ATOM     28  C   UNL     1       9.222  46.981  53.565  1.00  0.00     0.278 C 
ENDBRANCH  26  27
ENDBRANCH  19  21
ENDBRANCH   4  19
TORSDOF 7
ENDMDL
MODEL 12
REMARK VINA RESULT:    -7.076      2.266      5.714
REMARK INTER + INTRA:         -11.058
REMARK INTER:                 -10.120
REMARK INTRA:                  -0.939
REMARK UNBOUND:                -1.086
REMARK SMILES COc1ccc(Nc2nc(NCC[NH+](C)C)nc3nccnc23)cc1
REMARK SMILES IDX 10 1 9 2 17 3 8 4 18 5 23 6 19 7 22 8 20 9 21 10 11 11 12 13
REMARK SMILES IDX 13 14 14 15 15 16 16 17 7 19 6 21 5 22 24 23 4 24 25 25 3 26
REMARK SMILES IDX 2 27 1 28
REMARK H PARENT 11 12 14 18 7 20
ROOT
ATOM      1  C   UNL     1       2.287  44.894  54.377  1.00  0.00     0.227 A 
ATOM      2  N   UNL     1       2.954  43.919  53.773  1.00  0.00    -0.193 NA
ATOM      3  N   UNL     1       1.090  45.315  53.999  1.00  0.00    -0.191 NA
ATOM      4  C   UNL     1       2.378  43.325  52.708  1.00  0.00     0.164 A 
ATOM      5  C   UNL     1       0.522  44.727  52.949  1.00  0.00     0.185 A 
ATOM      6  C   UNL     1       1.124  43.684  52.230  1.00  0.00     0.150 A 
ATOM      7  N   UNL     1      -0.691  45.156  52.589  1.00  0.00    -0.233 NA
ATOM      8  N   UNL     1       0.518  43.065  51.172  1.00  0.00    -0.247 NA
ATOM      9  C   UNL     1      -1.291  44.562  51.530  1.00  0.00     0.133 A 
ATOM     10  C   UNL     1      -0.698  43.534  50.832  1.00  0.00     0.132 A 
ENDROOT
BRANCH   1  11
ATOM     11  N   UNL     1       2.854  45.529  55.474  1.00  0.00    -0.348 N 
ATOM     12  H   UNL     1       2.705  44.886  56.253  1.00  0.00     0.163 HD
BRANCH  11  13
ATOM     13  C   UNL     1       4.230  45.982  55.301  1.00  0.00     0.177 C 
BRANCH  13  14
ATOM     14  C   UNL     1       4.329  47.379  54.639  1.00  0.00     0.283 C 
BRANCH  14  15
ATOM     15  N   UNL     1       4.834  47.362  53.204  1.00  0.00    -0.338 N 
ATOM     16  C   UNL     1       3.770  47.065  52.191  1.00  0.00     0.332 C 
ATOM     17  C   UNL     1       6.080  46.550  53.010  1.00  0.00     0.332 C 
ATOM     18  H   UNL     1       5.112  48.340  53.032  1.00  0.00     0.347 HD
ENDBRANCH  14  15
ENDBRANCH  13  14
ENDBRANCH  11  13
ENDBRANCH   1  11
BRANCH   4  19
ATOM     19  N   UNL     1       3.094  42.304  52.023  1.00  0.00    -0.338 N 
ATOM     20  H   UNL     1       3.070  41.435  52.553  1.00  0.00     0.168 HD
BRANCH  19  21
ATOM     21  C   UNL     1       4.209  42.473  51.186  1.00  0.00     0.040 A 
ATOM     22  C   UNL     1       4.848  43.713  51.066  1.00  0.00     0.030 A 
ATOM     23  C   UNL     1       4.752  41.379  50.503  1.00  0.00     0.030 A 
ATOM     24  C   UNL     1       6.007  43.852  50.297  1.00  0.00     0.048 A 
ATOM     25  C   UNL     1       5.916  41.514  49.734  1.00  0.00     0.048 A 
ATOM     26  C   UNL     1       6.549  42.752  49.633  1.00  0.00     0.119 A 
BRANCH  26  27
ATOM     27  O   UNL     1       7.703  43.008  48.946  1.00  0.00    -0.497 OA
ATOM     28  C   UNL     1       8.402  44.195  49.311  1.00  0.00     0.278 C 
ENDBRANCH  26  27
ENDBRANCH  19  21
ENDBRANCH   4  19
TORSDOF 7
ENDMDL
MODEL 13
REMARK VINA RESULT:    -7.044      2.968      5.958
REMARK INTER + INTRA:         -11.013
REMARK INTER:                 -10.195
REMARK INTRA:                  -0.818
REMARK UNBOUND:                -1.086
REMARK SMILES COc1ccc(Nc2nc(NCC[NH+](C)C)nc3nccnc23)cc1
REMARK SMILES IDX 10 1 9 2 17 3 8 4 18 5 23 6 19 7 22 8 20 9 21 10 11 11 12 13
REMARK SMILES IDX 13 14 14 15 15 16 16 17 7 19 6 21 5 22 24 23 4 24 25 25 3 26
REMARK SMILES IDX 2 27 1 28
REMARK H PARENT 11 12 14 18 7 20
ROOT
ATOM      1  C   UNL     1       2.085  45.334  55.138  1.00  0.00     0.227 A 
ATOM      2  N   UNL     1       2.855  46.049  54.327  1.00  0.00    -0.193 NA
ATOM      3  N   UNL     1       1.326  44.326  54.739  1.00  0.00    -0.191 NA
ATOM      4  C   UNL     1       2.858  45.731  53.017  1.00  0.00     0.164 A 
ATOM      5  C   UNL     1       1.332  44.011  53.446  1.00  0.00     0.185 A 
ATOM      6  C   UNL     1       2.104  44.688  52.491  1.00  0.00     0.150 A 
ATOM      7  N   UNL     1       0.569  42.983  53.062  1.00  0.00    -0.233 NA
ATOM      8  N   UNL     1       2.128  44.337  51.170  1.00  0.00    -0.247 NA
ATOM      9  C   UNL     1       0.571  42.640  51.752  1.00  0.00     0.133 A 
ATOM     10  C   UNL     1       1.336  43.304  50.820  1.00  0.00     0.132 A 
ENDROOT
BRANCH   1  11
ATOM     11  N   UNL     1       2.056  45.640  56.493  1.00  0.00    -0.348 N 
ATOM     12  H   UNL     1       2.335  46.620  56.545  1.00  0.00     0.163 HD
BRANCH  11  13
ATOM     13  C   UNL     1       0.816  45.312  57.188  1.00  0.00     0.177 C 
BRANCH  13  14
ATOM     14  C   UNL     1       0.010  46.565  57.613  1.00  0.00     0.283 C 
BRANCH  14  15
ATOM     15  N   UNL     1      -1.180  46.882  56.721  1.00  0.00    -0.338 N 
ATOM     16  C   UNL     1      -2.049  47.987  57.241  1.00  0.00     0.332 C 
ATOM     17  C   UNL     1      -1.955  45.672  56.292  1.00  0.00     0.332 C 
ATOM     18  H   UNL     1      -0.748  47.252  55.861  1.00  0.00     0.347 HD
ENDBRANCH  14  15
ENDBRANCH  13  14
ENDBRANCH  11  13
ENDBRANCH   1  11
BRANCH   4  19
ATOM     19  N   UNL     1       3.647  46.510  52.124  1.00  0.00    -0.338 N 
ATOM     20  H   UNL     1       3.100  46.782  51.310  1.00  0.00     0.168 HD
BRANCH  19  21
ATOM     21  C   UNL     1       5.032  46.410  51.919  1.00  0.00     0.040 A 
ATOM     22  C   UNL     1       5.943  47.063  52.758  1.00  0.00     0.030 A 
ATOM     23  C   UNL     1       5.538  45.589  50.904  1.00  0.00     0.030 A 
ATOM     24  C   UNL     1       7.320  46.889  52.597  1.00  0.00     0.048 A 
ATOM     25  C   UNL     1       6.918  45.409  50.742  1.00  0.00     0.048 A 
ATOM     26  C   UNL     1       7.813  46.057  51.592  1.00  0.00     0.119 A 
BRANCH  26  27
ATOM     27  O   UNL     1       9.175  45.939  51.562  1.00  0.00    -0.497 OA
ATOM     28  C   UNL     1       9.890  46.644  52.574  1.00  0.00     0.278 C 
ENDBRANCH  26  27
ENDBRANCH  19  21
ENDBRANCH   4  19
TORSDOF 7
ENDMDL
MODEL 14
REMARK VINA RESULT:    -7.038      3.321      6.930
REMARK INTER + INTRA:         -11.004
REMARK INTER:                  -9.649
REMARK INTRA:                  -1.355
REMARK UNBOUND:                -1.086
REMARK SMILES COc1ccc(Nc2nc(NCC[NH+](C)C)nc3nccnc23)cc1
REMARK SMILES IDX 10 1 9 2 17 3 8 4 18 5 23 6 19 7 22 8 20 9 21 10 11 11 12 13
REMARK SMILES IDX 13 14 14 15 15 16 16 17 7 19 6 21 5 22 24 23 4 24 25 25 3 26
REMARK SMILES IDX 2 27 1 28
REMARK H PARENT 11 12 14 18 7 20
ROOT
ATOM      1  C   UNL     1       0.493  43.430  53.837  1.00  0.00     0.227 A 
ATOM      2  N   UNL     1       1.720  43.766  54.214  1.00  0.00    -0.193 NA
ATOM      3  N   UNL     1      -0.609  43.877  54.420  1.00  0.00    -0.191 NA
ATOM      4  C   UNL     1       1.850  44.611  55.258  1.00  0.00     0.164 A 
ATOM      5  C   UNL     1      -0.479  44.712  55.448  1.00  0.00     0.185 A 
ATOM      6  C   UNL     1       0.761  45.144  55.939  1.00  0.00     0.150 A 
ATOM      7  N   UNL     1      -1.601  45.162  56.016  1.00  0.00    -0.233 NA
ATOM      8  N   UNL     1       0.884  46.027  56.975  1.00  0.00    -0.247 NA
ATOM      9  C   UNL     1      -1.490  46.022  57.057  1.00  0.00     0.133 A 
ATOM     10  C   UNL     1      -0.269  46.449  57.530  1.00  0.00     0.132 A 
ENDROOT
BRANCH   1  11
ATOM     11  N   UNL     1       0.325  42.559  52.768  1.00  0.00    -0.348 N 
ATOM     12  H   UNL     1      -0.631  42.213  52.862  1.00  0.00     0.163 HD
BRANCH  11  13
ATOM     13  C   UNL     1       0.662  43.098  51.455  1.00  0.00     0.177 C 
BRANCH  13  14
ATOM     14  C   UNL     1       2.121  42.793  51.032  1.00  0.00     0.283 C 
BRANCH  14  15
ATOM     15  N   UNL     1       3.141  43.816  51.507  1.00  0.00    -0.338 N 
ATOM     16  C   UNL     1       2.802  45.228  51.134  1.00  0.00     0.332 C 
ATOM     17  C   UNL     1       4.561  43.446  51.194  1.00  0.00     0.332 C 
ATOM     18  H   UNL     1       3.066  43.777  52.534  1.00  0.00     0.347 HD
ENDBRANCH  14  15
ENDBRANCH  13  14
ENDBRANCH  11  13
ENDBRANCH   1  11
BRANCH   4  19
ATOM     19  N   UNL     1       3.158  44.953  55.704  1.00  0.00    -0.338 N 
ATOM     20  H   UNL     1       3.141  45.224  56.684  1.00  0.00     0.168 HD
BRANCH  19  21
ATOM     21  C   UNL     1       4.187  45.521  54.935  1.00  0.00     0.040 A 
ATOM     22  C   UNL     1       5.372  44.822  54.674  1.00  0.00     0.030 A 
ATOM     23  C   UNL     1       4.018  46.780  54.349  1.00  0.00     0.030 A 
ATOM     24  C   UNL     1       6.354  45.361  53.838  1.00  0.00     0.048 A 
ATOM     25  C   UNL     1       4.999  47.322  53.508  1.00  0.00     0.048 A 
ATOM     26  C   UNL     1       6.169  46.610  53.247  1.00  0.00     0.119 A 
BRANCH  26  27
ATOM     27  O   UNL     1       7.183  47.010  52.422  1.00  0.00    -0.497 OA
ATOM     28  C   UNL     1       7.514  46.123  51.357  1.00  0.00     0.278 C 
ENDBRANCH  26  27
ENDBRANCH  19  21
ENDBRANCH   4  19
TORSDOF 7
ENDMDL
MODEL 15
REMARK VINA RESULT:    -6.967      2.779      6.507
REMARK INTER + INTRA:         -10.904
REMARK INTER:                 -10.181
REMARK INTRA:                  -0.723
REMARK UNBOUND:                -1.086
REMARK SMILES COc1ccc(Nc2nc(NCC[NH+](C)C)nc3nccnc23)cc1
REMARK SMILES IDX 10 1 9 2 17 3 8 4 18 5 23 6 19 7 22 8 20 9 21 10 11 11 12 13
REMARK SMILES IDX 13 14 14 15 15 16 16 17 7 19 6 21 5 22 24 23 4 24 25 25 3 26
REMARK SMILES IDX 2 27 1 28
REMARK H PARENT 11 12 14 18 7 20
ROOT
ATOM      1  C   UNL     1       5.498  45.489  51.927  1.00  0.00     0.227 A 
ATOM      2  N   UNL     1       4.558  44.899  52.655  1.00  0.00    -0.193 NA
ATOM      3  N   UNL     1       6.085  44.928  50.881  1.00  0.00    -0.191 NA
ATOM      4  C   UNL     1       4.184  43.650  52.309  1.00  0.00     0.164 A 
ATOM      5  C   UNL     1       5.712  43.696  50.540  1.00  0.00     0.185 A 
ATOM      6  C   UNL     1       4.730  42.970  51.227  1.00  0.00     0.150 A 
ATOM      7  N   UNL     1       6.307  43.150  49.475  1.00  0.00    -0.233 NA
ATOM      8  N   UNL     1       4.331  41.718  50.849  1.00  0.00    -0.247 NA
ATOM      9  C   UNL     1       5.933  41.902  49.105  1.00  0.00     0.133 A 
ATOM     10  C   UNL     1       4.961  41.197  49.779  1.00  0.00     0.132 A 
ENDROOT
BRANCH   1  11
ATOM     11  N   UNL     1       5.910  46.773  52.259  1.00  0.00    -0.348 N 
ATOM     12  H   UNL     1       5.102  47.195  52.719  1.00  0.00     0.163 HD
BRANCH  11  13
ATOM     13  C   UNL     1       7.162  46.863  53.002  1.00  0.00     0.177 C 
BRANCH  13  14
ATOM     14  C   UNL     1       8.265  47.637  52.238  1.00  0.00     0.283 C 
BRANCH  14  15
ATOM     15  N   UNL     1       9.686  47.256  52.624  1.00  0.00    -0.338 N 
ATOM     16  C   UNL     1      10.216  46.065  51.882  1.00  0.00     0.332 C 
ATOM     17  C   UNL     1       9.912  47.180  54.104  1.00  0.00     0.332 C 
ATOM     18  H   UNL     1      10.250  48.055  52.299  1.00  0.00     0.347 HD
ENDBRANCH  14  15
ENDBRANCH  13  14
ENDBRANCH  11  13
ENDBRANCH   1  11
BRANCH   4  19
ATOM     19  N   UNL     1       3.205  42.985  53.100  1.00  0.00    -0.338 N 
ATOM     20  H   UNL     1       3.458  42.008  53.233  1.00  0.00     0.168 HD
BRANCH  19  21
ATOM     21  C   UNL     1       1.831  43.269  53.154  1.00  0.00     0.040 A 
ATOM     22  C   UNL     1       0.936  42.721  52.227  1.00  0.00     0.030 A 
ATOM     23  C   UNL     1       1.314  44.058  54.187  1.00  0.00     0.030 A 
ATOM     24  C   UNL     1      -0.439  42.941  52.340  1.00  0.00     0.048 A 
ATOM     25  C   UNL     1      -0.066  44.278  54.305  1.00  0.00     0.048 A 
ATOM     26  C   UNL     1      -0.946  43.716  53.382  1.00  0.00     0.119 A 
BRANCH  26  27
ATOM     27  O   UNL     1      -2.309  43.826  53.405  1.00  0.00    -0.497 OA
ATOM     28  C   UNL     1      -2.994  43.395  52.233  1.00  0.00     0.278 C 
ENDBRANCH  26  27
ENDBRANCH  19  21
ENDBRANCH   4  19
TORSDOF 7
ENDMDL
MODEL 16
REMARK VINA RESULT:    -6.949      2.362      5.585
REMARK INTER + INTRA:         -10.879
REMARK INTER:                 -10.154
REMARK INTRA:                  -0.725
REMARK UNBOUND:                -1.086
REMARK SMILES COc1ccc(Nc2nc(NCC[NH+](C)C)nc3nccnc23)cc1
REMARK SMILES IDX 10 1 9 2 17 3 8 4 18 5 23 6 19 7 22 8 20 9 21 10 11 11 12 13
REMARK SMILES IDX 13 14 14 15 15 16 16 17 7 19 6 21 5 22 24 23 4 24 25 25 3 26
REMARK SMILES IDX 2 27 1 28
REMARK H PARENT 11 12 14 18 7 20
ROOT
ATOM      1  C   UNL     1       6.619  44.898  50.631  1.00  0.00     0.227 A 
ATOM      2  N   UNL     1       6.636  43.701  50.059  1.00  0.00    -0.193 NA
ATOM      3  N   UNL     1       5.683  45.301  51.476  1.00  0.00    -0.191 NA
ATOM      4  C   UNL     1       5.635  42.846  50.353  1.00  0.00     0.164 A 
ATOM      5  C   UNL     1       4.697  44.455  51.768  1.00  0.00     0.185 A 
ATOM      6  C   UNL     1       4.605  43.163  51.231  1.00  0.00     0.150 A 
ATOM      7  N   UNL     1       3.768  44.874  52.632  1.00  0.00    -0.233 NA
ATOM      8  N   UNL     1       3.606  42.290  51.562  1.00  0.00    -0.247 NA
ATOM      9  C   UNL     1       2.763  44.024  52.951  1.00  0.00     0.133 A 
ATOM     10  C   UNL     1       2.682  42.753  52.426  1.00  0.00     0.132 A 
ENDROOT
BRANCH   1  11
ATOM     11  N   UNL     1       7.633  45.803  50.345  1.00  0.00    -0.348 N 
ATOM     12  H   UNL     1       7.152  46.629  49.987  1.00  0.00     0.163 HD
BRANCH  11  13
ATOM     13  C   UNL     1       8.577  46.058  51.428  1.00  0.00     0.177 C 
BRANCH  13  14
ATOM     14  C   UNL     1       8.446  47.482  52.023  1.00  0.00     0.283 C 
BRANCH  14  15
ATOM     15  N   UNL     1       8.557  47.545  53.538  1.00  0.00    -0.338 N 
ATOM     16  C   UNL     1       9.916  47.192  54.061  1.00  0.00     0.332 C 
ATOM     17  C   UNL     1       7.444  46.841  54.256  1.00  0.00     0.332 C 
ATOM     18  H   UNL     1       8.432  48.546  53.750  1.00  0.00     0.347 HD
ENDBRANCH  14  15
ENDBRANCH  13  14
ENDBRANCH  11  13
ENDBRANCH   1  11
BRANCH   4  19
ATOM     19  N   UNL     1       5.614  41.572  49.720  1.00  0.00    -0.338 N 
ATOM     20  H   UNL     1       6.396  41.003  50.037  1.00  0.00     0.168 HD
BRANCH  19  21
ATOM     21  C   UNL     1       5.132  41.279  48.434  1.00  0.00     0.040 A 
ATOM     22  C   UNL     1       3.977  40.512  48.245  1.00  0.00     0.030 A 
ATOM     23  C   UNL     1       5.764  41.813  47.305  1.00  0.00     0.030 A 
ATOM     24  C   UNL     1       3.458  40.297  46.965  1.00  0.00     0.048 A 
ATOM     25  C   UNL     1       5.244  41.604  46.020  1.00  0.00     0.048 A 
ATOM     26  C   UNL     1       4.086  40.847  45.849  1.00  0.00     0.119 A 
BRANCH  26  27
ATOM     27  O   UNL     1       3.461  40.597  44.658  1.00  0.00    -0.497 OA
ATOM     28  C   UNL     1       2.851  39.317  44.524  1.00  0.00     0.278 C 
ENDBRANCH  26  27
ENDBRANCH  19  21
ENDBRANCH   4  19
TORSDOF 7
ENDMDL
MODEL 17
REMARK VINA RESULT:    -6.855      3.016      7.215
REMARK INTER + INTRA:         -10.747
REMARK INTER:                  -9.971
REMARK INTRA:                  -0.776
REMARK UNBOUND:                -1.086
REMARK SMILES COc1ccc(Nc2nc(NCC[NH+](C)C)nc3nccnc23)cc1
REMARK SMILES IDX 10 1 9 2 17 3 8 4 18 5 23 6 19 7 22 8 20 9 21 10 11 11 12 13
REMARK SMILES IDX 13 14 14 15 15 16 16 17 7 19 6 21 5 22 24 23 4 24 25 25 3 26
REMARK SMILES IDX 2 27 1 28
REMARK H PARENT 11 12 14 18 7 20
ROOT
ATOM      1  C   UNL     1       1.369  43.046  52.890  1.00  0.00     0.227 A 
ATOM      2  N   UNL     1       2.264  43.900  53.371  1.00  0.00    -0.193 NA
ATOM      3  N   UNL     1       0.157  42.882  53.396  1.00  0.00    -0.191 NA
ATOM      4  C   UNL     1       1.917  44.640  54.444  1.00  0.00     0.164 A 
ATOM      5  C   UNL     1      -0.185  43.615  54.454  1.00  0.00     0.185 A 
ATOM      6  C   UNL     1       0.669  44.552  55.051  1.00  0.00     0.150 A 
ATOM      7  N   UNL     1      -1.417  43.445  54.944  1.00  0.00    -0.233 NA
ATOM      8  N   UNL     1       0.298  45.323  56.117  1.00  0.00    -0.247 NA
ATOM      9  C   UNL     1      -1.787  44.190  56.013  1.00  0.00     0.133 A 
ATOM     10  C   UNL     1      -0.946  45.114  56.590  1.00  0.00     0.132 A 
ENDROOT
BRANCH   1  11
ATOM     11  N   UNL     1       1.697  42.265  51.789  1.00  0.00    -0.348 N 
ATOM     12  H   UNL     1       0.842  42.229  51.232  1.00  0.00     0.163 HD
BRANCH  11  13
ATOM     13  C   UNL     1       2.893  42.672  51.060  1.00  0.00     0.177 C 
BRANCH  13  14
ATOM     14  C   UNL     1       3.898  41.511  50.850  1.00  0.00     0.283 C 
BRANCH  14  15
ATOM     15  N   UNL     1       5.310  41.955  50.502  1.00  0.00    -0.338 N 
ATOM     16  C   UNL     1       5.555  43.419  50.714  1.00  0.00     0.332 C 
ATOM     17  C   UNL     1       5.789  41.461  49.170  1.00  0.00     0.332 C 
ATOM     18  H   UNL     1       5.896  41.474  51.201  1.00  0.00     0.347 HD
ENDBRANCH  14  15
ENDBRANCH  13  14
ENDBRANCH  11  13
ENDBRANCH   1  11
BRANCH   4  19
ATOM     19  N   UNL     1       2.876  45.533  54.999  1.00  0.00    -0.338 N 
ATOM     20  H   UNL     1       2.414  46.260  55.542  1.00  0.00     0.168 HD
BRANCH  19  21
ATOM     21  C   UNL     1       4.117  45.885  54.445  1.00  0.00     0.040 A 
ATOM     22  C   UNL     1       5.264  45.118  54.680  1.00  0.00     0.030 A 
ATOM     23  C   UNL     1       4.219  46.982  53.582  1.00  0.00     0.030 A 
ATOM     24  C   UNL     1       6.476  45.429  54.056  1.00  0.00     0.048 A 
ATOM     25  C   UNL     1       5.431  47.294  52.951  1.00  0.00     0.048 A 
ATOM     26  C   UNL     1       6.563  46.514  53.186  1.00  0.00     0.119 A 
BRANCH  26  27
ATOM     27  O   UNL     1       7.790  46.690  52.610  1.00  0.00    -0.497 OA
ATOM     28  C   UNL     1       8.101  48.014  52.183  1.00  0.00     0.278 C 
ENDBRANCH  26  27
ENDBRANCH  19  21
ENDBRANCH   4  19
TORSDOF 7
ENDMDL
MODEL 18
REMARK VINA RESULT:    -6.831      1.734      5.787
REMARK INTER + INTRA:         -10.713
REMARK INTER:                 -10.398
REMARK INTRA:                  -0.315
REMARK UNBOUND:                -1.086
REMARK SMILES COc1ccc(Nc2nc(NCC[NH+](C)C)nc3nccnc23)cc1
REMARK SMILES IDX 10 1 9 2 17 3 8 4 18 5 23 6 19 7 22 8 20 9 21 10 11 11 12 13
REMARK SMILES IDX 13 14 14 15 15 16 16 17 7 19 6 21 5 22 24 23 4 24 25 25 3 26
REMARK SMILES IDX 2 27 1 28
REMARK H PARENT 11 12 14 18 7 20
ROOT
ATOM      1  C   UNL     1       3.520  45.469  54.453  1.00  0.00     0.227 A 
ATOM      2  N   UNL     1       3.888  44.566  53.554  1.00  0.00    -0.193 NA
ATOM      3  N   UNL     1       2.286  45.591  54.917  1.00  0.00    -0.191 NA
ATOM      4  C   UNL     1       2.946  43.725  53.081  1.00  0.00     0.164 A 
ATOM      5  C   UNL     1       1.357  44.759  54.451  1.00  0.00     0.185 A 
ATOM      6  C   UNL     1       1.622  43.761  53.502  1.00  0.00     0.150 A 
ATOM      7  N   UNL     1       0.119  44.888  54.939  1.00  0.00    -0.233 NA
ATOM      8  N   UNL     1       0.668  42.890  53.054  1.00  0.00    -0.247 NA
ATOM      9  C   UNL     1      -0.837  44.043  54.485  1.00  0.00     0.133 A 
ATOM     10  C   UNL     1      -0.569  43.060  53.559  1.00  0.00     0.132 A 
ENDROOT
BRANCH   1  11
ATOM     11  N   UNL     1       4.466  46.353  54.957  1.00  0.00    -0.348 N 
ATOM     12  H   UNL     1       4.847  45.885  55.780  1.00  0.00     0.163 HD
BRANCH  11  13
ATOM     13  C   UNL     1       5.459  46.829  53.999  1.00  0.00     0.177 C 
BRANCH  13  14
ATOM     14  C   UNL     1       6.904  46.791  54.557  1.00  0.00     0.283 C 
BRANCH  14  15
ATOM     15  N   UNL     1       7.967  47.279  53.585  1.00  0.00    -0.338 N 
ATOM     16  C   UNL     1       7.957  46.564  52.267  1.00  0.00     0.332 C 
ATOM     17  C   UNL     1       9.336  47.387  54.189  1.00  0.00     0.332 C 
ATOM     18  H   UNL     1       7.681  48.246  53.376  1.00  0.00     0.347 HD
ENDBRANCH  14  15
ENDBRANCH  13  14
ENDBRANCH  11  13
ENDBRANCH   1  11
BRANCH   4  19
ATOM     19  N   UNL     1       3.312  42.774  52.087  1.00  0.00    -0.338 N 
ATOM     20  H   UNL     1       3.022  41.839  52.364  1.00  0.00     0.168 HD
BRANCH  19  21
ATOM     21  C   UNL     1       4.425  42.836  51.233  1.00  0.00     0.040 A 
ATOM     22  C   UNL     1       5.056  44.052  50.944  1.00  0.00     0.030 A 
ATOM     23  C   UNL     1       4.975  41.663  50.704  1.00  0.00     0.030 A 
ATOM     24  C   UNL     1       6.213  44.092  50.162  1.00  0.00     0.048 A 
ATOM     25  C   UNL     1       6.137  41.700  49.922  1.00  0.00     0.048 A 
ATOM     26  C   UNL     1       6.761  42.917  49.652  1.00  0.00     0.119 A 
BRANCH  26  27
ATOM     27  O   UNL     1       7.913  43.084  48.935  1.00  0.00    -0.497 OA
ATOM     28  C   UNL     1       8.743  44.176  49.324  1.00  0.00     0.278 C 
ENDBRANCH  26  27
ENDBRANCH  19  21
ENDBRANCH   4  19
TORSDOF 7
ENDMDL
MODEL 19
REMARK VINA RESULT:    -6.754      2.909      6.915
REMARK INTER + INTRA:         -10.604
REMARK INTER:                 -10.307
REMARK INTRA:                  -0.297
REMARK UNBOUND:                -1.086
REMARK SMILES COc1ccc(Nc2nc(NCC[NH+](C)C)nc3nccnc23)cc1
REMARK SMILES IDX 10 1 9 2 17 3 8 4 18 5 23 6 19 7 22 8 20 9 21 10 11 11 12 13
REMARK SMILES IDX 13 14 14 15 15 16 16 17 7 19 6 21 5 22 24 23 4 24 25 25 3 26
REMARK SMILES IDX 2 27 1 28
REMARK H PARENT 11 12 14 18 7 20
ROOT
ATOM      1  C   UNL     1       5.535  45.340  52.155  1.00  0.00     0.227 A 
ATOM      2  N   UNL     1       4.460  44.893  52.792  1.00  0.00    -0.193 NA
ATOM      3  N   UNL     1       6.123  44.700  51.157  1.00  0.00    -0.191 NA
ATOM      4  C   UNL     1       3.940  43.712  52.399  1.00  0.00     0.164 A 
ATOM      5  C   UNL     1       5.607  43.536  50.768  1.00  0.00     0.185 A 
ATOM      6  C   UNL     1       4.473  42.960  51.359  1.00  0.00     0.150 A 
ATOM      7  N   UNL     1       6.206  42.910  49.751  1.00  0.00    -0.233 NA
ATOM      8  N   UNL     1       3.931  41.780  50.932  1.00  0.00    -0.247 NA
ATOM      9  C   UNL     1       5.689  41.730  49.334  1.00  0.00     0.133 A 
ATOM     10  C   UNL     1       4.570  41.173  49.913  1.00  0.00     0.132 A 
ENDROOT
BRANCH   1  11
ATOM     11  N   UNL     1       6.098  46.551  52.539  1.00  0.00    -0.348 N 
ATOM     12  H   UNL     1       6.160  46.499  53.556  1.00  0.00     0.163 HD
BRANCH  11  13
ATOM     13  C   UNL     1       7.338  46.914  51.861  1.00  0.00     0.177 C 
BRANCH  13  14
ATOM     14  C   UNL     1       8.207  47.903  52.678  1.00  0.00     0.283 C 
BRANCH  14  15
ATOM     15  N   UNL     1       9.626  47.426  52.943  1.00  0.00    -0.338 N 
ATOM     16  C   UNL     1      10.072  46.317  52.037  1.00  0.00     0.332 C 
ATOM     17  C   UNL     1       9.915  47.159  54.391  1.00  0.00     0.332 C 
ATOM     18  H   UNL     1      10.208  48.238  52.690  1.00  0.00     0.347 HD
ENDBRANCH  14  15
ENDBRANCH  13  14
ENDBRANCH  11  13
ENDBRANCH   1  11
BRANCH   4  19
ATOM     19  N   UNL     1       2.810  43.196  53.094  1.00  0.00    -0.338 N 
ATOM     20  H   UNL     1       2.418  42.400  52.596  1.00  0.00     0.168 HD
BRANCH  19  21
ATOM     21  C   UNL     1       1.906  43.922  53.887  1.00  0.00     0.040 A 
ATOM     22  C   UNL     1       0.531  43.906  53.625  1.00  0.00     0.030 A 
ATOM     23  C   UNL     1       2.358  44.626  55.009  1.00  0.00     0.030 A 
ATOM     24  C   UNL     1      -0.368  44.563  54.469  1.00  0.00     0.048 A 
ATOM     25  C   UNL     1       1.458  45.282  55.860  1.00  0.00     0.048 A 
ATOM     26  C   UNL     1       0.091  45.248  55.593  1.00  0.00     0.119 A 
BRANCH  26  27
ATOM     27  O   UNL     1      -0.890  45.815  56.359  1.00  0.00    -0.497 OA
ATOM     28  C   UNL     1      -1.786  44.914  57.002  1.00  0.00     0.278 C 
ENDBRANCH  26  27
ENDBRANCH  19  21
ENDBRANCH   4  19
TORSDOF 7
ENDMDL
MODEL 20
REMARK VINA RESULT:    -6.730      1.766      5.528
REMARK INTER + INTRA:         -10.571
REMARK INTER:                  -9.657
REMARK INTRA:                  -0.914
REMARK UNBOUND:                -1.086
REMARK SMILES COc1ccc(Nc2nc(NCC[NH+](C)C)nc3nccnc23)cc1
REMARK SMILES IDX 10 1 9 2 17 3 8 4 18 5 23 6 19 7 22 8 20 9 21 10 11 11 12 13
REMARK SMILES IDX 13 14 14 15 15 16 16 17 7 19 6 21 5 22 24 23 4 24 25 25 3 26
REMARK SMILES IDX 2 27 1 28
REMARK H PARENT 11 12 14 18 7 20
ROOT
ATOM      1  C   UNL     1       3.182  45.607  53.845  1.00  0.00     0.227 A 
ATOM      2  N   UNL     1       3.701  44.430  53.518  1.00  0.00    -0.193 NA
ATOM      3  N   UNL     1       1.982  46.017  53.467  1.00  0.00    -0.191 NA
ATOM      4  C   UNL     1       2.960  43.605  52.750  1.00  0.00     0.164 A 
ATOM      5  C   UNL     1       1.251  45.201  52.711  1.00  0.00     0.185 A 
ATOM      6  C   UNL     1       1.686  43.932  52.302  1.00  0.00     0.150 A 
ATOM      7  N   UNL     1       0.036  45.625  52.349  1.00  0.00    -0.233 NA
ATOM      8  N   UNL     1       0.915  43.088  51.552  1.00  0.00    -0.247 NA
ATOM      9  C   UNL     1      -0.727  44.804  51.589  1.00  0.00     0.133 A 
ATOM     10  C   UNL     1      -0.298  43.557  51.197  1.00  0.00     0.132 A 
ENDROOT
BRANCH   1  11
ATOM     11  N   UNL     1       3.922  46.481  54.631  1.00  0.00    -0.348 N 
ATOM     12  H   UNL     1       4.206  45.927  55.440  1.00  0.00     0.163 HD
BRANCH  11  13
ATOM     13  C   UNL     1       5.004  47.183  53.950  1.00  0.00     0.177 C 
BRANCH  13  14
ATOM     14  C   UNL     1       6.408  46.667  54.351  1.00  0.00     0.283 C 
BRANCH  14  15
ATOM     15  N   UNL     1       7.210  46.066  53.206  1.00  0.00    -0.338 N 
ATOM     16  C   UNL     1       8.655  46.463  53.206  1.00  0.00     0.332 C 
ATOM     17  C   UNL     1       6.555  46.214  51.865  1.00  0.00     0.332 C 
ATOM     18  H   UNL     1       7.202  45.055  53.408  1.00  0.00     0.347 HD
ENDBRANCH  14  15
ENDBRANCH  13  14
ENDBRANCH  11  13
ENDBRANCH   1  11
BRANCH   4  19
ATOM     19  N   UNL     1       3.514  42.355  52.355  1.00  0.00    -0.338 N 
ATOM     20  H   UNL     1       3.795  41.816  53.172  1.00  0.00     0.168 HD
BRANCH  19  21
ATOM     21  C   UNL     1       4.226  42.084  51.175  1.00  0.00     0.040 A 
ATOM     22  C   UNL     1       3.798  41.100  50.276  1.00  0.00     0.030 A 
ATOM     23  C   UNL     1       5.348  42.848  50.837  1.00  0.00     0.030 A 
ATOM     24  C   UNL     1       4.465  40.897  49.065  1.00  0.00     0.048 A 
ATOM     25  C   UNL     1       6.017  42.649  49.621  1.00  0.00     0.048 A 
ATOM     26  C   UNL     1       5.573  41.674  48.730  1.00  0.00     0.119 A 
BRANCH  26  27
ATOM     27  O   UNL     1       6.113  41.404  47.503  1.00  0.00    -0.497 OA
ATOM     28  C   UNL     1       5.319  41.759  46.374  1.00  0.00     0.278 C 
ENDBRANCH  26  27
ENDBRANCH  19  21
ENDBRANCH   4  19
TORSDOF 7
ENDMDL
