MODEL 1
REMARK VINA RESULT:    -8.451      0.000      0.000
REMARK INTER + INTRA:         -12.735
REMARK INTER:                 -11.662
REMARK INTRA:                  -1.073
REMARK UNBOUND:                -1.073
REMARK SMILES CCCCNc1nc(Nc2cc(C)ccc2O)c2cnn(C)c2n1
REMARK SMILES IDX 6 1 7 2 8 3 18 4 19 5 20 6 21 7 22 8 23 9 24 10 5 11 4 13
REMARK SMILES IDX 3 14 2 15 1 16 9 17 10 19 11 20 16 21 12 22 15 23 14 24
REMARK SMILES IDX 13 25 17 26
REMARK H PARENT 5 12 9 18 17 27
ROOT
ATOM      1  C   UNL     1       4.175  43.576  51.355  1.00  0.00     0.226 A 
ATOM      2  N   UNL     1       5.044  44.601  51.433  1.00  0.00    -0.195 NA
ATOM      3  C   UNL     1       4.858  45.593  52.343  1.00  0.00     0.147 A 
ATOM      4  C   UNL     1       3.787  45.460  53.230  1.00  0.00     0.082 A 
ATOM      5  C   UNL     1       3.256  46.115  54.362  1.00  0.00     0.149 A 
ATOM      6  N   UNL     1       2.158  45.521  54.843  1.00  0.00    -0.179 NA
ATOM      7  N   UNL     1       2.009  44.449  54.030  1.00  0.00    -0.250 N 
ATOM      8  C   UNL     1       0.924  43.529  54.261  1.00  0.00     0.176 C 
ATOM      9  C   UNL     1       2.967  44.363  53.058  1.00  0.00     0.165 A 
ATOM     10  N   UNL     1       3.098  43.403  52.130  1.00  0.00    -0.193 NA
ENDROOT
BRANCH   1  11
ATOM     11  N   UNL     1       4.467  42.653  50.362  1.00  0.00    -0.354 N 
ATOM     12  H   UNL     1       3.588  42.409  49.920  1.00  0.00     0.163 HD
BRANCH  11  13
ATOM     13  C   UNL     1       5.340  41.549  50.714  1.00  0.00     0.116 C 
BRANCH  13  14
ATOM     14  C   UNL     1       6.657  41.547  49.931  1.00  0.00     0.021 C 
BRANCH  14  15
ATOM     15  C   UNL     1       6.754  42.693  48.920  1.00  0.00    -0.002 C 
ATOM     16  C   UNL     1       7.927  43.610  49.234  1.00  0.00     0.004 C 
ENDBRANCH  14  15
ENDBRANCH  13  14
ENDBRANCH  11  13
ENDBRANCH   1  11
BRANCH   3  17
ATOM     17  N   UNL     1       5.806  46.615  52.360  1.00  0.00    -0.336 N 
ATOM     18  H   UNL     1       5.365  47.524  52.477  1.00  0.00     0.168 HD
BRANCH  17  19
ATOM     19  C   UNL     1       7.155  46.651  52.759  1.00  0.00     0.082 A 
ATOM     20  C   UNL     1       8.220  46.244  51.948  1.00  0.00     0.033 A 
ATOM     21  C   UNL     1       7.463  47.177  54.027  1.00  0.00     0.139 A 
ATOM     22  C   UNL     1       9.553  46.371  52.374  1.00  0.00    -0.049 A 
ATOM     23  C   UNL     1       8.778  47.298  54.474  1.00  0.00     0.048 A 
ATOM     24  C   UNL     1       9.822  46.891  53.645  1.00  0.00     0.007 A 
ATOM     25  C   UNL     1      10.673  45.890  51.497  1.00  0.00     0.044 C 
BRANCH  21  26
ATOM     26  O   UNL     1       6.423  47.561  54.837  1.00  0.00    -0.506 OA
ATOM     27  H   UNL     1       5.618  47.108  54.540  1.00  0.00     0.293 HD
ENDBRANCH  21  26
ENDBRANCH  17  19
ENDBRANCH   3  17
TORSDOF 7
ENDMDL
MODEL 2
REMARK VINA RESULT:    -8.448      1.429      2.003
REMARK INTER + INTRA:         -12.730
REMARK INTER:                 -11.696
REMARK INTRA:                  -1.034
REMARK UNBOUND:                -1.073
REMARK SMILES CCCCNc1nc(Nc2cc(C)ccc2O)c2cnn(C)c2n1
REMARK SMILES IDX 6 1 7 2 8 3 18 4 19 5 20 6 21 7 22 8 23 9 24 10 5 11 4 13
REMARK SMILES IDX 3 14 2 15 1 16 9 17 10 19 11 20 16 21 12 22 15 23 14 24
REMARK SMILES IDX 13 25 17 26
REMARK H PARENT 5 12 9 18 17 27
ROOT
ATOM      1  C   UNL     1       3.690  44.087  51.840  1.00  0.00     0.226 A 
ATOM      2  N   UNL     1       4.686  44.949  51.564  1.00  0.00    -0.195 NA
ATOM      3  C   UNL     1       4.978  45.962  52.422  1.00  0.00     0.147 A 
ATOM      4  C   UNL     1       4.260  46.019  53.619  1.00  0.00     0.082 A 
ATOM      5  C   UNL     1       4.251  46.761  54.819  1.00  0.00     0.149 A 
ATOM      6  N   UNL     1       3.296  46.367  55.671  1.00  0.00    -0.179 NA
ATOM      7  N   UNL     1       2.714  45.333  55.020  1.00  0.00    -0.250 N 
ATOM      8  C   UNL     1       1.637  44.614  55.653  1.00  0.00     0.176 C 
ATOM      9  C   UNL     1       3.264  45.078  53.794  1.00  0.00     0.165 A 
ATOM     10  N   UNL     1       2.921  44.106  52.937  1.00  0.00    -0.193 NA
ENDROOT
BRANCH   1  11
ATOM     11  N   UNL     1       3.480  43.124  50.866  1.00  0.00    -0.354 N 
ATOM     12  H   UNL     1       2.512  43.205  50.576  1.00  0.00     0.163 HD
BRANCH  11  13
ATOM     13  C   UNL     1       3.958  41.782  51.142  1.00  0.00     0.116 C 
BRANCH  13  14
ATOM     14  C   UNL     1       4.781  41.187  49.995  1.00  0.00     0.021 C 
BRANCH  14  15
ATOM     15  C   UNL     1       6.249  41.622  50.021  1.00  0.00    -0.002 C 
ATOM     16  C   UNL     1       6.524  42.705  48.989  1.00  0.00     0.004 C 
ENDBRANCH  14  15
ENDBRANCH  13  14
ENDBRANCH  11  13
ENDBRANCH   1  11
BRANCH   3  17
ATOM     17  N   UNL     1       6.027  46.806  52.062  1.00  0.00    -0.336 N 
ATOM     18  H   UNL     1       5.715  47.772  51.991  1.00  0.00     0.168 HD
BRANCH  17  19
ATOM     19  C   UNL     1       7.416  46.737  52.278  1.00  0.00     0.082 A 
ATOM     20  C   UNL     1       8.045  47.162  53.454  1.00  0.00     0.033 A 
ATOM     21  C   UNL     1       8.220  46.158  51.279  1.00  0.00     0.139 A 
ATOM     22  C   UNL     1       9.429  47.001  53.641  1.00  0.00    -0.049 A 
ATOM     23  C   UNL     1       9.596  46.004  51.440  1.00  0.00     0.048 A 
ATOM     24  C   UNL     1      10.198  46.429  52.623  1.00  0.00     0.007 A 
ATOM     25  C   UNL     1      10.081  47.501  54.897  1.00  0.00     0.044 C 
BRANCH  21  26
ATOM     26  O   UNL     1       7.614  45.757  50.114  1.00  0.00    -0.506 OA
ATOM     27  H   UNL     1       8.283  45.734  49.411  1.00  0.00     0.293 HD
ENDBRANCH  21  26
ENDBRANCH  17  19
ENDBRANCH   3  17
TORSDOF 7
ENDMDL
MODEL 3
REMARK VINA RESULT:    -8.368      1.502      4.769
REMARK INTER + INTRA:         -12.621
REMARK INTER:                 -11.942
REMARK INTRA:                  -0.678
REMARK UNBOUND:                -1.073
REMARK SMILES CCCCNc1nc(Nc2cc(C)ccc2O)c2cnn(C)c2n1
REMARK SMILES IDX 6 1 7 2 8 3 18 4 19 5 20 6 21 7 22 8 23 9 24 10 5 11 4 13
REMARK SMILES IDX 3 14 2 15 1 16 9 17 10 19 11 20 16 21 12 22 15 23 14 24
REMARK SMILES IDX 13 25 17 26
REMARK H PARENT 5 12 9 18 17 27
ROOT
ATOM      1  C   UNL     1       3.164  43.999  53.171  1.00  0.00     0.226 A 
ATOM      2  N   UNL     1       3.971  45.075  53.234  1.00  0.00    -0.195 NA
ATOM      3  C   UNL     1       5.043  45.180  52.406  1.00  0.00     0.147 A 
ATOM      4  C   UNL     1       5.221  44.176  51.452  1.00  0.00     0.082 A 
ATOM      5  C   UNL     1       6.061  43.888  50.355  1.00  0.00     0.149 A 
ATOM      6  N   UNL     1       5.766  42.725  49.761  1.00  0.00    -0.179 NA
ATOM      7  N   UNL     1       4.698  42.284  50.466  1.00  0.00    -0.250 N 
ATOM      8  C   UNL     1       4.065  41.044  50.092  1.00  0.00     0.176 C 
ATOM      9  C   UNL     1       4.327  43.124  51.479  1.00  0.00     0.165 A 
ATOM     10  N   UNL     1       3.296  42.971  52.323  1.00  0.00    -0.193 NA
ENDROOT
BRANCH   1  11
ATOM     11  N   UNL     1       2.128  44.006  54.092  1.00  0.00    -0.354 N 
ATOM     12  H   UNL     1       1.264  43.968  53.564  1.00  0.00     0.163 HD
BRANCH  11  13
ATOM     13  C   UNL     1       2.189  44.991  55.156  1.00  0.00     0.116 C 
BRANCH  13  14
ATOM     14  C   UNL     1       0.807  45.463  55.621  1.00  0.00     0.021 C 
BRANCH  14  15
ATOM     15  C   UNL     1       0.567  45.232  57.115  1.00  0.00    -0.002 C 
ATOM     16  C   UNL     1       0.910  46.471  57.929  1.00  0.00     0.004 C 
ENDBRANCH  14  15
ENDBRANCH  13  14
ENDBRANCH  11  13
ENDBRANCH   1  11
BRANCH   3  17
ATOM     17  N   UNL     1       5.825  46.327  52.535  1.00  0.00    -0.336 N 
ATOM     18  H   UNL     1       5.260  47.129  52.802  1.00  0.00     0.168 HD
BRANCH  17  19
ATOM     19  C   UNL     1       7.176  46.520  52.880  1.00  0.00     0.082 A 
ATOM     20  C   UNL     1       8.251  46.164  52.058  1.00  0.00     0.033 A 
ATOM     21  C   UNL     1       7.469  47.158  54.099  1.00  0.00     0.139 A 
ATOM     22  C   UNL     1       9.577  46.447  52.425  1.00  0.00    -0.049 A 
ATOM     23  C   UNL     1       8.779  47.435  54.488  1.00  0.00     0.048 A 
ATOM     24  C   UNL     1       9.832  47.076  53.648  1.00  0.00     0.007 A 
ATOM     25  C   UNL     1      10.711  46.019  51.539  1.00  0.00     0.044 C 
BRANCH  21  26
ATOM     26  O   UNL     1       6.422  47.493  54.922  1.00  0.00    -0.506 OA
ATOM     27  H   UNL     1       6.646  48.317  55.384  1.00  0.00     0.293 HD
ENDBRANCH  21  26
ENDBRANCH  17  19
ENDBRANCH   3  17
TORSDOF 7
ENDMDL
MODEL 4
REMARK VINA RESULT:    -8.316      2.017      4.889
REMARK INTER + INTRA:         -12.549
REMARK INTER:                 -11.844
REMARK INTRA:                  -0.705
REMARK UNBOUND:                -1.073
REMARK SMILES CCCCNc1nc(Nc2cc(C)ccc2O)c2cnn(C)c2n1
REMARK SMILES IDX 6 1 7 2 8 3 18 4 19 5 20 6 21 7 22 8 23 9 24 10 5 11 4 13
REMARK SMILES IDX 3 14 2 15 1 16 9 17 10 19 11 20 16 21 12 22 15 23 14 24
REMARK SMILES IDX 13 25 17 26
REMARK H PARENT 5 12 9 18 17 27
ROOT
ATOM      1  C   UNL     1       4.921  46.105  54.450  1.00  0.00     0.226 A 
ATOM      2  N   UNL     1       4.891  45.560  53.220  1.00  0.00    -0.195 NA
ATOM      3  C   UNL     1       3.800  44.865  52.802  1.00  0.00     0.147 A 
ATOM      4  C   UNL     1       2.703  44.810  53.663  1.00  0.00     0.082 A 
ATOM      5  C   UNL     1       1.373  44.338  53.662  1.00  0.00     0.149 A 
ATOM      6  N   UNL     1       0.735  44.567  54.816  1.00  0.00    -0.179 NA
ATOM      7  N   UNL     1       1.659  45.230  55.550  1.00  0.00    -0.250 N 
ATOM      8  C   UNL     1       1.320  45.683  56.875  1.00  0.00     0.176 C 
ATOM      9  C   UNL     1       2.848  45.411  54.898  1.00  0.00     0.165 A 
ATOM     10  N   UNL     1       3.933  46.052  55.353  1.00  0.00    -0.193 NA
ENDROOT
BRANCH   1  11
ATOM     11  N   UNL     1       6.104  46.758  54.758  1.00  0.00    -0.354 N 
ATOM     12  H   UNL     1       5.874  47.737  54.887  1.00  0.00     0.163 HD
BRANCH  11  13
ATOM     13  C   UNL     1       7.259  46.473  53.926  1.00  0.00     0.116 C 
BRANCH  13  14
ATOM     14  C   UNL     1       8.449  47.396  54.209  1.00  0.00     0.021 C 
BRANCH  14  15
ATOM     15  C   UNL     1       9.792  46.781  53.808  1.00  0.00    -0.002 C 
ATOM     16  C   UNL     1       9.895  46.609  52.300  1.00  0.00     0.004 C 
ENDBRANCH  14  15
ENDBRANCH  13  14
ENDBRANCH  11  13
ENDBRANCH   1  11
BRANCH   3  17
ATOM     17  N   UNL     1       3.850  44.336  51.513  1.00  0.00    -0.336 N 
ATOM     18  H   UNL     1       3.330  44.914  50.857  1.00  0.00     0.168 HD
BRANCH  17  19
ATOM     19  C   UNL     1       4.811  43.552  50.845  1.00  0.00     0.082 A 
ATOM     20  C   UNL     1       5.978  44.069  50.274  1.00  0.00     0.033 A 
ATOM     21  C   UNL     1       4.618  42.160  50.794  1.00  0.00     0.139 A 
ATOM     22  C   UNL     1       6.937  43.228  49.683  1.00  0.00    -0.049 A 
ATOM     23  C   UNL     1       5.550  41.310  50.200  1.00  0.00     0.048 A 
ATOM     24  C   UNL     1       6.709  41.848  49.643  1.00  0.00     0.007 A 
ATOM     25  C   UNL     1       8.162  43.815  49.044  1.00  0.00     0.044 C 
BRANCH  21  26
ATOM     26  O   UNL     1       3.465  41.646  51.335  1.00  0.00    -0.506 OA
ATOM     27  H   UNL     1       3.042  42.337  51.870  1.00  0.00     0.293 HD
ENDBRANCH  21  26
ENDBRANCH  17  19
ENDBRANCH   3  17
TORSDOF 7
ENDMDL
MODEL 5
REMARK VINA RESULT:    -8.270      1.648      2.191
REMARK INTER + INTRA:         -12.486
REMARK INTER:                 -11.573
REMARK INTRA:                  -0.913
REMARK UNBOUND:                -1.073
REMARK SMILES CCCCNc1nc(Nc2cc(C)ccc2O)c2cnn(C)c2n1
REMARK SMILES IDX 6 1 7 2 8 3 18 4 19 5 20 6 21 7 22 8 23 9 24 10 5 11 4 13
REMARK SMILES IDX 3 14 2 15 1 16 9 17 10 19 11 20 16 21 12 22 15 23 14 24
REMARK SMILES IDX 13 25 17 26
REMARK H PARENT 5 12 9 18 17 27
ROOT
ATOM      1  C   UNL     1       4.401  42.835  51.449  1.00  0.00     0.226 A 
ATOM      2  N   UNL     1       5.251  43.847  51.197  1.00  0.00    -0.195 NA
ATOM      3  C   UNL     1       5.025  45.081  51.719  1.00  0.00     0.147 A 
ATOM      4  C   UNL     1       3.933  45.227  52.578  1.00  0.00     0.082 A 
ATOM      5  C   UNL     1       3.362  46.210  53.414  1.00  0.00     0.149 A 
ATOM      6  N   UNL     1       2.260  45.785  54.045  1.00  0.00    -0.179 NA
ATOM      7  N   UNL     1       2.150  44.500  53.634  1.00  0.00    -0.250 N 
ATOM      8  C   UNL     1       1.074  43.685  54.138  1.00  0.00     0.176 C 
ATOM      9  C   UNL     1       3.135  44.116  52.766  1.00  0.00     0.165 A 
ATOM     10  N   UNL     1       3.306  42.906  52.216  1.00  0.00    -0.193 NA
ENDROOT
BRANCH   1  11
ATOM     11  N   UNL     1       4.733  41.640  50.828  1.00  0.00    -0.354 N 
ATOM     12  H   UNL     1       4.816  40.943  51.559  1.00  0.00     0.163 HD
BRANCH  11  13
ATOM     13  C   UNL     1       5.801  41.674  49.846  1.00  0.00     0.116 C 
BRANCH  13  14
ATOM     14  C   UNL     1       5.353  41.224  48.452  1.00  0.00     0.021 C 
BRANCH  14  15
ATOM     15  C   UNL     1       5.884  42.124  47.332  1.00  0.00    -0.002 C 
ATOM     16  C   UNL     1       5.400  41.655  45.969  1.00  0.00     0.004 C 
ENDBRANCH  14  15
ENDBRANCH  13  14
ENDBRANCH  11  13
ENDBRANCH   1  11
BRANCH   3  17
ATOM     17  N   UNL     1       5.956  46.073  51.411  1.00  0.00    -0.336 N 
ATOM     18  H   UNL     1       5.496  46.948  51.173  1.00  0.00     0.168 HD
BRANCH  17  19
ATOM     19  C   UNL     1       7.280  46.294  51.834  1.00  0.00     0.082 A 
ATOM     20  C   UNL     1       7.621  46.981  53.005  1.00  0.00     0.033 A 
ATOM     21  C   UNL     1       8.326  45.748  51.069  1.00  0.00     0.139 A 
ATOM     22  C   UNL     1       8.959  47.109  53.414  1.00  0.00    -0.049 A 
ATOM     23  C   UNL     1       9.661  45.876  51.451  1.00  0.00     0.048 A 
ATOM     24  C   UNL     1       9.974  46.560  52.624  1.00  0.00     0.007 A 
ATOM     25  C   UNL     1       9.296  47.884  54.655  1.00  0.00     0.044 C 
BRANCH  21  26
ATOM     26  O   UNL     1       8.002  45.089  49.908  1.00  0.00    -0.506 OA
ATOM     27  H   UNL     1       8.642  45.341  49.223  1.00  0.00     0.293 HD
ENDBRANCH  21  26
ENDBRANCH  17  19
ENDBRANCH   3  17
TORSDOF 7
ENDMDL
MODEL 6
REMARK VINA RESULT:    -8.233      1.754      6.476
REMARK INTER + INTRA:         -12.435
REMARK INTER:                 -11.545
REMARK INTRA:                  -0.889
REMARK UNBOUND:                -1.073
REMARK SMILES CCCCNc1nc(Nc2cc(C)ccc2O)c2cnn(C)c2n1
REMARK SMILES IDX 6 1 7 2 8 3 18 4 19 5 20 6 21 7 22 8 23 9 24 10 5 11 4 13
REMARK SMILES IDX 3 14 2 15 1 16 9 17 10 19 11 20 16 21 12 22 15 23 14 24
REMARK SMILES IDX 13 25 17 26
REMARK H PARENT 5 12 9 18 17 27
ROOT
ATOM      1  C   UNL     1       6.172  46.037  52.106  1.00  0.00     0.226 A 
ATOM      2  N   UNL     1       5.161  45.438  52.762  1.00  0.00    -0.195 NA
ATOM      3  C   UNL     1       4.694  44.229  52.352  1.00  0.00     0.147 A 
ATOM      4  C   UNL     1       5.352  43.614  51.285  1.00  0.00     0.082 A 
ATOM      5  C   UNL     1       5.331  42.387  50.588  1.00  0.00     0.149 A 
ATOM      6  N   UNL     1       6.231  42.331  49.598  1.00  0.00    -0.179 NA
ATOM      7  N   UNL     1       6.861  43.525  49.691  1.00  0.00    -0.250 N 
ATOM      8  C   UNL     1       7.943  43.827  48.789  1.00  0.00     0.176 C 
ATOM      9  C   UNL     1       6.379  44.322  50.693  1.00  0.00     0.165 A 
ATOM     10  N   UNL     1       6.819  45.539  51.045  1.00  0.00    -0.193 NA
ENDROOT
BRANCH   1  11
ATOM     11  N   UNL     1       6.527  47.278  52.612  1.00  0.00    -0.354 N 
ATOM     12  H   UNL     1       5.745  47.900  52.439  1.00  0.00     0.163 HD
BRANCH  11  13
ATOM     13  C   UNL     1       7.842  47.786  52.269  1.00  0.00     0.116 C 
BRANCH  13  14
ATOM     14  C   UNL     1       8.799  47.838  53.464  1.00  0.00     0.021 C 
BRANCH  14  15
ATOM     15  C   UNL     1       9.916  46.794  53.383  1.00  0.00    -0.002 C 
ATOM     16  C   UNL     1      10.198  46.396  51.942  1.00  0.00     0.004 C 
ENDBRANCH  14  15
ENDBRANCH  13  14
ENDBRANCH  11  13
ENDBRANCH   1  11
BRANCH   3  17
ATOM     17  N   UNL     1       3.647  43.678  53.089  1.00  0.00    -0.336 N 
ATOM     18  H   UNL     1       3.952  42.854  53.602  1.00  0.00     0.168 HD
BRANCH  17  19
ATOM     19  C   UNL     1       2.499  44.243  53.675  1.00  0.00     0.082 A 
ATOM     20  C   UNL     1       1.240  44.262  53.064  1.00  0.00     0.033 A 
ATOM     21  C   UNL     1       2.603  44.774  54.974  1.00  0.00     0.139 A 
ATOM     22  C   UNL     1       0.113  44.776  53.727  1.00  0.00    -0.049 A 
ATOM     23  C   UNL     1       1.500  45.301  55.643  1.00  0.00     0.048 A 
ATOM     24  C   UNL     1       0.255  45.303  55.016  1.00  0.00     0.007 A 
ATOM     25  C   UNL     1      -1.217  44.818  53.032  1.00  0.00     0.044 C 
BRANCH  21  26
ATOM     26  O   UNL     1       3.839  44.777  55.573  1.00  0.00    -0.506 OA
ATOM     27  H   UNL     1       4.503  45.015  54.906  1.00  0.00     0.293 HD
ENDBRANCH  21  26
ENDBRANCH  17  19
ENDBRANCH   3  17
TORSDOF 7
ENDMDL
MODEL 7
REMARK VINA RESULT:    -8.222      1.200      4.284
REMARK INTER + INTRA:         -12.420
REMARK INTER:                 -11.578
REMARK INTRA:                  -0.842
REMARK UNBOUND:                -1.073
REMARK SMILES CCCCNc1nc(Nc2cc(C)ccc2O)c2cnn(C)c2n1
REMARK SMILES IDX 6 1 7 2 8 3 18 4 19 5 20 6 21 7 22 8 23 9 24 10 5 11 4 13
REMARK SMILES IDX 3 14 2 15 1 16 9 17 10 19 11 20 16 21 12 22 15 23 14 24
REMARK SMILES IDX 13 25 17 26
REMARK H PARENT 5 12 9 18 17 27
ROOT
ATOM      1  C   UNL     1       3.283  44.137  53.218  1.00  0.00     0.226 A 
ATOM      2  N   UNL     1       4.108  45.199  53.253  1.00  0.00    -0.195 NA
ATOM      3  C   UNL     1       5.160  45.282  52.396  1.00  0.00     0.147 A 
ATOM      4  C   UNL     1       5.294  44.271  51.442  1.00  0.00     0.082 A 
ATOM      5  C   UNL     1       6.099  43.963  50.325  1.00  0.00     0.149 A 
ATOM      6  N   UNL     1       5.770  42.802  49.745  1.00  0.00    -0.179 NA
ATOM      7  N   UNL     1       4.714  42.383  50.481  1.00  0.00    -0.250 N 
ATOM      8  C   UNL     1       4.051  41.152  50.132  1.00  0.00     0.176 C 
ATOM      9  C   UNL     1       4.384  43.234  51.500  1.00  0.00     0.165 A 
ATOM     10  N   UNL     1       3.375  43.103  52.372  1.00  0.00    -0.193 NA
ENDROOT
BRANCH   1  11
ATOM     11  N   UNL     1       2.273  44.166  54.167  1.00  0.00    -0.354 N 
ATOM     12  H   UNL     1       2.046  43.202  54.384  1.00  0.00     0.163 HD
BRANCH  11  13
ATOM     13  C   UNL     1       1.150  45.051  53.919  1.00  0.00     0.116 C 
BRANCH  13  14
ATOM     14  C   UNL     1      -0.209  44.358  54.064  1.00  0.00     0.021 C 
BRANCH  14  15
ATOM     15  C   UNL     1      -0.140  42.848  53.822  1.00  0.00    -0.002 C 
ATOM     16  C   UNL     1      -0.406  42.507  52.364  1.00  0.00     0.004 C 
ENDBRANCH  14  15
ENDBRANCH  13  14
ENDBRANCH  11  13
ENDBRANCH   1  11
BRANCH   3  17
ATOM     17  N   UNL     1       5.963  46.417  52.497  1.00  0.00    -0.336 N 
ATOM     18  H   UNL     1       5.411  47.240  52.725  1.00  0.00     0.168 HD
BRANCH  17  19
ATOM     19  C   UNL     1       7.312  46.595  52.860  1.00  0.00     0.082 A 
ATOM     20  C   UNL     1       8.392  46.240  52.044  1.00  0.00     0.033 A 
ATOM     21  C   UNL     1       7.597  47.215  54.090  1.00  0.00     0.139 A 
ATOM     22  C   UNL     1       9.717  46.508  52.429  1.00  0.00    -0.049 A 
ATOM     23  C   UNL     1       8.905  47.476  54.496  1.00  0.00     0.048 A 
ATOM     24  C   UNL     1       9.964  47.119  53.664  1.00  0.00     0.007 A 
ATOM     25  C   UNL     1      10.858  46.082  51.551  1.00  0.00     0.044 C 
BRANCH  21  26
ATOM     26  O   UNL     1       6.543  47.548  54.905  1.00  0.00    -0.506 OA
ATOM     27  H   UNL     1       5.799  47.824  54.348  1.00  0.00     0.293 HD
ENDBRANCH  21  26
ENDBRANCH  17  19
ENDBRANCH   3  17
TORSDOF 7
ENDMDL
MODEL 8
REMARK VINA RESULT:    -8.203      1.845      4.471
REMARK INTER + INTRA:         -12.393
REMARK INTER:                 -11.156
REMARK INTRA:                  -1.237
REMARK UNBOUND:                -1.073
REMARK SMILES CCCCNc1nc(Nc2cc(C)ccc2O)c2cnn(C)c2n1
REMARK SMILES IDX 6 1 7 2 8 3 18 4 19 5 20 6 21 7 22 8 23 9 24 10 5 11 4 13
REMARK SMILES IDX 3 14 2 15 1 16 9 17 10 19 11 20 16 21 12 22 15 23 14 24
REMARK SMILES IDX 13 25 17 26
REMARK H PARENT 5 12 9 18 17 27
ROOT
ATOM      1  C   UNL     1       3.644  44.766  51.909  1.00  0.00     0.226 A 
ATOM      2  N   UNL     1       4.703  45.572  51.707  1.00  0.00    -0.195 NA
ATOM      3  C   UNL     1       5.786  45.126  51.018  1.00  0.00     0.147 A 
ATOM      4  C   UNL     1       5.717  43.842  50.472  1.00  0.00     0.082 A 
ATOM      5  C   UNL     1       6.479  43.002  49.632  1.00  0.00     0.149 A 
ATOM      6  N   UNL     1       5.905  41.811  49.423  1.00  0.00    -0.179 NA
ATOM      7  N   UNL     1       4.741  41.909  50.107  1.00  0.00    -0.250 N 
ATOM      8  C   UNL     1       3.814  40.805  50.091  1.00  0.00     0.176 C 
ATOM      9  C   UNL     1       4.577  43.110  50.740  1.00  0.00     0.165 A 
ATOM     10  N   UNL     1       3.522  43.509  51.465  1.00  0.00    -0.193 NA
ENDROOT
BRANCH   1  11
ATOM     11  N   UNL     1       2.623  45.338  52.653  1.00  0.00    -0.354 N 
ATOM     12  H   UNL     1       1.928  45.669  51.993  1.00  0.00     0.163 HD
BRANCH  11  13
ATOM     13  C   UNL     1       3.003  46.261  53.706  1.00  0.00     0.116 C 
BRANCH  13  14
ATOM     14  C   UNL     1       3.402  45.559  55.008  1.00  0.00     0.021 C 
BRANCH  14  15
ATOM     15  C   UNL     1       4.873  45.772  55.377  1.00  0.00    -0.002 C 
ATOM     16  C   UNL     1       5.717  44.561  55.009  1.00  0.00     0.004 C 
ENDBRANCH  14  15
ENDBRANCH  13  14
ENDBRANCH  11  13
ENDBRANCH   1  11
BRANCH   3  17
ATOM     17  N   UNL     1       6.838  46.025  50.852  1.00  0.00    -0.336 N 
ATOM     18  H   UNL     1       6.549  46.833  50.305  1.00  0.00     0.168 HD
BRANCH  17  19
ATOM     19  C   UNL     1       7.963  46.325  51.642  1.00  0.00     0.082 A 
ATOM     20  C   UNL     1       7.917  47.110  52.799  1.00  0.00     0.033 A 
ATOM     21  C   UNL     1       9.201  45.759  51.284  1.00  0.00     0.139 A 
ATOM     22  C   UNL     1       9.061  47.315  53.589  1.00  0.00    -0.049 A 
ATOM     23  C   UNL     1      10.350  45.963  52.046  1.00  0.00     0.048 A 
ATOM     24  C   UNL     1      10.277  46.744  53.198  1.00  0.00     0.007 A 
ATOM     25  C   UNL     1       8.990  48.194  54.804  1.00  0.00     0.044 C 
BRANCH  21  26
ATOM     26  O   UNL     1       9.259  45.004  50.139  1.00  0.00    -0.506 OA
ATOM     27  H   UNL     1       8.503  45.238  49.577  1.00  0.00     0.293 HD
ENDBRANCH  21  26
ENDBRANCH  17  19
ENDBRANCH   3  17
TORSDOF 7
ENDMDL
MODEL 9
REMARK VINA RESULT:    -8.194      2.292      6.335
REMARK INTER + INTRA:         -12.380
REMARK INTER:                 -11.242
REMARK INTRA:                  -1.138
REMARK UNBOUND:                -1.073
REMARK SMILES CCCCNc1nc(Nc2cc(C)ccc2O)c2cnn(C)c2n1
REMARK SMILES IDX 6 1 7 2 8 3 18 4 19 5 20 6 21 7 22 8 23 9 24 10 5 11 4 13
REMARK SMILES IDX 3 14 2 15 1 16 9 17 10 19 11 20 16 21 12 22 15 23 14 24
REMARK SMILES IDX 13 25 17 26
REMARK H PARENT 5 12 9 18 17 27
ROOT
ATOM      1  C   UNL     1       5.876  46.875  54.208  1.00  0.00     0.226 A 
ATOM      2  N   UNL     1       5.723  46.354  52.976  1.00  0.00    -0.195 NA
ATOM      3  C   UNL     1       6.794  46.207  52.153  1.00  0.00     0.147 A 
ATOM      4  C   UNL     1       8.050  46.543  52.664  1.00  0.00     0.082 A 
ATOM      5  C   UNL     1       9.406  46.478  52.280  1.00  0.00     0.149 A 
ATOM      6  N   UNL     1      10.238  46.964  53.209  1.00  0.00    -0.179 NA
ATOM      7  N   UNL     1       9.401  47.308  54.217  1.00  0.00    -0.250 N 
ATOM      8  C   UNL     1       9.946  47.852  55.435  1.00  0.00     0.176 C 
ATOM      9  C   UNL     1       8.084  47.063  53.942  1.00  0.00     0.165 A 
ATOM     10  N   UNL     1       7.035  47.270  54.751  1.00  0.00    -0.193 NA
ENDROOT
BRANCH   1  11
ATOM     11  N   UNL     1       4.698  46.997  54.928  1.00  0.00    -0.354 N 
ATOM     12  H   UNL     1       4.836  47.751  55.591  1.00  0.00     0.163 HD
BRANCH  11  13
ATOM     13  C   UNL     1       4.107  45.780  55.451  1.00  0.00     0.116 C 
BRANCH  13  14
ATOM     14  C   UNL     1       2.681  45.536  54.946  1.00  0.00     0.021 C 
BRANCH  14  15
ATOM     15  C   UNL     1       2.630  44.651  53.698  1.00  0.00    -0.002 C 
ATOM     16  C   UNL     1       2.226  45.450  52.468  1.00  0.00     0.004 C 
ENDBRANCH  14  15
ENDBRANCH  13  14
ENDBRANCH  11  13
ENDBRANCH   1  11
BRANCH   3  17
ATOM     17  N   UNL     1       6.548  45.656  50.896  1.00  0.00    -0.336 N 
ATOM     18  H   UNL     1       7.003  46.194  50.163  1.00  0.00     0.168 HD
BRANCH  17  19
ATOM     19  C   UNL     1       6.291  44.338  50.472  1.00  0.00     0.082 A 
ATOM     20  C   UNL     1       5.173  43.596  50.868  1.00  0.00     0.033 A 
ATOM     21  C   UNL     1       7.178  43.746  49.554  1.00  0.00     0.139 A 
ATOM     22  C   UNL     1       4.931  42.310  50.355  1.00  0.00    -0.049 A 
ATOM     23  C   UNL     1       6.962  42.467  49.045  1.00  0.00     0.048 A 
ATOM     24  C   UNL     1       5.838  41.749  49.449  1.00  0.00     0.007 A 
ATOM     25  C   UNL     1       3.743  41.522  50.827  1.00  0.00     0.044 C 
BRANCH  21  26
ATOM     26  O   UNL     1       8.288  44.460  49.176  1.00  0.00    -0.506 OA
ATOM     27  H   UNL     1       8.037  45.393  49.085  1.00  0.00     0.293 HD
ENDBRANCH  21  26
ENDBRANCH  17  19
ENDBRANCH   3  17
TORSDOF 7
ENDMDL
MODEL 10
REMARK VINA RESULT:    -8.133      1.766      6.369
REMARK INTER + INTRA:         -12.296
REMARK INTER:                 -11.615
REMARK INTRA:                  -0.681
REMARK UNBOUND:                -1.073
REMARK SMILES CCCCNc1nc(Nc2cc(C)ccc2O)c2cnn(C)c2n1
REMARK SMILES IDX 6 1 7 2 8 3 18 4 19 5 20 6 21 7 22 8 23 9 24 10 5 11 4 13
REMARK SMILES IDX 3 14 2 15 1 16 9 17 10 19 11 20 16 21 12 22 15 23 14 24
REMARK SMILES IDX 13 25 17 26
REMARK H PARENT 5 12 9 18 17 27
ROOT
ATOM      1  C   UNL     1       7.152  46.698  51.885  1.00  0.00     0.226 A 
ATOM      2  N   UNL     1       6.070  46.929  52.652  1.00  0.00    -0.195 NA
ATOM      3  C   UNL     1       5.000  46.093  52.602  1.00  0.00     0.147 A 
ATOM      4  C   UNL     1       5.106  44.960  51.793  1.00  0.00     0.082 A 
ATOM      5  C   UNL     1       4.368  43.795  51.493  1.00  0.00     0.149 A 
ATOM      6  N   UNL     1       4.976  43.005  50.599  1.00  0.00    -0.179 NA
ATOM      7  N   UNL     1       6.137  43.657  50.356  1.00  0.00    -0.250 N 
ATOM      8  C   UNL     1       7.095  43.083  49.445  1.00  0.00     0.176 C 
ATOM      9  C   UNL     1       6.266  44.825  51.056  1.00  0.00     0.165 A 
ATOM     10  N   UNL     1       7.309  45.667  51.046  1.00  0.00    -0.193 NA
ENDROOT
BRANCH   1  11
ATOM     11  N   UNL     1       8.156  47.646  52.012  1.00  0.00    -0.354 N 
ATOM     12  H   UNL     1       7.952  48.380  51.344  1.00  0.00     0.163 HD
BRANCH  11  13
ATOM     13  C   UNL     1       9.525  47.166  52.043  1.00  0.00     0.116 C 
BRANCH  13  14
ATOM     14  C   UNL     1       9.941  46.619  53.412  1.00  0.00     0.021 C 
BRANCH  14  15
ATOM     15  C   UNL     1       9.561  47.546  54.569  1.00  0.00    -0.002 C 
ATOM     16  C   UNL     1      10.616  47.526  55.665  1.00  0.00     0.004 C 
ENDBRANCH  14  15
ENDBRANCH  13  14
ENDBRANCH  11  13
ENDBRANCH   1  11
BRANCH   3  17
ATOM     17  N   UNL     1       3.923  46.403  53.431  1.00  0.00    -0.336 N 
ATOM     18  H   UNL     1       3.871  47.403  53.609  1.00  0.00     0.168 HD
BRANCH  17  19
ATOM     19  C   UNL     1       2.673  45.787  53.632  1.00  0.00     0.082 A 
ATOM     20  C   UNL     1       1.614  45.856  52.720  1.00  0.00     0.033 A 
ATOM     21  C   UNL     1       2.490  45.009  54.790  1.00  0.00     0.139 A 
ATOM     22  C   UNL     1       0.413  45.159  52.941  1.00  0.00    -0.049 A 
ATOM     23  C   UNL     1       1.301  44.323  55.034  1.00  0.00     0.048 A 
ATOM     24  C   UNL     1       0.263  44.402  54.107  1.00  0.00     0.007 A 
ATOM     25  C   UNL     1      -0.720  45.283  51.963  1.00  0.00     0.044 C 
BRANCH  21  26
ATOM     26  O   UNL     1       3.517  44.952  55.699  1.00  0.00    -0.506 OA
ATOM     27  H   UNL     1       3.424  44.137  56.217  1.00  0.00     0.293 HD
ENDBRANCH  21  26
ENDBRANCH  17  19
ENDBRANCH   3  17
TORSDOF 7
ENDMDL
MODEL 11
REMARK VINA RESULT:    -8.088      0.840      1.092
REMARK INTER + INTRA:         -12.234
REMARK INTER:                 -11.463
REMARK INTRA:                  -0.771
REMARK UNBOUND:                -1.073
REMARK SMILES CCCCNc1nc(Nc2cc(C)ccc2O)c2cnn(C)c2n1
REMARK SMILES IDX 6 1 7 2 8 3 18 4 19 5 20 6 21 7 22 8 23 9 24 10 5 11 4 13
REMARK SMILES IDX 3 14 2 15 1 16 9 17 10 19 11 20 16 21 12 22 15 23 14 24
REMARK SMILES IDX 13 25 17 26
REMARK H PARENT 5 12 9 18 17 27
ROOT
ATOM      1  C   UNL     1       4.404  43.199  51.402  1.00  0.00     0.226 A 
ATOM      2  N   UNL     1       5.222  44.267  51.454  1.00  0.00    -0.195 NA
ATOM      3  C   UNL     1       4.900  45.344  52.218  1.00  0.00     0.147 A 
ATOM      4  C   UNL     1       3.742  45.259  52.994  1.00  0.00     0.082 A 
ATOM      5  C   UNL     1       3.065  46.010  53.978  1.00  0.00     0.149 A 
ATOM      6  N   UNL     1       1.940  45.422  54.405  1.00  0.00    -0.179 NA
ATOM      7  N   UNL     1       1.922  44.260  53.709  1.00  0.00    -0.250 N 
ATOM      8  C   UNL     1       0.851  43.321  53.928  1.00  0.00     0.176 C 
ATOM      9  C   UNL     1       2.985  44.112  52.863  1.00  0.00     0.165 A 
ATOM     10  N   UNL     1       3.253  43.063  52.072  1.00  0.00    -0.193 NA
ENDROOT
BRANCH   1  11
ATOM     11  N   UNL     1       4.838  42.187  50.560  1.00  0.00    -0.354 N 
ATOM     12  H   UNL     1       4.527  41.313  50.967  1.00  0.00     0.163 HD
BRANCH  11  13
ATOM     13  C   UNL     1       6.219  42.235  50.117  1.00  0.00     0.116 C 
BRANCH  13  14
ATOM     14  C   UNL     1       6.360  42.391  48.599  1.00  0.00     0.021 C 
BRANCH  14  15
ATOM     15  C   UNL     1       5.406  41.488  47.812  1.00  0.00    -0.002 C 
ATOM     16  C   UNL     1       5.528  41.725  46.315  1.00  0.00     0.004 C 
ENDBRANCH  14  15
ENDBRANCH  13  14
ENDBRANCH  11  13
ENDBRANCH   1  11
BRANCH   3  17
ATOM     17  N   UNL     1       5.803  46.406  52.217  1.00  0.00    -0.336 N 
ATOM     18  H   UNL     1       5.321  47.300  52.273  1.00  0.00     0.168 HD
BRANCH  17  19
ATOM     19  C   UNL     1       7.134  46.520  52.664  1.00  0.00     0.082 A 
ATOM     20  C   UNL     1       8.248  46.177  51.889  1.00  0.00     0.033 A 
ATOM     21  C   UNL     1       7.366  47.060  53.941  1.00  0.00     0.139 A 
ATOM     22  C   UNL     1       9.556  46.381  52.361  1.00  0.00    -0.049 A 
ATOM     23  C   UNL     1       8.656  47.256  54.433  1.00  0.00     0.048 A 
ATOM     24  C   UNL     1       9.750  46.913  53.641  1.00  0.00     0.007 A 
ATOM     25  C   UNL     1      10.731  45.968  51.524  1.00  0.00     0.044 C 
BRANCH  21  26
ATOM     26  O   UNL     1       6.278  47.380  54.716  1.00  0.00    -0.506 OA
ATOM     27  H   UNL     1       5.936  48.240  54.424  1.00  0.00     0.293 HD
ENDBRANCH  21  26
ENDBRANCH  17  19
ENDBRANCH   3  17
TORSDOF 7
ENDMDL
MODEL 12
REMARK VINA RESULT:    -8.041      1.727      6.157
REMARK INTER + INTRA:         -12.169
REMARK INTER:                 -11.471
REMARK INTRA:                  -0.698
REMARK UNBOUND:                -1.073
REMARK SMILES CCCCNc1nc(Nc2cc(C)ccc2O)c2cnn(C)c2n1
REMARK SMILES IDX 6 1 7 2 8 3 18 4 19 5 20 6 21 7 22 8 23 9 24 10 5 11 4 13
REMARK SMILES IDX 3 14 2 15 1 16 9 17 10 19 11 20 16 21 12 22 15 23 14 24
REMARK SMILES IDX 13 25 17 26
REMARK H PARENT 5 12 9 18 17 27
ROOT
ATOM      1  C   UNL     1       6.793  45.584  51.063  1.00  0.00     0.226 A 
ATOM      2  N   UNL     1       5.865  46.057  51.915  1.00  0.00    -0.195 NA
ATOM      3  C   UNL     1       4.777  45.307  52.233  1.00  0.00     0.147 A 
ATOM      4  C   UNL     1       4.709  44.016  51.707  1.00  0.00     0.082 A 
ATOM      5  C   UNL     1       3.896  42.867  51.811  1.00  0.00     0.149 A 
ATOM      6  N   UNL     1       4.320  41.855  51.044  1.00  0.00    -0.179 NA
ATOM      7  N   UNL     1       5.441  42.353  50.473  1.00  0.00    -0.250 N 
ATOM      8  C   UNL     1       6.212  41.522  49.583  1.00  0.00     0.176 C 
ATOM      9  C   UNL     1       5.723  43.637  50.849  1.00  0.00     0.165 A 
ATOM     10  N   UNL     1       6.774  44.381  50.475  1.00  0.00    -0.193 NA
ENDROOT
BRANCH   1  11
ATOM     11  N   UNL     1       7.832  46.464  50.801  1.00  0.00    -0.354 N 
ATOM     12  H   UNL     1       8.499  45.967  50.223  1.00  0.00     0.163 HD
BRANCH  11  13
ATOM     13  C   UNL     1       8.378  47.203  51.924  1.00  0.00     0.116 C 
BRANCH  13  14
ATOM     14  C   UNL     1       9.771  46.723  52.342  1.00  0.00     0.021 C 
BRANCH  14  15
ATOM     15  C   UNL     1       9.984  46.747  53.858  1.00  0.00    -0.002 C 
ATOM     16  C   UNL     1       9.158  47.842  54.516  1.00  0.00     0.004 C 
ENDBRANCH  14  15
ENDBRANCH  13  14
ENDBRANCH  11  13
ENDBRANCH   1  11
BRANCH   3  17
ATOM     17  N   UNL     1       3.866  45.871  53.126  1.00  0.00    -0.336 N 
ATOM     18  H   UNL     1       4.002  46.876  53.204  1.00  0.00     0.168 HD
BRANCH  17  19
ATOM     19  C   UNL     1       2.562  45.504  53.508  1.00  0.00     0.082 A 
ATOM     20  C   UNL     1       1.448  45.591  52.666  1.00  0.00     0.033 A 
ATOM     21  C   UNL     1       2.370  44.965  54.793  1.00  0.00     0.139 A 
ATOM     22  C   UNL     1       0.183  45.141  53.079  1.00  0.00    -0.049 A 
ATOM     23  C   UNL     1       1.119  44.527  55.227  1.00  0.00     0.048 A 
ATOM     24  C   UNL     1       0.026  44.618  54.367  1.00  0.00     0.007 A 
ATOM     25  C   UNL     1      -1.001  45.283  52.167  1.00  0.00     0.044 C 
BRANCH  21  26
ATOM     26  O   UNL     1       3.453  44.894  55.634  1.00  0.00    -0.506 OA
ATOM     27  H   UNL     1       3.322  45.525  56.359  1.00  0.00     0.293 HD
ENDBRANCH  21  26
ENDBRANCH  17  19
ENDBRANCH   3  17
TORSDOF 7
ENDMDL
MODEL 13
REMARK VINA RESULT:    -8.033      3.082      6.621
REMARK INTER + INTRA:         -12.158
REMARK INTER:                 -11.421
REMARK INTRA:                  -0.737
REMARK UNBOUND:                -1.073
REMARK SMILES CCCCNc1nc(Nc2cc(C)ccc2O)c2cnn(C)c2n1
REMARK SMILES IDX 6 1 7 2 8 3 18 4 19 5 20 6 21 7 22 8 23 9 24 10 5 11 4 13
REMARK SMILES IDX 3 14 2 15 1 16 9 17 10 19 11 20 16 21 12 22 15 23 14 24
REMARK SMILES IDX 13 25 17 26
REMARK H PARENT 5 12 9 18 17 27
ROOT
ATOM      1  C   UNL     1       6.504  44.855  50.770  1.00  0.00     0.226 A 
ATOM      2  N   UNL     1       6.458  43.705  50.073  1.00  0.00    -0.195 NA
ATOM      3  C   UNL     1       5.525  42.761  50.363  1.00  0.00     0.147 A 
ATOM      4  C   UNL     1       4.583  43.069  51.348  1.00  0.00     0.082 A 
ATOM      5  C   UNL     1       3.415  42.514  51.912  1.00  0.00     0.149 A 
ATOM      6  N   UNL     1       2.884  43.278  52.874  1.00  0.00    -0.179 NA
ATOM      7  N   UNL     1       3.704  44.355  52.896  1.00  0.00    -0.250 N 
ATOM      8  C   UNL     1       3.428  45.437  53.806  1.00  0.00     0.176 C 
ATOM      9  C   UNL     1       4.727  44.282  51.992  1.00  0.00     0.165 A 
ATOM     10  N   UNL     1       5.674  45.202  51.762  1.00  0.00    -0.193 NA
ENDROOT
BRANCH   1  11
ATOM     11  N   UNL     1       7.525  45.714  50.391  1.00  0.00    -0.354 N 
ATOM     12  H   UNL     1       7.900  45.357  49.519  1.00  0.00     0.163 HD
BRANCH  11  13
ATOM     13  C   UNL     1       8.495  46.085  51.405  1.00  0.00     0.116 C 
BRANCH  13  14
ATOM     14  C   UNL     1       8.524  47.590  51.689  1.00  0.00     0.021 C 
BRANCH  14  15
ATOM     15  C   UNL     1       8.735  47.917  53.170  1.00  0.00    -0.002 C 
ATOM     16  C   UNL     1       9.931  47.168  53.737  1.00  0.00     0.004 C 
ENDBRANCH  14  15
ENDBRANCH  13  14
ENDBRANCH  11  13
ENDBRANCH   1  11
BRANCH   3  17
ATOM     17  N   UNL     1       5.544  41.601  49.590  1.00  0.00    -0.336 N 
ATOM     18  H   UNL     1       5.678  40.776  50.169  1.00  0.00     0.168 HD
BRANCH  17  19
ATOM     19  C   UNL     1       4.938  41.268  48.364  1.00  0.00     0.082 A 
ATOM     20  C   UNL     1       5.411  41.695  47.119  1.00  0.00     0.033 A 
ATOM     21  C   UNL     1       3.822  40.411  48.381  1.00  0.00     0.139 A 
ATOM     22  C   UNL     1       4.807  41.271  45.923  1.00  0.00    -0.049 A 
ATOM     23  C   UNL     1       3.200  39.990  47.207  1.00  0.00     0.048 A 
ATOM     24  C   UNL     1       3.694  40.424  45.978  1.00  0.00     0.007 A 
ATOM     25  C   UNL     1       5.312  41.776  44.603  1.00  0.00     0.044 C 
BRANCH  21  26
ATOM     26  O   UNL     1       3.340  40.003  49.601  1.00  0.00    -0.506 OA
ATOM     27  H   UNL     1       2.731  39.260  49.457  1.00  0.00     0.293 HD
ENDBRANCH  21  26
ENDBRANCH  17  19
ENDBRANCH   3  17
TORSDOF 7
ENDMDL
MODEL 14
REMARK VINA RESULT:    -7.982      1.880      6.744
REMARK INTER + INTRA:         -12.088
REMARK INTER:                 -11.181
REMARK INTRA:                  -0.907
REMARK UNBOUND:                -1.073
REMARK SMILES CCCCNc1nc(Nc2cc(C)ccc2O)c2cnn(C)c2n1
REMARK SMILES IDX 6 1 7 2 8 3 18 4 19 5 20 6 21 7 22 8 23 9 24 10 5 11 4 13
REMARK SMILES IDX 3 14 2 15 1 16 9 17 10 19 11 20 16 21 12 22 15 23 14 24
REMARK SMILES IDX 13 25 17 26
REMARK H PARENT 5 12 9 18 17 27
ROOT
ATOM      1  C   UNL     1       5.965  45.715  52.251  1.00  0.00     0.226 A 
ATOM      2  N   UNL     1       4.954  45.017  52.799  1.00  0.00    -0.195 NA
ATOM      3  C   UNL     1       4.566  43.831  52.260  1.00  0.00     0.147 A 
ATOM      4  C   UNL     1       5.304  43.343  51.180  1.00  0.00     0.082 A 
ATOM      5  C   UNL     1       5.376  42.183  50.379  1.00  0.00     0.149 A 
ATOM      6  N   UNL     1       6.325  42.255  49.437  1.00  0.00    -0.179 NA
ATOM      7  N   UNL     1       6.892  43.462  49.667  1.00  0.00    -0.250 N 
ATOM      8  C   UNL     1       8.001  43.891  48.853  1.00  0.00     0.176 C 
ATOM      9  C   UNL     1       6.324  44.145  50.707  1.00  0.00     0.165 A 
ATOM     10  N   UNL     1       6.687  45.343  51.186  1.00  0.00    -0.193 NA
ENDROOT
BRANCH   1  11
ATOM     11  N   UNL     1       6.235  46.921  52.881  1.00  0.00    -0.354 N 
ATOM     12  H   UNL     1       6.200  47.640  52.167  1.00  0.00     0.163 HD
BRANCH  11  13
ATOM     13  C   UNL     1       7.372  46.963  53.782  1.00  0.00     0.116 C 
BRANCH  13  14
ATOM     14  C   UNL     1       8.575  47.711  53.199  1.00  0.00     0.021 C 
BRANCH  14  15
ATOM     15  C   UNL     1       9.868  46.891  53.240  1.00  0.00    -0.002 C 
ATOM     16  C   UNL     1      10.211  46.330  51.868  1.00  0.00     0.004 C 
ENDBRANCH  14  15
ENDBRANCH  13  14
ENDBRANCH  11  13
ENDBRANCH   1  11
BRANCH   3  17
ATOM     17  N   UNL     1       3.512  43.170  52.890  1.00  0.00    -0.336 N 
ATOM     18  H   UNL     1       3.840  42.629  53.686  1.00  0.00     0.168 HD
BRANCH  17  19
ATOM     19  C   UNL     1       2.142  43.470  53.011  1.00  0.00     0.082 A 
ATOM     20  C   UNL     1       1.175  43.094  52.071  1.00  0.00     0.033 A 
ATOM     21  C   UNL     1       1.703  44.139  54.168  1.00  0.00     0.139 A 
ATOM     22  C   UNL     1      -0.189  43.358  52.281  1.00  0.00    -0.049 A 
ATOM     23  C   UNL     1       0.356  44.422  54.387  1.00  0.00     0.048 A 
ATOM     24  C   UNL     1      -0.588  44.032  53.440  1.00  0.00     0.007 A 
ATOM     25  C   UNL     1      -1.199  42.977  51.237  1.00  0.00     0.044 C 
BRANCH  21  26
ATOM     26  O   UNL     1       2.647  44.529  55.086  1.00  0.00    -0.506 OA
ATOM     27  H   UNL     1       2.218  44.612  55.952  1.00  0.00     0.293 HD
ENDBRANCH  21  26
ENDBRANCH  17  19
ENDBRANCH   3  17
TORSDOF 7
ENDMDL
MODEL 15
REMARK VINA RESULT:    -7.892      2.503      5.258
REMARK INTER + INTRA:         -11.963
REMARK INTER:                 -11.344
REMARK INTRA:                  -0.620
REMARK UNBOUND:                -1.073
REMARK SMILES CCCCNc1nc(Nc2cc(C)ccc2O)c2cnn(C)c2n1
REMARK SMILES IDX 6 1 7 2 8 3 18 4 19 5 20 6 21 7 22 8 23 9 24 10 5 11 4 13
REMARK SMILES IDX 3 14 2 15 1 16 9 17 10 19 11 20 16 21 12 22 15 23 14 24
REMARK SMILES IDX 13 25 17 26
REMARK H PARENT 5 12 9 18 17 27
ROOT
ATOM      1  C   UNL     1       2.714  45.304  54.246  1.00  0.00     0.226 A 
ATOM      2  N   UNL     1       3.157  44.437  53.316  1.00  0.00    -0.195 NA
ATOM      3  C   UNL     1       2.392  43.378  52.944  1.00  0.00     0.147 A 
ATOM      4  C   UNL     1       1.116  43.277  53.502  1.00  0.00     0.082 A 
ATOM      5  C   UNL     1      -0.040  42.477  53.376  1.00  0.00     0.149 A 
ATOM      6  N   UNL     1      -1.026  42.848  54.201  1.00  0.00    -0.179 NA
ATOM      7  N   UNL     1      -0.505  43.924  54.835  1.00  0.00    -0.250 N 
ATOM      8  C   UNL     1      -1.305  44.633  55.802  1.00  0.00     0.176 C 
ATOM      9  C   UNL     1       0.769  44.227  54.441  1.00  0.00     0.165 A 
ATOM     10  N   UNL     1       1.529  45.247  54.866  1.00  0.00    -0.193 NA
ENDROOT
BRANCH   1  11
ATOM     11  N   UNL     1       3.607  46.319  54.554  1.00  0.00    -0.354 N 
ATOM     12  H   UNL     1       3.288  46.738  55.420  1.00  0.00     0.163 HD
BRANCH  11  13
ATOM     13  C   UNL     1       3.968  47.236  53.489  1.00  0.00     0.116 C 
BRANCH  13  14
ATOM     14  C   UNL     1       5.445  47.147  53.091  1.00  0.00     0.021 C 
BRANCH  14  15
ATOM     15  C   UNL     1       6.269  46.270  54.037  1.00  0.00    -0.002 C 
ATOM     16  C   UNL     1       7.759  46.408  53.764  1.00  0.00     0.004 C 
ENDBRANCH  14  15
ENDBRANCH  13  14
ENDBRANCH  11  13
ENDBRANCH   1  11
BRANCH   3  17
ATOM     17  N   UNL     1       2.924  42.531  51.972  1.00  0.00    -0.336 N 
ATOM     18  H   UNL     1       2.193  42.004  51.502  1.00  0.00     0.168 HD
BRANCH  17  19
ATOM     19  C   UNL     1       4.083  42.611  51.176  1.00  0.00     0.082 A 
ATOM     20  C   UNL     1       4.939  43.717  51.154  1.00  0.00     0.033 A 
ATOM     21  C   UNL     1       4.436  41.494  50.396  1.00  0.00     0.139 A 
ATOM     22  C   UNL     1       6.121  43.711  50.394  1.00  0.00    -0.049 A 
ATOM     23  C   UNL     1       5.596  41.475  49.624  1.00  0.00     0.048 A 
ATOM     24  C   UNL     1       6.437  42.586  49.623  1.00  0.00     0.007 A 
ATOM     25  C   UNL     1       7.001  44.927  50.360  1.00  0.00     0.044 C 
BRANCH  21  26
ATOM     26  O   UNL     1       3.590  40.412  50.397  1.00  0.00    -0.506 OA
ATOM     27  H   UNL     1       4.038  39.672  49.957  1.00  0.00     0.293 HD
ENDBRANCH  21  26
ENDBRANCH  17  19
ENDBRANCH   3  17
TORSDOF 7
ENDMDL
MODEL 16
REMARK VINA RESULT:    -7.728      1.567      2.047
REMARK INTER + INTRA:         -11.737
REMARK INTER:                 -11.143
REMARK INTRA:                  -0.594
REMARK UNBOUND:                -1.073
REMARK SMILES CCCCNc1nc(Nc2cc(C)ccc2O)c2cnn(C)c2n1
REMARK SMILES IDX 6 1 7 2 8 3 18 4 19 5 20 6 21 7 22 8 23 9 24 10 5 11 4 13
REMARK SMILES IDX 3 14 2 15 1 16 9 17 10 19 11 20 16 21 12 22 15 23 14 24
REMARK SMILES IDX 13 25 17 26
REMARK H PARENT 5 12 9 18 17 27
ROOT
ATOM      1  C   UNL     1       2.705  42.878  52.460  1.00  0.00     0.226 A 
ATOM      2  N   UNL     1       3.821  43.565  52.766  1.00  0.00    -0.195 NA
ATOM      3  C   UNL     1       3.783  44.567  53.683  1.00  0.00     0.147 A 
ATOM      4  C   UNL     1       2.570  44.794  54.337  1.00  0.00     0.082 A 
ATOM      5  C   UNL     1       2.060  45.593  55.384  1.00  0.00     0.149 A 
ATOM      6  N   UNL     1       0.756  45.392  55.607  1.00  0.00    -0.179 NA
ATOM      7  N   UNL     1       0.439  44.423  54.716  1.00  0.00    -0.250 N 
ATOM      8  C   UNL     1      -0.906  43.908  54.678  1.00  0.00     0.176 C 
ATOM      9  C   UNL     1       1.494  44.024  53.943  1.00  0.00     0.165 A 
ATOM     10  N   UNL     1       1.496  43.070  53.002  1.00  0.00    -0.193 NA
ENDROOT
BRANCH   1  11
ATOM     11  N   UNL     1       2.880  41.905  51.487  1.00  0.00    -0.354 N 
ATOM     12  H   UNL     1       2.333  41.102  51.774  1.00  0.00     0.163 HD
BRANCH  11  13
ATOM     13  C   UNL     1       4.237  41.638  51.049  1.00  0.00     0.116 C 
BRANCH  13  14
ATOM     14  C   UNL     1       4.317  41.141  49.602  1.00  0.00     0.021 C 
BRANCH  14  15
ATOM     15  C   UNL     1       5.686  41.381  48.960  1.00  0.00    -0.002 C 
ATOM     16  C   UNL     1       6.789  41.418  50.006  1.00  0.00     0.004 C 
ENDBRANCH  14  15
ENDBRANCH  13  14
ENDBRANCH  11  13
ENDBRANCH   1  11
BRANCH   3  17
ATOM     17  N   UNL     1       4.984  45.225  53.944  1.00  0.00    -0.336 N 
ATOM     18  H   UNL     1       5.327  45.009  54.876  1.00  0.00     0.168 HD
BRANCH  17  19
ATOM     19  C   UNL     1       6.030  45.658  53.106  1.00  0.00     0.082 A 
ATOM     20  C   UNL     1       6.311  45.096  51.856  1.00  0.00     0.033 A 
ATOM     21  C   UNL     1       6.807  46.755  53.520  1.00  0.00     0.139 A 
ATOM     22  C   UNL     1       7.322  45.617  51.032  1.00  0.00    -0.049 A 
ATOM     23  C   UNL     1       7.824  47.277  52.723  1.00  0.00     0.048 A 
ATOM     24  C   UNL     1       8.081  46.704  51.479  1.00  0.00     0.007 A 
ATOM     25  C   UNL     1       7.627  44.969  49.712  1.00  0.00     0.044 C 
BRANCH  21  26
ATOM     26  O   UNL     1       6.550  47.300  54.754  1.00  0.00    -0.506 OA
ATOM     27  H   UNL     1       7.230  47.967  54.943  1.00  0.00     0.293 HD
ENDBRANCH  21  26
ENDBRANCH  17  19
ENDBRANCH   3  17
TORSDOF 7
ENDMDL
MODEL 17
REMARK VINA RESULT:    -7.701      2.248      6.925
REMARK INTER + INTRA:         -11.700
REMARK INTER:                 -10.916
REMARK INTRA:                  -0.784
REMARK UNBOUND:                -1.073
REMARK SMILES CCCCNc1nc(Nc2cc(C)ccc2O)c2cnn(C)c2n1
REMARK SMILES IDX 6 1 7 2 8 3 18 4 19 5 20 6 21 7 22 8 23 9 24 10 5 11 4 13
REMARK SMILES IDX 3 14 2 15 1 16 9 17 10 19 11 20 16 21 12 22 15 23 14 24
REMARK SMILES IDX 13 25 17 26
REMARK H PARENT 5 12 9 18 17 27
ROOT
ATOM      1  C   UNL     1       5.945  45.727  52.136  1.00  0.00     0.226 A 
ATOM      2  N   UNL     1       4.967  44.984  52.689  1.00  0.00    -0.195 NA
ATOM      3  C   UNL     1       4.636  43.778  52.157  1.00  0.00     0.147 A 
ATOM      4  C   UNL     1       5.395  43.319  51.079  1.00  0.00     0.082 A 
ATOM      5  C   UNL     1       5.521  42.160  50.284  1.00  0.00     0.149 A 
ATOM      6  N   UNL     1       6.464  42.271  49.341  1.00  0.00    -0.179 NA
ATOM      7  N   UNL     1       6.974  43.506  49.563  1.00  0.00    -0.250 N 
ATOM      8  C   UNL     1       8.060  43.981  48.745  1.00  0.00     0.176 C 
ATOM      9  C   UNL     1       6.375  44.166  50.601  1.00  0.00     0.165 A 
ATOM     10  N   UNL     1       6.681  45.383  51.072  1.00  0.00    -0.193 NA
ENDROOT
BRANCH   1  11
ATOM     11  N   UNL     1       6.158  46.947  52.759  1.00  0.00    -0.354 N 
ATOM     12  H   UNL     1       5.399  47.557  52.477  1.00  0.00     0.163 HD
BRANCH  11  13
ATOM     13  C   UNL     1       7.494  47.507  52.688  1.00  0.00     0.116 C 
BRANCH  13  14
ATOM     14  C   UNL     1       8.403  47.045  53.832  1.00  0.00     0.021 C 
BRANCH  14  15
ATOM     15  C   UNL     1       9.884  47.008  53.443  1.00  0.00    -0.002 C 
ATOM     16  C   UNL     1      10.068  46.540  52.007  1.00  0.00     0.004 C 
ENDBRANCH  14  15
ENDBRANCH  13  14
ENDBRANCH  11  13
ENDBRANCH   1  11
BRANCH   3  17
ATOM     17  N   UNL     1       3.615  43.072  52.793  1.00  0.00    -0.336 N 
ATOM     18  H   UNL     1       3.970  42.547  53.587  1.00  0.00     0.168 HD
BRANCH  17  19
ATOM     19  C   UNL     1       2.233  43.311  52.919  1.00  0.00     0.082 A 
ATOM     20  C   UNL     1       1.662  44.051  53.961  1.00  0.00     0.033 A 
ATOM     21  C   UNL     1       1.376  42.828  51.914  1.00  0.00     0.139 A 
ATOM     22  C   UNL     1       0.283  44.318  53.996  1.00  0.00    -0.049 A 
ATOM     23  C   UNL     1       0.004  43.070  51.939  1.00  0.00     0.048 A 
ATOM     24  C   UNL     1      -0.541  43.814  52.983  1.00  0.00     0.007 A 
ATOM     25  C   UNL     1      -0.307  45.082  55.146  1.00  0.00     0.044 C 
BRANCH  21  26
ATOM     26  O   UNL     1       1.926  42.084  50.899  1.00  0.00    -0.506 OA
ATOM     27  H   UNL     1       2.197  41.224  51.259  1.00  0.00     0.293 HD
ENDBRANCH  21  26
ENDBRANCH  17  19
ENDBRANCH   3  17
TORSDOF 7
ENDMDL
MODEL 18
REMARK VINA RESULT:    -7.699      1.799      4.889
REMARK INTER + INTRA:         -11.697
REMARK INTER:                 -11.014
REMARK INTRA:                  -0.684
REMARK UNBOUND:                -1.073
REMARK SMILES CCCCNc1nc(Nc2cc(C)ccc2O)c2cnn(C)c2n1
REMARK SMILES IDX 6 1 7 2 8 3 18 4 19 5 20 6 21 7 22 8 23 9 24 10 5 11 4 13
REMARK SMILES IDX 3 14 2 15 1 16 9 17 10 19 11 20 16 21 12 22 15 23 14 24
REMARK SMILES IDX 13 25 17 26
REMARK H PARENT 5 12 9 18 17 27
ROOT
ATOM      1  C   UNL     1       3.638  44.622  52.286  1.00  0.00     0.226 A 
ATOM      2  N   UNL     1       4.644  45.492  52.077  1.00  0.00    -0.195 NA
ATOM      3  C   UNL     1       5.690  45.155  51.278  1.00  0.00     0.147 A 
ATOM      4  C   UNL     1       5.635  43.918  50.632  1.00  0.00     0.082 A 
ATOM      5  C   UNL     1       6.366  43.185  49.673  1.00  0.00     0.149 A 
ATOM      6  N   UNL     1       5.828  41.989  49.405  1.00  0.00    -0.179 NA
ATOM      7  N   UNL     1       4.716  41.975  50.177  1.00  0.00    -0.250 N 
ATOM      8  C   UNL     1       3.838  40.834  50.134  1.00  0.00     0.176 C 
ATOM      9  C   UNL     1       4.550  43.112  50.919  1.00  0.00     0.165 A 
ATOM     10  N   UNL     1       3.537  43.400  51.748  1.00  0.00    -0.193 NA
ENDROOT
BRANCH   1  11
ATOM     11  N   UNL     1       2.654  45.082  53.146  1.00  0.00    -0.354 N 
ATOM     12  H   UNL     1       3.113  45.318  54.019  1.00  0.00     0.163 HD
BRANCH  11  13
ATOM     13  C   UNL     1       1.438  44.296  53.250  1.00  0.00     0.116 C 
BRANCH  13  14
ATOM     14  C   UNL     1       0.653  44.567  54.538  1.00  0.00     0.021 C 
BRANCH  14  15
ATOM     15  C   UNL     1       1.552  44.926  55.724  1.00  0.00    -0.002 C 
ATOM     16  C   UNL     1       0.730  45.322  56.941  1.00  0.00     0.004 C 
ENDBRANCH  14  15
ENDBRANCH  13  14
ENDBRANCH  11  13
ENDBRANCH   1  11
BRANCH   3  17
ATOM     17  N   UNL     1       6.688  46.114  51.113  1.00  0.00    -0.336 N 
ATOM     18  H   UNL     1       6.319  46.961  50.687  1.00  0.00     0.168 HD
BRANCH  17  19
ATOM     19  C   UNL     1       7.875  46.381  51.823  1.00  0.00     0.082 A 
ATOM     20  C   UNL     1       7.925  47.129  53.004  1.00  0.00     0.033 A 
ATOM     21  C   UNL     1       9.075  45.819  51.352  1.00  0.00     0.139 A 
ATOM     22  C   UNL     1       9.129  47.300  53.709  1.00  0.00    -0.049 A 
ATOM     23  C   UNL     1      10.282  45.990  52.029  1.00  0.00     0.048 A 
ATOM     24  C   UNL     1      10.306  46.734  53.207  1.00  0.00     0.007 A 
ATOM     25  C   UNL     1       9.160  48.140  54.953  1.00  0.00     0.044 C 
BRANCH  21  26
ATOM     26  O   UNL     1       9.038  45.100  50.183  1.00  0.00    -0.506 OA
ATOM     27  H   UNL     1       8.598  44.253  50.357  1.00  0.00     0.293 HD
ENDBRANCH  21  26
ENDBRANCH  17  19
ENDBRANCH   3  17
TORSDOF 7
ENDMDL
MODEL 19
REMARK VINA RESULT:    -7.577      1.801      5.747
REMARK INTER + INTRA:         -11.529
REMARK INTER:                 -10.926
REMARK INTRA:                  -0.603
REMARK UNBOUND:                -1.073
REMARK SMILES CCCCNc1nc(Nc2cc(C)ccc2O)c2cnn(C)c2n1
REMARK SMILES IDX 6 1 7 2 8 3 18 4 19 5 20 6 21 7 22 8 23 9 24 10 5 11 4 13
REMARK SMILES IDX 3 14 2 15 1 16 9 17 10 19 11 20 16 21 12 22 15 23 14 24
REMARK SMILES IDX 13 25 17 26
REMARK H PARENT 5 12 9 18 17 27
ROOT
ATOM      1  C   UNL     1       5.802  44.617  51.308  1.00  0.00     0.226 A 
ATOM      2  N   UNL     1       4.949  44.317  52.304  1.00  0.00    -0.195 NA
ATOM      3  C   UNL     1       5.070  44.916  53.518  1.00  0.00     0.147 A 
ATOM      4  C   UNL     1       6.053  45.898  53.655  1.00  0.00     0.082 A 
ATOM      5  C   UNL     1       6.492  46.837  54.613  1.00  0.00     0.149 A 
ATOM      6  N   UNL     1       7.532  47.568  54.193  1.00  0.00    -0.179 NA
ATOM      7  N   UNL     1       7.734  47.114  52.933  1.00  0.00    -0.250 N 
ATOM      8  C   UNL     1       8.777  47.699  52.129  1.00  0.00     0.176 C 
ATOM      9  C   UNL     1       6.866  46.124  52.562  1.00  0.00     0.165 A 
ATOM     10  N   UNL     1       6.802  45.504  51.375  1.00  0.00    -0.193 NA
ENDROOT
BRANCH   1  11
ATOM     11  N   UNL     1       5.584  43.909  50.135  1.00  0.00    -0.354 N 
ATOM     12  H   UNL     1       4.629  43.572  50.169  1.00  0.00     0.163 HD
BRANCH  11  13
ATOM     13  C   UNL     1       6.594  42.944  49.742  1.00  0.00     0.116 C 
BRANCH  13  14
ATOM     14  C   UNL     1       6.082  41.500  49.745  1.00  0.00     0.021 C 
BRANCH  14  15
ATOM     15  C   UNL     1       4.750  41.338  50.483  1.00  0.00    -0.002 C 
ATOM     16  C   UNL     1       3.674  40.778  49.566  1.00  0.00     0.004 C 
ENDBRANCH  14  15
ENDBRANCH  13  14
ENDBRANCH  11  13
ENDBRANCH   1  11
BRANCH   3  17
ATOM     17  N   UNL     1       4.143  44.551  54.493  1.00  0.00    -0.336 N 
ATOM     18  H   UNL     1       4.535  44.644  55.427  1.00  0.00     0.168 HD
BRANCH  17  19
ATOM     19  C   UNL     1       2.736  44.593  54.528  1.00  0.00     0.082 A 
ATOM     20  C   UNL     1       1.913  43.891  53.641  1.00  0.00     0.033 A 
ATOM     21  C   UNL     1       2.115  45.340  55.546  1.00  0.00     0.139 A 
ATOM     22  C   UNL     1       0.514  43.914  53.770  1.00  0.00    -0.049 A 
ATOM     23  C   UNL     1       0.728  45.387  55.681  1.00  0.00     0.048 A 
ATOM     24  C   UNL     1      -0.071  44.674  54.789  1.00  0.00     0.007 A 
ATOM     25  C   UNL     1      -0.346  43.182  52.780  1.00  0.00     0.044 C 
BRANCH  21  26
ATOM     26  O   UNL     1       2.915  46.048  56.408  1.00  0.00    -0.506 OA
ATOM     27  H   UNL     1       3.251  45.439  57.085  1.00  0.00     0.293 HD
ENDBRANCH  21  26
ENDBRANCH  17  19
ENDBRANCH   3  17
TORSDOF 7
ENDMDL
