MODEL 1
REMARK VINA RESULT:    -8.543      0.000      0.000
REMARK INTER + INTRA:         -12.527
REMARK INTER:                 -11.790
REMARK INTRA:                  -0.737
REMARK UNBOUND:                -0.737
REMARK SMILES CCCCNc1nc(Nc2cc(Cl)ccc2O)c2cnn(C)c2n1
REMARK SMILES IDX 6 1 7 2 8 3 18 4 19 5 20 6 21 7 22 8 23 9 24 10 5 11 4 13
REMARK SMILES IDX 3 14 2 15 1 16 9 17 10 19 11 20 16 21 12 22 15 23 14 24
REMARK SMILES IDX 13 25 17 26
REMARK H PARENT 5 12 9 18 17 27
ROOT
ATOM      1  C   UNL     1       5.809  47.173  53.265  1.00  0.00     0.226 A 
ATOM      2  N   UNL     1       5.892  46.473  52.115  1.00  0.00    -0.195 NA
ATOM      3  C   UNL     1       7.102  46.120  51.621  1.00  0.00     0.147 A 
ATOM      4  C   UNL     1       8.239  46.484  52.345  1.00  0.00     0.082 A 
ATOM      5  C   UNL     1       9.637  46.331  52.270  1.00  0.00     0.149 A 
ATOM      6  N   UNL     1      10.278  46.916  53.288  1.00  0.00    -0.179 NA
ATOM      7  N   UNL     1       9.272  47.437  54.029  1.00  0.00    -0.250 N 
ATOM      8  C   UNL     1       9.582  48.147  55.245  1.00  0.00     0.176 C 
ATOM      9  C   UNL     1       8.031  47.203  53.505  1.00  0.00     0.165 A 
ATOM     10  N   UNL     1       6.846  47.582  54.006  1.00  0.00    -0.193 NA
ENDROOT
BRANCH   1  11
ATOM     11  N   UNL     1       4.562  47.524  53.766  1.00  0.00    -0.354 N 
ATOM     12  H   UNL     1       3.998  47.776  52.962  1.00  0.00     0.163 HD
BRANCH  11  13
ATOM     13  C   UNL     1       3.966  46.556  54.669  1.00  0.00     0.116 C 
BRANCH  13  14
ATOM     14  C   UNL     1       2.896  45.734  53.943  1.00  0.00     0.021 C 
BRANCH  14  15
ATOM     15  C   UNL     1       2.231  46.448  52.762  1.00  0.00    -0.002 C 
ATOM     16  C   UNL     1       2.335  45.708  51.438  1.00  0.00     0.004 C 
ENDBRANCH  14  15
ENDBRANCH  13  14
ENDBRANCH  11  13
ENDBRANCH   1  11
BRANCH   3  17
ATOM     17  N   UNL     1       7.108  45.375  50.427  1.00  0.00    -0.336 N 
ATOM     18  H   UNL     1       8.095  45.315  50.166  1.00  0.00     0.168 HD
BRANCH  17  19
ATOM     19  C   UNL     1       6.490  44.115  50.236  1.00  0.00     0.084 A 
ATOM     20  C   UNL     1       5.289  43.755  50.857  1.00  0.00     0.050 A 
ATOM     21  C   UNL     1       7.181  43.133  49.507  1.00  0.00     0.139 A 
ATOM     22  C   UNL     1       4.782  42.462  50.701  1.00  0.00     0.043 A 
ATOM     23  C   UNL     1       6.683  41.845  49.354  1.00  0.00     0.050 A 
ATOM     24  C   UNL     1       5.470  41.508  49.952  1.00  0.00     0.024 A 
ATOM     25  Cl  UNL     1       3.295  42.037  51.460  1.00  0.00    -0.084 Cl
BRANCH  21  26
ATOM     26  O   UNL     1       8.370  43.441  48.904  1.00  0.00    -0.506 OA
ATOM     27  H   UNL     1       8.316  43.064  48.005  1.00  0.00     0.293 HD
ENDBRANCH  21  26
ENDBRANCH  17  19
ENDBRANCH   3  17
TORSDOF 7
ENDMDL
MODEL 2
REMARK VINA RESULT:    -8.441      2.711      5.726
REMARK INTER + INTRA:         -12.386
REMARK INTER:                 -11.326
REMARK INTRA:                  -1.060
REMARK UNBOUND:                -0.737
REMARK SMILES CCCCNc1nc(Nc2cc(Cl)ccc2O)c2cnn(C)c2n1
REMARK SMILES IDX 6 1 7 2 8 3 18 4 19 5 20 6 21 7 22 8 23 9 24 10 5 11 4 13
REMARK SMILES IDX 3 14 2 15 1 16 9 17 10 19 11 20 16 21 12 22 15 23 14 24
REMARK SMILES IDX 13 25 17 26
REMARK H PARENT 5 12 9 18 17 27
ROOT
ATOM      1  C   UNL     1       3.830  44.241  51.793  1.00  0.00     0.226 A 
ATOM      2  N   UNL     1       4.808  45.140  51.564  1.00  0.00    -0.195 NA
ATOM      3  C   UNL     1       5.082  46.096  52.482  1.00  0.00     0.147 A 
ATOM      4  C   UNL     1       4.339  46.102  53.664  1.00  0.00     0.082 A 
ATOM      5  C   UNL     1       4.272  46.829  54.869  1.00  0.00     0.149 A 
ATOM      6  N   UNL     1       3.318  46.378  55.693  1.00  0.00    -0.179 NA
ATOM      7  N   UNL     1       2.782  45.342  55.008  1.00  0.00    -0.250 N 
ATOM      8  C   UNL     1       1.709  44.582  55.599  1.00  0.00     0.176 C 
ATOM      9  C   UNL     1       3.361  45.137  53.786  1.00  0.00     0.165 A 
ATOM     10  N   UNL     1       3.056  44.192  52.885  1.00  0.00    -0.193 NA
ENDROOT
BRANCH   1  11
ATOM     11  N   UNL     1       3.562  43.261  50.846  1.00  0.00    -0.354 N 
ATOM     12  H   UNL     1       3.945  43.603  49.972  1.00  0.00     0.163 HD
BRANCH  11  13
ATOM     13  C   UNL     1       3.963  41.917  51.220  1.00  0.00     0.116 C 
BRANCH  13  14
ATOM     14  C   UNL     1       4.754  41.258  50.086  1.00  0.00     0.021 C 
BRANCH  14  15
ATOM     15  C   UNL     1       6.252  41.582  50.078  1.00  0.00    -0.002 C 
ATOM     16  C   UNL     1       6.640  42.743  49.177  1.00  0.00     0.004 C 
ENDBRANCH  14  15
ENDBRANCH  13  14
ENDBRANCH  11  13
ENDBRANCH   1  11
BRANCH   3  17
ATOM     17  N   UNL     1       6.129  46.987  52.180  1.00  0.00    -0.336 N 
ATOM     18  H   UNL     1       5.841  47.874  52.598  1.00  0.00     0.168 HD
BRANCH  17  19
ATOM     19  C   UNL     1       7.504  46.765  52.440  1.00  0.00     0.084 A 
ATOM     20  C   UNL     1       8.134  47.190  53.615  1.00  0.00     0.050 A 
ATOM     21  C   UNL     1       8.300  46.224  51.418  1.00  0.00     0.139 A 
ATOM     22  C   UNL     1       9.513  47.024  53.767  1.00  0.00     0.043 A 
ATOM     23  C   UNL     1       9.673  46.062  51.563  1.00  0.00     0.050 A 
ATOM     24  C   UNL     1      10.284  46.460  52.750  1.00  0.00     0.024 A 
ATOM     25  Cl  UNL     1      10.273  47.538  55.224  1.00  0.00    -0.084 Cl
BRANCH  21  26
ATOM     26  O   UNL     1       7.723  45.818  50.246  1.00  0.00    -0.506 OA
ATOM     27  H   UNL     1       7.641  44.847  50.313  1.00  0.00     0.293 HD
ENDBRANCH  21  26
ENDBRANCH  17  19
ENDBRANCH   3  17
TORSDOF 7
ENDMDL
MODEL 3
REMARK VINA RESULT:    -8.363      2.519      5.315
REMARK INTER + INTRA:         -12.278
REMARK INTER:                 -11.591
REMARK INTRA:                  -0.687
REMARK UNBOUND:                -0.737
REMARK SMILES CCCCNc1nc(Nc2cc(Cl)ccc2O)c2cnn(C)c2n1
REMARK SMILES IDX 6 1 7 2 8 3 18 4 19 5 20 6 21 7 22 8 23 9 24 10 5 11 4 13
REMARK SMILES IDX 3 14 2 15 1 16 9 17 10 19 11 20 16 21 12 22 15 23 14 24
REMARK SMILES IDX 13 25 17 26
REMARK H PARENT 5 12 9 18 17 27
ROOT
ATOM      1  C   UNL     1       5.017  46.153  54.436  1.00  0.00     0.226 A 
ATOM      2  N   UNL     1       4.963  45.644  53.189  1.00  0.00    -0.195 NA
ATOM      3  C   UNL     1       3.844  45.017  52.759  1.00  0.00     0.147 A 
ATOM      4  C   UNL     1       2.759  44.937  53.634  1.00  0.00     0.082 A 
ATOM      5  C   UNL     1       1.439  44.445  53.643  1.00  0.00     0.149 A 
ATOM      6  N   UNL     1       0.818  44.649  54.811  1.00  0.00    -0.179 NA
ATOM      7  N   UNL     1       1.751  45.294  55.549  1.00  0.00    -0.250 N 
ATOM      8  C   UNL     1       1.432  45.701  56.895  1.00  0.00     0.176 C 
ATOM      9  C   UNL     1       2.931  45.490  54.887  1.00  0.00     0.165 A 
ATOM     10  N   UNL     1       4.035  46.099  55.345  1.00  0.00    -0.193 NA
ENDROOT
BRANCH   1  11
ATOM     11  N   UNL     1       6.170  46.801  54.865  1.00  0.00    -0.354 N 
ATOM     12  H   UNL     1       6.284  46.553  55.841  1.00  0.00     0.163 HD
BRANCH  11  13
ATOM     13  C   UNL     1       7.338  46.597  54.027  1.00  0.00     0.116 C 
BRANCH  13  14
ATOM     14  C   UNL     1       8.470  47.539  54.449  1.00  0.00     0.021 C 
BRANCH  14  15
ATOM     15  C   UNL     1       9.855  47.154  53.918  1.00  0.00    -0.002 C 
ATOM     16  C   UNL     1       9.874  46.727  52.459  1.00  0.00     0.004 C 
ENDBRANCH  14  15
ENDBRANCH  13  14
ENDBRANCH  11  13
ENDBRANCH   1  11
BRANCH   3  17
ATOM     17  N   UNL     1       3.856  44.528  51.439  1.00  0.00    -0.336 N 
ATOM     18  H   UNL     1       3.771  45.361  50.854  1.00  0.00     0.168 HD
BRANCH  17  19
ATOM     19  C   UNL     1       4.832  43.660  50.889  1.00  0.00     0.084 A 
ATOM     20  C   UNL     1       5.993  44.123  50.260  1.00  0.00     0.050 A 
ATOM     21  C   UNL     1       4.556  42.284  50.844  1.00  0.00     0.139 A 
ATOM     22  C   UNL     1       6.867  43.217  49.654  1.00  0.00     0.043 A 
ATOM     23  C   UNL     1       5.420  41.380  50.238  1.00  0.00     0.050 A 
ATOM     24  C   UNL     1       6.589  41.850  49.642  1.00  0.00     0.024 A 
ATOM     25  Cl  UNL     1       8.300  43.799  48.897  1.00  0.00    -0.084 Cl
BRANCH  21  26
ATOM     26  O   UNL     1       3.419  41.797  51.428  1.00  0.00    -0.506 OA
ATOM     27  H   UNL     1       3.603  41.771  52.386  1.00  0.00     0.293 HD
ENDBRANCH  21  26
ENDBRANCH  17  19
ENDBRANCH   3  17
TORSDOF 7
ENDMDL
MODEL 4
REMARK VINA RESULT:    -8.315      2.862      6.151
REMARK INTER + INTRA:         -12.211
REMARK INTER:                 -11.282
REMARK INTRA:                  -0.929
REMARK UNBOUND:                -0.737
REMARK SMILES CCCCNc1nc(Nc2cc(Cl)ccc2O)c2cnn(C)c2n1
REMARK SMILES IDX 6 1 7 2 8 3 18 4 19 5 20 6 21 7 22 8 23 9 24 10 5 11 4 13
REMARK SMILES IDX 3 14 2 15 1 16 9 17 10 19 11 20 16 21 12 22 15 23 14 24
REMARK SMILES IDX 13 25 17 26
REMARK H PARENT 5 12 9 18 17 27
ROOT
ATOM      1  C   UNL     1       4.491  42.969  51.409  1.00  0.00     0.226 A 
ATOM      2  N   UNL     1       5.323  43.994  51.134  1.00  0.00    -0.195 NA
ATOM      3  C   UNL     1       5.115  45.207  51.697  1.00  0.00     0.147 A 
ATOM      4  C   UNL     1       4.038  45.349  52.573  1.00  0.00     0.082 A 
ATOM      5  C   UNL     1       3.459  46.341  53.390  1.00  0.00     0.149 A 
ATOM      6  N   UNL     1       2.381  45.904  54.050  1.00  0.00    -0.179 NA
ATOM      7  N   UNL     1       2.281  44.612  53.660  1.00  0.00    -0.250 N 
ATOM      8  C   UNL     1       1.220  43.792  54.188  1.00  0.00     0.176 C 
ATOM      9  C   UNL     1       3.253  44.232  52.775  1.00  0.00     0.165 A 
ATOM     10  N   UNL     1       3.424  43.025  52.216  1.00  0.00    -0.193 NA
ENDROOT
BRANCH   1  11
ATOM     11  N   UNL     1       4.717  41.727  50.830  1.00  0.00    -0.354 N 
ATOM     12  H   UNL     1       3.825  41.427  50.452  1.00  0.00     0.163 HD
BRANCH  11  13
ATOM     13  C   UNL     1       5.838  41.671  49.909  1.00  0.00     0.116 C 
BRANCH  13  14
ATOM     14  C   UNL     1       5.370  41.214  48.524  1.00  0.00     0.021 C 
BRANCH  14  15
ATOM     15  C   UNL     1       5.881  42.071  47.360  1.00  0.00    -0.002 C 
ATOM     16  C   UNL     1       5.380  41.638  45.992  1.00  0.00     0.004 C 
ENDBRANCH  14  15
ENDBRANCH  13  14
ENDBRANCH  11  13
ENDBRANCH   1  11
BRANCH   3  17
ATOM     17  N   UNL     1       6.036  46.223  51.376  1.00  0.00    -0.336 N 
ATOM     18  H   UNL     1       5.515  47.093  51.504  1.00  0.00     0.168 HD
BRANCH  17  19
ATOM     19  C   UNL     1       7.335  46.364  51.925  1.00  0.00     0.084 A 
ATOM     20  C   UNL     1       7.597  47.115  53.076  1.00  0.00     0.050 A 
ATOM     21  C   UNL     1       8.425  45.849  51.205  1.00  0.00     0.139 A 
ATOM     22  C   UNL     1       8.914  47.291  53.509  1.00  0.00     0.043 A 
ATOM     23  C   UNL     1       9.736  46.027  51.629  1.00  0.00     0.050 A 
ATOM     24  C   UNL     1       9.982  46.750  52.795  1.00  0.00     0.024 A 
ATOM     25  Cl  UNL     1       9.221  48.205  54.936  1.00  0.00    -0.084 Cl
BRANCH  21  26
ATOM     26  O   UNL     1       8.210  45.129  50.061  1.00  0.00    -0.506 OA
ATOM     27  H   UNL     1       8.280  45.770  49.328  1.00  0.00     0.293 HD
ENDBRANCH  21  26
ENDBRANCH  17  19
ENDBRANCH   3  17
TORSDOF 7
ENDMDL
MODEL 5
REMARK VINA RESULT:    -8.313      3.232      5.755
REMARK INTER + INTRA:         -12.209
REMARK INTER:                 -11.541
REMARK INTRA:                  -0.668
REMARK UNBOUND:                -0.737
REMARK SMILES CCCCNc1nc(Nc2cc(Cl)ccc2O)c2cnn(C)c2n1
REMARK SMILES IDX 6 1 7 2 8 3 18 4 19 5 20 6 21 7 22 8 23 9 24 10 5 11 4 13
REMARK SMILES IDX 3 14 2 15 1 16 9 17 10 19 11 20 16 21 12 22 15 23 14 24
REMARK SMILES IDX 13 25 17 26
REMARK H PARENT 5 12 9 18 17 27
ROOT
ATOM      1  C   UNL     1       3.447  44.210  53.159  1.00  0.00     0.226 A 
ATOM      2  N   UNL     1       4.187  45.336  53.139  1.00  0.00    -0.195 NA
ATOM      3  C   UNL     1       5.187  45.475  52.237  1.00  0.00     0.147 A 
ATOM      4  C   UNL     1       5.404  44.435  51.332  1.00  0.00     0.082 A 
ATOM      5  C   UNL     1       6.248  44.135  50.244  1.00  0.00     0.149 A 
ATOM      6  N   UNL     1       6.006  42.929  49.717  1.00  0.00    -0.179 NA
ATOM      7  N   UNL     1       4.984  42.462  50.470  1.00  0.00    -0.250 N 
ATOM      8  C   UNL     1       4.428  41.163  50.183  1.00  0.00     0.176 C 
ATOM      9  C   UNL     1       4.587  43.329  51.451  1.00  0.00     0.165 A 
ATOM     10  N   UNL     1       3.603  43.157  52.347  1.00  0.00    -0.193 NA
ENDROOT
BRANCH   1  11
ATOM     11  N   UNL     1       2.419  44.080  54.086  1.00  0.00    -0.354 N 
ATOM     12  H   UNL     1       2.495  43.141  54.460  1.00  0.00     0.163 HD
BRANCH  11  13
ATOM     13  C   UNL     1       2.343  45.142  55.073  1.00  0.00     0.116 C 
BRANCH  13  14
ATOM     14  C   UNL     1       0.897  45.334  55.542  1.00  0.00     0.021 C 
BRANCH  14  15
ATOM     15  C   UNL     1       0.683  45.155  57.049  1.00  0.00    -0.002 C 
ATOM     16  C   UNL     1       0.837  46.429  57.863  1.00  0.00     0.004 C 
ENDBRANCH  14  15
ENDBRANCH  13  14
ENDBRANCH  11  13
ENDBRANCH   1  11
BRANCH   3  17
ATOM     17  N   UNL     1       5.904  46.686  52.264  1.00  0.00    -0.336 N 
ATOM     18  H   UNL     1       5.307  47.327  52.791  1.00  0.00     0.168 HD
BRANCH  17  19
ATOM     19  C   UNL     1       7.250  46.840  52.682  1.00  0.00     0.084 A 
ATOM     20  C   UNL     1       8.340  46.477  51.884  1.00  0.00     0.050 A 
ATOM     21  C   UNL     1       7.498  47.239  54.005  1.00  0.00     0.139 A 
ATOM     22  C   UNL     1       9.638  46.566  52.393  1.00  0.00     0.043 A 
ATOM     23  C   UNL     1       8.788  47.323  54.517  1.00  0.00     0.050 A 
ATOM     24  C   UNL     1       9.867  46.990  53.702  1.00  0.00     0.024 A 
ATOM     25  Cl  UNL     1      10.972  46.131  51.394  1.00  0.00    -0.084 Cl
BRANCH  21  26
ATOM     26  O   UNL     1       6.456  47.579  54.823  1.00  0.00    -0.506 OA
ATOM     27  H   UNL     1       5.943  46.759  54.954  1.00  0.00     0.293 HD
ENDBRANCH  21  26
ENDBRANCH  17  19
ENDBRANCH   3  17
TORSDOF 7
ENDMDL
MODEL 6
REMARK VINA RESULT:    -8.297      2.410      5.971
REMARK INTER + INTRA:         -12.186
REMARK INTER:                 -11.770
REMARK INTRA:                  -0.416
REMARK UNBOUND:                -0.737
REMARK SMILES CCCCNc1nc(Nc2cc(Cl)ccc2O)c2cnn(C)c2n1
REMARK SMILES IDX 6 1 7 2 8 3 18 4 19 5 20 6 21 7 22 8 23 9 24 10 5 11 4 13
REMARK SMILES IDX 3 14 2 15 1 16 9 17 10 19 11 20 16 21 12 22 15 23 14 24
REMARK SMILES IDX 13 25 17 26
REMARK H PARENT 5 12 9 18 17 27
ROOT
ATOM      1  C   UNL     1       7.542  46.761  51.687  1.00  0.00     0.226 A 
ATOM      2  N   UNL     1       6.476  47.159  52.410  1.00  0.00    -0.195 NA
ATOM      3  C   UNL     1       5.339  46.424  52.403  1.00  0.00     0.147 A 
ATOM      4  C   UNL     1       5.321  45.249  51.650  1.00  0.00     0.082 A 
ATOM      5  C   UNL     1       4.441  44.187  51.365  1.00  0.00     0.149 A 
ATOM      6  N   UNL     1       4.972  43.282  50.534  1.00  0.00    -0.179 NA
ATOM      7  N   UNL     1       6.213  43.768  50.300  1.00  0.00    -0.250 N 
ATOM      8  C   UNL     1       7.110  43.038  49.440  1.00  0.00     0.176 C 
ATOM      9  C   UNL     1       6.469  44.946  50.947  1.00  0.00     0.165 A 
ATOM     10  N   UNL     1       7.601  45.665  50.920  1.00  0.00    -0.193 NA
ENDROOT
BRANCH   1  11
ATOM     11  N   UNL     1       8.706  47.520  51.706  1.00  0.00    -0.354 N 
ATOM     12  H   UNL     1       8.496  48.342  52.261  1.00  0.00     0.163 HD
BRANCH  11  13
ATOM     13  C   UNL     1       9.906  46.798  52.088  1.00  0.00     0.116 C 
BRANCH  13  14
ATOM     14  C   UNL     1       9.841  46.392  53.563  1.00  0.00     0.021 C 
BRANCH  14  15
ATOM     15  C   UNL     1       9.669  47.559  54.542  1.00  0.00    -0.002 C 
ATOM     16  C   UNL     1      10.637  47.546  55.713  1.00  0.00     0.004 C 
ENDBRANCH  14  15
ENDBRANCH  13  14
ENDBRANCH  11  13
ENDBRANCH   1  11
BRANCH   3  17
ATOM     17  N   UNL     1       4.275  46.893  53.196  1.00  0.00    -0.336 N 
ATOM     18  H   UNL     1       3.977  47.759  52.742  1.00  0.00     0.168 HD
BRANCH  17  19
ATOM     19  C   UNL     1       3.135  46.142  53.578  1.00  0.00     0.084 A 
ATOM     20  C   UNL     1       1.975  46.072  52.801  1.00  0.00     0.050 A 
ATOM     21  C   UNL     1       3.115  45.559  54.856  1.00  0.00     0.139 A 
ATOM     22  C   UNL     1       0.853  45.392  53.280  1.00  0.00     0.043 A 
ATOM     23  C   UNL     1       1.999  44.886  55.339  1.00  0.00     0.050 A 
ATOM     24  C   UNL     1       0.860  44.796  54.541  1.00  0.00     0.024 A 
ATOM     25  Cl  UNL     1      -0.565  45.301  52.306  1.00  0.00    -0.084 Cl
BRANCH  21  26
ATOM     26  O   UNL     1       4.224  45.626  55.654  1.00  0.00    -0.506 OA
ATOM     27  H   UNL     1       4.016  46.289  56.340  1.00  0.00     0.293 HD
ENDBRANCH  21  26
ENDBRANCH  17  19
ENDBRANCH   3  17
TORSDOF 7
ENDMDL
MODEL 7
REMARK VINA RESULT:    -8.219      3.068      5.664
REMARK INTER + INTRA:         -12.079
REMARK INTER:                 -11.338
REMARK INTRA:                  -0.741
REMARK UNBOUND:                -0.737
REMARK SMILES CCCCNc1nc(Nc2cc(Cl)ccc2O)c2cnn(C)c2n1
REMARK SMILES IDX 6 1 7 2 8 3 18 4 19 5 20 6 21 7 22 8 23 9 24 10 5 11 4 13
REMARK SMILES IDX 3 14 2 15 1 16 9 17 10 19 11 20 16 21 12 22 15 23 14 24
REMARK SMILES IDX 13 25 17 26
REMARK H PARENT 5 12 9 18 17 27
ROOT
ATOM      1  C   UNL     1       6.454  44.714  50.847  1.00  0.00     0.226 A 
ATOM      2  N   UNL     1       6.504  43.538  50.190  1.00  0.00    -0.195 NA
ATOM      3  C   UNL     1       5.535  42.613  50.379  1.00  0.00     0.147 A 
ATOM      4  C   UNL     1       4.489  42.926  51.248  1.00  0.00     0.082 A 
ATOM      5  C   UNL     1       3.296  42.345  51.723  1.00  0.00     0.149 A 
ATOM      6  N   UNL     1       2.646  43.131  52.589  1.00  0.00    -0.179 NA
ATOM      7  N   UNL     1       3.429  44.233  52.655  1.00  0.00    -0.250 N 
ATOM      8  C   UNL     1       3.035  45.334  53.498  1.00  0.00     0.176 C 
ATOM      9  C   UNL     1       4.545  44.157  51.868  1.00  0.00     0.165 A 
ATOM     10  N   UNL     1       5.503  45.084  51.715  1.00  0.00    -0.193 NA
ENDROOT
BRANCH   1  11
ATOM     11  N   UNL     1       7.451  45.659  50.641  1.00  0.00    -0.354 N 
ATOM     12  H   UNL     1       7.419  45.890  49.654  1.00  0.00     0.163 HD
BRANCH  11  13
ATOM     13  C   UNL     1       7.424  46.792  51.549  1.00  0.00     0.116 C 
BRANCH  13  14
ATOM     14  C   UNL     1       8.781  47.503  51.559  1.00  0.00     0.021 C 
BRANCH  14  15
ATOM     15  C   UNL     1       9.903  46.730  52.261  1.00  0.00    -0.002 C 
ATOM     16  C   UNL     1       9.919  46.877  53.774  1.00  0.00     0.004 C 
ENDBRANCH  14  15
ENDBRANCH  13  14
ENDBRANCH  11  13
ENDBRANCH   1  11
BRANCH   3  17
ATOM     17  N   UNL     1       5.646  41.417  49.645  1.00  0.00    -0.336 N 
ATOM     18  H   UNL     1       5.381  40.683  50.305  1.00  0.00     0.168 HD
BRANCH  17  19
ATOM     19  C   UNL     1       5.046  41.160  48.387  1.00  0.00     0.084 A 
ATOM     20  C   UNL     1       5.515  41.720  47.193  1.00  0.00     0.050 A 
ATOM     21  C   UNL     1       3.847  40.431  48.353  1.00  0.00     0.139 A 
ATOM     22  C   UNL     1       4.820  41.502  46.000  1.00  0.00     0.043 A 
ATOM     23  C   UNL     1       3.150  40.217  47.170  1.00  0.00     0.050 A 
ATOM     24  C   UNL     1       3.644  40.753  45.982  1.00  0.00     0.024 A 
ATOM     25  Cl  UNL     1       5.416  42.184  44.535  1.00  0.00    -0.084 Cl
BRANCH  21  26
ATOM     26  O   UNL     1       3.345  39.888  49.504  1.00  0.00    -0.506 OA
ATOM     27  H   UNL     1       3.310  40.621  50.149  1.00  0.00     0.293 HD
ENDBRANCH  21  26
ENDBRANCH  17  19
ENDBRANCH   3  17
TORSDOF 7
ENDMDL
MODEL 8
REMARK VINA RESULT:    -8.217      2.711      5.808
REMARK INTER + INTRA:         -12.077
REMARK INTER:                 -11.141
REMARK INTRA:                  -0.936
REMARK UNBOUND:                -0.737
REMARK SMILES CCCCNc1nc(Nc2cc(Cl)ccc2O)c2cnn(C)c2n1
REMARK SMILES IDX 6 1 7 2 8 3 18 4 19 5 20 6 21 7 22 8 23 9 24 10 5 11 4 13
REMARK SMILES IDX 3 14 2 15 1 16 9 17 10 19 11 20 16 21 12 22 15 23 14 24
REMARK SMILES IDX 13 25 17 26
REMARK H PARENT 5 12 9 18 17 27
ROOT
ATOM      1  C   UNL     1       6.122  45.895  52.345  1.00  0.00     0.226 A 
ATOM      2  N   UNL     1       5.111  45.212  52.918  1.00  0.00    -0.195 NA
ATOM      3  C   UNL     1       4.721  44.021  52.406  1.00  0.00     0.147 A 
ATOM      4  C   UNL     1       5.408  43.527  51.296  1.00  0.00     0.082 A 
ATOM      5  C   UNL     1       5.403  42.387  50.468  1.00  0.00     0.149 A 
ATOM      6  N   UNL     1       6.328  42.444  49.502  1.00  0.00    -0.179 NA
ATOM      7  N   UNL     1       6.938  43.631  49.728  1.00  0.00    -0.250 N 
ATOM      8  C   UNL     1       8.025  44.042  48.875  1.00  0.00     0.176 C 
ATOM      9  C   UNL     1       6.422  44.316  50.793  1.00  0.00     0.165 A 
ATOM     10  N   UNL     1       6.815  45.508  51.268  1.00  0.00    -0.193 NA
ENDROOT
BRANCH   1  11
ATOM     11  N   UNL     1       6.518  47.114  52.883  1.00  0.00    -0.354 N 
ATOM     12  H   UNL     1       6.569  46.975  53.886  1.00  0.00     0.163 HD
BRANCH  11  13
ATOM     13  C   UNL     1       7.695  47.704  52.272  1.00  0.00     0.116 C 
BRANCH  13  14
ATOM     14  C   UNL     1       8.806  47.880  53.312  1.00  0.00     0.021 C 
BRANCH  14  15
ATOM     15  C   UNL     1       9.901  46.808  53.268  1.00  0.00    -0.002 C 
ATOM     16  C   UNL     1      10.251  46.323  51.871  1.00  0.00     0.004 C 
ENDBRANCH  14  15
ENDBRANCH  13  14
ENDBRANCH  11  13
ENDBRANCH   1  11
BRANCH   3  17
ATOM     17  N   UNL     1       3.671  43.358  53.068  1.00  0.00    -0.336 N 
ATOM     18  H   UNL     1       4.047  43.136  53.992  1.00  0.00     0.168 HD
BRANCH  17  19
ATOM     19  C   UNL     1       2.344  43.837  53.200  1.00  0.00     0.084 A 
ATOM     20  C   UNL     1       1.400  43.758  52.171  1.00  0.00     0.050 A 
ATOM     21  C   UNL     1       2.002  44.551  54.361  1.00  0.00     0.139 A 
ATOM     22  C   UNL     1       0.138  44.336  52.334  1.00  0.00     0.043 A 
ATOM     23  C   UNL     1       0.751  45.132  54.525  1.00  0.00     0.050 A 
ATOM     24  C   UNL     1      -0.192  45.018  53.504  1.00  0.00     0.024 A 
ATOM     25  Cl  UNL     1      -1.019  44.217  51.064  1.00  0.00    -0.084 Cl
BRANCH  21  26
ATOM     26  O   UNL     1       2.907  44.670  55.380  1.00  0.00    -0.506 OA
ATOM     27  H   UNL     1       2.861  45.601  55.668  1.00  0.00     0.293 HD
ENDBRANCH  21  26
ENDBRANCH  17  19
ENDBRANCH   3  17
TORSDOF 7
ENDMDL
MODEL 9
REMARK VINA RESULT:    -8.205      3.261      5.680
REMARK INTER + INTRA:         -12.060
REMARK INTER:                 -11.214
REMARK INTRA:                  -0.846
REMARK UNBOUND:                -0.737
REMARK SMILES CCCCNc1nc(Nc2cc(Cl)ccc2O)c2cnn(C)c2n1
REMARK SMILES IDX 6 1 7 2 8 3 18 4 19 5 20 6 21 7 22 8 23 9 24 10 5 11 4 13
REMARK SMILES IDX 3 14 2 15 1 16 9 17 10 19 11 20 16 21 12 22 15 23 14 24
REMARK SMILES IDX 13 25 17 26
REMARK H PARENT 5 12 9 18 17 27
ROOT
ATOM      1  C   UNL     1       3.426  44.272  53.214  1.00  0.00     0.226 A 
ATOM      2  N   UNL     1       4.183  45.386  53.166  1.00  0.00    -0.195 NA
ATOM      3  C   UNL     1       5.171  45.496  52.248  1.00  0.00     0.147 A 
ATOM      4  C   UNL     1       5.359  44.440  51.355  1.00  0.00     0.082 A 
ATOM      5  C   UNL     1       6.183  44.111  50.261  1.00  0.00     0.149 A 
ATOM      6  N   UNL     1       5.915  42.902  49.755  1.00  0.00    -0.179 NA
ATOM      7  N   UNL     1       4.897  42.461  50.530  1.00  0.00    -0.250 N 
ATOM      8  C   UNL     1       4.317  41.167  50.270  1.00  0.00     0.176 C 
ATOM      9  C   UNL     1       4.527  43.349  51.503  1.00  0.00     0.165 A 
ATOM     10  N   UNL     1       3.554  43.205  52.415  1.00  0.00    -0.193 NA
ENDROOT
BRANCH   1  11
ATOM     11  N   UNL     1       2.410  44.172  54.157  1.00  0.00    -0.354 N 
ATOM     12  H   UNL     1       2.869  44.127  55.060  1.00  0.00     0.163 HD
BRANCH  11  13
ATOM     13  C   UNL     1       1.359  45.167  54.038  1.00  0.00     0.116 C 
BRANCH  13  14
ATOM     14  C   UNL     1      -0.002  44.489  53.857  1.00  0.00     0.021 C 
BRANCH  14  15
ATOM     15  C   UNL     1       0.037  42.957  53.877  1.00  0.00    -0.002 C 
ATOM     16  C   UNL     1      -0.228  42.302  52.531  1.00  0.00     0.004 C 
ENDBRANCH  14  15
ENDBRANCH  13  14
ENDBRANCH  11  13
ENDBRANCH   1  11
BRANCH   3  17
ATOM     17  N   UNL     1       5.907  46.696  52.247  1.00  0.00    -0.336 N 
ATOM     18  H   UNL     1       5.313  47.364  52.744  1.00  0.00     0.168 HD
BRANCH  17  19
ATOM     19  C   UNL     1       7.249  46.843  52.680  1.00  0.00     0.084 A 
ATOM     20  C   UNL     1       8.346  46.475  51.894  1.00  0.00     0.050 A 
ATOM     21  C   UNL     1       7.485  47.240  54.006  1.00  0.00     0.139 A 
ATOM     22  C   UNL     1       9.639  46.557  52.417  1.00  0.00     0.043 A 
ATOM     23  C   UNL     1       8.768  47.318  54.532  1.00  0.00     0.050 A 
ATOM     24  C   UNL     1       9.856  46.979  53.729  1.00  0.00     0.024 A 
ATOM     25  Cl  UNL     1      10.981  46.116  51.433  1.00  0.00    -0.084 Cl
BRANCH  21  26
ATOM     26  O   UNL     1       6.435  47.585  54.812  1.00  0.00    -0.506 OA
ATOM     27  H   UNL     1       6.587  48.517  55.062  1.00  0.00     0.293 HD
ENDBRANCH  21  26
ENDBRANCH  17  19
ENDBRANCH   3  17
TORSDOF 7
ENDMDL
MODEL 10
REMARK VINA RESULT:    -8.157      2.693      5.406
REMARK INTER + INTRA:         -11.994
REMARK INTER:                 -10.802
REMARK INTRA:                  -1.192
REMARK UNBOUND:                -0.737
REMARK SMILES CCCCNc1nc(Nc2cc(Cl)ccc2O)c2cnn(C)c2n1
REMARK SMILES IDX 6 1 7 2 8 3 18 4 19 5 20 6 21 7 22 8 23 9 24 10 5 11 4 13
REMARK SMILES IDX 3 14 2 15 1 16 9 17 10 19 11 20 16 21 12 22 15 23 14 24
REMARK SMILES IDX 13 25 17 26
REMARK H PARENT 5 12 9 18 17 27
ROOT
ATOM      1  C   UNL     1       3.676  44.818  51.884  1.00  0.00     0.226 A 
ATOM      2  N   UNL     1       4.736  45.621  51.659  1.00  0.00    -0.195 NA
ATOM      3  C   UNL     1       5.790  45.169  50.941  1.00  0.00     0.147 A 
ATOM      4  C   UNL     1       5.731  43.870  50.435  1.00  0.00     0.082 A 
ATOM      5  C   UNL     1       6.514  43.003  49.646  1.00  0.00     0.149 A 
ATOM      6  N   UNL     1       5.941  41.807  49.465  1.00  0.00    -0.179 NA
ATOM      7  N   UNL     1       4.771  41.921  50.136  1.00  0.00    -0.250 N 
ATOM      8  C   UNL     1       3.854  40.808  50.154  1.00  0.00     0.176 C 
ATOM      9  C   UNL     1       4.599  43.139  50.733  1.00  0.00     0.165 A 
ATOM     10  N   UNL     1       3.550  43.555  51.458  1.00  0.00    -0.193 NA
ENDROOT
BRANCH   1  11
ATOM     11  N   UNL     1       2.596  45.295  52.616  1.00  0.00    -0.354 N 
ATOM     12  H   UNL     1       2.050  44.480  52.873  1.00  0.00     0.163 HD
BRANCH  11  13
ATOM     13  C   UNL     1       2.939  46.188  53.709  1.00  0.00     0.116 C 
BRANCH  13  14
ATOM     14  C   UNL     1       3.340  45.386  54.950  1.00  0.00     0.021 C 
BRANCH  14  15
ATOM     15  C   UNL     1       4.782  45.610  55.419  1.00  0.00    -0.002 C 
ATOM     16  C   UNL     1       5.771  44.560  54.938  1.00  0.00     0.004 C 
ENDBRANCH  14  15
ENDBRANCH  13  14
ENDBRANCH  11  13
ENDBRANCH   1  11
BRANCH   3  17
ATOM     17  N   UNL     1       6.851  46.071  50.733  1.00  0.00    -0.336 N 
ATOM     18  H   UNL     1       6.395  46.969  50.559  1.00  0.00     0.168 HD
BRANCH  17  19
ATOM     19  C   UNL     1       7.957  46.261  51.598  1.00  0.00     0.084 A 
ATOM     20  C   UNL     1       7.901  47.071  52.737  1.00  0.00     0.050 A 
ATOM     21  C   UNL     1       9.201  45.730  51.221  1.00  0.00     0.139 A 
ATOM     22  C   UNL     1       9.054  47.291  53.495  1.00  0.00     0.043 A 
ATOM     23  C   UNL     1      10.352  45.951  51.969  1.00  0.00     0.050 A 
ATOM     24  C   UNL     1      10.276  46.734  53.119  1.00  0.00     0.024 A 
ATOM     25  Cl  UNL     1       8.967  48.278  54.903  1.00  0.00    -0.084 Cl
BRANCH  21  26
ATOM     26  O   UNL     1       9.300  44.952  50.100  1.00  0.00    -0.506 OA
ATOM     27  H   UNL     1       8.440  45.034  49.644  1.00  0.00     0.293 HD
ENDBRANCH  21  26
ENDBRANCH  17  19
ENDBRANCH   3  17
TORSDOF 7
ENDMDL
MODEL 11
REMARK VINA RESULT:    -8.116      3.115      6.494
REMARK INTER + INTRA:         -11.938
REMARK INTER:                 -11.009
REMARK INTRA:                  -0.928
REMARK UNBOUND:                -0.737
REMARK SMILES CCCCNc1nc(Nc2cc(Cl)ccc2O)c2cnn(C)c2n1
REMARK SMILES IDX 6 1 7 2 8 3 18 4 19 5 20 6 21 7 22 8 23 9 24 10 5 11 4 13
REMARK SMILES IDX 3 14 2 15 1 16 9 17 10 19 11 20 16 21 12 22 15 23 14 24
REMARK SMILES IDX 13 25 17 26
REMARK H PARENT 5 12 9 18 17 27
ROOT
ATOM      1  C   UNL     1       4.264  42.959  51.773  1.00  0.00     0.226 A 
ATOM      2  N   UNL     1       4.991  44.077  51.575  1.00  0.00    -0.195 NA
ATOM      3  C   UNL     1       4.519  45.276  51.989  1.00  0.00     0.147 A 
ATOM      4  C   UNL     1       3.283  45.307  52.635  1.00  0.00     0.082 A 
ATOM      5  C   UNL     1       2.429  46.248  53.246  1.00  0.00     0.149 A 
ATOM      6  N   UNL     1       1.309  45.696  53.727  1.00  0.00    -0.179 NA
ATOM      7  N   UNL     1       1.459  44.384  53.432  1.00  0.00    -0.250 N 
ATOM      8  C   UNL     1       0.433  43.448  53.818  1.00  0.00     0.176 C 
ATOM      9  C   UNL     1       2.627  44.101  52.777  1.00  0.00     0.165 A 
ATOM     10  N   UNL     1       3.062  42.903  52.360  1.00  0.00    -0.193 NA
ENDROOT
BRANCH   1  11
ATOM     11  N   UNL     1       4.762  41.733  51.350  1.00  0.00    -0.354 N 
ATOM     12  H   UNL     1       4.294  41.031  51.912  1.00  0.00     0.163 HD
BRANCH  11  13
ATOM     13  C   UNL     1       4.721  41.513  49.915  1.00  0.00     0.116 C 
BRANCH  13  14
ATOM     14  C   UNL     1       6.138  41.515  49.332  1.00  0.00     0.021 C 
BRANCH  14  15
ATOM     15  C   UNL     1       6.586  42.857  48.743  1.00  0.00    -0.002 C 
ATOM     16  C   UNL     1       7.905  43.377  49.292  1.00  0.00     0.004 C 
ENDBRANCH  14  15
ENDBRANCH  13  14
ENDBRANCH  11  13
ENDBRANCH   1  11
BRANCH   3  17
ATOM     17  N   UNL     1       5.342  46.396  51.763  1.00  0.00    -0.336 N 
ATOM     18  H   UNL     1       4.741  47.200  51.953  1.00  0.00     0.168 HD
BRANCH  17  19
ATOM     19  C   UNL     1       6.619  46.612  52.339  1.00  0.00     0.084 A 
ATOM     20  C   UNL     1       7.812  46.259  51.699  1.00  0.00     0.050 A 
ATOM     21  C   UNL     1       6.687  47.067  53.666  1.00  0.00     0.139 A 
ATOM     22  C   UNL     1       9.032  46.412  52.363  1.00  0.00     0.043 A 
ATOM     23  C   UNL     1       7.898  47.216  54.331  1.00  0.00     0.050 A 
ATOM     24  C   UNL     1       9.081  46.890  53.672  1.00  0.00     0.024 A 
ATOM     25  Cl  UNL     1      10.494  45.987  51.557  1.00  0.00    -0.084 Cl
BRANCH  21  26
ATOM     26  O   UNL     1       5.539  47.401  54.333  1.00  0.00    -0.506 OA
ATOM     27  H   UNL     1       5.759  47.346  55.282  1.00  0.00     0.293 HD
ENDBRANCH  21  26
ENDBRANCH  17  19
ENDBRANCH   3  17
TORSDOF 7
ENDMDL
MODEL 12
REMARK VINA RESULT:    -8.010      2.672      5.742
REMARK INTER + INTRA:         -11.791
REMARK INTER:                 -11.009
REMARK INTRA:                  -0.782
REMARK UNBOUND:                -0.737
REMARK SMILES CCCCNc1nc(Nc2cc(Cl)ccc2O)c2cnn(C)c2n1
REMARK SMILES IDX 6 1 7 2 8 3 18 4 19 5 20 6 21 7 22 8 23 9 24 10 5 11 4 13
REMARK SMILES IDX 3 14 2 15 1 16 9 17 10 19 11 20 16 21 12 22 15 23 14 24
REMARK SMILES IDX 13 25 17 26
REMARK H PARENT 5 12 9 18 17 27
ROOT
ATOM      1  C   UNL     1       6.104  45.965  52.244  1.00  0.00     0.226 A 
ATOM      2  N   UNL     1       5.072  45.293  52.792  1.00  0.00    -0.195 NA
ATOM      3  C   UNL     1       4.704  44.090  52.294  1.00  0.00     0.147 A 
ATOM      4  C   UNL     1       5.435  43.571  51.224  1.00  0.00     0.082 A 
ATOM      5  C   UNL     1       5.465  42.411  50.424  1.00  0.00     0.149 A 
ATOM      6  N   UNL     1       6.427  42.447  49.494  1.00  0.00    -0.179 NA
ATOM      7  N   UNL     1       7.027  43.640  49.716  1.00  0.00    -0.250 N 
ATOM      8  C   UNL     1       8.146  44.033  48.898  1.00  0.00     0.176 C 
ATOM      9  C   UNL     1       6.468  44.350  50.744  1.00  0.00     0.165 A 
ATOM     10  N   UNL     1       6.840  45.553  51.205  1.00  0.00    -0.193 NA
ENDROOT
BRANCH   1  11
ATOM     11  N   UNL     1       6.477  47.197  52.768  1.00  0.00    -0.354 N 
ATOM     12  H   UNL     1       6.417  47.103  53.776  1.00  0.00     0.163 HD
BRANCH  11  13
ATOM     13  C   UNL     1       7.730  47.728  52.262  1.00  0.00     0.116 C 
BRANCH  13  14
ATOM     14  C   UNL     1       8.749  47.866  53.397  1.00  0.00     0.021 C 
BRANCH  14  15
ATOM     15  C   UNL     1       9.880  46.831  53.372  1.00  0.00    -0.002 C 
ATOM     16  C   UNL     1      10.261  46.349  51.982  1.00  0.00     0.004 C 
ENDBRANCH  14  15
ENDBRANCH  13  14
ENDBRANCH  11  13
ENDBRANCH   1  11
BRANCH   3  17
ATOM     17  N   UNL     1       3.629  43.440  52.929  1.00  0.00    -0.336 N 
ATOM     18  H   UNL     1       4.010  43.125  53.824  1.00  0.00     0.168 HD
BRANCH  17  19
ATOM     19  C   UNL     1       2.336  43.986  53.131  1.00  0.00     0.084 A 
ATOM     20  C   UNL     1       1.917  44.515  54.356  1.00  0.00     0.050 A 
ATOM     21  C   UNL     1       1.389  43.861  52.102  1.00  0.00     0.139 A 
ATOM     22  C   UNL     1       0.599  44.950  54.514  1.00  0.00     0.043 A 
ATOM     23  C   UNL     1       0.075  44.287  52.257  1.00  0.00     0.050 A 
ATOM     24  C   UNL     1      -0.322  44.842  53.472  1.00  0.00     0.024 A 
ATOM     25  Cl  UNL     1       0.100  45.614  56.023  1.00  0.00    -0.084 Cl
BRANCH  21  26
ATOM     26  O   UNL     1       1.756  43.327  50.897  1.00  0.00    -0.506 OA
ATOM     27  H   UNL     1       2.536  43.838  50.607  1.00  0.00     0.293 HD
ENDBRANCH  21  26
ENDBRANCH  17  19
ENDBRANCH   3  17
TORSDOF 7
ENDMDL
MODEL 13
REMARK VINA RESULT:    -7.890      3.013      5.509
REMARK INTER + INTRA:         -11.626
REMARK INTER:                 -10.869
REMARK INTRA:                  -0.757
REMARK UNBOUND:                -0.737
REMARK SMILES CCCCNc1nc(Nc2cc(Cl)ccc2O)c2cnn(C)c2n1
REMARK SMILES IDX 6 1 7 2 8 3 18 4 19 5 20 6 21 7 22 8 23 9 24 10 5 11 4 13
REMARK SMILES IDX 3 14 2 15 1 16 9 17 10 19 11 20 16 21 12 22 15 23 14 24
REMARK SMILES IDX 13 25 17 26
REMARK H PARENT 5 12 9 18 17 27
ROOT
ATOM      1  C   UNL     1       3.921  44.302  52.931  1.00  0.00     0.226 A 
ATOM      2  N   UNL     1       4.828  45.260  52.656  1.00  0.00    -0.195 NA
ATOM      3  C   UNL     1       5.681  45.109  51.616  1.00  0.00     0.147 A 
ATOM      4  C   UNL     1       5.574  43.954  50.841  1.00  0.00     0.082 A 
ATOM      5  C   UNL     1       6.174  43.383  49.701  1.00  0.00     0.149 A 
ATOM      6  N   UNL     1       5.652  42.193  49.381  1.00  0.00    -0.179 NA
ATOM      7  N   UNL     1       4.697  42.011  50.323  1.00  0.00    -0.250 N 
ATOM      8  C   UNL     1       3.892  40.816  50.294  1.00  0.00     0.176 C 
ATOM      9  C   UNL     1       4.612  43.041  51.220  1.00  0.00     0.165 A 
ATOM     10  N   UNL     1       3.768  43.155  52.256  1.00  0.00    -0.193 NA
ENDROOT
BRANCH   1  11
ATOM     11  N   UNL     1       3.046  44.470  53.997  1.00  0.00    -0.354 N 
ATOM     12  H   UNL     1       3.523  45.071  54.659  1.00  0.00     0.163 HD
BRANCH  11  13
ATOM     13  C   UNL     1       1.703  44.883  53.632  1.00  0.00     0.116 C 
BRANCH  13  14
ATOM     14  C   UNL     1       0.699  44.449  54.704  1.00  0.00     0.021 C 
BRANCH  14  15
ATOM     15  C   UNL     1      -0.382  43.478  54.215  1.00  0.00    -0.002 C 
ATOM     16  C   UNL     1       0.145  42.309  53.399  1.00  0.00     0.004 C 
ENDBRANCH  14  15
ENDBRANCH  13  14
ENDBRANCH  11  13
ENDBRANCH   1  11
BRANCH   3  17
ATOM     17  N   UNL     1       6.588  46.160  51.380  1.00  0.00    -0.336 N 
ATOM     18  H   UNL     1       6.015  47.006  51.408  1.00  0.00     0.168 HD
BRANCH  17  19
ATOM     19  C   UNL     1       7.796  46.384  52.086  1.00  0.00     0.084 A 
ATOM     20  C   UNL     1       7.868  47.166  53.243  1.00  0.00     0.050 A 
ATOM     21  C   UNL     1       8.996  45.919  51.523  1.00  0.00     0.139 A 
ATOM     22  C   UNL     1       9.107  47.424  53.836  1.00  0.00     0.043 A 
ATOM     23  C   UNL     1      10.231  46.179  52.106  1.00  0.00     0.050 A 
ATOM     24  C   UNL     1      10.286  46.933  53.277  1.00  0.00     0.024 A 
ATOM     25  Cl  UNL     1       9.178  48.377  55.270  1.00  0.00    -0.084 Cl
BRANCH  21  26
ATOM     26  O   UNL     1       8.968  45.170  50.378  1.00  0.00    -0.506 OA
ATOM     27  H   UNL     1       8.547  45.735  49.702  1.00  0.00     0.293 HD
ENDBRANCH  21  26
ENDBRANCH  17  19
ENDBRANCH   3  17
TORSDOF 7
ENDMDL
MODEL 14
REMARK VINA RESULT:    -7.871      2.663      6.332
REMARK INTER + INTRA:         -11.599
REMARK INTER:                 -10.745
REMARK INTRA:                  -0.854
REMARK UNBOUND:                -0.737
REMARK SMILES CCCCNc1nc(Nc2cc(Cl)ccc2O)c2cnn(C)c2n1
REMARK SMILES IDX 6 1 7 2 8 3 18 4 19 5 20 6 21 7 22 8 23 9 24 10 5 11 4 13
REMARK SMILES IDX 3 14 2 15 1 16 9 17 10 19 11 20 16 21 12 22 15 23 14 24
REMARK SMILES IDX 13 25 17 26
REMARK H PARENT 5 12 9 18 17 27
ROOT
ATOM      1  C   UNL     1       6.616  45.679  51.210  1.00  0.00     0.226 A 
ATOM      2  N   UNL     1       5.473  46.184  51.715  1.00  0.00    -0.195 NA
ATOM      3  C   UNL     1       4.361  45.414  51.779  1.00  0.00     0.147 A 
ATOM      4  C   UNL     1       4.448  44.096  51.329  1.00  0.00     0.082 A 
ATOM      5  C   UNL     1       3.627  42.955  51.224  1.00  0.00     0.149 A 
ATOM      6  N   UNL     1       4.262  41.908  50.686  1.00  0.00    -0.179 NA
ATOM      7  N   UNL     1       5.508  42.385  50.458  1.00  0.00    -0.250 N 
ATOM      8  C   UNL     1       6.505  41.517  49.883  1.00  0.00     0.176 C 
ATOM      9  C   UNL     1       5.669  43.692  50.827  1.00  0.00     0.165 A 
ATOM     10  N   UNL     1       6.779  44.438  50.734  1.00  0.00    -0.193 NA
ENDROOT
BRANCH   1  11
ATOM     11  N   UNL     1       7.753  46.476  51.155  1.00  0.00    -0.354 N 
ATOM     12  H   UNL     1       7.671  47.135  51.921  1.00  0.00     0.163 HD
BRANCH  11  13
ATOM     13  C   UNL     1       9.010  45.753  51.084  1.00  0.00     0.116 C 
BRANCH  13  14
ATOM     14  C   UNL     1       9.996  46.289  52.126  1.00  0.00     0.021 C 
BRANCH  14  15
ATOM     15  C   UNL     1       9.430  47.381  53.041  1.00  0.00    -0.002 C 
ATOM     16  C   UNL     1       9.908  47.305  54.482  1.00  0.00     0.004 C 
ENDBRANCH  14  15
ENDBRANCH  13  14
ENDBRANCH  11  13
ENDBRANCH   1  11
BRANCH   3  17
ATOM     17  N   UNL     1       3.211  46.004  52.336  1.00  0.00    -0.336 N 
ATOM     18  H   UNL     1       2.540  46.039  51.566  1.00  0.00     0.168 HD
BRANCH  17  19
ATOM     19  C   UNL     1       2.554  45.579  53.518  1.00  0.00     0.084 A 
ATOM     20  C   UNL     1       1.324  44.912  53.506  1.00  0.00     0.050 A 
ATOM     21  C   UNL     1       3.086  45.970  54.757  1.00  0.00     0.139 A 
ATOM     22  C   UNL     1       0.685  44.605  54.710  1.00  0.00     0.043 A 
ATOM     23  C   UNL     1       2.450  45.672  55.957  1.00  0.00     0.050 A 
ATOM     24  C   UNL     1       1.242  44.978  55.933  1.00  0.00     0.024 A 
ATOM     25  Cl  UNL     1      -0.821  43.770  54.681  1.00  0.00    -0.084 Cl
BRANCH  21  26
ATOM     26  O   UNL     1       4.275  46.645  54.808  1.00  0.00    -0.506 OA
ATOM     27  H   UNL     1       4.140  47.372  55.445  1.00  0.00     0.293 HD
ENDBRANCH  21  26
ENDBRANCH  17  19
ENDBRANCH   3  17
TORSDOF 7
ENDMDL
MODEL 15
REMARK VINA RESULT:    -7.824      2.876      5.891
REMARK INTER + INTRA:         -11.533
REMARK INTER:                 -10.695
REMARK INTRA:                  -0.838
REMARK UNBOUND:                -0.737
REMARK SMILES CCCCNc1nc(Nc2cc(Cl)ccc2O)c2cnn(C)c2n1
REMARK SMILES IDX 6 1 7 2 8 3 18 4 19 5 20 6 21 7 22 8 23 9 24 10 5 11 4 13
REMARK SMILES IDX 3 14 2 15 1 16 9 17 10 19 11 20 16 21 12 22 15 23 14 24
REMARK SMILES IDX 13 25 17 26
REMARK H PARENT 5 12 9 18 17 27
ROOT
ATOM      1  C   UNL     1       5.953  45.991  52.737  1.00  0.00     0.226 A 
ATOM      2  N   UNL     1       4.856  45.617  53.425  1.00  0.00    -0.195 NA
ATOM      3  C   UNL     1       4.173  44.505  53.063  1.00  0.00     0.147 A 
ATOM      4  C   UNL     1       4.653  43.763  51.983  1.00  0.00     0.082 A 
ATOM      5  C   UNL     1       4.334  42.582  51.283  1.00  0.00     0.149 A 
ATOM      6  N   UNL     1       5.179  42.332  50.276  1.00  0.00    -0.179 NA
ATOM      7  N   UNL     1       6.055  43.361  50.344  1.00  0.00    -0.250 N 
ATOM      8  C   UNL     1       7.145  43.427  49.404  1.00  0.00     0.176 C 
ATOM      9  C   UNL     1       5.782  44.245  51.352  1.00  0.00     0.165 A 
ATOM     10  N   UNL     1       6.465  45.353  51.677  1.00  0.00    -0.193 NA
ENDROOT
BRANCH   1  11
ATOM     11  N   UNL     1       6.649  47.130  53.121  1.00  0.00    -0.354 N 
ATOM     12  H   UNL     1       5.947  47.833  53.322  1.00  0.00     0.163 HD
BRANCH  11  13
ATOM     13  C   UNL     1       7.643  46.924  54.159  1.00  0.00     0.116 C 
BRANCH  13  14
ATOM     14  C   UNL     1       8.920  47.709  53.842  1.00  0.00     0.021 C 
BRANCH  14  15
ATOM     15  C   UNL     1      10.104  46.850  53.387  1.00  0.00    -0.002 C 
ATOM     16  C   UNL     1      10.064  46.446  51.923  1.00  0.00     0.004 C 
ENDBRANCH  14  15
ENDBRANCH  13  14
ENDBRANCH  11  13
ENDBRANCH   1  11
BRANCH   3  17
ATOM     17  N   UNL     1       3.048  44.169  53.840  1.00  0.00    -0.336 N 
ATOM     18  H   UNL     1       3.092  44.798  54.644  1.00  0.00     0.168 HD
BRANCH  17  19
ATOM     19  C   UNL     1       1.713  44.092  53.371  1.00  0.00     0.084 A 
ATOM     20  C   UNL     1       1.050  42.879  53.157  1.00  0.00     0.050 A 
ATOM     21  C   UNL     1       1.077  45.278  52.967  1.00  0.00     0.139 A 
ATOM     22  C   UNL     1      -0.233  42.873  52.603  1.00  0.00     0.043 A 
ATOM     23  C   UNL     1      -0.197  45.275  52.410  1.00  0.00     0.050 A 
ATOM     24  C   UNL     1      -0.860  44.062  52.232  1.00  0.00     0.024 A 
ATOM     25  Cl  UNL     1      -1.043  41.373  52.360  1.00  0.00    -0.084 Cl
BRANCH  21  26
ATOM     26  O   UNL     1       1.703  46.481  53.138  1.00  0.00    -0.506 OA
ATOM     27  H   UNL     1       2.274  46.374  53.923  1.00  0.00     0.293 HD
ENDBRANCH  21  26
ENDBRANCH  17  19
ENDBRANCH   3  17
TORSDOF 7
ENDMDL
MODEL 16
REMARK VINA RESULT:    -7.781      3.458      6.074
REMARK INTER + INTRA:         -11.475
REMARK INTER:                 -11.026
REMARK INTRA:                  -0.449
REMARK UNBOUND:                -0.737
REMARK SMILES CCCCNc1nc(Nc2cc(Cl)ccc2O)c2cnn(C)c2n1
REMARK SMILES IDX 6 1 7 2 8 3 18 4 19 5 20 6 21 7 22 8 23 9 24 10 5 11 4 13
REMARK SMILES IDX 3 14 2 15 1 16 9 17 10 19 11 20 16 21 12 22 15 23 14 24
REMARK SMILES IDX 13 25 17 26
REMARK H PARENT 5 12 9 18 17 27
ROOT
ATOM      1  C   UNL     1       2.490  45.563  53.353  1.00  0.00     0.226 A 
ATOM      2  N   UNL     1       3.086  44.501  52.776  1.00  0.00    -0.195 NA
ATOM      3  C   UNL     1       2.452  43.306  52.735  1.00  0.00     0.147 A 
ATOM      4  C   UNL     1       1.171  43.223  53.284  1.00  0.00     0.082 A 
ATOM      5  C   UNL     1       0.147  42.268  53.446  1.00  0.00     0.149 A 
ATOM      6  N   UNL     1      -0.924  42.760  54.080  1.00  0.00    -0.179 NA
ATOM      7  N   UNL     1      -0.582  44.049  54.311  1.00  0.00    -0.250 N 
ATOM      8  C   UNL     1      -1.516  44.921  54.979  1.00  0.00     0.176 C 
ATOM      9  C   UNL     1       0.665  44.374  53.851  1.00  0.00     0.165 A 
ATOM     10  N   UNL     1       1.279  45.565  53.924  1.00  0.00    -0.193 NA
ENDROOT
BRANCH   1  11
ATOM     11  N   UNL     1       3.148  46.787  53.385  1.00  0.00    -0.354 N 
ATOM     12  H   UNL     1       3.187  47.059  54.361  1.00  0.00     0.163 HD
BRANCH  11  13
ATOM     13  C   UNL     1       4.414  46.824  52.675  1.00  0.00     0.116 C 
BRANCH  13  14
ATOM     14  C   UNL     1       5.577  46.978  53.660  1.00  0.00     0.021 C 
BRANCH  14  15
ATOM     15  C   UNL     1       6.313  45.675  53.991  1.00  0.00    -0.002 C 
ATOM     16  C   UNL     1       5.758  44.926  55.191  1.00  0.00     0.004 C 
ENDBRANCH  14  15
ENDBRANCH  13  14
ENDBRANCH  11  13
ENDBRANCH   1  11
BRANCH   3  17
ATOM     17  N   UNL     1       3.130  42.248  52.100  1.00  0.00    -0.336 N 
ATOM     18  H   UNL     1       2.394  41.710  51.639  1.00  0.00     0.168 HD
BRANCH  17  19
ATOM     19  C   UNL     1       4.237  42.382  51.226  1.00  0.00     0.084 A 
ATOM     20  C   UNL     1       5.117  43.468  51.275  1.00  0.00     0.050 A 
ATOM     21  C   UNL     1       4.375  41.461  50.175  1.00  0.00     0.139 A 
ATOM     22  C   UNL     1       6.133  43.587  50.323  1.00  0.00     0.043 A 
ATOM     23  C   UNL     1       5.380  41.579  49.222  1.00  0.00     0.050 A 
ATOM     24  C   UNL     1       6.271  42.649  49.300  1.00  0.00     0.024 A 
ATOM     25  Cl  UNL     1       7.219  44.921  50.404  1.00  0.00    -0.084 Cl
BRANCH  21  26
ATOM     26  O   UNL     1       3.519  40.399  50.080  1.00  0.00    -0.506 OA
ATOM     27  H   UNL     1       3.426  40.052  50.988  1.00  0.00     0.293 HD
ENDBRANCH  21  26
ENDBRANCH  17  19
ENDBRANCH   3  17
TORSDOF 7
ENDMDL
MODEL 17
REMARK VINA RESULT:    -7.655      3.478      4.812
REMARK INTER + INTRA:         -11.300
REMARK INTER:                 -10.341
REMARK INTRA:                  -0.959
REMARK UNBOUND:                -0.737
REMARK SMILES CCCCNc1nc(Nc2cc(Cl)ccc2O)c2cnn(C)c2n1
REMARK SMILES IDX 6 1 7 2 8 3 18 4 19 5 20 6 21 7 22 8 23 9 24 10 5 11 4 13
REMARK SMILES IDX 3 14 2 15 1 16 9 17 10 19 11 20 16 21 12 22 15 23 14 24
REMARK SMILES IDX 13 25 17 26
REMARK H PARENT 5 12 9 18 17 27
ROOT
ATOM      1  C   UNL     1       4.009  42.707  51.908  1.00  0.00     0.226 A 
ATOM      2  N   UNL     1       4.356  41.851  50.926  1.00  0.00    -0.195 NA
ATOM      3  C   UNL     1       5.365  42.162  50.079  1.00  0.00     0.147 A 
ATOM      4  C   UNL     1       6.034  43.372  50.272  1.00  0.00     0.082 A 
ATOM      5  C   UNL     1       7.110  44.089  49.711  1.00  0.00     0.149 A 
ATOM      6  N   UNL     1       7.328  45.258  50.323  1.00  0.00    -0.179 NA
ATOM      7  N   UNL     1       6.388  45.279  51.296  1.00  0.00    -0.250 N 
ATOM      8  C   UNL     1       6.321  46.405  52.193  1.00  0.00     0.176 C 
ATOM      9  C   UNL     1       5.588  44.169  51.306  1.00  0.00     0.165 A 
ATOM     10  N   UNL     1       4.579  43.895  52.147  1.00  0.00    -0.193 NA
ENDROOT
BRANCH   1  11
ATOM     11  N   UNL     1       2.975  42.375  52.775  1.00  0.00    -0.354 N 
ATOM     12  H   UNL     1       3.328  42.546  53.710  1.00  0.00     0.163 HD
BRANCH  11  13
ATOM     13  C   UNL     1       1.694  42.984  52.468  1.00  0.00     0.116 C 
BRANCH  13  14
ATOM     14  C   UNL     1       1.026  43.500  53.747  1.00  0.00     0.021 C 
BRANCH  14  15
ATOM     15  C   UNL     1       1.663  44.763  54.337  1.00  0.00    -0.002 C 
ATOM     16  C   UNL     1       1.457  44.931  55.834  1.00  0.00     0.004 C 
ENDBRANCH  14  15
ENDBRANCH  13  14
ENDBRANCH  11  13
ENDBRANCH   1  11
BRANCH   3  17
ATOM     17  N   UNL     1       5.681  41.211  49.091  1.00  0.00    -0.336 N 
ATOM     18  H   UNL     1       5.599  40.309  49.564  1.00  0.00     0.168 HD
BRANCH  17  19
ATOM     19  C   UNL     1       5.090  41.127  47.805  1.00  0.00     0.084 A 
ATOM     20  C   UNL     1       5.602  41.794  46.687  1.00  0.00     0.050 A 
ATOM     21  C   UNL     1       3.859  40.464  47.677  1.00  0.00     0.139 A 
ATOM     22  C   UNL     1       4.917  41.746  45.471  1.00  0.00     0.043 A 
ATOM     23  C   UNL     1       3.171  40.419  46.471  1.00  0.00     0.050 A 
ATOM     24  C   UNL     1       3.707  41.060  45.356  1.00  0.00     0.024 A 
ATOM     25  Cl  UNL     1       5.567  42.559  44.099  1.00  0.00    -0.084 Cl
BRANCH  21  26
ATOM     26  O   UNL     1       3.314  39.820  48.755  1.00  0.00    -0.506 OA
ATOM     27  H   UNL     1       2.476  40.284  48.945  1.00  0.00     0.293 HD
ENDBRANCH  21  26
ENDBRANCH  17  19
ENDBRANCH   3  17
TORSDOF 7
ENDMDL
MODEL 18
REMARK VINA RESULT:    -7.630      2.186      4.721
REMARK INTER + INTRA:         -11.266
REMARK INTER:                 -10.270
REMARK INTRA:                  -0.996
REMARK UNBOUND:                -0.737
REMARK SMILES CCCCNc1nc(Nc2cc(Cl)ccc2O)c2cnn(C)c2n1
REMARK SMILES IDX 6 1 7 2 8 3 18 4 19 5 20 6 21 7 22 8 23 9 24 10 5 11 4 13
REMARK SMILES IDX 3 14 2 15 1 16 9 17 10 19 11 20 16 21 12 22 15 23 14 24
REMARK SMILES IDX 13 25 17 26
REMARK H PARENT 5 12 9 18 17 27
ROOT
ATOM      1  C   UNL     1       7.112  45.579  50.756  1.00  0.00     0.226 A 
ATOM      2  N   UNL     1       5.784  45.755  50.905  1.00  0.00    -0.195 NA
ATOM      3  C   UNL     1       5.294  46.286  52.049  1.00  0.00     0.147 A 
ATOM      4  C   UNL     1       6.202  46.658  53.042  1.00  0.00     0.082 A 
ATOM      5  C   UNL     1       6.191  47.251  54.321  1.00  0.00     0.149 A 
ATOM      6  N   UNL     1       7.416  47.375  54.845  1.00  0.00    -0.179 NA
ATOM      7  N   UNL     1       8.218  46.869  53.880  1.00  0.00    -0.250 N 
ATOM      8  C   UNL     1       9.645  46.847  54.084  1.00  0.00     0.176 C 
ATOM      9  C   UNL     1       7.537  46.426  52.779  1.00  0.00     0.165 A 
ATOM     10  N   UNL     1       8.047  45.883  51.664  1.00  0.00    -0.193 NA
ENDROOT
BRANCH   1  11
ATOM     11  N   UNL     1       7.605  45.037  49.574  1.00  0.00    -0.354 N 
ATOM     12  H   UNL     1       8.405  45.605  49.318  1.00  0.00     0.163 HD
BRANCH  11  13
ATOM     13  C   UNL     1       7.837  43.605  49.603  1.00  0.00     0.116 C 
BRANCH  13  14
ATOM     14  C   UNL     1       6.599  42.851  49.107  1.00  0.00     0.021 C 
BRANCH  14  15
ATOM     15  C   UNL     1       6.343  41.510  49.805  1.00  0.00    -0.002 C 
ATOM     16  C   UNL     1       4.997  41.411  50.504  1.00  0.00     0.004 C 
ENDBRANCH  14  15
ENDBRANCH  13  14
ENDBRANCH  11  13
ENDBRANCH   1  11
BRANCH   3  17
ATOM     17  N   UNL     1       3.899  46.456  52.125  1.00  0.00    -0.336 N 
ATOM     18  H   UNL     1       3.600  46.570  51.154  1.00  0.00     0.168 HD
BRANCH  17  19
ATOM     19  C   UNL     1       2.997  45.597  52.801  1.00  0.00     0.084 A 
ATOM     20  C   UNL     1       2.565  45.826  54.111  1.00  0.00     0.050 A 
ATOM     21  C   UNL     1       2.633  44.389  52.183  1.00  0.00     0.139 A 
ATOM     22  C   UNL     1       1.750  44.889  54.752  1.00  0.00     0.043 A 
ATOM     23  C   UNL     1       1.828  43.451  52.819  1.00  0.00     0.050 A 
ATOM     24  C   UNL     1       1.378  43.706  54.113  1.00  0.00     0.024 A 
ATOM     25  Cl  UNL     1       1.213  45.192  56.360  1.00  0.00    -0.084 Cl
BRANCH  21  26
ATOM     26  O   UNL     1       3.056  44.118  50.910  1.00  0.00    -0.506 OA
ATOM     27  H   UNL     1       3.844  43.550  51.008  1.00  0.00     0.293 HD
ENDBRANCH  21  26
ENDBRANCH  17  19
ENDBRANCH   3  17
TORSDOF 7
ENDMDL
MODEL 19
REMARK VINA RESULT:    -7.595      3.226      6.473
REMARK INTER + INTRA:         -11.219
REMARK INTER:                 -10.741
REMARK INTRA:                  -0.478
REMARK UNBOUND:                -0.737
REMARK SMILES CCCCNc1nc(Nc2cc(Cl)ccc2O)c2cnn(C)c2n1
REMARK SMILES IDX 6 1 7 2 8 3 18 4 19 5 20 6 21 7 22 8 23 9 24 10 5 11 4 13
REMARK SMILES IDX 3 14 2 15 1 16 9 17 10 19 11 20 16 21 12 22 15 23 14 24
REMARK SMILES IDX 13 25 17 26
REMARK H PARENT 5 12 9 18 17 27
ROOT
ATOM      1  C   UNL     1       2.863  43.089  52.290  1.00  0.00     0.226 A 
ATOM      2  N   UNL     1       4.017  43.686  52.653  1.00  0.00    -0.195 NA
ATOM      3  C   UNL     1       4.034  44.559  53.687  1.00  0.00     0.147 A 
ATOM      4  C   UNL     1       2.838  44.797  54.365  1.00  0.00     0.082 A 
ATOM      5  C   UNL     1       2.373  45.549  55.463  1.00  0.00     0.149 A 
ATOM      6  N   UNL     1       1.061  45.394  55.679  1.00  0.00    -0.179 NA
ATOM      7  N   UNL     1       0.690  44.521  54.714  1.00  0.00    -0.250 N 
ATOM      8  C   UNL     1      -0.685  44.093  54.637  1.00  0.00     0.176 C 
ATOM      9  C   UNL     1       1.720  44.133  53.902  1.00  0.00     0.165 A 
ATOM     10  N   UNL     1       1.671  43.280  52.868  1.00  0.00    -0.193 NA
ENDROOT
BRANCH   1  11
ATOM     11  N   UNL     1       2.859  42.190  51.231  1.00  0.00    -0.354 N 
ATOM     12  H   UNL     1       2.574  42.721  50.414  1.00  0.00     0.163 HD
BRANCH  11  13
ATOM     13  C   UNL     1       4.074  41.411  51.079  1.00  0.00     0.116 C 
BRANCH  13  14
ATOM     14  C   UNL     1       4.312  41.072  49.604  1.00  0.00     0.021 C 
BRANCH  14  15
ATOM     15  C   UNL     1       5.646  41.570  49.039  1.00  0.00    -0.002 C 
ATOM     16  C   UNL     1       6.826  41.419  49.985  1.00  0.00     0.004 C 
ENDBRANCH  14  15
ENDBRANCH  13  14
ENDBRANCH  11  13
ENDBRANCH   1  11
BRANCH   3  17
ATOM     17  N   UNL     1       5.278  45.128  54.017  1.00  0.00    -0.336 N 
ATOM     18  H   UNL     1       5.757  44.405  54.558  1.00  0.00     0.168 HD
BRANCH  17  19
ATOM     19  C   UNL     1       6.187  45.717  53.103  1.00  0.00     0.084 A 
ATOM     20  C   UNL     1       6.532  45.122  51.884  1.00  0.00     0.050 A 
ATOM     21  C   UNL     1       6.881  46.872  53.498  1.00  0.00     0.139 A 
ATOM     22  C   UNL     1       7.506  45.708  51.072  1.00  0.00     0.043 A 
ATOM     23  C   UNL     1       7.855  47.455  52.696  1.00  0.00     0.050 A 
ATOM     24  C   UNL     1       8.166  46.871  51.470  1.00  0.00     0.024 A 
ATOM     25  Cl  UNL     1       7.909  44.974  49.568  1.00  0.00    -0.084 Cl
BRANCH  21  26
ATOM     26  O   UNL     1       6.588  47.469  54.694  1.00  0.00    -0.506 OA
ATOM     27  H   UNL     1       5.905  46.908  55.110  1.00  0.00     0.293 HD
ENDBRANCH  21  26
ENDBRANCH  17  19
ENDBRANCH   3  17
TORSDOF 7
ENDMDL
MODEL 20
REMARK VINA RESULT:    -7.568      2.289      4.976
REMARK INTER + INTRA:         -11.181
REMARK INTER:                 -10.124
REMARK INTRA:                  -1.057
REMARK UNBOUND:                -0.737
REMARK SMILES CCCCNc1nc(Nc2cc(Cl)ccc2O)c2cnn(C)c2n1
REMARK SMILES IDX 6 1 7 2 8 3 18 4 19 5 20 6 21 7 22 8 23 9 24 10 5 11 4 13
REMARK SMILES IDX 3 14 2 15 1 16 9 17 10 19 11 20 16 21 12 22 15 23 14 24
REMARK SMILES IDX 13 25 17 26
REMARK H PARENT 5 12 9 18 17 27
ROOT
ATOM      1  C   UNL     1       6.637  44.446  50.168  1.00  0.00     0.226 A 
ATOM      2  N   UNL     1       5.468  44.895  50.667  1.00  0.00    -0.195 NA
ATOM      3  C   UNL     1       5.458  45.900  51.574  1.00  0.00     0.147 A 
ATOM      4  C   UNL     1       6.681  46.457  51.949  1.00  0.00     0.082 A 
ATOM      5  C   UNL     1       7.166  47.485  52.783  1.00  0.00     0.149 A 
ATOM      6  N   UNL     1       8.500  47.584  52.760  1.00  0.00    -0.179 NA
ATOM      7  N   UNL     1       8.868  46.616  51.889  1.00  0.00    -0.250 N 
ATOM      8  C   UNL     1      10.265  46.425  51.590  1.00  0.00     0.176 C 
ATOM      9  C   UNL     1       7.812  45.913  51.376  1.00  0.00     0.165 A 
ATOM     10  N   UNL     1       7.852  44.906  50.491  1.00  0.00    -0.193 NA
ENDROOT
BRANCH   1  11
ATOM     11  N   UNL     1       6.634  43.418  49.233  1.00  0.00    -0.354 N 
ATOM     12  H   UNL     1       7.433  43.584  48.631  1.00  0.00     0.163 HD
BRANCH  11  13
ATOM     13  C   UNL     1       6.538  42.080  49.789  1.00  0.00     0.116 C 
BRANCH  13  14
ATOM     14  C   UNL     1       5.485  41.261  49.036  1.00  0.00     0.021 C 
BRANCH  14  15
ATOM     15  C   UNL     1       4.121  41.180  49.730  1.00  0.00    -0.002 C 
ATOM     16  C   UNL     1       4.133  41.590  51.194  1.00  0.00     0.004 C 
ENDBRANCH  14  15
ENDBRANCH  13  14
ENDBRANCH  11  13
ENDBRANCH   1  11
BRANCH   3  17
ATOM     17  N   UNL     1       4.198  46.327  52.036  1.00  0.00    -0.336 N 
ATOM     18  H   UNL     1       3.645  46.465  51.188  1.00  0.00     0.168 HD
BRANCH  17  19
ATOM     19  C   UNL     1       3.410  45.669  53.013  1.00  0.00     0.084 A 
ATOM     20  C   UNL     1       2.525  44.631  52.703  1.00  0.00     0.050 A 
ATOM     21  C   UNL     1       3.409  46.173  54.324  1.00  0.00     0.139 A 
ATOM     22  C   UNL     1       1.707  44.089  53.698  1.00  0.00     0.043 A 
ATOM     23  C   UNL     1       2.593  45.642  55.315  1.00  0.00     0.050 A 
ATOM     24  C   UNL     1       1.739  44.586  55.001  1.00  0.00     0.024 A 
ATOM     25  Cl  UNL     1       0.633  42.801  53.306  1.00  0.00    -0.084 Cl
BRANCH  21  26
ATOM     26  O   UNL     1       4.244  47.203  54.659  1.00  0.00    -0.506 OA
ATOM     27  H   UNL     1       3.701  48.013  54.606  1.00  0.00     0.293 HD
ENDBRANCH  21  26
ENDBRANCH  17  19
ENDBRANCH   3  17
TORSDOF 7
ENDMDL
