MODEL 1
REMARK VINA RESULT:    -7.952      0.000      0.000
REMARK INTER + INTRA:         -12.919
REMARK INTER:                 -11.671
REMARK INTRA:                  -1.248
REMARK UNBOUND:                -1.248
REMARK SMILES CCOCCCNc1nc(Nc2ccccc2)c2cnn(C)c2n1
REMARK SMILES IDX 5 1 4 2 3 3 2 4 1 5 6 6 7 7 8 9 9 10 24 11 10 12 23 13 18 14
REMARK SMILES IDX 21 15 19 16 20 17 22 18 11 19 12 21 13 22 17 23 14 24 16 25
REMARK SMILES IDX 15 26
REMARK H PARENT 7 8 11 20
ROOT
ATOM      1  C   UNL     1       1.039  44.379  53.808  1.00  0.00     0.050 C 
ENDROOT
BRANCH   1   2
ATOM      2  C   UNL     1       1.614  45.442  54.737  1.00  0.00     0.162 C 
BRANCH   2   3
ATOM      3  O   UNL     1       2.822  44.933  55.301  1.00  0.00    -0.382 OA
BRANCH   3   4
ATOM      4  C   UNL     1       3.845  45.917  55.441  1.00  0.00     0.156 C 
ATOM      5  C   UNL     1       5.211  45.281  55.619  1.00  0.00     0.035 C 
ENDBRANCH   3   4
ENDBRANCH   2   3
ENDBRANCH   1   2
BRANCH   1   6
ATOM      6  C   UNL     1       1.885  44.167  52.556  1.00  0.00     0.118 C 
BRANCH   6   7
ATOM      7  N   UNL     1       3.108  43.450  52.873  1.00  0.00    -0.354 N 
ATOM      8  H   UNL     1       3.061  42.438  52.860  1.00  0.00     0.163 HD
BRANCH   7   9
ATOM      9  C   UNL     1       4.205  43.786  52.086  1.00  0.00     0.226 A 
ATOM     10  N   UNL     1       4.841  44.954  52.293  1.00  0.00    -0.195 NA
ATOM     11  N   UNL     1       4.523  42.874  51.157  1.00  0.00    -0.193 NA
ATOM     12  C   UNL     1       5.905  45.298  51.526  1.00  0.00     0.147 A 
ATOM     13  C   UNL     1       5.600  43.221  50.437  1.00  0.00     0.165 A 
ATOM     14  C   UNL     1       6.332  44.384  50.560  1.00  0.00     0.082 A 
ATOM     15  N   UNL     1       6.206  42.498  49.445  1.00  0.00    -0.250 N 
ATOM     16  C   UNL     1       7.367  44.250  49.611  1.00  0.00     0.149 A 
ATOM     17  N   UNL     1       7.289  43.111  48.913  1.00  0.00    -0.179 NA
ATOM     18  C   UNL     1       5.816  41.201  48.955  1.00  0.00     0.176 C 
BRANCH  12  19
ATOM     19  N   UNL     1       6.528  46.520  51.816  1.00  0.00    -0.339 N 
ATOM     20  H   UNL     1       6.501  47.087  50.973  1.00  0.00     0.168 HD
BRANCH  19  21
ATOM     21  C   UNL     1       7.696  46.766  52.564  1.00  0.00     0.040 A 
ATOM     22  C   UNL     1       8.936  46.537  51.950  1.00  0.00     0.026 A 
ATOM     23  C   UNL     1       7.684  47.206  53.892  1.00  0.00     0.026 A 
ATOM     24  C   UNL     1      10.132  46.760  52.638  1.00  0.00     0.002 A 
ATOM     25  C   UNL     1       8.879  47.431  54.583  1.00  0.00     0.002 A 
ATOM     26  C   UNL     1      10.102  47.209  53.955  1.00  0.00     0.000 A 
ENDBRANCH  19  21
ENDBRANCH  12  19
ENDBRANCH   7   9
ENDBRANCH   6   7
ENDBRANCH   1   6
TORSDOF 8
ENDMDL
MODEL 2
REMARK VINA RESULT:    -7.900      1.176      1.621
REMARK INTER + INTRA:         -12.843
REMARK INTER:                 -11.445
REMARK INTRA:                  -1.398
REMARK UNBOUND:                -1.248
REMARK SMILES CCOCCCNc1nc(Nc2ccccc2)c2cnn(C)c2n1
REMARK SMILES IDX 5 1 4 2 3 3 2 4 1 5 6 6 7 7 8 9 9 10 24 11 10 12 23 13 18 14
REMARK SMILES IDX 21 15 19 16 20 17 22 18 11 19 12 21 13 22 17 23 14 24 16 25
REMARK SMILES IDX 15 26
REMARK H PARENT 7 8 11 20
ROOT
ATOM      1  C   UNL     1       1.675  45.368  54.474  1.00  0.00     0.050 C 
ENDROOT
BRANCH   1   2
ATOM      2  C   UNL     1       2.892  45.567  55.371  1.00  0.00     0.162 C 
BRANCH   2   3
ATOM      3  O   UNL     1       3.696  46.602  54.806  1.00  0.00    -0.382 OA
BRANCH   3   4
ATOM      4  C   UNL     1       5.097  46.392  54.975  1.00  0.00     0.156 C 
ATOM      5  C   UNL     1       5.427  44.917  55.114  1.00  0.00     0.035 C 
ENDBRANCH   3   4
ENDBRANCH   2   3
ENDBRANCH   1   2
BRANCH   1   6
ATOM      6  C   UNL     1       2.019  44.677  53.156  1.00  0.00     0.118 C 
BRANCH   6   7
ATOM      7  N   UNL     1       2.741  45.576  52.274  1.00  0.00    -0.354 N 
ATOM      8  H   UNL     1       3.077  46.443  52.679  1.00  0.00     0.163 HD
BRANCH   7   9
ATOM      9  C   UNL     1       3.838  45.011  51.632  1.00  0.00     0.226 A 
ATOM     10  N   UNL     1       4.953  45.744  51.448  1.00  0.00    -0.195 NA
ATOM     11  N   UNL     1       3.660  43.743  51.238  1.00  0.00    -0.193 NA
ATOM     12  C   UNL     1       6.025  45.208  50.814  1.00  0.00     0.147 A 
ATOM     13  C   UNL     1       4.747  43.225  50.647  1.00  0.00     0.165 A 
ATOM     14  C   UNL     1       5.941  43.875  50.407  1.00  0.00     0.082 A 
ATOM     15  N   UNL     1       4.909  41.952  50.171  1.00  0.00    -0.250 N 
ATOM     16  C   UNL     1       6.758  42.896  49.804  1.00  0.00     0.149 A 
ATOM     17  N   UNL     1       6.132  41.725  49.639  1.00  0.00    -0.179 NA
ATOM     18  C   UNL     1       3.941  40.886  50.201  1.00  0.00     0.176 C 
BRANCH  12  19
ATOM     19  N   UNL     1       7.156  46.026  50.679  1.00  0.00    -0.339 N 
ATOM     20  H   UNL     1       7.600  45.794  49.794  1.00  0.00     0.168 HD
BRANCH  19  21
ATOM     21  C   UNL     1       8.108  46.392  51.650  1.00  0.00     0.040 A 
ATOM     22  C   UNL     1       7.682  47.171  52.735  1.00  0.00     0.026 A 
ATOM     23  C   UNL     1       9.460  46.038  51.578  1.00  0.00     0.026 A 
ATOM     24  C   UNL     1       8.578  47.570  53.731  1.00  0.00     0.002 A 
ATOM     25  C   UNL     1      10.359  46.434  52.573  1.00  0.00     0.002 A 
ATOM     26  C   UNL     1       9.917  47.199  53.650  1.00  0.00     0.000 A 
ENDBRANCH  19  21
ENDBRANCH  12  19
ENDBRANCH   7   9
ENDBRANCH   6   7
ENDBRANCH   1   6
TORSDOF 8
ENDMDL
MODEL 3
REMARK VINA RESULT:    -7.827      1.348      2.446
REMARK INTER + INTRA:         -12.737
REMARK INTER:                 -11.401
REMARK INTRA:                  -1.335
REMARK UNBOUND:                -1.248
REMARK SMILES CCOCCCNc1nc(Nc2ccccc2)c2cnn(C)c2n1
REMARK SMILES IDX 5 1 4 2 3 3 2 4 1 5 6 6 7 7 8 9 9 10 24 11 10 12 23 13 18 14
REMARK SMILES IDX 21 15 19 16 20 17 22 18 11 19 12 21 13 22 17 23 14 24 16 25
REMARK SMILES IDX 15 26
REMARK H PARENT 7 8 11 20
ROOT
ATOM      1  C   UNL     1       0.849  45.313  55.001  1.00  0.00     0.050 C 
ENDROOT
BRANCH   1   2
ATOM      2  C   UNL     1       0.055  44.638  53.888  1.00  0.00     0.162 C 
BRANCH   2   3
ATOM      3  O   UNL     1       0.373  45.288  52.658  1.00  0.00    -0.382 OA
BRANCH   3   4
ATOM      4  C   UNL     1       0.000  44.538  51.504  1.00  0.00     0.156 C 
ATOM      5  C   UNL     1       0.235  43.052  51.704  1.00  0.00     0.035 C 
ENDBRANCH   3   4
ENDBRANCH   2   3
ENDBRANCH   1   2
BRANCH   1   6
ATOM      6  C   UNL     1       2.352  45.327  54.732  1.00  0.00     0.118 C 
BRANCH   6   7
ATOM      7  N   UNL     1       2.779  44.079  54.125  1.00  0.00    -0.354 N 
ATOM      8  H   UNL     1       2.055  43.494  53.722  1.00  0.00     0.163 HD
BRANCH   7   9
ATOM      9  C   UNL     1       3.749  44.210  53.137  1.00  0.00     0.226 A 
ATOM     10  N   UNL     1       4.527  45.309  53.107  1.00  0.00    -0.195 NA
ATOM     11  N   UNL     1       3.806  43.187  52.273  1.00  0.00    -0.193 NA
ATOM     12  C   UNL     1       5.469  45.454  52.143  1.00  0.00     0.147 A 
ATOM     13  C   UNL     1       4.770  43.337  51.352  1.00  0.00     0.165 A 
ATOM     14  C   UNL     1       5.626  44.413  51.225  1.00  0.00     0.082 A 
ATOM     15  N   UNL     1       5.117  42.462  50.360  1.00  0.00    -0.250 N 
ATOM     16  C   UNL     1       6.459  44.072  50.140  1.00  0.00     0.149 A 
ATOM     17  N   UNL     1       6.145  42.892  49.593  1.00  0.00    -0.179 NA
ATOM     18  C   UNL     1       4.518  41.180  50.085  1.00  0.00     0.176 C 
BRANCH  12  19
ATOM     19  N   UNL     1       6.253  46.616  52.191  1.00  0.00    -0.339 N 
ATOM     20  H   UNL     1       6.105  47.123  51.323  1.00  0.00     0.168 HD
BRANCH  19  21
ATOM     21  C   UNL     1       7.570  46.780  52.664  1.00  0.00     0.040 A 
ATOM     22  C   UNL     1       7.750  47.211  53.986  1.00  0.00     0.026 A 
ATOM     23  C   UNL     1       8.705  46.556  51.878  1.00  0.00     0.026 A 
ATOM     24  C   UNL     1       9.031  47.395  54.514  1.00  0.00     0.002 A 
ATOM     25  C   UNL     1       9.988  46.739  52.403  1.00  0.00     0.002 A 
ATOM     26  C   UNL     1      10.150  47.157  53.722  1.00  0.00     0.000 A 
ENDBRANCH  19  21
ENDBRANCH  12  19
ENDBRANCH   7   9
ENDBRANCH   6   7
ENDBRANCH   1   6
TORSDOF 8
ENDMDL
MODEL 4
REMARK VINA RESULT:    -7.817      1.925      5.196
REMARK INTER + INTRA:         -12.721
REMARK INTER:                 -11.612
REMARK INTRA:                  -1.109
REMARK UNBOUND:                -1.248
REMARK SMILES CCOCCCNc1nc(Nc2ccccc2)c2cnn(C)c2n1
REMARK SMILES IDX 5 1 4 2 3 3 2 4 1 5 6 6 7 7 8 9 9 10 24 11 10 12 23 13 18 14
REMARK SMILES IDX 21 15 19 16 20 17 22 18 11 19 12 21 13 22 17 23 14 24 16 25
REMARK SMILES IDX 15 26
REMARK H PARENT 7 8 11 20
ROOT
ATOM      1  C   UNL     1       2.693  45.694  55.477  1.00  0.00     0.050 C 
ENDROOT
BRANCH   1   2
ATOM      2  C   UNL     1       2.052  45.261  54.163  1.00  0.00     0.162 C 
BRANCH   2   3
ATOM      3  O   UNL     1       2.363  46.241  53.173  1.00  0.00    -0.382 OA
BRANCH   3   4
ATOM      4  C   UNL     1       2.245  45.759  51.836  1.00  0.00     0.156 C 
ATOM      5  C   UNL     1       3.223  46.450  50.904  1.00  0.00     0.035 C 
ENDBRANCH   3   4
ENDBRANCH   2   3
ENDBRANCH   1   2
BRANCH   1   6
ATOM      6  C   UNL     1       4.216  45.590  55.455  1.00  0.00     0.118 C 
BRANCH   6   7
ATOM      7  N   UNL     1       4.811  46.825  54.973  1.00  0.00    -0.354 N 
ATOM      8  H   UNL     1       5.070  47.511  55.672  1.00  0.00     0.163 HD
BRANCH   7   9
ATOM      9  C   UNL     1       5.936  46.659  54.172  1.00  0.00     0.226 A 
ATOM     10  N   UNL     1       5.807  46.125  52.943  1.00  0.00    -0.195 NA
ATOM     11  N   UNL     1       7.084  47.058  54.736  1.00  0.00    -0.193 NA
ATOM     12  C   UNL     1       6.898  45.949  52.157  1.00  0.00     0.147 A 
ATOM     13  C   UNL     1       8.142  46.907  53.925  1.00  0.00     0.165 A 
ATOM     14  C   UNL     1       8.132  46.378  52.651  1.00  0.00     0.082 A 
ATOM     15  N   UNL     1       9.441  47.253  54.179  1.00  0.00    -0.250 N 
ATOM     16  C   UNL     1       9.472  46.472  52.221  1.00  0.00     0.149 A 
ATOM     17  N   UNL     1      10.282  46.987  53.153  1.00  0.00    -0.179 NA
ATOM     18  C   UNL     1       9.959  47.857  55.380  1.00  0.00     0.176 C 
BRANCH  12  19
ATOM     19  N   UNL     1       6.680  45.407  50.882  1.00  0.00    -0.339 N 
ATOM     20  H   UNL     1       6.196  46.109  50.328  1.00  0.00     0.168 HD
BRANCH  19  21
ATOM     21  C   UNL     1       6.278  44.105  50.528  1.00  0.00     0.040 A 
ATOM     22  C   UNL     1       6.989  43.444  49.516  1.00  0.00     0.026 A 
ATOM     23  C   UNL     1       5.193  43.445  51.116  1.00  0.00     0.026 A 
ATOM     24  C   UNL     1       6.638  42.151  49.117  1.00  0.00     0.002 A 
ATOM     25  C   UNL     1       4.839  42.152  50.720  1.00  0.00     0.002 A 
ATOM     26  C   UNL     1       5.563  41.505  49.721  1.00  0.00     0.000 A 
ENDBRANCH  19  21
ENDBRANCH  12  19
ENDBRANCH   7   9
ENDBRANCH   6   7
ENDBRANCH   1   6
TORSDOF 8
ENDMDL
MODEL 5
REMARK VINA RESULT:    -7.785      1.068      1.674
REMARK INTER + INTRA:         -12.675
REMARK INTER:                 -11.614
REMARK INTRA:                  -1.061
REMARK UNBOUND:                -1.248
REMARK SMILES CCOCCCNc1nc(Nc2ccccc2)c2cnn(C)c2n1
REMARK SMILES IDX 5 1 4 2 3 3 2 4 1 5 6 6 7 7 8 9 9 10 24 11 10 12 23 13 18 14
REMARK SMILES IDX 21 15 19 16 20 17 22 18 11 19 12 21 13 22 17 23 14 24 16 25
REMARK SMILES IDX 15 26
REMARK H PARENT 7 8 11 20
ROOT
ATOM      1  C   UNL     1       0.765  43.024  53.762  1.00  0.00     0.050 C 
ENDROOT
BRANCH   1   2
ATOM      2  C   UNL     1       0.202  44.331  54.309  1.00  0.00     0.162 C 
BRANCH   2   3
ATOM      3  O   UNL     1       1.298  45.171  54.669  1.00  0.00    -0.382 OA
BRANCH   3   4
ATOM      4  C   UNL     1       1.459  45.327  56.077  1.00  0.00     0.156 C 
ATOM      5  C   UNL     1       0.138  45.180  56.810  1.00  0.00     0.035 C 
ENDBRANCH   3   4
ENDBRANCH   2   3
ENDBRANCH   1   2
BRANCH   1   6
ATOM      6  C   UNL     1       1.850  43.241  52.710  1.00  0.00     0.118 C 
BRANCH   6   7
ATOM      7  N   UNL     1       3.134  43.496  53.339  1.00  0.00    -0.354 N 
ATOM      8  H   UNL     1       3.503  42.767  53.939  1.00  0.00     0.163 HD
BRANCH   7   9
ATOM      9  C   UNL     1       4.163  43.816  52.459  1.00  0.00     0.226 A 
ATOM     10  N   UNL     1       4.840  44.970  52.615  1.00  0.00    -0.195 NA
ATOM     11  N   UNL     1       4.379  42.905  51.501  1.00  0.00    -0.193 NA
ATOM     12  C   UNL     1       5.838  45.298  51.758  1.00  0.00     0.147 A 
ATOM     13  C   UNL     1       5.395  43.235  50.689  1.00  0.00     0.165 A 
ATOM     14  C   UNL     1       6.158  44.383  50.753  1.00  0.00     0.082 A 
ATOM     15  N   UNL     1       5.895  42.508  49.643  1.00  0.00    -0.250 N 
ATOM     16  C   UNL     1       7.102  44.236  49.715  1.00  0.00     0.149 A 
ATOM     17  N   UNL     1       6.938  43.104  49.020  1.00  0.00    -0.179 NA
ATOM     18  C   UNL     1       5.436  41.223  49.183  1.00  0.00     0.176 C 
BRANCH  12  19
ATOM     19  N   UNL     1       6.509  46.505  51.999  1.00  0.00    -0.339 N 
ATOM     20  H   UNL     1       6.402  47.087  51.171  1.00  0.00     0.168 HD
BRANCH  19  21
ATOM     21  C   UNL     1       7.754  46.721  52.621  1.00  0.00     0.040 A 
ATOM     22  C   UNL     1       7.762  47.201  53.938  1.00  0.00     0.026 A 
ATOM     23  C   UNL     1       8.982  46.502  51.987  1.00  0.00     0.026 A 
ATOM     24  C   UNL     1       8.964  47.438  54.611  1.00  0.00     0.002 A 
ATOM     25  C   UNL     1      10.187  46.738  52.657  1.00  0.00     0.002 A 
ATOM     26  C   UNL     1      10.176  47.204  53.969  1.00  0.00     0.000 A 
ENDBRANCH  19  21
ENDBRANCH  12  19
ENDBRANCH   7   9
ENDBRANCH   6   7
ENDBRANCH   1   6
TORSDOF 8
ENDMDL
MODEL 6
REMARK VINA RESULT:    -7.781      1.380      2.256
REMARK INTER + INTRA:         -12.669
REMARK INTER:                 -11.438
REMARK INTRA:                  -1.231
REMARK UNBOUND:                -1.248
REMARK SMILES CCOCCCNc1nc(Nc2ccccc2)c2cnn(C)c2n1
REMARK SMILES IDX 5 1 4 2 3 3 2 4 1 5 6 6 7 7 8 9 9 10 24 11 10 12 23 13 18 14
REMARK SMILES IDX 21 15 19 16 20 17 22 18 11 19 12 21 13 22 17 23 14 24 16 25
REMARK SMILES IDX 15 26
REMARK H PARENT 7 8 11 20
ROOT
ATOM      1  C   UNL     1       0.757  45.224  55.018  1.00  0.00     0.050 C 
ENDROOT
BRANCH   1   2
ATOM      2  C   UNL     1      -0.272  44.238  54.477  1.00  0.00     0.162 C 
BRANCH   2   3
ATOM      3  O   UNL     1       0.427  43.108  53.954  1.00  0.00    -0.382 OA
BRANCH   3   4
ATOM      4  C   UNL     1      -0.189  42.540  52.801  1.00  0.00     0.156 C 
ATOM      5  C   UNL     1       0.349  43.154  51.521  1.00  0.00     0.035 C 
ENDBRANCH   3   4
ENDBRANCH   2   3
ENDBRANCH   1   2
BRANCH   1   6
ATOM      6  C   UNL     1       1.900  45.483  54.040  1.00  0.00     0.118 C 
BRANCH   6   7
ATOM      7  N   UNL     1       2.918  44.454  54.151  1.00  0.00    -0.354 N 
ATOM      8  H   UNL     1       2.594  43.497  54.236  1.00  0.00     0.163 HD
BRANCH   7   9
ATOM      9  C   UNL     1       3.856  44.444  53.124  1.00  0.00     0.226 A 
ATOM     10  N   UNL     1       4.704  45.481  52.986  1.00  0.00    -0.195 NA
ATOM     11  N   UNL     1       3.810  43.359  52.339  1.00  0.00    -0.193 NA
ATOM     12  C   UNL     1       5.616  45.488  51.982  1.00  0.00     0.147 A 
ATOM     13  C   UNL     1       4.746  43.374  51.378  1.00  0.00     0.165 A 
ATOM     14  C   UNL     1       5.667  44.374  51.141  1.00  0.00     0.082 A 
ATOM     15  N   UNL     1       4.994  42.406  50.443  1.00  0.00    -0.250 N 
ATOM     16  C   UNL     1       6.433  43.898  50.057  1.00  0.00     0.149 A 
ATOM     17  N   UNL     1       6.019  42.705  49.612  1.00  0.00    -0.179 NA
ATOM     18  C   UNL     1       4.299  41.153  50.286  1.00  0.00     0.176 C 
BRANCH  12  19
ATOM     19  N   UNL     1       6.478  46.592  51.916  1.00  0.00    -0.339 N 
ATOM     20  H   UNL     1       6.497  46.910  50.951  1.00  0.00     0.168 HD
BRANCH  19  21
ATOM     21  C   UNL     1       7.723  46.786  52.546  1.00  0.00     0.040 A 
ATOM     22  C   UNL     1       8.882  46.405  51.855  1.00  0.00     0.026 A 
ATOM     23  C   UNL     1       7.862  47.319  53.833  1.00  0.00     0.026 A 
ATOM     24  C   UNL     1      10.147  46.568  52.426  1.00  0.00     0.002 A 
ATOM     25  C   UNL     1       9.126  47.484  54.407  1.00  0.00     0.002 A 
ATOM     26  C   UNL     1      10.268  47.110  53.702  1.00  0.00     0.000 A 
ENDBRANCH  19  21
ENDBRANCH  12  19
ENDBRANCH   7   9
ENDBRANCH   6   7
ENDBRANCH   1   6
TORSDOF 8
ENDMDL
MODEL 7
REMARK VINA RESULT:    -7.771      1.054      1.378
REMARK INTER + INTRA:         -12.654
REMARK INTER:                 -11.647
REMARK INTRA:                  -1.008
REMARK UNBOUND:                -1.248
REMARK SMILES CCOCCCNc1nc(Nc2ccccc2)c2cnn(C)c2n1
REMARK SMILES IDX 5 1 4 2 3 3 2 4 1 5 6 6 7 7 8 9 9 10 24 11 10 12 23 13 18 14
REMARK SMILES IDX 21 15 19 16 20 17 22 18 11 19 12 21 13 22 17 23 14 24 16 25
REMARK SMILES IDX 15 26
REMARK H PARENT 7 8 11 20
ROOT
ATOM      1  C   UNL     1       0.876  42.670  53.456  1.00  0.00     0.050 C 
ENDROOT
BRANCH   1   2
ATOM      2  C   UNL     1       0.178  43.839  54.144  1.00  0.00     0.162 C 
BRANCH   2   3
ATOM      3  O   UNL     1       1.124  44.897  54.291  1.00  0.00    -0.382 OA
BRANCH   3   4
ATOM      4  C   UNL     1       1.450  45.187  55.648  1.00  0.00     0.156 C 
ATOM      5  C   UNL     1       0.223  45.136  56.540  1.00  0.00     0.035 C 
ENDBRANCH   3   4
ENDBRANCH   2   3
ENDBRANCH   1   2
BRANCH   1   6
ATOM      6  C   UNL     1       1.942  43.121  52.460  1.00  0.00     0.118 C 
BRANCH   6   7
ATOM      7  N   UNL     1       3.238  43.235  53.106  1.00  0.00    -0.354 N 
ATOM      8  H   UNL     1       3.576  42.417  53.601  1.00  0.00     0.163 HD
BRANCH   7   9
ATOM      9  C   UNL     1       4.277  43.625  52.269  1.00  0.00     0.226 A 
ATOM     10  N   UNL     1       4.890  44.807  52.471  1.00  0.00    -0.195 NA
ATOM     11  N   UNL     1       4.570  42.748  51.299  1.00  0.00    -0.193 NA
ATOM     12  C   UNL     1       5.898  45.203  51.655  1.00  0.00     0.147 A 
ATOM     13  C   UNL     1       5.593  43.146  50.528  1.00  0.00     0.165 A 
ATOM     14  C   UNL     1       6.296  44.329  50.642  1.00  0.00     0.082 A 
ATOM     15  N   UNL     1       6.163  42.469  49.485  1.00  0.00    -0.250 N 
ATOM     16  C   UNL     1       7.278  44.251  49.633  1.00  0.00     0.149 A 
ATOM     17  N   UNL     1       7.194  43.129  48.910  1.00  0.00    -0.179 NA
ATOM     18  C   UNL     1       5.784  41.172  48.983  1.00  0.00     0.176 C 
BRANCH  12  19
ATOM     19  N   UNL     1       6.499  46.437  51.943  1.00  0.00    -0.339 N 
ATOM     20  H   UNL     1       6.405  47.024  51.119  1.00  0.00     0.168 HD
BRANCH  19  21
ATOM     21  C   UNL     1       7.701  46.701  52.629  1.00  0.00     0.040 A 
ATOM     22  C   UNL     1       8.910  46.456  51.964  1.00  0.00     0.026 A 
ATOM     23  C   UNL     1       7.751  47.173  53.945  1.00  0.00     0.026 A 
ATOM     24  C   UNL     1      10.137  46.695  52.590  1.00  0.00     0.002 A 
ATOM     25  C   UNL     1       8.976  47.414  54.574  1.00  0.00     0.002 A 
ATOM     26  C   UNL     1      10.168  47.176  53.895  1.00  0.00     0.000 A 
ENDBRANCH  19  21
ENDBRANCH  12  19
ENDBRANCH   7   9
ENDBRANCH   6   7
ENDBRANCH   1   6
TORSDOF 8
ENDMDL
MODEL 8
REMARK VINA RESULT:    -7.722      1.965      5.258
REMARK INTER + INTRA:         -12.582
REMARK INTER:                 -11.687
REMARK INTRA:                  -0.895
REMARK UNBOUND:                -1.248
REMARK SMILES CCOCCCNc1nc(Nc2ccccc2)c2cnn(C)c2n1
REMARK SMILES IDX 5 1 4 2 3 3 2 4 1 5 6 6 7 7 8 9 9 10 24 11 10 12 23 13 18 14
REMARK SMILES IDX 21 15 19 16 20 17 22 18 11 19 12 21 13 22 17 23 14 24 16 25
REMARK SMILES IDX 15 26
REMARK H PARENT 7 8 11 20
ROOT
ATOM      1  C   UNL     1       2.685  45.598  54.824  1.00  0.00     0.050 C 
ENDROOT
BRANCH   1   2
ATOM      2  C   UNL     1       2.488  44.395  53.908  1.00  0.00     0.162 C 
BRANCH   2   3
ATOM      3  O   UNL     1       1.979  44.866  52.661  1.00  0.00    -0.382 OA
BRANCH   3   4
ATOM      4  C   UNL     1       2.173  46.264  52.456  1.00  0.00     0.156 C 
ATOM      5  C   UNL     1       2.994  46.538  51.210  1.00  0.00     0.035 C 
ENDBRANCH   3   4
ENDBRANCH   2   3
ENDBRANCH   1   2
BRANCH   1   6
ATOM      6  C   UNL     1       4.097  45.681  55.398  1.00  0.00     0.118 C 
BRANCH   6   7
ATOM      7  N   UNL     1       4.752  46.909  54.983  1.00  0.00    -0.354 N 
ATOM      8  H   UNL     1       5.037  47.547  55.718  1.00  0.00     0.163 HD
BRANCH   7   9
ATOM      9  C   UNL     1       5.875  46.733  54.182  1.00  0.00     0.226 A 
ATOM     10  N   UNL     1       5.740  46.210  52.949  1.00  0.00    -0.195 NA
ATOM     11  N   UNL     1       7.029  47.112  54.749  1.00  0.00    -0.193 NA
ATOM     12  C   UNL     1       6.828  46.023  52.162  1.00  0.00     0.147 A 
ATOM     13  C   UNL     1       8.085  46.951  53.938  1.00  0.00     0.165 A 
ATOM     14  C   UNL     1       8.067  46.431  52.659  1.00  0.00     0.082 A 
ATOM     15  N   UNL     1       9.389  47.276  54.194  1.00  0.00    -0.250 N 
ATOM     16  C   UNL     1       9.409  46.508  52.231  1.00  0.00     0.149 A 
ATOM     17  N   UNL     1      10.226  47.006  53.167  1.00  0.00    -0.179 NA
ATOM     18  C   UNL     1       9.915  47.864  55.400  1.00  0.00     0.176 C 
BRANCH  12  19
ATOM     19  N   UNL     1       6.603  45.493  50.884  1.00  0.00    -0.339 N 
ATOM     20  H   UNL     1       6.098  46.192  50.345  1.00  0.00     0.168 HD
BRANCH  19  21
ATOM     21  C   UNL     1       6.220  44.188  50.518  1.00  0.00     0.040 A 
ATOM     22  C   UNL     1       5.098  43.627  51.144  1.00  0.00     0.026 A 
ATOM     23  C   UNL     1       6.913  43.414  49.581  1.00  0.00     0.026 A 
ATOM     24  C   UNL     1       4.668  42.335  50.827  1.00  0.00     0.002 A 
ATOM     25  C   UNL     1       6.486  42.121  49.261  1.00  0.00     0.002 A 
ATOM     26  C   UNL     1       5.362  41.584  49.884  1.00  0.00     0.000 A 
ENDBRANCH  19  21
ENDBRANCH  12  19
ENDBRANCH   7   9
ENDBRANCH   6   7
ENDBRANCH   1   6
TORSDOF 8
ENDMDL
MODEL 9
REMARK VINA RESULT:    -7.663      2.108      4.824
REMARK INTER + INTRA:         -12.496
REMARK INTER:                 -11.273
REMARK INTRA:                  -1.223
REMARK UNBOUND:                -1.248
REMARK SMILES CCOCCCNc1nc(Nc2ccccc2)c2cnn(C)c2n1
REMARK SMILES IDX 5 1 4 2 3 3 2 4 1 5 6 6 7 7 8 9 9 10 24 11 10 12 23 13 18 14
REMARK SMILES IDX 21 15 19 16 20 17 22 18 11 19 12 21 13 22 17 23 14 24 16 25
REMARK SMILES IDX 15 26
REMARK H PARENT 7 8 11 20
ROOT
ATOM      1  C   UNL     1       4.566  41.179  49.914  1.00  0.00     0.050 C 
ENDROOT
BRANCH   1   2
ATOM      2  C   UNL     1       6.025  41.489  49.600  1.00  0.00     0.162 C 
BRANCH   2   3
ATOM      3  O   UNL     1       6.100  42.830  49.115  1.00  0.00    -0.382 OA
BRANCH   3   4
ATOM      4  C   UNL     1       7.085  43.621  49.776  1.00  0.00     0.156 C 
ATOM      5  C   UNL     1       8.315  43.820  48.910  1.00  0.00     0.035 C 
ENDBRANCH   3   4
ENDBRANCH   2   3
ENDBRANCH   1   2
BRANCH   1   6
ATOM      6  C   UNL     1       4.067  41.888  51.170  1.00  0.00     0.118 C 
BRANCH   6   7
ATOM      7  N   UNL     1       3.607  43.229  50.858  1.00  0.00    -0.354 N 
ATOM      8  H   UNL     1       2.618  43.340  50.666  1.00  0.00     0.163 HD
BRANCH   7   9
ATOM      9  C   UNL     1       3.915  44.192  51.814  1.00  0.00     0.226 A 
ATOM     10  N   UNL     1       4.903  45.075  51.577  1.00  0.00    -0.195 NA
ATOM     11  N   UNL     1       3.167  44.132  52.924  1.00  0.00    -0.193 NA
ATOM     12  C   UNL     1       5.220  46.011  52.505  1.00  0.00     0.147 A 
ATOM     13  C   UNL     1       3.475  45.091  53.810  1.00  0.00     0.165 A 
ATOM     14  C   UNL     1       4.461  46.048  53.677  1.00  0.00     0.082 A 
ATOM     15  N   UNL     1       2.878  45.333  55.017  1.00  0.00    -0.250 N 
ATOM     16  C   UNL     1       4.357  46.826  54.848  1.00  0.00     0.149 A 
ATOM     17  N   UNL     1       3.406  46.387  55.682  1.00  0.00    -0.179 NA
ATOM     18  C   UNL     1       1.782  44.604  55.604  1.00  0.00     0.176 C 
BRANCH  12  19
ATOM     19  N   UNL     1       6.247  46.908  52.177  1.00  0.00    -0.339 N 
ATOM     20  H   UNL     1       6.132  47.163  51.199  1.00  0.00     0.168 HD
BRANCH  19  21
ATOM     21  C   UNL     1       7.607  46.873  52.542  1.00  0.00     0.040 A 
ATOM     22  C   UNL     1       8.545  46.506  51.568  1.00  0.00     0.026 A 
ATOM     23  C   UNL     1       8.067  47.166  53.830  1.00  0.00     0.026 A 
ATOM     24  C   UNL     1       9.909  46.450  51.867  1.00  0.00     0.002 A 
ATOM     25  C   UNL     1       9.431  47.111  54.133  1.00  0.00     0.002 A 
ATOM     26  C   UNL     1      10.352  46.754  53.151  1.00  0.00     0.000 A 
ENDBRANCH  19  21
ENDBRANCH  12  19
ENDBRANCH   7   9
ENDBRANCH   6   7
ENDBRANCH   1   6
TORSDOF 8
ENDMDL
MODEL 10
REMARK VINA RESULT:    -7.517      2.036      5.533
REMARK INTER + INTRA:         -12.281
REMARK INTER:                 -11.683
REMARK INTRA:                  -0.598
REMARK UNBOUND:                -1.248
REMARK SMILES CCOCCCNc1nc(Nc2ccccc2)c2cnn(C)c2n1
REMARK SMILES IDX 5 1 4 2 3 3 2 4 1 5 6 6 7 7 8 9 9 10 24 11 10 12 23 13 18 14
REMARK SMILES IDX 21 15 19 16 20 17 22 18 11 19 12 21 13 22 17 23 14 24 16 25
REMARK SMILES IDX 15 26
REMARK H PARENT 7 8 11 20
ROOT
ATOM      1  C   UNL     1       6.065  46.790  54.654  1.00  0.00     0.050 C 
ENDROOT
BRANCH   1   2
ATOM      2  C   UNL     1       7.437  46.893  53.998  1.00  0.00     0.162 C 
BRANCH   2   3
ATOM      3  O   UNL     1       8.302  47.600  54.888  1.00  0.00    -0.382 OA
BRANCH   3   4
ATOM      4  C   UNL     1       9.684  47.473  54.560  1.00  0.00     0.156 C 
ATOM      5  C   UNL     1       9.878  46.852  53.189  1.00  0.00     0.035 C 
ENDBRANCH   3   4
ENDBRANCH   2   3
ENDBRANCH   1   2
BRANCH   1   6
ATOM      6  C   UNL     1       5.784  45.402  55.224  1.00  0.00     0.118 C 
BRANCH   6   7
ATOM      7  N   UNL     1       4.382  45.263  55.579  1.00  0.00    -0.354 N 
ATOM      8  H   UNL     1       3.911  46.095  55.915  1.00  0.00     0.163 HD
BRANCH   7   9
ATOM      9  C   UNL     1       3.571  44.752  54.571  1.00  0.00     0.226 A 
ATOM     10  N   UNL     1       4.121  44.360  53.406  1.00  0.00    -0.195 NA
ATOM     11  N   UNL     1       2.267  44.709  54.875  1.00  0.00    -0.193 NA
ATOM     12  C   UNL     1       3.339  43.870  52.412  1.00  0.00     0.147 A 
ATOM     13  C   UNL     1       1.520  44.187  53.890  1.00  0.00     0.165 A 
ATOM     14  C   UNL     1       1.971  43.750  52.660  1.00  0.00     0.082 A 
ATOM     15  N   UNL     1       0.170  43.965  53.896  1.00  0.00    -0.250 N 
ATOM     16  C   UNL     1       0.814  43.266  52.014  1.00  0.00     0.149 A 
ATOM     17  N   UNL     1      -0.293  43.410  52.752  1.00  0.00    -0.179 NA
ATOM     18  C   UNL     1      -0.750  44.248  54.968  1.00  0.00     0.176 C 
BRANCH  12  19
ATOM     19  N   UNL     1       3.988  43.464  51.237  1.00  0.00    -0.339 N 
ATOM     20  H   UNL     1       3.824  42.467  51.124  1.00  0.00     0.168 HD
BRANCH  19  21
ATOM     21  C   UNL     1       5.257  43.834  50.750  1.00  0.00     0.040 A 
ATOM     22  C   UNL     1       5.999  42.878  50.042  1.00  0.00     0.026 A 
ATOM     23  C   UNL     1       5.824  45.097  50.953  1.00  0.00     0.026 A 
ATOM     24  C   UNL     1       7.266  43.182  49.535  1.00  0.00     0.002 A 
ATOM     25  C   UNL     1       7.090  45.405  50.447  1.00  0.00     0.002 A 
ATOM     26  C   UNL     1       7.810  44.447  49.736  1.00  0.00     0.000 A 
ENDBRANCH  19  21
ENDBRANCH  12  19
ENDBRANCH   7   9
ENDBRANCH   6   7
ENDBRANCH   1   6
TORSDOF 8
ENDMDL
MODEL 11
REMARK VINA RESULT:    -7.509      2.590      5.302
REMARK INTER + INTRA:         -12.269
REMARK INTER:                 -11.440
REMARK INTRA:                  -0.829
REMARK UNBOUND:                -1.248
REMARK SMILES CCOCCCNc1nc(Nc2ccccc2)c2cnn(C)c2n1
REMARK SMILES IDX 5 1 4 2 3 3 2 4 1 5 6 6 7 7 8 9 9 10 24 11 10 12 23 13 18 14
REMARK SMILES IDX 21 15 19 16 20 17 22 18 11 19 12 21 13 22 17 23 14 24 16 25
REMARK SMILES IDX 15 26
REMARK H PARENT 7 8 11 20
ROOT
ATOM      1  C   UNL     1       5.041  41.202  48.582  1.00  0.00     0.050 C 
ENDROOT
BRANCH   1   2
ATOM      2  C   UNL     1       3.719  40.494  48.857  1.00  0.00     0.162 C 
BRANCH   2   3
ATOM      3  O   UNL     1       2.951  40.505  47.654  1.00  0.00    -0.382 OA
BRANCH   3   4
ATOM      4  C   UNL     1       3.334  39.494  46.724  1.00  0.00     0.156 C 
ATOM      5  C   UNL     1       2.628  38.180  47.003  1.00  0.00     0.035 C 
ENDBRANCH   3   4
ENDBRANCH   2   3
ENDBRANCH   1   2
BRANCH   1   6
ATOM      6  C   UNL     1       5.760  41.631  49.858  1.00  0.00     0.118 C 
BRANCH   6   7
ATOM      7  N   UNL     1       4.807  41.923  50.915  1.00  0.00    -0.354 N 
ATOM      8  H   UNL     1       4.946  41.449  51.800  1.00  0.00     0.163 HD
BRANCH   7   9
ATOM      9  C   UNL     1       4.675  43.272  51.227  1.00  0.00     0.226 A 
ATOM     10  N   UNL     1       5.709  44.109  51.021  1.00  0.00    -0.195 NA
ATOM     11  N   UNL     1       3.481  43.612  51.732  1.00  0.00    -0.193 NA
ATOM     12  C   UNL     1       5.596  45.425  51.331  1.00  0.00     0.147 A 
ATOM     13  C   UNL     1       3.382  44.923  51.996  1.00  0.00     0.165 A 
ATOM     14  C   UNL     1       4.369  45.873  51.824  1.00  0.00     0.082 A 
ATOM     15  N   UNL     1       2.292  45.596  52.476  1.00  0.00    -0.250 N 
ATOM     16  C   UNL     1       3.760  47.086  52.209  1.00  0.00     0.149 A 
ATOM     17  N   UNL     1       2.499  46.925  52.626  1.00  0.00    -0.179 NA
ATOM     18  C   UNL     1       1.005  45.039  52.805  1.00  0.00     0.176 C 
BRANCH  12  19
ATOM     19  N   UNL     1       6.709  46.236  51.068  1.00  0.00    -0.339 N 
ATOM     20  H   UNL     1       7.029  46.024  50.127  1.00  0.00     0.168 HD
BRANCH  19  21
ATOM     21  C   UNL     1       7.785  46.569  51.914  1.00  0.00     0.040 A 
ATOM     22  C   UNL     1       9.072  46.157  51.541  1.00  0.00     0.026 A 
ATOM     23  C   UNL     1       7.634  47.269  53.116  1.00  0.00     0.026 A 
ATOM     24  C   UNL     1      10.182  46.454  52.337  1.00  0.00     0.002 A 
ATOM     25  C   UNL     1       8.742  47.568  53.915  1.00  0.00     0.002 A 
ATOM     26  C   UNL     1      10.015  47.161  53.524  1.00  0.00     0.000 A 
ENDBRANCH  19  21
ENDBRANCH  12  19
ENDBRANCH   7   9
ENDBRANCH   6   7
ENDBRANCH   1   6
TORSDOF 8
ENDMDL
MODEL 12
REMARK VINA RESULT:    -7.455      2.366      6.921
REMARK INTER + INTRA:         -12.190
REMARK INTER:                 -11.386
REMARK INTRA:                  -0.804
REMARK UNBOUND:                -1.248
REMARK SMILES CCOCCCNc1nc(Nc2ccccc2)c2cnn(C)c2n1
REMARK SMILES IDX 5 1 4 2 3 3 2 4 1 5 6 6 7 7 8 9 9 10 24 11 10 12 23 13 18 14
REMARK SMILES IDX 21 15 19 16 20 17 22 18 11 19 12 21 13 22 17 23 14 24 16 25
REMARK SMILES IDX 15 26
REMARK H PARENT 7 8 11 20
ROOT
ATOM      1  C   UNL     1       8.573  47.578  52.002  1.00  0.00     0.050 C 
ENDROOT
BRANCH   1   2
ATOM      2  C   UNL     1       9.845  46.752  52.150  1.00  0.00     0.162 C 
BRANCH   2   3
ATOM      3  O   UNL     1      10.005  46.425  53.530  1.00  0.00    -0.382 OA
BRANCH   3   4
ATOM      4  C   UNL     1       9.756  47.521  54.408  1.00  0.00     0.156 C 
ATOM      5  C   UNL     1      10.641  47.464  55.639  1.00  0.00     0.035 C 
ENDBRANCH   3   4
ENDBRANCH   2   3
ENDBRANCH   1   2
BRANCH   1   6
ATOM      6  C   UNL     1       7.320  46.717  51.861  1.00  0.00     0.118 C 
BRANCH   6   7
ATOM      7  N   UNL     1       7.483  45.740  50.799  1.00  0.00    -0.354 N 
ATOM      8  H   UNL     1       8.389  45.293  50.723  1.00  0.00     0.163 HD
BRANCH   7   9
ATOM      9  C   UNL     1       6.552  44.706  50.807  1.00  0.00     0.226 A 
ATOM     10  N   UNL     1       6.677  43.689  49.933  1.00  0.00    -0.195 NA
ATOM     11  N   UNL     1       5.580  44.840  51.719  1.00  0.00    -0.193 NA
ATOM     12  C   UNL     1       5.771  42.681  49.924  1.00  0.00     0.147 A 
ATOM     13  C   UNL     1       4.718  43.812  51.715  1.00  0.00     0.165 A 
ATOM     14  C   UNL     1       4.747  42.718  50.872  1.00  0.00     0.082 A 
ATOM     15  N   UNL     1       3.645  43.621  52.542  1.00  0.00    -0.250 N 
ATOM     16  C   UNL     1       3.660  41.923  51.293  1.00  0.00     0.149 A 
ATOM     17  N   UNL     1       2.971  42.474  52.299  1.00  0.00    -0.179 NA
ATOM     18  C   UNL     1       3.204  44.489  53.604  1.00  0.00     0.176 C 
BRANCH  12  19
ATOM     19  N   UNL     1       5.981  41.648  48.999  1.00  0.00    -0.339 N 
ATOM     20  H   UNL     1       6.984  41.510  48.914  1.00  0.00     0.168 HD
BRANCH  19  21
ATOM     21  C   UNL     1       5.323  41.402  47.778  1.00  0.00     0.040 A 
ATOM     22  C   UNL     1       4.164  40.614  47.797  1.00  0.00     0.026 A 
ATOM     23  C   UNL     1       5.778  41.885  46.546  1.00  0.00     0.026 A 
ATOM     24  C   UNL     1       3.467  40.331  46.619  1.00  0.00     0.002 A 
ATOM     25  C   UNL     1       5.082  41.604  45.366  1.00  0.00     0.002 A 
ATOM     26  C   UNL     1       3.926  40.829  45.403  1.00  0.00     0.000 A 
ENDBRANCH  19  21
ENDBRANCH  12  19
ENDBRANCH   7   9
ENDBRANCH   6   7
ENDBRANCH   1   6
TORSDOF 8
ENDMDL
MODEL 13
REMARK VINA RESULT:    -7.448      2.491      5.156
REMARK INTER + INTRA:         -12.180
REMARK INTER:                 -11.164
REMARK INTRA:                  -1.015
REMARK UNBOUND:                -1.248
REMARK SMILES CCOCCCNc1nc(Nc2ccccc2)c2cnn(C)c2n1
REMARK SMILES IDX 5 1 4 2 3 3 2 4 1 5 6 6 7 7 8 9 9 10 24 11 10 12 23 13 18 14
REMARK SMILES IDX 21 15 19 16 20 17 22 18 11 19 12 21 13 22 17 23 14 24 16 25
REMARK SMILES IDX 15 26
REMARK H PARENT 7 8 11 20
ROOT
ATOM      1  C   UNL     1       3.533  40.330  49.362  1.00  0.00     0.050 C 
ENDROOT
BRANCH   1   2
ATOM      2  C   UNL     1       3.992  40.743  47.968  1.00  0.00     0.162 C 
BRANCH   2   3
ATOM      3  O   UNL     1       5.364  41.127  48.048  1.00  0.00    -0.382 OA
BRANCH   3   4
ATOM      4  C   UNL     1       5.772  42.007  47.002  1.00  0.00     0.156 C 
ATOM      5  C   UNL     1       5.320  41.505  45.642  1.00  0.00     0.035 C 
ENDBRANCH   3   4
ENDBRANCH   2   3
ENDBRANCH   1   2
BRANCH   1   6
ATOM      6  C   UNL     1       3.272  41.524  50.277  1.00  0.00     0.118 C 
BRANCH   6   7
ATOM      7  N   UNL     1       4.514  42.025  50.840  1.00  0.00    -0.354 N 
ATOM      8  H   UNL     1       5.354  41.889  50.289  1.00  0.00     0.163 HD
BRANCH   7   9
ATOM      9  C   UNL     1       4.501  43.374  51.181  1.00  0.00     0.226 A 
ATOM     10  N   UNL     1       5.599  44.125  50.972  1.00  0.00    -0.195 NA
ATOM     11  N   UNL     1       3.348  43.802  51.713  1.00  0.00    -0.193 NA
ATOM     12  C   UNL     1       5.602  45.438  51.309  1.00  0.00     0.147 A 
ATOM     13  C   UNL     1       3.365  45.111  52.004  1.00  0.00     0.165 A 
ATOM     14  C   UNL     1       4.425  45.978  51.832  1.00  0.00     0.082 A 
ATOM     15  N   UNL     1       2.343  45.864  52.516  1.00  0.00    -0.250 N 
ATOM     16  C   UNL     1       3.927  47.230  52.251  1.00  0.00     0.149 A 
ATOM     17  N   UNL     1       2.664  47.167  52.687  1.00  0.00    -0.179 NA
ATOM     18  C   UNL     1       1.019  45.410  52.857  1.00  0.00     0.176 C 
BRANCH  12  19
ATOM     19  N   UNL     1       6.775  46.158  51.042  1.00  0.00    -0.339 N 
ATOM     20  H   UNL     1       7.118  45.862  50.132  1.00  0.00     0.168 HD
BRANCH  19  21
ATOM     21  C   UNL     1       7.837  46.481  51.910  1.00  0.00     0.040 A 
ATOM     22  C   UNL     1       7.527  47.068  53.145  1.00  0.00     0.026 A 
ATOM     23  C   UNL     1       9.183  46.268  51.595  1.00  0.00     0.026 A 
ATOM     24  C   UNL     1       8.535  47.414  54.050  1.00  0.00     0.002 A 
ATOM     25  C   UNL     1      10.194  46.612  52.498  1.00  0.00     0.002 A 
ATOM     26  C   UNL     1       9.869  47.184  53.725  1.00  0.00     0.000 A 
ENDBRANCH  19  21
ENDBRANCH  12  19
ENDBRANCH   7   9
ENDBRANCH   6   7
ENDBRANCH   1   6
TORSDOF 8
ENDMDL
MODEL 14
REMARK VINA RESULT:    -7.419      2.837      5.605
REMARK INTER + INTRA:         -12.137
REMARK INTER:                 -11.260
REMARK INTRA:                  -0.878
REMARK UNBOUND:                -1.248
REMARK SMILES CCOCCCNc1nc(Nc2ccccc2)c2cnn(C)c2n1
REMARK SMILES IDX 5 1 4 2 3 3 2 4 1 5 6 6 7 7 8 9 9 10 24 11 10 12 23 13 18 14
REMARK SMILES IDX 21 15 19 16 20 17 22 18 11 19 12 21 13 22 17 23 14 24 16 25
REMARK SMILES IDX 15 26
REMARK H PARENT 7 8 11 20
ROOT
ATOM      1  C   UNL     1       5.764  41.929  46.897  1.00  0.00     0.050 C 
ENDROOT
BRANCH   1   2
ATOM      2  C   UNL     1       4.890  41.581  45.698  1.00  0.00     0.162 C 
BRANCH   2   3
ATOM      3  O   UNL     1       4.027  40.508  46.074  1.00  0.00    -0.382 OA
BRANCH   3   4
ATOM      4  C   UNL     1       2.863  40.399  45.257  1.00  0.00     0.156 C 
ATOM      5  C   UNL     1       2.193  41.746  45.057  1.00  0.00     0.035 C 
ENDBRANCH   3   4
ENDBRANCH   2   3
ENDBRANCH   1   2
BRANCH   1   6
ATOM      6  C   UNL     1       5.313  41.236  48.180  1.00  0.00     0.118 C 
BRANCH   6   7
ATOM      7  N   UNL     1       6.208  41.552  49.280  1.00  0.00    -0.354 N 
ATOM      8  H   UNL     1       7.180  41.714  49.046  1.00  0.00     0.163 HD
BRANCH   7   9
ATOM      9  C   UNL     1       5.820  42.640  50.056  1.00  0.00     0.226 A 
ATOM     10  N   UNL     1       6.582  43.750  50.075  1.00  0.00    -0.195 NA
ATOM     11  N   UNL     1       4.683  42.458  50.741  1.00  0.00    -0.193 NA
ATOM     12  C   UNL     1       6.221  44.813  50.836  1.00  0.00     0.147 A 
ATOM     13  C   UNL     1       4.329  43.536  51.456  1.00  0.00     0.165 A 
ATOM     14  C   UNL     1       5.024  44.725  51.550  1.00  0.00     0.082 A 
ATOM     15  N   UNL     1       3.209  43.693  52.226  1.00  0.00    -0.250 N 
ATOM     16  C   UNL     1       4.225  45.534  52.384  1.00  0.00     0.149 A 
ATOM     17  N   UNL     1       3.124  44.908  52.817  1.00  0.00    -0.179 NA
ATOM     18  C   UNL     1       2.161  42.728  52.440  1.00  0.00     0.176 C 
BRANCH  12  19
ATOM     19  N   UNL     1       7.054  45.940  50.787  1.00  0.00    -0.339 N 
ATOM     20  H   UNL     1       7.429  46.005  49.844  1.00  0.00     0.168 HD
BRANCH  19  21
ATOM     21  C   UNL     1       7.981  46.401  51.741  1.00  0.00     0.040 A 
ATOM     22  C   UNL     1       9.331  46.062  51.571  1.00  0.00     0.026 A 
ATOM     23  C   UNL     1       7.623  47.161  52.861  1.00  0.00     0.026 A 
ATOM     24  C   UNL     1      10.300  46.487  52.485  1.00  0.00     0.002 A 
ATOM     25  C   UNL     1       8.590  47.587  53.776  1.00  0.00     0.002 A 
ATOM     26  C   UNL     1       9.928  47.251  53.587  1.00  0.00     0.000 A 
ENDBRANCH  19  21
ENDBRANCH  12  19
ENDBRANCH   7   9
ENDBRANCH   6   7
ENDBRANCH   1   6
TORSDOF 8
ENDMDL
MODEL 15
REMARK VINA RESULT:    -7.403      1.904      5.273
REMARK INTER + INTRA:         -12.114
REMARK INTER:                 -11.559
REMARK INTRA:                  -0.555
REMARK UNBOUND:                -1.248
REMARK SMILES CCOCCCNc1nc(Nc2ccccc2)c2cnn(C)c2n1
REMARK SMILES IDX 5 1 4 2 3 3 2 4 1 5 6 6 7 7 8 9 9 10 24 11 10 12 23 13 18 14
REMARK SMILES IDX 21 15 19 16 20 17 22 18 11 19 12 21 13 22 17 23 14 24 16 25
REMARK SMILES IDX 15 26
REMARK H PARENT 7 8 11 20
ROOT
ATOM      1  C   UNL     1       2.756  45.695  54.448  1.00  0.00     0.050 C 
ENDROOT
BRANCH   1   2
ATOM      2  C   UNL     1       1.655  44.923  55.167  1.00  0.00     0.162 C 
BRANCH   2   3
ATOM      3  O   UNL     1       1.452  45.526  56.445  1.00  0.00    -0.382 OA
BRANCH   3   4
ATOM      4  C   UNL     1       0.079  45.633  56.814  1.00  0.00     0.156 C 
ATOM      5  C   UNL     1      -0.804  44.767  55.933  1.00  0.00     0.035 C 
ENDBRANCH   3   4
ENDBRANCH   2   3
ENDBRANCH   1   2
BRANCH   1   6
ATOM      6  C   UNL     1       3.966  45.967  55.338  1.00  0.00     0.118 C 
BRANCH   6   7
ATOM      7  N   UNL     1       4.682  47.149  54.890  1.00  0.00    -0.354 N 
ATOM      8  H   UNL     1       4.992  47.795  55.606  1.00  0.00     0.163 HD
BRANCH   7   9
ATOM      9  C   UNL     1       5.800  46.894  54.103  1.00  0.00     0.226 A 
ATOM     10  N   UNL     1       5.645  46.353  52.879  1.00  0.00    -0.195 NA
ATOM     11  N   UNL     1       6.968  47.220  54.673  1.00  0.00    -0.193 NA
ATOM     12  C   UNL     1       6.729  46.090  52.107  1.00  0.00     0.147 A 
ATOM     13  C   UNL     1       8.020  46.984  53.875  1.00  0.00     0.165 A 
ATOM     14  C   UNL     1       7.984  46.439  52.608  1.00  0.00     0.082 A 
ATOM     15  N   UNL     1       9.338  47.241  54.137  1.00  0.00    -0.250 N 
ATOM     16  C   UNL     1       9.332  46.433  52.190  1.00  0.00     0.149 A 
ATOM     17  N   UNL     1      10.168  46.903  53.123  1.00  0.00    -0.179 NA
ATOM     18  C   UNL     1       9.886  47.824  55.335  1.00  0.00     0.176 C 
BRANCH  12  19
ATOM     19  N   UNL     1       6.485  45.547  50.838  1.00  0.00    -0.339 N 
ATOM     20  H   UNL     1       5.926  46.218  50.318  1.00  0.00     0.168 HD
BRANCH  19  21
ATOM     21  C   UNL     1       6.156  44.222  50.486  1.00  0.00     0.040 A 
ATOM     22  C   UNL     1       5.032  43.638  51.085  1.00  0.00     0.026 A 
ATOM     23  C   UNL     1       6.905  43.454  49.589  1.00  0.00     0.026 A 
ATOM     24  C   UNL     1       4.654  42.327  50.781  1.00  0.00     0.002 A 
ATOM     25  C   UNL     1       6.530  42.142  49.282  1.00  0.00     0.002 A 
ATOM     26  C   UNL     1       5.404  41.580  49.877  1.00  0.00     0.000 A 
ENDBRANCH  19  21
ENDBRANCH  12  19
ENDBRANCH   7   9
ENDBRANCH   6   7
ENDBRANCH   1   6
TORSDOF 8
ENDMDL
MODEL 16
REMARK VINA RESULT:    -7.370      1.947      5.373
REMARK INTER + INTRA:         -12.066
REMARK INTER:                 -11.567
REMARK INTRA:                  -0.499
REMARK UNBOUND:                -1.248
REMARK SMILES CCOCCCNc1nc(Nc2ccccc2)c2cnn(C)c2n1
REMARK SMILES IDX 5 1 4 2 3 3 2 4 1 5 6 6 7 7 8 9 9 10 24 11 10 12 23 13 18 14
REMARK SMILES IDX 21 15 19 16 20 17 22 18 11 19 12 21 13 22 17 23 14 24 16 25
REMARK SMILES IDX 15 26
REMARK H PARENT 7 8 11 20
ROOT
ATOM      1  C   UNL     1       5.864  46.835  54.397  1.00  0.00     0.050 C 
ENDROOT
BRANCH   1   2
ATOM      2  C   UNL     1       7.233  47.078  53.772  1.00  0.00     0.162 C 
BRANCH   2   3
ATOM      3  O   UNL     1       8.199  47.124  54.823  1.00  0.00    -0.382 OA
BRANCH   3   4
ATOM      4  C   UNL     1       9.491  47.545  54.392  1.00  0.00     0.156 C 
ATOM      5  C   UNL     1       9.898  46.862  53.099  1.00  0.00     0.035 C 
ENDBRANCH   3   4
ENDBRANCH   2   3
ENDBRANCH   1   2
BRANCH   1   6
ATOM      6  C   UNL     1       5.731  45.443  55.009  1.00  0.00     0.118 C 
BRANCH   6   7
ATOM      7  N   UNL     1       4.340  45.137  55.298  1.00  0.00    -0.354 N 
ATOM      8  H   UNL     1       3.758  45.906  55.609  1.00  0.00     0.163 HD
BRANCH   7   9
ATOM      9  C   UNL     1       3.644  44.535  54.255  1.00  0.00     0.226 A 
ATOM     10  N   UNL     1       4.317  44.065  53.187  1.00  0.00    -0.195 NA
ATOM     11  N   UNL     1       2.316  44.491  54.425  1.00  0.00    -0.193 NA
ATOM     12  C   UNL     1       3.649  43.486  52.159  1.00  0.00     0.147 A 
ATOM     13  C   UNL     1       1.682  43.881  53.412  1.00  0.00     0.165 A 
ATOM     14  C   UNL     1       2.263  43.360  52.274  1.00  0.00     0.082 A 
ATOM     15  N   UNL     1       0.341  43.635  53.297  1.00  0.00    -0.250 N 
ATOM     16  C   UNL     1       1.185  42.806  51.552  1.00  0.00     0.149 A 
ATOM     17  N   UNL     1       0.006  42.985  52.159  1.00  0.00    -0.179 NA
ATOM     18  C   UNL     1      -0.689  43.982  54.243  1.00  0.00     0.176 C 
BRANCH  12  19
ATOM     19  N   UNL     1       4.421  43.003  51.093  1.00  0.00    -0.339 N 
ATOM     20  H   UNL     1       4.424  41.988  51.151  1.00  0.00     0.168 HD
BRANCH  19  21
ATOM     21  C   UNL     1       5.640  43.493  50.586  1.00  0.00     0.040 A 
ATOM     22  C   UNL     1       6.016  44.803  50.915  1.00  0.00     0.026 A 
ATOM     23  C   UNL     1       6.485  42.749  49.755  1.00  0.00     0.026 A 
ATOM     24  C   UNL     1       7.212  45.349  50.442  1.00  0.00     0.002 A 
ATOM     25  C   UNL     1       7.683  43.292  49.280  1.00  0.00     0.002 A 
ATOM     26  C   UNL     1       8.046  44.591  49.625  1.00  0.00     0.000 A 
ENDBRANCH  19  21
ENDBRANCH  12  19
ENDBRANCH   7   9
ENDBRANCH   6   7
ENDBRANCH   1   6
TORSDOF 8
ENDMDL
MODEL 17
REMARK VINA RESULT:    -7.349      1.912      6.010
REMARK INTER + INTRA:         -12.034
REMARK INTER:                 -10.865
REMARK INTRA:                  -1.169
REMARK UNBOUND:                -1.248
REMARK SMILES CCOCCCNc1nc(Nc2ccccc2)c2cnn(C)c2n1
REMARK SMILES IDX 5 1 4 2 3 3 2 4 1 5 6 6 7 7 8 9 9 10 24 11 10 12 23 13 18 14
REMARK SMILES IDX 21 15 19 16 20 17 22 18 11 19 12 21 13 22 17 23 14 24 16 25
REMARK SMILES IDX 15 26
REMARK H PARENT 7 8 11 20
ROOT
ATOM      1  C   UNL     1       6.576  46.170  54.357  1.00  0.00     0.050 C 
ENDROOT
BRANCH   1   2
ATOM      2  C   UNL     1       7.788  47.094  54.306  1.00  0.00     0.162 C 
BRANCH   2   3
ATOM      3  O   UNL     1       7.713  47.857  53.102  1.00  0.00    -0.382 OA
BRANCH   3   4
ATOM      4  C   UNL     1       8.742  47.547  52.165  1.00  0.00     0.156 C 
ATOM      5  C   UNL     1       9.905  46.831  52.828  1.00  0.00     0.035 C 
ENDBRANCH   3   4
ENDBRANCH   2   3
ENDBRANCH   1   2
BRANCH   1   6
ATOM      6  C   UNL     1       5.303  46.834  53.841  1.00  0.00     0.118 C 
BRANCH   6   7
ATOM      7  N   UNL     1       5.184  46.674  52.402  1.00  0.00    -0.354 N 
ATOM      8  H   UNL     1       5.903  47.103  51.832  1.00  0.00     0.163 HD
BRANCH   7   9
ATOM      9  C   UNL     1       5.095  45.356  51.965  1.00  0.00     0.226 A 
ATOM     10  N   UNL     1       4.115  44.561  52.437  1.00  0.00    -0.195 NA
ATOM     11  N   UNL     1       6.040  44.996  51.086  1.00  0.00    -0.193 NA
ATOM     12  C   UNL     1       4.024  43.272  52.027  1.00  0.00     0.147 A 
ATOM     13  C   UNL     1       5.906  43.728  50.669  1.00  0.00     0.165 A 
ATOM     14  C   UNL     1       4.945  42.825  51.078  1.00  0.00     0.082 A 
ATOM     15  N   UNL     1       6.675  43.069  49.749  1.00  0.00    -0.250 N 
ATOM     16  C   UNL     1       5.215  41.662  50.327  1.00  0.00     0.149 A 
ATOM     17  N   UNL     1       6.279  41.794  49.527  1.00  0.00    -0.179 NA
ATOM     18  C   UNL     1       7.804  43.595  49.025  1.00  0.00     0.176 C 
BRANCH  12  19
ATOM     19  N   UNL     1       2.966  42.515  52.548  1.00  0.00    -0.339 N 
ATOM     20  H   UNL     1       3.138  41.541  52.312  1.00  0.00     0.168 HD
BRANCH  19  21
ATOM     21  C   UNL     1       1.587  42.804  52.557  1.00  0.00     0.040 A 
ATOM     22  C   UNL     1       0.955  43.058  51.332  1.00  0.00     0.026 A 
ATOM     23  C   UNL     1       0.820  42.871  53.726  1.00  0.00     0.026 A 
ATOM     24  C   UNL     1      -0.410  43.354  51.274  1.00  0.00     0.002 A 
ATOM     25  C   UNL     1      -0.545  43.166  53.672  1.00  0.00     0.002 A 
ATOM     26  C   UNL     1      -1.160  43.406  52.445  1.00  0.00     0.000 A 
ENDBRANCH  19  21
ENDBRANCH  12  19
ENDBRANCH   7   9
ENDBRANCH   6   7
ENDBRANCH   1   6
TORSDOF 8
ENDMDL
MODEL 18
REMARK VINA RESULT:    -7.267      2.014      5.673
REMARK INTER + INTRA:         -11.914
REMARK INTER:                 -10.601
REMARK INTRA:                  -1.313
REMARK UNBOUND:                -1.248
REMARK SMILES CCOCCCNc1nc(Nc2ccccc2)c2cnn(C)c2n1
REMARK SMILES IDX 5 1 4 2 3 3 2 4 1 5 6 6 7 7 8 9 9 10 24 11 10 12 23 13 18 14
REMARK SMILES IDX 21 15 19 16 20 17 22 18 11 19 12 21 13 22 17 23 14 24 16 25
REMARK SMILES IDX 15 26
REMARK H PARENT 7 8 11 20
ROOT
ATOM      1  C   UNL     1       6.520  41.561  50.025  1.00  0.00     0.050 C 
ENDROOT
BRANCH   1   2
ATOM      2  C   UNL     1       5.019  41.428  49.793  1.00  0.00     0.162 C 
BRANCH   2   3
ATOM      3  O   UNL     1       4.409  41.058  51.030  1.00  0.00    -0.382 OA
BRANCH   3   4
ATOM      4  C   UNL     1       3.881  42.164  51.759  1.00  0.00     0.156 C 
ATOM      5  C   UNL     1       2.573  42.651  51.162  1.00  0.00     0.035 C 
ENDBRANCH   3   4
ENDBRANCH   2   3
ENDBRANCH   1   2
BRANCH   1   6
ATOM      6  C   UNL     1       7.091  42.864  49.471  1.00  0.00     0.118 C 
BRANCH   6   7
ATOM      7  N   UNL     1       6.115  43.936  49.561  1.00  0.00    -0.354 N 
ATOM      8  H   UNL     1       5.152  43.665  49.724  1.00  0.00     0.163 HD
BRANCH   7   9
ATOM      9  C   UNL     1       6.399  44.908  50.514  1.00  0.00     0.226 A 
ATOM     10  N   UNL     1       5.392  45.495  51.188  1.00  0.00    -0.195 NA
ATOM     11  N   UNL     1       7.703  45.176  50.664  1.00  0.00    -0.193 NA
ATOM     12  C   UNL     1       5.655  46.452  52.113  1.00  0.00     0.147 A 
ATOM     13  C   UNL     1       7.939  46.099  51.609  1.00  0.00     0.165 A 
ATOM     14  C   UNL     1       6.993  46.764  52.363  1.00  0.00     0.082 A 
ATOM     15  N   UNL     1       9.153  46.564  52.034  1.00  0.00    -0.250 N 
ATOM     16  C   UNL     1       7.746  47.589  53.223  1.00  0.00     0.149 A 
ATOM     17  N   UNL     1       9.065  47.488  53.018  1.00  0.00    -0.179 NA
ATOM     18  C   UNL     1      10.451  46.164  51.554  1.00  0.00     0.176 C 
BRANCH  12  19
ATOM     19  N   UNL     1       4.555  47.001  52.787  1.00  0.00    -0.339 N 
ATOM     20  H   UNL     1       4.909  47.704  53.431  1.00  0.00     0.168 HD
BRANCH  19  21
ATOM     21  C   UNL     1       3.418  46.353  53.308  1.00  0.00     0.040 A 
ATOM     22  C   UNL     1       3.509  45.779  54.583  1.00  0.00     0.026 A 
ATOM     23  C   UNL     1       2.211  46.233  52.610  1.00  0.00     0.026 A 
ATOM     24  C   UNL     1       2.417  45.120  55.156  1.00  0.00     0.002 A 
ATOM     25  C   UNL     1       1.117  45.575  53.180  1.00  0.00     0.002 A 
ATOM     26  C   UNL     1       1.220  45.020  54.453  1.00  0.00     0.000 A 
ENDBRANCH  19  21
ENDBRANCH  12  19
ENDBRANCH   7   9
ENDBRANCH   6   7
ENDBRANCH   1   6
TORSDOF 8
ENDMDL
MODEL 19
REMARK VINA RESULT:    -7.262      2.415      3.703
REMARK INTER + INTRA:         -11.907
REMARK INTER:                 -11.149
REMARK INTRA:                  -0.758
REMARK UNBOUND:                -1.248
REMARK SMILES CCOCCCNc1nc(Nc2ccccc2)c2cnn(C)c2n1
REMARK SMILES IDX 5 1 4 2 3 3 2 4 1 5 6 6 7 7 8 9 9 10 24 11 10 12 23 13 18 14
REMARK SMILES IDX 21 15 19 16 20 17 22 18 11 19 12 21 13 22 17 23 14 24 16 25
REMARK SMILES IDX 15 26
REMARK H PARENT 7 8 11 20
ROOT
ATOM      1  C   UNL     1       0.881  46.065  57.540  1.00  0.00     0.050 C 
ENDROOT
BRANCH   1   2
ATOM      2  C   UNL     1      -0.611  46.150  57.237  1.00  0.00     0.162 C 
BRANCH   2   3
ATOM      3  O   UNL     1      -1.202  44.891  57.559  1.00  0.00    -0.382 OA
BRANCH   3   4
ATOM      4  C   UNL     1      -1.966  44.331  56.493  1.00  0.00     0.156 C 
ATOM      5  C   UNL     1      -2.860  43.204  56.979  1.00  0.00     0.035 C 
ENDBRANCH   3   4
ENDBRANCH   2   3
ENDBRANCH   1   2
BRANCH   1   6
ATOM      6  C   UNL     1       1.678  45.419  56.409  1.00  0.00     0.118 C 
BRANCH   6   7
ATOM      7  N   UNL     1       2.967  46.071  56.249  1.00  0.00    -0.354 N 
ATOM      8  H   UNL     1       3.683  45.842  56.929  1.00  0.00     0.163 HD
BRANCH   7   9
ATOM      9  C   UNL     1       3.561  45.895  55.003  1.00  0.00     0.226 A 
ATOM     10  N   UNL     1       4.542  46.728  54.609  1.00  0.00    -0.195 NA
ATOM     11  N   UNL     1       3.067  44.873  54.291  1.00  0.00    -0.193 NA
ATOM     12  C   UNL     1       5.122  46.573  53.393  1.00  0.00     0.147 A 
ATOM     13  C   UNL     1       3.681  44.719  53.108  1.00  0.00     0.165 A 
ATOM     14  C   UNL     1       4.697  45.505  52.601  1.00  0.00     0.082 A 
ATOM     15  N   UNL     1       3.447  43.754  52.168  1.00  0.00    -0.250 N 
ATOM     16  C   UNL     1       5.013  44.912  51.361  1.00  0.00     0.149 A 
ATOM     17  N   UNL     1       4.244  43.854  51.078  1.00  0.00    -0.179 NA
ATOM     18  C   UNL     1       2.481  42.687  52.242  1.00  0.00     0.176 C 
BRANCH  12  19
ATOM     19  N   UNL     1       6.151  47.466  53.063  1.00  0.00    -0.339 N 
ATOM     20  H   UNL     1       5.881  47.945  52.207  1.00  0.00     0.168 HD
BRANCH  19  21
ATOM     21  C   UNL     1       7.546  47.278  53.127  1.00  0.00     0.040 A 
ATOM     22  C   UNL     1       8.221  46.919  51.953  1.00  0.00     0.026 A 
ATOM     23  C   UNL     1       8.288  47.410  54.306  1.00  0.00     0.026 A 
ATOM     24  C   UNL     1       9.604  46.715  51.951  1.00  0.00     0.002 A 
ATOM     25  C   UNL     1       9.672  47.207  54.308  1.00  0.00     0.002 A 
ATOM     26  C   UNL     1      10.329  46.862  53.130  1.00  0.00     0.000 A 
ENDBRANCH  19  21
ENDBRANCH  12  19
ENDBRANCH   7   9
ENDBRANCH   6   7
ENDBRANCH   1   6
TORSDOF 8
ENDMDL
