MODEL 1
REMARK VINA RESULT:    -8.923      0.000      0.000
REMARK INTER + INTRA:         -12.573
REMARK INTER:                 -12.053
REMARK INTRA:                  -0.520
REMARK UNBOUND:                -0.520
REMARK SMILES CC(C)CCNc1nc(Nc2ccccc2Br)c2cnn(C)c2n1
REMARK SMILES IDX 6 1 5 3 4 4 2 5 1 6 3 7 7 8 8 9 24 10 9 11 23 12 18 13 21 14
REMARK SMILES IDX 19 15 20 16 22 17 10 18 11 20 12 21 16 22 13 23 15 24 14 25
REMARK SMILES IDX 17 26
REMARK H PARENT 6 2 10 19
ROOT
ATOM      1  N   UNL     1       5.940  47.190  54.843  1.00  0.00    -0.354 N 
ATOM      2  H   UNL     1       5.672  48.082  54.444  1.00  0.00     0.163 HD
ENDROOT
BRANCH   1   3
ATOM      3  C   UNL     1       7.315  46.783  54.601  1.00  0.00     0.116 C 
BRANCH   3   4
ATOM      4  C   UNL     1       7.903  47.551  53.412  1.00  0.00     0.024 C 
BRANCH   4   5
ATOM      5  C   UNL     1       9.438  47.499  53.276  1.00  0.00    -0.016 C 
ATOM      6  C   UNL     1      10.067  47.205  54.641  1.00  0.00     0.007 C 
ATOM      7  C   UNL     1       9.902  46.454  52.259  1.00  0.00     0.007 C 
ENDBRANCH   4   5
ENDBRANCH   3   4
ENDBRANCH   1   3
BRANCH   1   8
ATOM      8  C   UNL     1       4.987  46.286  54.379  1.00  0.00     0.226 A 
ATOM      9  N   UNL     1       5.211  45.605  53.239  1.00  0.00    -0.195 NA
ATOM     10  N   UNL     1       3.893  46.188  55.143  1.00  0.00    -0.193 NA
ATOM     11  C   UNL     1       4.300  44.717  52.762  1.00  0.00     0.147 A 
ATOM     12  C   UNL     1       3.002  45.310  54.661  1.00  0.00     0.165 A 
ATOM     13  C   UNL     1       3.126  44.559  53.510  1.00  0.00     0.082 A 
ATOM     14  N   UNL     1       1.791  44.974  55.203  1.00  0.00    -0.250 N 
ATOM     15  C   UNL     1       1.933  43.809  53.451  1.00  0.00     0.149 A 
ATOM     16  N   UNL     1       1.110  44.058  54.475  1.00  0.00    -0.179 NA
ATOM     17  C   UNL     1       1.212  45.487  56.419  1.00  0.00     0.176 C 
BRANCH  11  18
ATOM     18  N   UNL     1       4.506  44.009  51.571  1.00  0.00    -0.339 N 
ATOM     19  H   UNL     1       3.684  43.526  51.228  1.00  0.00     0.168 HD
BRANCH  18  20
ATOM     20  C   UNL     1       5.625  43.843  50.731  1.00  0.00     0.054 A 
ATOM     21  C   UNL     1       6.624  44.814  50.587  1.00  0.00     0.027 A 
ATOM     22  C   UNL     1       5.762  42.661  49.971  1.00  0.00     0.041 A 
ATOM     23  C   UNL     1       7.713  44.618  49.730  1.00  0.00     0.002 A 
ATOM     24  C   UNL     1       6.848  42.461  49.112  1.00  0.00     0.018 A 
ATOM     25  C   UNL     1       7.824  43.445  48.991  1.00  0.00     0.001 A 
ATOM     26  Br  UNL     1       4.462  41.272  50.086  1.00  0.00    -0.049 Br
ENDBRANCH  18  20
ENDBRANCH  11  18
ENDBRANCH   1   8
TORSDOF 6
ENDMDL
MODEL 2
REMARK VINA RESULT:    -8.892      1.900      5.348
REMARK INTER + INTRA:         -12.531
REMARK INTER:                 -11.479
REMARK INTRA:                  -1.051
REMARK UNBOUND:                -0.520
REMARK SMILES CC(C)CCNc1nc(Nc2ccccc2Br)c2cnn(C)c2n1
REMARK SMILES IDX 6 1 5 3 4 4 2 5 1 6 3 7 7 8 8 9 24 10 9 11 23 12 18 13 21 14
REMARK SMILES IDX 19 15 20 16 22 17 10 18 11 20 12 21 16 22 13 23 15 24 14 25
REMARK SMILES IDX 17 26
REMARK H PARENT 6 2 10 19
ROOT
ATOM      1  N   UNL     1       4.445  47.026  54.956  1.00  0.00    -0.354 N 
ATOM      2  H   UNL     1       4.802  47.703  55.621  1.00  0.00     0.163 HD
ENDROOT
BRANCH   1   3
ATOM      3  C   UNL     1       3.851  45.833  55.536  1.00  0.00     0.116 C 
BRANCH   3   4
ATOM      4  C   UNL     1       2.389  45.691  55.095  1.00  0.00     0.024 C 
BRANCH   4   5
ATOM      5  C   UNL     1       2.164  44.986  53.742  1.00  0.00    -0.016 C 
ATOM      6  C   UNL     1       1.202  43.809  53.928  1.00  0.00     0.007 C 
ATOM      7  C   UNL     1       1.620  45.932  52.670  1.00  0.00     0.007 C 
ENDBRANCH   4   5
ENDBRANCH   3   4
ENDBRANCH   1   3
BRANCH   1   8
ATOM      8  C   UNL     1       5.509  46.773  54.093  1.00  0.00     0.226 A 
ATOM      9  N   UNL     1       5.284  46.146  52.923  1.00  0.00    -0.195 NA
ATOM     10  N   UNL     1       6.700  47.190  54.538  1.00  0.00    -0.193 NA
ATOM     11  C   UNL     1       6.302  45.886  52.060  1.00  0.00     0.147 A 
ATOM     12  C   UNL     1       7.694  46.926  53.680  1.00  0.00     0.165 A 
ATOM     13  C   UNL     1       7.581  46.294  52.458  1.00  0.00     0.082 A 
ATOM     14  N   UNL     1       9.021  47.226  53.829  1.00  0.00    -0.250 N 
ATOM     15  C   UNL     1       8.901  46.261  51.958  1.00  0.00     0.149 A 
ATOM     16  N   UNL     1       9.786  46.821  52.788  1.00  0.00    -0.179 NA
ATOM     17  C   UNL     1       9.639  47.899  54.944  1.00  0.00     0.176 C 
BRANCH  11  18
ATOM     18  N   UNL     1       6.094  45.222  50.845  1.00  0.00    -0.339 N 
ATOM     19  H   UNL     1       6.276  45.789  50.025  1.00  0.00     0.168 HD
BRANCH  18  20
ATOM     20  C   UNL     1       5.700  43.909  50.521  1.00  0.00     0.054 A 
ATOM     21  C   UNL     1       4.534  43.316  51.020  1.00  0.00     0.027 A 
ATOM     22  C   UNL     1       6.508  43.123  49.671  1.00  0.00     0.041 A 
ATOM     23  C   UNL     1       4.183  42.001  50.687  1.00  0.00     0.002 A 
ATOM     24  C   UNL     1       6.164  41.809  49.336  1.00  0.00     0.018 A 
ATOM     25  C   UNL     1       4.998  41.248  49.848  1.00  0.00     0.001 A 
ATOM     26  Br  UNL     1       8.119  43.827  48.933  1.00  0.00    -0.049 Br
ENDBRANCH  18  20
ENDBRANCH  11  18
ENDBRANCH   1   8
TORSDOF 6
ENDMDL
MODEL 3
REMARK VINA RESULT:    -8.719      2.341      6.302
REMARK INTER + INTRA:         -12.298
REMARK INTER:                 -11.184
REMARK INTRA:                  -1.114
REMARK UNBOUND:                -0.520
REMARK SMILES CC(C)CCNc1nc(Nc2ccccc2Br)c2cnn(C)c2n1
REMARK SMILES IDX 6 1 5 3 4 4 2 5 1 6 3 7 7 8 8 9 24 10 9 11 23 12 18 13 21 14
REMARK SMILES IDX 19 15 20 16 22 17 10 18 11 20 12 21 16 22 13 23 15 24 14 25
REMARK SMILES IDX 17 26
REMARK H PARENT 6 2 10 19
ROOT
ATOM      1  N   UNL     1       3.166  42.710  52.840  1.00  0.00    -0.354 N 
ATOM      2  H   UNL     1       3.221  41.701  52.768  1.00  0.00     0.163 HD
ENDROOT
BRANCH   1   3
ATOM      3  C   UNL     1       1.865  43.290  52.552  1.00  0.00     0.116 C 
BRANCH   3   4
ATOM      4  C   UNL     1       1.188  43.761  53.844  1.00  0.00     0.024 C 
BRANCH   4   5
ATOM      5  C   UNL     1       1.407  45.243  54.211  1.00  0.00    -0.016 C 
ATOM      6  C   UNL     1       2.496  45.353  55.283  1.00  0.00     0.007 C 
ATOM      7  C   UNL     1       1.788  46.098  53.001  1.00  0.00     0.007 C 
ENDBRANCH   4   5
ENDBRANCH   3   4
ENDBRANCH   1   3
BRANCH   1   8
ATOM      8  C   UNL     1       4.195  43.186  52.031  1.00  0.00     0.226 A 
ATOM      9  N   UNL     1       4.778  44.366  52.315  1.00  0.00    -0.195 NA
ATOM     10  N   UNL     1       4.509  42.390  51.002  1.00  0.00    -0.193 NA
ATOM     11  C   UNL     1       5.784  44.855  51.544  1.00  0.00     0.147 A 
ATOM     12  C   UNL     1       5.501  42.884  50.249  1.00  0.00     0.165 A 
ATOM     13  C   UNL     1       6.169  44.076  50.446  1.00  0.00     0.082 A 
ATOM     14  N   UNL     1       6.060  42.318  49.135  1.00  0.00    -0.250 N 
ATOM     15  C   UNL     1       7.105  44.131  49.391  1.00  0.00     0.149 A 
ATOM     16  N   UNL     1       7.043  43.067  48.584  1.00  0.00    -0.179 NA
ATOM     17  C   UNL     1       5.705  41.058  48.532  1.00  0.00     0.176 C 
BRANCH  11  18
ATOM     18  N   UNL     1       6.394  46.087  51.812  1.00  0.00    -0.339 N 
ATOM     19  H   UNL     1       5.851  46.891  51.523  1.00  0.00     0.168 HD
BRANCH  18  20
ATOM     20  C   UNL     1       7.611  46.445  52.425  1.00  0.00     0.054 A 
ATOM     21  C   UNL     1       8.840  46.429  51.753  1.00  0.00     0.027 A 
ATOM     22  C   UNL     1       7.627  46.824  53.785  1.00  0.00     0.041 A 
ATOM     23  C   UNL     1      10.031  46.777  52.402  1.00  0.00     0.002 A 
ATOM     24  C   UNL     1       8.814  47.172  54.439  1.00  0.00     0.018 A 
ATOM     25  C   UNL     1      10.019  47.145  53.743  1.00  0.00     0.001 A 
ATOM     26  Br  UNL     1       6.014  46.882  54.799  1.00  0.00    -0.049 Br
ENDBRANCH  18  20
ENDBRANCH  11  18
ENDBRANCH   1   8
TORSDOF 6
ENDMDL
MODEL 4
REMARK VINA RESULT:    -8.708      1.857      4.912
REMARK INTER + INTRA:         -12.283
REMARK INTER:                 -11.235
REMARK INTRA:                  -1.048
REMARK UNBOUND:                -0.520
REMARK SMILES CC(C)CCNc1nc(Nc2ccccc2Br)c2cnn(C)c2n1
REMARK SMILES IDX 6 1 5 3 4 4 2 5 1 6 3 7 7 8 8 9 24 10 9 11 23 12 18 13 21 14
REMARK SMILES IDX 19 15 20 16 22 17 10 18 11 20 12 21 16 22 13 23 15 24 14 25
REMARK SMILES IDX 17 26
REMARK H PARENT 6 2 10 19
ROOT
ATOM      1  N   UNL     1       3.117  42.804  50.980  1.00  0.00    -0.354 N 
ATOM      2  H   UNL     1       2.130  42.706  51.190  1.00  0.00     0.163 HD
ENDROOT
BRANCH   1   3
ATOM      3  C   UNL     1       3.905  41.588  51.097  1.00  0.00     0.116 C 
BRANCH   3   4
ATOM      4  C   UNL     1       4.499  41.200  49.738  1.00  0.00     0.024 C 
BRANCH   4   5
ATOM      5  C   UNL     1       5.787  41.945  49.334  1.00  0.00    -0.016 C 
ATOM      6  C   UNL     1       6.993  41.301  50.024  1.00  0.00     0.007 C 
ATOM      7  C   UNL     1       6.007  41.960  47.820  1.00  0.00     0.007 C 
ENDBRANCH   4   5
ENDBRANCH   3   4
ENDBRANCH   1   3
BRANCH   1   8
ATOM      8  C   UNL     1       3.555  43.849  51.789  1.00  0.00     0.226 A 
ATOM      9  N   UNL     1       4.560  44.641  51.370  1.00  0.00    -0.195 NA
ATOM     10  N   UNL     1       2.910  43.961  52.956  1.00  0.00    -0.193 NA
ATOM     11  C   UNL     1       5.009  45.670  52.136  1.00  0.00     0.147 A 
ATOM     12  C   UNL     1       3.363  44.977  53.703  1.00  0.00     0.165 A 
ATOM     13  C   UNL     1       4.381  45.850  53.375  1.00  0.00     0.082 A 
ATOM     14  N   UNL     1       2.917  45.363  54.938  1.00  0.00    -0.250 N 
ATOM     15  C   UNL     1       4.468  46.718  54.484  1.00  0.00     0.149 A 
ATOM     16  N   UNL     1       3.584  46.427  55.444  1.00  0.00    -0.179 NA
ATOM     17  C   UNL     1       1.853  44.762  55.703  1.00  0.00     0.176 C 
BRANCH  11  18
ATOM     18  N   UNL     1       6.062  46.497  51.727  1.00  0.00    -0.339 N 
ATOM     19  H   UNL     1       5.822  47.138  50.981  1.00  0.00     0.168 HD
BRANCH  18  20
ATOM     20  C   UNL     1       7.398  46.638  52.156  1.00  0.00     0.054 A 
ATOM     21  C   UNL     1       7.763  47.386  53.282  1.00  0.00     0.027 A 
ATOM     22  C   UNL     1       8.438  46.025  51.425  1.00  0.00     0.041 A 
ATOM     23  C   UNL     1       9.103  47.516  53.668  1.00  0.00     0.002 A 
ATOM     24  C   UNL     1       9.778  46.153  51.805  1.00  0.00     0.018 A 
ATOM     25  C   UNL     1      10.110  46.903  52.929  1.00  0.00     0.001 A 
ATOM     26  Br  UNL     1       8.058  44.985  49.874  1.00  0.00    -0.049 Br
ENDBRANCH  18  20
ENDBRANCH  11  18
ENDBRANCH   1   8
TORSDOF 6
ENDMDL
MODEL 5
REMARK VINA RESULT:    -8.695      2.356      5.232
REMARK INTER + INTRA:         -12.265
REMARK INTER:                 -10.924
REMARK INTRA:                  -1.341
REMARK UNBOUND:                -0.520
REMARK SMILES CC(C)CCNc1nc(Nc2ccccc2Br)c2cnn(C)c2n1
REMARK SMILES IDX 6 1 5 3 4 4 2 5 1 6 3 7 7 8 8 9 24 10 9 11 23 12 18 13 21 14
REMARK SMILES IDX 19 15 20 16 22 17 10 18 11 20 12 21 16 22 13 23 15 24 14 25
REMARK SMILES IDX 17 26
REMARK H PARENT 6 2 10 19
ROOT
ATOM      1  N   UNL     1       2.323  45.598  51.835  1.00  0.00    -0.354 N 
ATOM      2  H   UNL     1       1.924  46.059  51.025  1.00  0.00     0.163 HD
ENDROOT
BRANCH   1   3
ATOM      3  C   UNL     1       2.518  46.441  53.003  1.00  0.00     0.116 C 
BRANCH   3   4
ATOM      4  C   UNL     1       2.839  45.587  54.235  1.00  0.00     0.024 C 
BRANCH   4   5
ATOM      5  C   UNL     1       4.118  45.977  55.004  1.00  0.00    -0.016 C 
ATOM      6  C   UNL     1       5.206  44.927  54.762  1.00  0.00     0.007 C 
ATOM      7  C   UNL     1       4.640  47.361  54.612  1.00  0.00     0.007 C 
ENDBRANCH   4   5
ENDBRANCH   3   4
ENDBRANCH   1   3
BRANCH   1   8
ATOM      8  C   UNL     1       3.486  44.991  51.369  1.00  0.00     0.226 A 
ATOM      9  N   UNL     1       4.618  45.712  51.259  1.00  0.00    -0.195 NA
ATOM     10  N   UNL     1       3.353  43.697  51.056  1.00  0.00    -0.193 NA
ATOM     11  C   UNL     1       5.768  45.146  50.808  1.00  0.00     0.147 A 
ATOM     12  C   UNL     1       4.493  43.152  50.611  1.00  0.00     0.165 A 
ATOM     13  C   UNL     1       5.707  43.791  50.459  1.00  0.00     0.082 A 
ATOM     14  N   UNL     1       4.696  41.857  50.216  1.00  0.00    -0.250 N 
ATOM     15  C   UNL     1       6.570  42.790  49.963  1.00  0.00     0.149 A 
ATOM     16  N   UNL     1       5.962  41.610  49.806  1.00  0.00    -0.179 NA
ATOM     17  C   UNL     1       3.724  40.792  50.200  1.00  0.00     0.176 C 
BRANCH  11  18
ATOM     18  N   UNL     1       6.953  45.880  50.671  1.00  0.00    -0.339 N 
ATOM     19  H   UNL     1       7.162  46.158  49.720  1.00  0.00     0.168 HD
BRANCH  18  20
ATOM     20  C   UNL     1       7.917  46.333  51.595  1.00  0.00     0.054 A 
ATOM     21  C   UNL     1       7.625  47.243  52.618  1.00  0.00     0.027 A 
ATOM     22  C   UNL     1       9.250  45.882  51.496  1.00  0.00     0.041 A 
ATOM     23  C   UNL     1       8.614  47.683  53.507  1.00  0.00     0.002 A 
ATOM     24  C   UNL     1      10.243  46.318  52.380  1.00  0.00     0.018 A 
ATOM     25  C   UNL     1       9.921  47.223  53.388  1.00  0.00     0.001 A 
ATOM     26  Br  UNL     1       9.762  44.643  50.141  1.00  0.00    -0.049 Br
ENDBRANCH  18  20
ENDBRANCH  11  18
ENDBRANCH   1   8
TORSDOF 6
ENDMDL
MODEL 6
REMARK VINA RESULT:    -8.679      2.295      5.438
REMARK INTER + INTRA:         -12.243
REMARK INTER:                 -11.475
REMARK INTRA:                  -0.769
REMARK UNBOUND:                -0.520
REMARK SMILES CC(C)CCNc1nc(Nc2ccccc2Br)c2cnn(C)c2n1
REMARK SMILES IDX 6 1 5 3 4 4 2 5 1 6 3 7 7 8 8 9 24 10 9 11 23 12 18 13 21 14
REMARK SMILES IDX 19 15 20 16 22 17 10 18 11 20 12 21 16 22 13 23 15 24 14 25
REMARK SMILES IDX 17 26
REMARK H PARENT 6 2 10 19
ROOT
ATOM      1  N   UNL     1       5.975  46.834  52.395  1.00  0.00    -0.354 N 
ATOM      2  H   UNL     1       5.969  47.320  51.505  1.00  0.00     0.163 HD
ENDROOT
BRANCH   1   3
ATOM      3  C   UNL     1       7.241  46.846  53.109  1.00  0.00     0.116 C 
BRANCH   3   4
ATOM      4  C   UNL     1       8.320  47.550  52.278  1.00  0.00     0.024 C 
BRANCH   4   5
ATOM      5  C   UNL     1       9.777  47.178  52.622  1.00  0.00    -0.016 C 
ATOM      6  C   UNL     1       9.911  46.965  54.132  1.00  0.00     0.007 C 
ATOM      7  C   UNL     1      10.255  45.928  51.880  1.00  0.00     0.007 C 
ENDBRANCH   4   5
ENDBRANCH   3   4
ENDBRANCH   1   3
BRANCH   1   8
ATOM      8  C   UNL     1       5.490  45.559  52.112  1.00  0.00     0.226 A 
ATOM      9  N   UNL     1       4.480  45.050  52.844  1.00  0.00    -0.195 NA
ATOM     10  N   UNL     1       6.111  44.937  51.103  1.00  0.00    -0.193 NA
ATOM     11  C   UNL     1       3.987  43.810  52.590  1.00  0.00     0.147 A 
ATOM     12  C   UNL     1       5.616  43.715  50.865  1.00  0.00     0.165 A 
ATOM     13  C   UNL     1       4.587  43.096  51.546  1.00  0.00     0.082 A 
ATOM     14  N   UNL     1       6.020  42.828  49.904  1.00  0.00    -0.250 N 
ATOM     15  C   UNL     1       4.457  41.840  50.917  1.00  0.00     0.149 A 
ATOM     16  N   UNL     1       5.329  41.664  49.919  1.00  0.00    -0.179 NA
ATOM     17  C   UNL     1       7.066  43.020  48.931  1.00  0.00     0.176 C 
BRANCH  11  18
ATOM     18  N   UNL     1       2.947  43.256  53.348  1.00  0.00    -0.339 N 
ATOM     19  H   UNL     1       3.258  42.703  54.138  1.00  0.00     0.168 HD
BRANCH  18  20
ATOM     20  C   UNL     1       1.543  43.323  53.250  1.00  0.00     0.054 A 
ATOM     21  C   UNL     1       0.815  42.687  52.237  1.00  0.00     0.027 A 
ATOM     22  C   UNL     1       0.810  44.077  54.192  1.00  0.00     0.041 A 
ATOM     23  C   UNL     1      -0.579  42.790  52.164  1.00  0.00     0.002 A 
ATOM     24  C   UNL     1      -0.584  44.185  54.124  1.00  0.00     0.018 A 
ATOM     25  C   UNL     1      -1.278  43.540  53.105  1.00  0.00     0.001 A 
ATOM     26  Br  UNL     1       1.695  44.987  55.614  1.00  0.00    -0.049 Br
ENDBRANCH  18  20
ENDBRANCH  11  18
ENDBRANCH   1   8
TORSDOF 6
ENDMDL
MODEL 7
REMARK VINA RESULT:    -8.676      1.875      5.452
REMARK INTER + INTRA:         -12.240
REMARK INTER:                 -11.787
REMARK INTRA:                  -0.452
REMARK UNBOUND:                -0.520
REMARK SMILES CC(C)CCNc1nc(Nc2ccccc2Br)c2cnn(C)c2n1
REMARK SMILES IDX 6 1 5 3 4 4 2 5 1 6 3 7 7 8 8 9 24 10 9 11 23 12 18 13 21 14
REMARK SMILES IDX 19 15 20 16 22 17 10 18 11 20 12 21 16 22 13 23 15 24 14 25
REMARK SMILES IDX 17 26
REMARK H PARENT 6 2 10 19
ROOT
ATOM      1  N   UNL     1       5.845  46.854  52.758  1.00  0.00    -0.354 N 
ATOM      2  H   UNL     1       5.771  47.399  51.906  1.00  0.00     0.163 HD
ENDROOT
BRANCH   1   3
ATOM      3  C   UNL     1       7.170  46.797  53.352  1.00  0.00     0.116 C 
BRANCH   3   4
ATOM      4  C   UNL     1       8.175  47.585  52.504  1.00  0.00     0.024 C 
BRANCH   4   5
ATOM      5  C   UNL     1       9.663  47.277  52.771  1.00  0.00    -0.016 C 
ATOM      6  C   UNL     1       9.874  47.014  54.265  1.00  0.00     0.007 C 
ATOM      7  C   UNL     1      10.170  46.083  51.961  1.00  0.00     0.007 C 
ENDBRANCH   4   5
ENDBRANCH   3   4
ENDBRANCH   1   3
BRANCH   1   8
ATOM      8  C   UNL     1       5.309  45.610  52.437  1.00  0.00     0.226 A 
ATOM      9  N   UNL     1       4.225  45.159  53.097  1.00  0.00    -0.195 NA
ATOM     10  N   UNL     1       5.959  44.955  51.468  1.00  0.00    -0.193 NA
ATOM     11  C   UNL     1       3.679  43.950  52.805  1.00  0.00     0.147 A 
ATOM     12  C   UNL     1       5.411  43.763  51.191  1.00  0.00     0.165 A 
ATOM     13  C   UNL     1       4.305  43.204  51.799  1.00  0.00     0.082 A 
ATOM     14  N   UNL     1       5.827  42.856  50.254  1.00  0.00    -0.250 N 
ATOM     15  C   UNL     1       4.146  41.958  51.156  1.00  0.00     0.149 A 
ATOM     16  N   UNL     1       5.071  41.734  50.218  1.00  0.00    -0.179 NA
ATOM     17  C   UNL     1       6.945  42.988  49.354  1.00  0.00     0.176 C 
BRANCH  11  18
ATOM     18  N   UNL     1       2.561  43.455  53.488  1.00  0.00    -0.339 N 
ATOM     19  H   UNL     1       2.411  42.460  53.375  1.00  0.00     0.168 HD
BRANCH  18  20
ATOM     20  C   UNL     1       1.601  44.057  54.327  1.00  0.00     0.054 A 
ATOM     21  C   UNL     1       1.940  44.897  55.396  1.00  0.00     0.027 A 
ATOM     22  C   UNL     1       0.229  43.804  54.117  1.00  0.00     0.041 A 
ATOM     23  C   UNL     1       0.957  45.463  56.217  1.00  0.00     0.002 A 
ATOM     24  C   UNL     1      -0.757  44.366  54.936  1.00  0.00     0.018 A 
ATOM     25  C   UNL     1      -0.389  45.197  55.990  1.00  0.00     0.001 A 
ATOM     26  Br  UNL     1      -0.348  42.676  52.694  1.00  0.00    -0.049 Br
ENDBRANCH  18  20
ENDBRANCH  11  18
ENDBRANCH   1   8
TORSDOF 6
ENDMDL
MODEL 8
REMARK VINA RESULT:    -8.614      2.645      6.168
REMARK INTER + INTRA:         -12.156
REMARK INTER:                 -11.397
REMARK INTRA:                  -0.759
REMARK UNBOUND:                -0.520
REMARK SMILES CC(C)CCNc1nc(Nc2ccccc2Br)c2cnn(C)c2n1
REMARK SMILES IDX 6 1 5 3 4 4 2 5 1 6 3 7 7 8 8 9 24 10 9 11 23 12 18 13 21 14
REMARK SMILES IDX 19 15 20 16 22 17 10 18 11 20 12 21 16 22 13 23 15 24 14 25
REMARK SMILES IDX 17 26
REMARK H PARENT 6 2 10 19
ROOT
ATOM      1  N   UNL     1       6.115  41.735  49.803  1.00  0.00    -0.354 N 
ATOM      2  H   UNL     1       7.052  42.062  49.596  1.00  0.00     0.163 HD
ENDROOT
BRANCH   1   3
ATOM      3  C   UNL     1       5.373  41.203  48.672  1.00  0.00     0.116 C 
BRANCH   3   4
ATOM      4  C   UNL     1       5.731  41.960  47.389  1.00  0.00     0.024 C 
BRANCH   4   5
ATOM      5  C   UNL     1       5.193  41.348  46.079  1.00  0.00    -0.016 C 
ATOM      6  C   UNL     1       3.801  40.758  46.320  1.00  0.00     0.007 C 
ATOM      7  C   UNL     1       5.132  42.364  44.937  1.00  0.00     0.007 C 
ENDBRANCH   4   5
ENDBRANCH   3   4
ENDBRANCH   1   3
BRANCH   1   8
ATOM      8  C   UNL     1       5.493  42.806  50.441  1.00  0.00     0.226 A 
ATOM      9  N   UNL     1       6.183  43.939  50.670  1.00  0.00    -0.195 NA
ATOM     10  N   UNL     1       4.218  42.587  50.784  1.00  0.00    -0.193 NA
ATOM     11  C   UNL     1       5.602  45.001  51.289  1.00  0.00     0.147 A 
ATOM     12  C   UNL     1       3.658  43.640  51.395  1.00  0.00     0.165 A 
ATOM     13  C   UNL     1       4.266  44.846  51.679  1.00  0.00     0.082 A 
ATOM     14  N   UNL     1       2.376  43.744  51.863  1.00  0.00    -0.250 N 
ATOM     15  C   UNL     1       3.262  45.601  52.323  1.00  0.00     0.149 A 
ATOM     16  N   UNL     1       2.109  44.936  52.445  1.00  0.00    -0.179 NA
ATOM     17  C   UNL     1       1.343  42.740  51.793  1.00  0.00     0.176 C 
BRANCH  11  18
ATOM     18  N   UNL     1       6.305  46.183  51.550  1.00  0.00    -0.339 N 
ATOM     19  H   UNL     1       5.830  47.025  51.244  1.00  0.00     0.168 HD
BRANCH  18  20
ATOM     20  C   UNL     1       7.539  46.452  52.176  1.00  0.00     0.054 A 
ATOM     21  C   UNL     1       8.762  46.429  51.494  1.00  0.00     0.027 A 
ATOM     22  C   UNL     1       7.577  46.742  53.557  1.00  0.00     0.041 A 
ATOM     23  C   UNL     1       9.970  46.686  52.155  1.00  0.00     0.002 A 
ATOM     24  C   UNL     1       8.781  46.998  54.222  1.00  0.00     0.018 A 
ATOM     25  C   UNL     1       9.980  46.968  53.517  1.00  0.00     0.001 A 
ATOM     26  Br  UNL     1       5.974  46.800  54.585  1.00  0.00    -0.049 Br
ENDBRANCH  18  20
ENDBRANCH  11  18
ENDBRANCH   1   8
TORSDOF 6
ENDMDL
MODEL 9
REMARK VINA RESULT:    -8.567      2.643      6.305
REMARK INTER + INTRA:         -12.091
REMARK INTER:                 -11.336
REMARK INTRA:                  -0.756
REMARK UNBOUND:                -0.520
REMARK SMILES CC(C)CCNc1nc(Nc2ccccc2Br)c2cnn(C)c2n1
REMARK SMILES IDX 6 1 5 3 4 4 2 5 1 6 3 7 7 8 8 9 24 10 9 11 23 12 18 13 21 14
REMARK SMILES IDX 19 15 20 16 22 17 10 18 11 20 12 21 16 22 13 23 15 24 14 25
REMARK SMILES IDX 17 26
REMARK H PARENT 6 2 10 19
ROOT
ATOM      1  N   UNL     1       6.054  41.385  49.392  1.00  0.00    -0.354 N 
ATOM      2  H   UNL     1       7.042  41.497  49.197  1.00  0.00     0.163 HD
ENDROOT
BRANCH   1   3
ATOM      3  C   UNL     1       5.206  41.170  48.232  1.00  0.00     0.116 C 
BRANCH   3   4
ATOM      4  C   UNL     1       5.781  41.887  47.005  1.00  0.00     0.024 C 
BRANCH   4   5
ATOM      5  C   UNL     1       5.196  41.456  45.644  1.00  0.00    -0.016 C 
ATOM      6  C   UNL     1       3.837  40.783  45.856  1.00  0.00     0.007 C 
ATOM      7  C   UNL     1       5.045  42.628  44.672  1.00  0.00     0.007 C 
ENDBRANCH   4   5
ENDBRANCH   3   4
ENDBRANCH   1   3
BRANCH   1   8
ATOM      8  C   UNL     1       5.708  42.498  50.154  1.00  0.00     0.226 A 
ATOM      9  N   UNL     1       6.503  43.585  50.148  1.00  0.00    -0.195 NA
ATOM     10  N   UNL     1       4.574  42.366  50.853  1.00  0.00    -0.193 NA
ATOM     11  C   UNL     1       6.191  44.686  50.881  1.00  0.00     0.147 A 
ATOM     12  C   UNL     1       4.279  43.458  51.571  1.00  0.00     0.165 A 
ATOM     13  C   UNL     1       5.016  44.623  51.640  1.00  0.00     0.082 A 
ATOM     14  N   UNL     1       3.193  43.649  52.383  1.00  0.00    -0.250 N 
ATOM     15  C   UNL     1       4.287  45.447  52.524  1.00  0.00     0.149 A 
ATOM     16  N   UNL     1       3.178  44.861  52.986  1.00  0.00    -0.179 NA
ATOM     17  C   UNL     1       2.124  42.716  52.636  1.00  0.00     0.176 C 
BRANCH  11  18
ATOM     18  N   UNL     1       7.011  45.821  50.901  1.00  0.00    -0.339 N 
ATOM     19  H   UNL     1       6.900  46.428  50.097  1.00  0.00     0.168 HD
BRANCH  18  20
ATOM     20  C   UNL     1       7.954  46.311  51.827  1.00  0.00     0.054 A 
ATOM     21  C   UNL     1       7.612  47.153  52.893  1.00  0.00     0.027 A 
ATOM     22  C   UNL     1       9.316  45.970  51.687  1.00  0.00     0.041 A 
ATOM     23  C   UNL     1       8.581  47.632  53.783  1.00  0.00     0.002 A 
ATOM     24  C   UNL     1      10.289  46.447  52.573  1.00  0.00     0.018 A 
ATOM     25  C   UNL     1       9.918  47.282  53.623  1.00  0.00     0.001 A 
ATOM     26  Br  UNL     1       9.896  44.833  50.273  1.00  0.00    -0.049 Br
ENDBRANCH  18  20
ENDBRANCH  11  18
ENDBRANCH   1   8
TORSDOF 6
ENDMDL
MODEL 10
REMARK VINA RESULT:    -8.520      2.319      5.304
REMARK INTER + INTRA:         -12.028
REMARK INTER:                 -11.279
REMARK INTRA:                  -0.749
REMARK UNBOUND:                -0.520
REMARK SMILES CC(C)CCNc1nc(Nc2ccccc2Br)c2cnn(C)c2n1
REMARK SMILES IDX 6 1 5 3 4 4 2 5 1 6 3 7 7 8 8 9 24 10 9 11 23 12 18 13 21 14
REMARK SMILES IDX 19 15 20 16 22 17 10 18 11 20 12 21 16 22 13 23 15 24 14 25
REMARK SMILES IDX 17 26
REMARK H PARENT 6 2 10 19
ROOT
ATOM      1  N   UNL     1       8.102  46.172  50.681  1.00  0.00    -0.354 N 
ATOM      2  H   UNL     1       8.817  45.457  50.753  1.00  0.00     0.163 HD
ENDROOT
BRANCH   1   3
ATOM      3  C   UNL     1       8.305  47.347  51.511  1.00  0.00     0.116 C 
BRANCH   3   4
ATOM      4  C   UNL     1       9.444  47.111  52.510  1.00  0.00     0.024 C 
BRANCH   4   5
ATOM      5  C   UNL     1       9.196  47.627  53.942  1.00  0.00    -0.016 C 
ATOM      6  C   UNL     1       7.865  47.078  54.464  1.00  0.00     0.007 C 
ATOM      7  C   UNL     1      10.322  47.251  54.906  1.00  0.00     0.007 C 
ENDBRANCH   4   5
ENDBRANCH   3   4
ENDBRANCH   1   3
BRANCH   1   8
ATOM      8  C   UNL     1       6.902  45.506  50.918  1.00  0.00     0.226 A 
ATOM      9  N   UNL     1       5.912  46.131  51.584  1.00  0.00    -0.195 NA
ATOM     10  N   UNL     1       6.854  44.255  50.445  1.00  0.00    -0.193 NA
ATOM     11  C   UNL     1       4.729  45.507  51.829  1.00  0.00     0.147 A 
ATOM     12  C   UNL     1       5.685  43.651  50.695  1.00  0.00     0.165 A 
ATOM     13  C   UNL     1       4.605  44.192  51.363  1.00  0.00     0.082 A 
ATOM     14  N   UNL     1       5.313  42.382  50.342  1.00  0.00    -0.250 N 
ATOM     15  C   UNL     1       3.640  43.162  51.361  1.00  0.00     0.149 A 
ATOM     16  N   UNL     1       4.064  42.053  50.747  1.00  0.00    -0.179 NA
ATOM     17  C   UNL     1       6.102  41.417  49.617  1.00  0.00     0.176 C 
BRANCH  11  18
ATOM     18  N   UNL     1       3.692  46.132  52.532  1.00  0.00    -0.339 N 
ATOM     19  H   UNL     1       3.677  47.141  52.442  1.00  0.00     0.168 HD
BRANCH  18  20
ATOM     20  C   UNL     1       2.640  45.642  53.333  1.00  0.00     0.054 A 
ATOM     21  C   UNL     1       1.317  45.554  52.885  1.00  0.00     0.027 A 
ATOM     22  C   UNL     1       2.900  45.232  54.658  1.00  0.00     0.041 A 
ATOM     23  C   UNL     1       0.296  45.076  53.716  1.00  0.00     0.002 A 
ATOM     24  C   UNL     1       1.884  44.755  55.493  1.00  0.00     0.018 A 
ATOM     25  C   UNL     1       0.578  44.679  55.019  1.00  0.00     0.001 A 
ATOM     26  Br  UNL     1       4.665  45.308  55.374  1.00  0.00    -0.049 Br
ENDBRANCH  18  20
ENDBRANCH  11  18
ENDBRANCH   1   8
TORSDOF 6
ENDMDL
MODEL 11
REMARK VINA RESULT:    -8.399      2.490      5.097
REMARK INTER + INTRA:         -11.865
REMARK INTER:                 -11.179
REMARK INTRA:                  -0.686
REMARK UNBOUND:                -0.520
REMARK SMILES CC(C)CCNc1nc(Nc2ccccc2Br)c2cnn(C)c2n1
REMARK SMILES IDX 6 1 5 3 4 4 2 5 1 6 3 7 7 8 8 9 24 10 9 11 23 12 18 13 21 14
REMARK SMILES IDX 19 15 20 16 22 17 10 18 11 20 12 21 16 22 13 23 15 24 14 25
REMARK SMILES IDX 17 26
REMARK H PARENT 6 2 10 19
ROOT
ATOM      1  N   UNL     1       4.465  41.847  51.658  1.00  0.00    -0.354 N 
ATOM      2  H   UNL     1       5.347  41.690  52.134  1.00  0.00     0.163 HD
ENDROOT
BRANCH   1   3
ATOM      3  C   UNL     1       4.399  41.371  50.287  1.00  0.00     0.116 C 
BRANCH   3   4
ATOM      4  C   UNL     1       5.795  41.358  49.653  1.00  0.00     0.024 C 
BRANCH   4   5
ATOM      5  C   UNL     1       6.097  42.513  48.676  1.00  0.00    -0.016 C 
ATOM      6  C   UNL     1       7.459  43.127  49.010  1.00  0.00     0.007 C 
ATOM      7  C   UNL     1       6.078  42.064  47.213  1.00  0.00     0.007 C 
ENDBRANCH   4   5
ENDBRANCH   3   4
ENDBRANCH   1   3
BRANCH   1   8
ATOM      8  C   UNL     1       4.217  43.210  51.802  1.00  0.00     0.226 A 
ATOM      9  N   UNL     1       5.217  44.094  51.624  1.00  0.00    -0.195 NA
ATOM     10  N   UNL     1       2.954  43.516  52.124  1.00  0.00    -0.193 NA
ATOM     11  C   UNL     1       5.004  45.430  51.757  1.00  0.00     0.147 A 
ATOM     12  C   UNL     1       2.758  44.835  52.253  1.00  0.00     0.165 A 
ATOM     13  C   UNL     1       3.704  45.828  52.094  1.00  0.00     0.082 A 
ATOM     14  N   UNL     1       1.589  45.475  52.567  1.00  0.00    -0.250 N 
ATOM     15  C   UNL     1       2.999  47.026  52.339  1.00  0.00     0.149 A 
ATOM     16  N   UNL     1       1.711  46.821  52.634  1.00  0.00    -0.179 NA
ATOM     17  C   UNL     1       0.308  44.864  52.820  1.00  0.00     0.176 C 
BRANCH  11  18
ATOM     18  N   UNL     1       6.032  46.366  51.592  1.00  0.00    -0.339 N 
ATOM     19  H   UNL     1       5.783  47.159  51.013  1.00  0.00     0.168 HD
BRANCH  18  20
ATOM     20  C   UNL     1       7.350  46.445  52.084  1.00  0.00     0.054 A 
ATOM     21  C   UNL     1       8.480  46.306  51.270  1.00  0.00     0.027 A 
ATOM     22  C   UNL     1       7.572  46.655  53.462  1.00  0.00     0.041 A 
ATOM     23  C   UNL     1       9.775  46.375  51.799  1.00  0.00     0.002 A 
ATOM     24  C   UNL     1       8.863  46.724  53.998  1.00  0.00     0.018 A 
ATOM     25  C   UNL     1       9.967  46.581  53.162  1.00  0.00     0.001 A 
ATOM     26  Br  UNL     1       6.109  46.858  54.666  1.00  0.00    -0.049 Br
ENDBRANCH  18  20
ENDBRANCH  11  18
ENDBRANCH   1   8
TORSDOF 6
ENDMDL
MODEL 12
REMARK VINA RESULT:    -8.356      2.233      6.512
REMARK INTER + INTRA:         -11.806
REMARK INTER:                 -11.131
REMARK INTRA:                  -0.675
REMARK UNBOUND:                -0.520
REMARK SMILES CC(C)CCNc1nc(Nc2ccccc2Br)c2cnn(C)c2n1
REMARK SMILES IDX 6 1 5 3 4 4 2 5 1 6 3 7 7 8 8 9 24 10 9 11 23 12 18 13 21 14
REMARK SMILES IDX 19 15 20 16 22 17 10 18 11 20 12 21 16 22 13 23 15 24 14 25
REMARK SMILES IDX 17 26
REMARK H PARENT 6 2 10 19
ROOT
ATOM      1  N   UNL     1       2.654  43.306  53.172  1.00  0.00    -0.354 N 
ATOM      2  H   UNL     1       2.038  42.729  52.611  1.00  0.00     0.163 HD
ENDROOT
BRANCH   1   3
ATOM      3  C   UNL     1       2.039  44.475  53.778  1.00  0.00     0.116 C 
BRANCH   3   4
ATOM      4  C   UNL     1       0.657  44.124  54.343  1.00  0.00     0.024 C 
BRANCH   4   5
ATOM      5  C   UNL     1       0.106  45.092  55.410  1.00  0.00    -0.016 C 
ATOM      6  C   UNL     1      -1.235  44.571  55.934  1.00  0.00     0.007 C 
ATOM      7  C   UNL     1       1.074  45.291  56.578  1.00  0.00     0.007 C 
ENDBRANCH   4   5
ENDBRANCH   3   4
ENDBRANCH   1   3
BRANCH   1   8
ATOM      8  C   UNL     1       3.734  43.594  52.341  1.00  0.00     0.226 A 
ATOM      9  N   UNL     1       4.411  44.747  52.502  1.00  0.00    -0.195 NA
ATOM     10  N   UNL     1       3.994  42.659  51.420  1.00  0.00    -0.193 NA
ATOM     11  C   UNL     1       5.469  45.055  51.707  1.00  0.00     0.147 A 
ATOM     12  C   UNL     1       5.038  42.976  50.642  1.00  0.00     0.165 A 
ATOM     13  C   UNL     1       5.804  44.122  50.717  1.00  0.00     0.082 A 
ATOM     14  N   UNL     1       5.564  42.237  49.617  1.00  0.00    -0.250 N 
ATOM     15  C   UNL     1       6.759  43.973  49.689  1.00  0.00     0.149 A 
ATOM     16  N   UNL     1       6.618  42.831  49.009  1.00  0.00    -0.179 NA
ATOM     17  C   UNL     1       5.111  40.950  49.154  1.00  0.00     0.176 C 
BRANCH  11  18
ATOM     18  N   UNL     1       6.179  46.254  51.847  1.00  0.00    -0.339 N 
ATOM     19  H   UNL     1       5.701  47.066  51.475  1.00  0.00     0.168 HD
BRANCH  18  20
ATOM     20  C   UNL     1       7.426  46.573  52.422  1.00  0.00     0.054 A 
ATOM     21  C   UNL     1       8.624  46.573  51.698  1.00  0.00     0.027 A 
ATOM     22  C   UNL     1       7.503  46.895  53.795  1.00  0.00     0.041 A 
ATOM     23  C   UNL     1       9.846  46.880  52.309  1.00  0.00     0.002 A 
ATOM     24  C   UNL     1       8.721  47.202  54.411  1.00  0.00     0.018 A 
ATOM     25  C   UNL     1       9.895  47.192  53.664  1.00  0.00     0.001 A 
ATOM     26  Br  UNL     1       5.936  46.926  54.878  1.00  0.00    -0.049 Br
ENDBRANCH  18  20
ENDBRANCH  11  18
ENDBRANCH   1   8
TORSDOF 6
ENDMDL
MODEL 13
REMARK VINA RESULT:    -8.213      1.988      6.008
REMARK INTER + INTRA:         -11.614
REMARK INTER:                 -10.930
REMARK INTRA:                  -0.684
REMARK UNBOUND:                -0.520
REMARK SMILES CC(C)CCNc1nc(Nc2ccccc2Br)c2cnn(C)c2n1
REMARK SMILES IDX 6 1 5 3 4 4 2 5 1 6 3 7 7 8 8 9 24 10 9 11 23 12 18 13 21 14
REMARK SMILES IDX 19 15 20 16 22 17 10 18 11 20 12 21 16 22 13 23 15 24 14 25
REMARK SMILES IDX 17 26
REMARK H PARENT 6 2 10 19
ROOT
ATOM      1  N   UNL     1       3.045  44.084  53.917  1.00  0.00    -0.354 N 
ATOM      2  H   UNL     1       2.354  43.367  53.733  1.00  0.00     0.163 HD
ENDROOT
BRANCH   1   3
ATOM      3  C   UNL     1       2.518  45.419  54.146  1.00  0.00     0.116 C 
BRANCH   3   4
ATOM      4  C   UNL     1       2.327  45.673  55.645  1.00  0.00     0.024 C 
BRANCH   4   5
ATOM      5  C   UNL     1       1.024  45.118  56.256  1.00  0.00    -0.016 C 
ATOM      6  C   UNL     1       0.558  46.031  57.394  1.00  0.00     0.007 C 
ATOM      7  C   UNL     1      -0.094  44.970  55.222  1.00  0.00     0.007 C 
ENDBRANCH   4   5
ENDBRANCH   3   4
ENDBRANCH   1   3
BRANCH   1   8
ATOM      8  C   UNL     1       3.945  43.999  52.857  1.00  0.00     0.226 A 
ATOM      9  N   UNL     1       4.883  44.952  52.699  1.00  0.00    -0.195 NA
ATOM     10  N   UNL     1       3.773  42.935  52.064  1.00  0.00    -0.193 NA
ATOM     11  C   UNL     1       5.775  44.894  51.675  1.00  0.00     0.147 A 
ATOM     12  C   UNL     1       4.656  42.892  51.057  1.00  0.00     0.165 A 
ATOM     13  C   UNL     1       5.657  43.807  50.800  1.00  0.00     0.082 A 
ATOM     14  N   UNL     1       4.756  41.939  50.080  1.00  0.00    -0.250 N 
ATOM     15  C   UNL     1       6.295  43.312  49.643  1.00  0.00     0.149 A 
ATOM     16  N   UNL     1       5.750  42.177  49.193  1.00  0.00    -0.179 NA
ATOM     17  C   UNL     1       3.932  40.767  49.924  1.00  0.00     0.176 C 
BRANCH  11  18
ATOM     18  N   UNL     1       6.749  45.881  51.483  1.00  0.00    -0.339 N 
ATOM     19  H   UNL     1       6.672  46.375  50.602  1.00  0.00     0.168 HD
BRANCH  18  20
ATOM     20  C   UNL     1       7.815  46.350  52.277  1.00  0.00     0.054 A 
ATOM     21  C   UNL     1       7.627  47.133  53.423  1.00  0.00     0.027 A 
ATOM     22  C   UNL     1       9.146  46.049  51.915  1.00  0.00     0.041 A 
ATOM     23  C   UNL     1       8.713  47.593  54.178  1.00  0.00     0.002 A 
ATOM     24  C   UNL     1      10.234  46.507  52.664  1.00  0.00     0.018 A 
ATOM     25  C   UNL     1      10.015  47.283  53.799  1.00  0.00     0.001 A 
ATOM     26  Br  UNL     1       9.520  44.992  50.374  1.00  0.00    -0.049 Br
ENDBRANCH  18  20
ENDBRANCH  11  18
ENDBRANCH   1   8
TORSDOF 6
ENDMDL
MODEL 14
REMARK VINA RESULT:    -8.175      2.526      5.923
REMARK INTER + INTRA:         -11.563
REMARK INTER:                 -10.809
REMARK INTRA:                  -0.754
REMARK UNBOUND:                -0.520
REMARK SMILES CC(C)CCNc1nc(Nc2ccccc2Br)c2cnn(C)c2n1
REMARK SMILES IDX 6 1 5 3 4 4 2 5 1 6 3 7 7 8 8 9 24 10 9 11 23 12 18 13 21 14
REMARK SMILES IDX 19 15 20 16 22 17 10 18 11 20 12 21 16 22 13 23 15 24 14 25
REMARK SMILES IDX 17 26
REMARK H PARENT 6 2 10 19
ROOT
ATOM      1  N   UNL     1       4.392  41.184  50.861  1.00  0.00    -0.354 N 
ATOM      2  H   UNL     1       5.381  41.032  50.703  1.00  0.00     0.163 HD
ENDROOT
BRANCH   1   3
ATOM      3  C   UNL     1       3.519  40.840  49.751  1.00  0.00     0.116 C 
BRANCH   3   4
ATOM      4  C   UNL     1       4.305  40.824  48.435  1.00  0.00     0.024 C 
BRANCH   4   5
ATOM      5  C   UNL     1       3.486  40.487  47.172  1.00  0.00    -0.016 C 
ATOM      6  C   UNL     1       4.272  40.899  45.923  1.00  0.00     0.007 C 
ATOM      7  C   UNL     1       3.121  39.004  47.086  1.00  0.00     0.007 C 
ENDBRANCH   4   5
ENDBRANCH   3   4
ENDBRANCH   1   3
BRANCH   1   8
ATOM      8  C   UNL     1       4.292  42.510  51.276  1.00  0.00     0.226 A 
ATOM      9  N   UNL     1       5.208  43.408  50.867  1.00  0.00    -0.195 NA
ATOM     10  N   UNL     1       3.255  42.766  52.081  1.00  0.00    -0.193 NA
ATOM     11  C   UNL     1       5.136  44.708  51.255  1.00  0.00     0.147 A 
ATOM     12  C   UNL     1       3.196  44.051  52.457  1.00  0.00     0.165 A 
ATOM     13  C   UNL     1       4.075  45.054  52.100  1.00  0.00     0.082 A 
ATOM     14  N   UNL     1       2.262  44.638  53.267  1.00  0.00    -0.250 N 
ATOM     15  C   UNL     1       3.579  46.202  52.754  1.00  0.00     0.149 A 
ATOM     16  N   UNL     1       2.478  45.958  53.472  1.00  0.00    -0.179 NA
ATOM     17  C   UNL     1       1.129  43.999  53.888  1.00  0.00     0.176 C 
BRANCH  11  18
ATOM     18  N   UNL     1       6.086  45.657  50.854  1.00  0.00    -0.339 N 
ATOM     19  H   UNL     1       5.826  46.182  50.028  1.00  0.00     0.168 HD
BRANCH  18  20
ATOM     20  C   UNL     1       7.334  46.050  51.378  1.00  0.00     0.054 A 
ATOM     21  C   UNL     1       7.467  46.984  52.413  1.00  0.00     0.027 A 
ATOM     22  C   UNL     1       8.522  45.510  50.842  1.00  0.00     0.041 A 
ATOM     23  C   UNL     1       8.726  47.362  52.897  1.00  0.00     0.002 A 
ATOM     24  C   UNL     1       9.782  45.885  51.320  1.00  0.00     0.018 A 
ATOM     25  C   UNL     1       9.882  46.815  52.350  1.00  0.00     0.001 A 
ATOM     26  Br  UNL     1       8.461  44.232  49.429  1.00  0.00    -0.049 Br
ENDBRANCH  18  20
ENDBRANCH  11  18
ENDBRANCH   1   8
TORSDOF 6
ENDMDL
MODEL 15
REMARK VINA RESULT:    -8.134      1.734      2.334
REMARK INTER + INTRA:         -11.508
REMARK INTER:                 -10.678
REMARK INTRA:                  -0.830
REMARK UNBOUND:                -0.520
REMARK SMILES CC(C)CCNc1nc(Nc2ccccc2Br)c2cnn(C)c2n1
REMARK SMILES IDX 6 1 5 3 4 4 2 5 1 6 3 7 7 8 8 9 24 10 9 11 23 12 18 13 21 14
REMARK SMILES IDX 19 15 20 16 22 17 10 18 11 20 12 21 16 22 13 23 15 24 14 25
REMARK SMILES IDX 17 26
REMARK H PARENT 6 2 10 19
ROOT
ATOM      1  N   UNL     1       5.672  47.092  52.786  1.00  0.00    -0.354 N 
ATOM      2  H   UNL     1       5.600  47.493  51.858  1.00  0.00     0.163 HD
ENDROOT
BRANCH   1   3
ATOM      3  C   UNL     1       7.023  46.941  53.300  1.00  0.00     0.116 C 
BRANCH   3   4
ATOM      4  C   UNL     1       8.023  47.695  52.416  1.00  0.00     0.024 C 
BRANCH   4   5
ATOM      5  C   UNL     1       9.507  47.328  52.620  1.00  0.00    -0.016 C 
ATOM      6  C   UNL     1       9.776  47.081  54.108  1.00  0.00     0.007 C 
ATOM      7  C   UNL     1       9.925  46.099  51.810  1.00  0.00     0.007 C 
ENDBRANCH   4   5
ENDBRANCH   3   4
ENDBRANCH   1   3
BRANCH   1   8
ATOM      8  C   UNL     1       4.948  45.904  52.724  1.00  0.00     0.226 A 
ATOM      9  N   UNL     1       5.476  44.832  52.105  1.00  0.00    -0.195 NA
ATOM     10  N   UNL     1       3.744  45.954  53.306  1.00  0.00    -0.193 NA
ATOM     11  C   UNL     1       4.794  43.659  52.030  1.00  0.00     0.147 A 
ATOM     12  C   UNL     1       3.081  44.792  53.223  1.00  0.00     0.165 A 
ATOM     13  C   UNL     1       3.522  43.633  52.617  1.00  0.00     0.082 A 
ATOM     14  N   UNL     1       1.837  44.509  53.718  1.00  0.00    -0.250 N 
ATOM     15  C   UNL     1       2.465  42.717  52.801  1.00  0.00     0.149 A 
ATOM     16  N   UNL     1       1.431  43.242  53.466  1.00  0.00    -0.179 NA
ATOM     17  C   UNL     1       0.969  45.401  54.445  1.00  0.00     0.176 C 
BRANCH  11  18
ATOM     18  N   UNL     1       5.317  42.535  51.377  1.00  0.00    -0.339 N 
ATOM     19  H   UNL     1       5.981  42.006  51.930  1.00  0.00     0.168 HD
BRANCH  18  20
ATOM     20  C   UNL     1       5.095  41.970  50.106  1.00  0.00     0.054 A 
ATOM     21  C   UNL     1       4.017  41.121  49.824  1.00  0.00     0.027 A 
ATOM     22  C   UNL     1       5.994  42.239  49.051  1.00  0.00     0.041 A 
ATOM     23  C   UNL     1       3.839  40.566  48.551  1.00  0.00     0.002 A 
ATOM     24  C   UNL     1       5.821  41.687  47.778  1.00  0.00     0.018 A 
ATOM     25  C   UNL     1       4.740  40.846  47.530  1.00  0.00     0.001 A 
ATOM     26  Br  UNL     1       7.496  43.381  49.319  1.00  0.00    -0.049 Br
ENDBRANCH  18  20
ENDBRANCH  11  18
ENDBRANCH   1   8
TORSDOF 6
ENDMDL
MODEL 16
REMARK VINA RESULT:    -8.112      2.317      6.048
REMARK INTER + INTRA:         -11.478
REMARK INTER:                 -10.439
REMARK INTRA:                  -1.039
REMARK UNBOUND:                -0.520
REMARK SMILES CC(C)CCNc1nc(Nc2ccccc2Br)c2cnn(C)c2n1
REMARK SMILES IDX 6 1 5 3 4 4 2 5 1 6 3 7 7 8 8 9 24 10 9 11 23 12 18 13 21 14
REMARK SMILES IDX 19 15 20 16 22 17 10 18 11 20 12 21 16 22 13 23 15 24 14 25
REMARK SMILES IDX 17 26
REMARK H PARENT 6 2 10 19
ROOT
ATOM      1  N   UNL     1       7.846  45.182  49.605  1.00  0.00    -0.354 N 
ATOM      2  H   UNL     1       7.228  45.562  48.896  1.00  0.00     0.163 HD
ENDROOT
BRANCH   1   3
ATOM      3  C   UNL     1       8.014  43.739  49.582  1.00  0.00     0.116 C 
BRANCH   3   4
ATOM      4  C   UNL     1       6.893  43.079  48.771  1.00  0.00     0.024 C 
BRANCH   4   5
ATOM      5  C   UNL     1       6.135  41.940  49.482  1.00  0.00    -0.016 C 
ATOM      6  C   UNL     1       5.318  42.511  50.645  1.00  0.00     0.007 C 
ATOM      7  C   UNL     1       5.214  41.166  48.536  1.00  0.00     0.007 C 
ENDBRANCH   4   5
ENDBRANCH   3   4
ENDBRANCH   1   3
BRANCH   1   8
ATOM      8  C   UNL     1       7.361  45.682  50.811  1.00  0.00     0.226 A 
ATOM      9  N   UNL     1       6.032  45.766  51.014  1.00  0.00    -0.195 NA
ATOM     10  N   UNL     1       8.307  46.052  51.682  1.00  0.00    -0.193 NA
ATOM     11  C   UNL     1       5.530  46.248  52.181  1.00  0.00     0.147 A 
ATOM     12  C   UNL     1       7.798  46.527  52.828  1.00  0.00     0.165 A 
ATOM     13  C   UNL     1       6.461  46.656  53.144  1.00  0.00     0.082 A 
ATOM     14  N   UNL     1       8.490  46.980  53.918  1.00  0.00    -0.250 N 
ATOM     15  C   UNL     1       6.460  47.201  54.445  1.00  0.00     0.149 A 
ATOM     16  N   UNL     1       7.691  47.407  54.924  1.00  0.00    -0.179 NA
ATOM     17  C   UNL     1       9.922  47.038  54.075  1.00  0.00     0.176 C 
BRANCH  11  18
ATOM     18  N   UNL     1       4.152  46.358  52.407  1.00  0.00    -0.339 N 
ATOM     19  H   UNL     1       3.844  47.293  52.645  1.00  0.00     0.168 HD
BRANCH  18  20
ATOM     20  C   UNL     1       3.091  45.432  52.353  1.00  0.00     0.054 A 
ATOM     21  C   UNL     1       2.501  45.015  51.154  1.00  0.00     0.027 A 
ATOM     22  C   UNL     1       2.564  44.899  53.549  1.00  0.00     0.041 A 
ATOM     23  C   UNL     1       1.437  44.105  51.142  1.00  0.00     0.002 A 
ATOM     24  C   UNL     1       1.499  43.990  53.543  1.00  0.00     0.018 A 
ATOM     25  C   UNL     1       0.935  43.595  52.334  1.00  0.00     0.001 A 
ATOM     26  Br  UNL     1       3.287  45.397  55.240  1.00  0.00    -0.049 Br
ENDBRANCH  18  20
ENDBRANCH  11  18
ENDBRANCH   1   8
TORSDOF 6
ENDMDL
MODEL 17
REMARK VINA RESULT:    -7.976      2.744      4.285
REMARK INTER + INTRA:         -11.293
REMARK INTER:                 -10.608
REMARK INTRA:                  -0.685
REMARK UNBOUND:                -0.520
REMARK SMILES CC(C)CCNc1nc(Nc2ccccc2Br)c2cnn(C)c2n1
REMARK SMILES IDX 6 1 5 3 4 4 2 5 1 6 3 7 7 8 8 9 24 10 9 11 23 12 18 13 21 14
REMARK SMILES IDX 19 15 20 16 22 17 10 18 11 20 12 21 16 22 13 23 15 24 14 25
REMARK SMILES IDX 17 26
REMARK H PARENT 6 2 10 19
ROOT
ATOM      1  N   UNL     1       8.270  45.439  50.091  1.00  0.00    -0.354 N 
ATOM      2  H   UNL     1       8.460  45.481  49.097  1.00  0.00     0.163 HD
ENDROOT
BRANCH   1   3
ATOM      3  C   UNL     1       9.421  45.173  50.938  1.00  0.00     0.116 C 
BRANCH   3   4
ATOM      4  C   UNL     1       9.905  46.463  51.610  1.00  0.00     0.024 C 
BRANCH   4   5
ATOM      5  C   UNL     1       9.039  46.972  52.781  1.00  0.00    -0.016 C 
ATOM      6  C   UNL     1       9.924  47.216  54.007  1.00  0.00     0.007 C 
ATOM      7  C   UNL     1       8.275  48.251  52.434  1.00  0.00     0.007 C 
ENDBRANCH   4   5
ENDBRANCH   3   4
ENDBRANCH   1   3
BRANCH   1   8
ATOM      8  C   UNL     1       7.238  44.512  50.223  1.00  0.00     0.226 A 
ATOM      9  N   UNL     1       7.122  43.511  49.330  1.00  0.00    -0.195 NA
ATOM     10  N   UNL     1       6.427  44.725  51.265  1.00  0.00    -0.193 NA
ATOM     11  C   UNL     1       6.127  42.592  49.433  1.00  0.00     0.147 A 
ATOM     12  C   UNL     1       5.449  43.814  51.354  1.00  0.00     0.165 A 
ATOM     13  C   UNL     1       5.235  42.750  50.502  1.00  0.00     0.082 A 
ATOM     14  N   UNL     1       4.463  43.743  52.302  1.00  0.00    -0.250 N 
ATOM     15  C   UNL     1       4.092  42.107  51.024  1.00  0.00     0.149 A 
ATOM     16  N   UNL     1       3.612  42.707  52.118  1.00  0.00    -0.179 NA
ATOM     17  C   UNL     1       4.267  44.633  53.418  1.00  0.00     0.176 C 
BRANCH  11  18
ATOM     18  N   UNL     1       5.977  41.552  48.508  1.00  0.00    -0.339 N 
ATOM     19  H   UNL     1       6.416  40.682  48.786  1.00  0.00     0.168 HD
BRANCH  18  20
ATOM     20  C   UNL     1       5.319  41.455  47.265  1.00  0.00     0.054 A 
ATOM     21  C   UNL     1       5.762  42.116  46.113  1.00  0.00     0.027 A 
ATOM     22  C   UNL     1       4.146  40.679  47.151  1.00  0.00     0.041 A 
ATOM     23  C   UNL     1       5.072  42.009  44.899  1.00  0.00     0.002 A 
ATOM     24  C   UNL     1       3.452  40.569  45.941  1.00  0.00     0.018 A 
ATOM     25  C   UNL     1       3.917  41.238  44.813  1.00  0.00     0.001 A 
ATOM     26  Br  UNL     1       3.451  39.736  48.654  1.00  0.00    -0.049 Br
ENDBRANCH  18  20
ENDBRANCH  11  18
ENDBRANCH   1   8
TORSDOF 6
ENDMDL
MODEL 18
REMARK VINA RESULT:    -7.933      1.965      6.211
REMARK INTER + INTRA:         -11.235
REMARK INTER:                 -10.263
REMARK INTRA:                  -0.972
REMARK UNBOUND:                -0.520
REMARK SMILES CC(C)CCNc1nc(Nc2ccccc2Br)c2cnn(C)c2n1
REMARK SMILES IDX 6 1 5 3 4 4 2 5 1 6 3 7 7 8 8 9 24 10 9 11 23 12 18 13 21 14
REMARK SMILES IDX 19 15 20 16 22 17 10 18 11 20 12 21 16 22 13 23 15 24 14 25
REMARK SMILES IDX 17 26
REMARK H PARENT 6 2 10 19
ROOT
ATOM      1  N   UNL     1       7.473  45.202  49.642  1.00  0.00    -0.354 N 
ATOM      2  H   UNL     1       6.738  45.494  49.008  1.00  0.00     0.163 HD
ENDROOT
BRANCH   1   3
ATOM      3  C   UNL     1       7.761  43.778  49.655  1.00  0.00     0.116 C 
BRANCH   3   4
ATOM      4  C   UNL     1       6.673  43.002  48.903  1.00  0.00     0.024 C 
BRANCH   4   5
ATOM      5  C   UNL     1       5.957  41.901  49.712  1.00  0.00    -0.016 C 
ATOM      6  C   UNL     1       5.094  42.542  50.803  1.00  0.00     0.007 C 
ATOM      7  C   UNL     1       5.091  40.996  48.834  1.00  0.00     0.007 C 
ENDBRANCH   4   5
ENDBRANCH   3   4
ENDBRANCH   1   3
BRANCH   1   8
ATOM      8  C   UNL     1       7.107  45.722  50.882  1.00  0.00     0.226 A 
ATOM      9  N   UNL     1       5.804  45.881  51.180  1.00  0.00    -0.195 NA
ATOM     10  N   UNL     1       8.133  46.031  51.682  1.00  0.00    -0.193 NA
ATOM     11  C   UNL     1       5.416  46.384  52.382  1.00  0.00     0.147 A 
ATOM     12  C   UNL     1       7.738  46.528  52.862  1.00  0.00     0.165 A 
ATOM     13  C   UNL     1       6.437  46.733  53.275  1.00  0.00     0.082 A 
ATOM     14  N   UNL     1       8.532  46.934  53.901  1.00  0.00    -0.250 N 
ATOM     15  C   UNL     1       6.563  47.269  54.574  1.00  0.00     0.149 A 
ATOM     16  N   UNL     1       7.835  47.401  54.963  1.00  0.00    -0.179 NA
ATOM     17  C   UNL     1       9.972  46.908  53.953  1.00  0.00     0.176 C 
BRANCH  11  18
ATOM     18  N   UNL     1       4.067  46.573  52.708  1.00  0.00    -0.339 N 
ATOM     19  H   UNL     1       3.629  47.351  52.230  1.00  0.00     0.168 HD
BRANCH  18  20
ATOM     20  C   UNL     1       3.177  45.885  53.558  1.00  0.00     0.054 A 
ATOM     21  C   UNL     1       3.219  45.989  54.953  1.00  0.00     0.027 A 
ATOM     22  C   UNL     1       2.200  45.029  53.005  1.00  0.00     0.041 A 
ATOM     23  C   UNL     1       2.327  45.277  55.765  1.00  0.00     0.002 A 
ATOM     24  C   UNL     1       1.307  44.315  53.811  1.00  0.00     0.018 A 
ATOM     25  C   UNL     1       1.374  44.439  55.195  1.00  0.00     0.001 A 
ATOM     26  Br  UNL     1       2.052  44.809  51.117  1.00  0.00    -0.049 Br
ENDBRANCH  18  20
ENDBRANCH  11  18
ENDBRANCH   1   8
TORSDOF 6
ENDMDL
MODEL 19
REMARK VINA RESULT:    -7.924      2.112      5.868
REMARK INTER + INTRA:         -11.223
REMARK INTER:                 -10.566
REMARK INTRA:                  -0.657
REMARK UNBOUND:                -0.520
REMARK SMILES CC(C)CCNc1nc(Nc2ccccc2Br)c2cnn(C)c2n1
REMARK SMILES IDX 6 1 5 3 4 4 2 5 1 6 3 7 7 8 8 9 24 10 9 11 23 12 18 13 21 14
REMARK SMILES IDX 19 15 20 16 22 17 10 18 11 20 12 21 16 22 13 23 15 24 14 25
REMARK SMILES IDX 17 26
REMARK H PARENT 6 2 10 19
ROOT
ATOM      1  N   UNL     1       2.767  46.051  56.423  1.00  0.00    -0.354 N 
ATOM      2  H   UNL     1       3.459  45.652  57.048  1.00  0.00     0.163 HD
ENDROOT
BRANCH   1   3
ATOM      3  C   UNL     1       1.389  45.678  56.694  1.00  0.00     0.116 C 
BRANCH   3   4
ATOM      4  C   UNL     1       0.870  46.403  57.940  1.00  0.00     0.024 C 
BRANCH   4   5
ATOM      5  C   UNL     1      -0.457  47.170  57.763  1.00  0.00    -0.016 C 
ATOM      6  C   UNL     1      -1.567  46.192  57.366  1.00  0.00     0.007 C 
ATOM      7  C   UNL     1      -0.868  47.932  59.024  1.00  0.00     0.007 C 
ENDBRANCH   4   5
ENDBRANCH   3   4
ENDBRANCH   1   3
BRANCH   1   8
ATOM      8  C   UNL     1       3.207  45.725  55.142  1.00  0.00     0.226 A 
ATOM      9  N   UNL     1       4.245  46.391  54.603  1.00  0.00    -0.195 NA
ATOM     10  N   UNL     1       2.516  44.745  54.548  1.00  0.00    -0.193 NA
ATOM     11  C   UNL     1       4.697  46.094  53.356  1.00  0.00     0.147 A 
ATOM     12  C   UNL     1       2.970  44.463  53.319  1.00  0.00     0.165 A 
ATOM     13  C   UNL     1       4.022  45.076  52.670  1.00  0.00     0.082 A 
ATOM     14  N   UNL     1       2.492  43.516  52.454  1.00  0.00    -0.250 N 
ATOM     15  C   UNL     1       4.088  44.425  51.420  1.00  0.00     0.149 A 
ATOM     16  N   UNL     1       3.157  43.477  51.276  1.00  0.00    -0.179 NA
ATOM     17  C   UNL     1       1.397  42.607  52.682  1.00  0.00     0.176 C 
BRANCH  11  18
ATOM     18  N   UNL     1       5.765  46.783  52.769  1.00  0.00    -0.339 N 
ATOM     19  H   UNL     1       5.499  47.384  51.998  1.00  0.00     0.168 HD
BRANCH  18  20
ATOM     20  C   UNL     1       7.147  46.831  53.044  1.00  0.00     0.054 A 
ATOM     21  C   UNL     1       7.675  47.391  54.213  1.00  0.00     0.027 A 
ATOM     22  C   UNL     1       8.067  46.315  52.106  1.00  0.00     0.041 A 
ATOM     23  C   UNL     1       9.055  47.434  54.443  1.00  0.00     0.002 A 
ATOM     24  C   UNL     1       9.447  46.356  52.329  1.00  0.00     0.018 A 
ATOM     25  C   UNL     1       9.941  46.920  53.502  1.00  0.00     0.001 A 
ATOM     26  Br  UNL     1       7.462  45.529  50.478  1.00  0.00    -0.049 Br
ENDBRANCH  18  20
ENDBRANCH  11  18
ENDBRANCH   1   8
TORSDOF 6
ENDMDL
MODEL 20
REMARK VINA RESULT:    -7.782      2.445      5.543
REMARK INTER + INTRA:         -11.032
REMARK INTER:                  -9.599
REMARK INTRA:                  -1.433
REMARK UNBOUND:                -0.520
REMARK SMILES CC(C)CCNc1nc(Nc2ccccc2Br)c2cnn(C)c2n1
REMARK SMILES IDX 6 1 5 3 4 4 2 5 1 6 3 7 7 8 8 9 24 10 9 11 23 12 18 13 21 14
REMARK SMILES IDX 19 15 20 16 22 17 10 18 11 20 12 21 16 22 13 23 15 24 14 25
REMARK SMILES IDX 17 26
REMARK H PARENT 6 2 10 19
ROOT
ATOM      1  N   UNL     1       6.830  46.375  51.125  1.00  0.00    -0.354 N 
ATOM      2  H   UNL     1       7.688  45.926  50.826  1.00  0.00     0.163 HD
ENDROOT
BRANCH   1   3
ATOM      3  C   UNL     1       6.904  47.090  52.388  1.00  0.00     0.116 C 
BRANCH   3   4
ATOM      4  C   UNL     1       7.301  46.138  53.523  1.00  0.00     0.024 C 
BRANCH   4   5
ATOM      5  C   UNL     1       6.313  46.056  54.704  1.00  0.00    -0.016 C 
ATOM      6  C   UNL     1       5.257  47.157  54.569  1.00  0.00     0.007 C 
ATOM      7  C   UNL     1       5.626  44.693  54.803  1.00  0.00     0.007 C 
ENDBRANCH   4   5
ENDBRANCH   3   4
ENDBRANCH   1   3
BRANCH   1   8
ATOM      8  C   UNL     1       5.866  45.370  51.092  1.00  0.00     0.226 A 
ATOM      9  N   UNL     1       4.590  45.658  51.411  1.00  0.00    -0.195 NA
ATOM     10  N   UNL     1       6.329  44.165  50.740  1.00  0.00    -0.193 NA
ATOM     11  C   UNL     1       3.628  44.698  51.387  1.00  0.00     0.147 A 
ATOM     12  C   UNL     1       5.372  43.228  50.722  1.00  0.00     0.165 A 
ATOM     13  C   UNL     1       4.037  43.408  51.027  1.00  0.00     0.082 A 
ATOM     14  N   UNL     1       5.510  41.904  50.401  1.00  0.00    -0.250 N 
ATOM     15  C   UNL     1       3.465  42.129  50.861  1.00  0.00     0.149 A 
ATOM     16  N   UNL     1       4.355  41.205  50.485  1.00  0.00    -0.179 NA
ATOM     17  C   UNL     1       6.721  41.231  50.003  1.00  0.00     0.176 C 
BRANCH  11  18
ATOM     18  N   UNL     1       2.298  44.971  51.728  1.00  0.00    -0.339 N 
ATOM     19  H   UNL     1       1.734  45.315  50.960  1.00  0.00     0.168 HD
BRANCH  18  20
ATOM     20  C   UNL     1       1.566  44.846  52.927  1.00  0.00     0.054 A 
ATOM     21  C   UNL     1       1.988  45.403  54.140  1.00  0.00     0.027 A 
ATOM     22  C   UNL     1       0.359  44.115  52.938  1.00  0.00     0.041 A 
ATOM     23  C   UNL     1       1.241  45.244  55.314  1.00  0.00     0.002 A 
ATOM     24  C   UNL     1      -0.391  43.952  54.108  1.00  0.00     0.018 A 
ATOM     25  C   UNL     1       0.054  44.518  55.300  1.00  0.00     0.001 A 
ATOM     26  Br  UNL     1      -0.311  43.313  51.345  1.00  0.00    -0.049 Br
ENDBRANCH  18  20
ENDBRANCH  11  18
ENDBRANCH   1   8
TORSDOF 6
ENDMDL
