MODEL 1
REMARK VINA RESULT:    -9.658      0.000      0.000
REMARK INTER + INTRA:         -14.383
REMARK INTER:                 -13.328
REMARK INTRA:                  -1.056
REMARK UNBOUND:                -1.056
REMARK SMILES COc1ccc(CNc2nc(Nc3ccc(C)cc3O)c3cnn(C)c3n2)cc1
REMARK SMILES IDX 9 1 10 2 11 3 21 4 22 5 23 6 24 7 25 8 26 9 27 10 8 11 7 13
REMARK SMILES IDX 6 14 3 15 4 16 29 17 5 18 28 19 2 20 1 21 12 22 13 24 14 25
REMARK SMILES IDX 19 26 15 27 18 28 16 29 17 30 20 31
REMARK H PARENT 8 12 12 23 20 32
ROOT
ATOM      1  C   UNL     1       4.498  43.810  52.237  1.00  0.00     0.227 A 
ATOM      2  N   UNL     1       5.198  44.950  52.387  1.00  0.00    -0.195 NA
ATOM      3  C   UNL     1       6.195  45.255  51.521  1.00  0.00     0.147 A 
ATOM      4  C   UNL     1       6.488  44.338  50.511  1.00  0.00     0.082 A 
ATOM      5  C   UNL     1       7.401  44.188  49.447  1.00  0.00     0.149 A 
ATOM      6  N   UNL     1       7.216  43.053  48.761  1.00  0.00    -0.179 NA
ATOM      7  N   UNL     1       6.173  42.472  49.399  1.00  0.00    -0.250 N 
ATOM      8  C   UNL     1       5.674  41.204  48.931  1.00  0.00     0.176 C 
ATOM      9  C   UNL     1       5.709  43.200  50.461  1.00  0.00     0.165 A 
ATOM     10  N   UNL     1       4.704  42.884  51.291  1.00  0.00    -0.193 NA
ENDROOT
BRANCH   1  11
ATOM     11  N   UNL     1       3.486  43.627  53.168  1.00  0.00    -0.350 N 
ATOM     12  H   UNL     1       3.494  42.646  53.423  1.00  0.00     0.164 HD
BRANCH  11  13
ATOM     13  C   UNL     1       2.195  44.136  52.755  1.00  0.00     0.152 C 
BRANCH  13  14
ATOM     14  C   UNL     1       1.395  44.504  53.984  1.00  0.00    -0.029 A 
ATOM     15  C   UNL     1      -0.084  45.169  56.290  1.00  0.00     0.118 A 
ATOM     16  C   UNL     1       1.298  45.362  56.254  1.00  0.00     0.047 A 
ATOM     17  C   UNL     1      -0.727  44.638  55.171  1.00  0.00     0.047 A 
ATOM     18  C   UNL     1       2.034  45.031  55.113  1.00  0.00     0.009 A 
ATOM     19  C   UNL     1       0.008  44.305  54.027  1.00  0.00     0.009 A 
BRANCH  15  20
ATOM     20  O   UNL     1      -0.682  45.534  57.464  1.00  0.00    -0.497 OA
ATOM     21  C   UNL     1      -1.046  46.901  57.604  1.00  0.00     0.278 C 
ENDBRANCH  15  20
ENDBRANCH  13  14
ENDBRANCH  11  13
ENDBRANCH   1  11
BRANCH   3  22
ATOM     22  N   UNL     1       6.886  46.462  51.743  1.00  0.00    -0.336 N 
ATOM     23  H   UNL     1       7.243  46.731  50.824  1.00  0.00     0.168 HD
BRANCH  22  24
ATOM     24  C   UNL     1       7.902  46.659  52.710  1.00  0.00     0.082 A 
ATOM     25  C   UNL     1       9.262  46.498  52.426  1.00  0.00     0.030 A 
ATOM     26  C   UNL     1       7.547  47.178  53.963  1.00  0.00     0.139 A 
ATOM     27  C   UNL     1      10.228  46.797  53.392  1.00  0.00     0.006 A 
ATOM     28  C   UNL     1       8.499  47.486  54.928  1.00  0.00     0.051 A 
ATOM     29  C   UNL     1       9.856  47.302  54.645  1.00  0.00    -0.047 A 
ATOM     30  C   UNL     1      10.895  47.593  55.688  1.00  0.00     0.044 C 
BRANCH  26  31
ATOM     31  O   UNL     1       6.227  47.371  54.271  1.00  0.00    -0.506 OA
ATOM     32  H   UNL     1       6.073  48.328  54.153  1.00  0.00     0.293 HD
ENDBRANCH  26  31
ENDBRANCH  22  24
ENDBRANCH   3  22
TORSDOF 7
ENDMDL
MODEL 2
REMARK VINA RESULT:    -9.574      2.827      7.388
REMARK INTER + INTRA:         -14.268
REMARK INTER:                 -13.586
REMARK INTRA:                  -0.681
REMARK UNBOUND:                -1.056
REMARK SMILES COc1ccc(CNc2nc(Nc3ccc(C)cc3O)c3cnn(C)c3n2)cc1
REMARK SMILES IDX 9 1 10 2 11 3 21 4 22 5 23 6 24 7 25 8 26 9 27 10 8 11 7 13
REMARK SMILES IDX 6 14 3 15 4 16 29 17 5 18 28 19 2 20 1 21 12 22 13 24 14 25
REMARK SMILES IDX 19 26 15 27 18 28 16 29 17 30 20 31
REMARK H PARENT 8 12 12 23 20 32
ROOT
ATOM      1  C   UNL     1       2.982  45.091  54.537  1.00  0.00     0.227 A 
ATOM      2  N   UNL     1       3.349  44.247  53.555  1.00  0.00    -0.195 NA
ATOM      3  C   UNL     1       2.451  43.376  53.034  1.00  0.00     0.147 A 
ATOM      4  C   UNL     1       1.165  43.360  53.576  1.00  0.00     0.082 A 
ATOM      5  C   UNL     1      -0.045  42.656  53.414  1.00  0.00     0.149 A 
ATOM      6  N   UNL     1      -1.008  43.081  54.241  1.00  0.00    -0.179 NA
ATOM      7  N   UNL     1      -0.401  44.067  54.942  1.00  0.00    -0.250 N 
ATOM      8  C   UNL     1      -1.143  44.780  55.950  1.00  0.00     0.176 C 
ATOM      9  C   UNL     1       0.906  44.265  54.586  1.00  0.00     0.165 A 
ATOM     10  N   UNL     1       1.768  45.151  55.104  1.00  0.00    -0.193 NA
ENDROOT
BRANCH   1  11
ATOM     11  N   UNL     1       3.981  45.953  54.964  1.00  0.00    -0.350 N 
ATOM     12  H   UNL     1       3.738  46.245  55.903  1.00  0.00     0.164 HD
BRANCH  11  13
ATOM     13  C   UNL     1       4.268  47.035  54.046  1.00  0.00     0.152 C 
BRANCH  13  14
ATOM     14  C   UNL     1       5.736  46.998  53.684  1.00  0.00    -0.029 A 
ATOM     15  C   UNL     1       8.475  46.954  53.023  1.00  0.00     0.118 A 
ATOM     16  C   UNL     1       8.063  46.802  54.348  1.00  0.00     0.047 A 
ATOM     17  C   UNL     1       7.514  47.133  52.027  1.00  0.00     0.047 A 
ATOM     18  C   UNL     1       6.706  46.827  54.679  1.00  0.00     0.009 A 
ATOM     19  C   UNL     1       6.154  47.158  52.356  1.00  0.00     0.009 A 
BRANCH  15  20
ATOM     20  O   UNL     1       9.829  46.911  52.836  1.00  0.00    -0.497 OA
ATOM     21  C   UNL     1      10.311  46.060  51.804  1.00  0.00     0.278 C 
ENDBRANCH  15  20
ENDBRANCH  13  14
ENDBRANCH  11  13
ENDBRANCH   1  11
BRANCH   3  22
ATOM     22  N   UNL     1       2.909  42.522  52.013  1.00  0.00    -0.336 N 
ATOM     23  H   UNL     1       2.989  41.604  52.457  1.00  0.00     0.168 HD
BRANCH  22  24
ATOM     24  C   UNL     1       4.052  42.746  51.207  1.00  0.00     0.082 A 
ATOM     25  C   UNL     1       4.768  43.947  51.222  1.00  0.00     0.030 A 
ATOM     26  C   UNL     1       4.575  41.674  50.470  1.00  0.00     0.139 A 
ATOM     27  C   UNL     1       5.944  44.080  50.475  1.00  0.00     0.006 A 
ATOM     28  C   UNL     1       5.746  41.793  49.730  1.00  0.00     0.051 A 
ATOM     29  C   UNL     1       6.447  43.003  49.733  1.00  0.00    -0.047 A 
ATOM     30  C   UNL     1       7.692  43.161  48.910  1.00  0.00     0.044 C 
BRANCH  26  31
ATOM     31  O   UNL     1       3.914  40.475  50.447  1.00  0.00    -0.506 OA
ATOM     32  H   UNL     1       3.954  40.178  49.518  1.00  0.00     0.293 HD
ENDBRANCH  26  31
ENDBRANCH  22  24
ENDBRANCH   3  22
TORSDOF 7
ENDMDL
MODEL 3
REMARK VINA RESULT:    -9.499      2.752      6.865
REMARK INTER + INTRA:         -14.164
REMARK INTER:                 -12.924
REMARK INTRA:                  -1.240
REMARK UNBOUND:                -1.056
REMARK SMILES COc1ccc(CNc2nc(Nc3ccc(C)cc3O)c3cnn(C)c3n2)cc1
REMARK SMILES IDX 9 1 10 2 11 3 21 4 22 5 23 6 24 7 25 8 26 9 27 10 8 11 7 13
REMARK SMILES IDX 6 14 3 15 4 16 29 17 5 18 28 19 2 20 1 21 12 22 13 24 14 25
REMARK SMILES IDX 19 26 15 27 18 28 16 29 17 30 20 31
REMARK H PARENT 8 12 12 23 20 32
ROOT
ATOM      1  C   UNL     1       1.728  44.062  53.490  1.00  0.00     0.227 A 
ATOM      2  N   UNL     1       2.759  44.796  53.950  1.00  0.00    -0.195 NA
ATOM      3  C   UNL     1       2.666  45.425  55.147  1.00  0.00     0.147 A 
ATOM      4  C   UNL     1       1.466  45.318  55.851  1.00  0.00     0.082 A 
ATOM      5  C   UNL     1       0.895  45.790  57.050  1.00  0.00     0.149 A 
ATOM      6  N   UNL     1      -0.354  45.347  57.239  1.00  0.00    -0.179 NA
ATOM      7  N   UNL     1      -0.582  44.587  56.143  1.00  0.00    -0.250 N 
ATOM      8  C   UNL     1      -1.854  43.925  55.992  1.00  0.00     0.176 C 
ATOM      9  C   UNL     1       0.476  44.547  55.276  1.00  0.00     0.165 A 
ATOM     10  N   UNL     1       0.549  43.896  54.106  1.00  0.00    -0.193 NA
ENDROOT
BRANCH   1  11
ATOM     11  N   UNL     1       1.958  43.443  52.270  1.00  0.00    -0.350 N 
ATOM     12  H   UNL     1       1.051  43.243  51.866  1.00  0.00     0.164 HD
BRANCH  11  13
ATOM     13  C   UNL     1       2.858  42.311  52.334  1.00  0.00     0.152 C 
BRANCH  13  14
ATOM     14  C   UNL     1       4.056  42.583  51.452  1.00  0.00    -0.029 A 
ATOM     15  C   UNL     1       6.304  43.072  49.824  1.00  0.00     0.118 A 
ATOM     16  C   UNL     1       5.729  41.801  49.876  1.00  0.00     0.047 A 
ATOM     17  C   UNL     1       5.755  44.100  50.592  1.00  0.00     0.047 A 
ATOM     18  C   UNL     1       4.617  41.554  50.684  1.00  0.00     0.009 A 
ATOM     19  C   UNL     1       4.640  43.855  51.403  1.00  0.00     0.009 A 
BRANCH  15  20
ATOM     20  O   UNL     1       7.386  43.177  48.995  1.00  0.00    -0.497 OA
ATOM     21  C   UNL     1       8.352  44.168  49.320  1.00  0.00     0.278 C 
ENDBRANCH  15  20
ENDBRANCH  13  14
ENDBRANCH  11  13
ENDBRANCH   1  11
BRANCH   3  22
ATOM     22  N   UNL     1       3.782  46.177  55.560  1.00  0.00    -0.336 N 
ATOM     23  H   UNL     1       3.391  47.061  55.895  1.00  0.00     0.168 HD
BRANCH  22  24
ATOM     24  C   UNL     1       4.927  46.448  54.771  1.00  0.00     0.082 A 
ATOM     25  C   UNL     1       6.149  45.796  54.957  1.00  0.00     0.030 A 
ATOM     26  C   UNL     1       4.795  47.299  53.664  1.00  0.00     0.139 A 
ATOM     27  C   UNL     1       7.220  46.035  54.088  1.00  0.00     0.006 A 
ATOM     28  C   UNL     1       5.849  47.539  52.791  1.00  0.00     0.051 A 
ATOM     29  C   UNL     1       7.076  46.899  52.995  1.00  0.00    -0.047 A 
ATOM     30  C   UNL     1       8.236  47.175  52.084  1.00  0.00     0.044 C 
BRANCH  26  31
ATOM     31  O   UNL     1       3.606  47.940  53.436  1.00  0.00    -0.506 OA
ATOM     32  H   UNL     1       3.390  47.754  52.501  1.00  0.00     0.293 HD
ENDBRANCH  26  31
ENDBRANCH  22  24
ENDBRANCH   3  22
TORSDOF 7
ENDMDL
MODEL 4
REMARK VINA RESULT:    -9.433      2.805      8.085
REMARK INTER + INTRA:         -14.073
REMARK INTER:                 -13.054
REMARK INTRA:                  -1.019
REMARK UNBOUND:                -1.056
REMARK SMILES COc1ccc(CNc2nc(Nc3ccc(C)cc3O)c3cnn(C)c3n2)cc1
REMARK SMILES IDX 9 1 10 2 11 3 21 4 22 5 23 6 24 7 25 8 26 9 27 10 8 11 7 13
REMARK SMILES IDX 6 14 3 15 4 16 29 17 5 18 28 19 2 20 1 21 12 22 13 24 14 25
REMARK SMILES IDX 19 26 15 27 18 28 16 29 17 30 20 31
REMARK H PARENT 8 12 12 23 20 32
ROOT
ATOM      1  C   UNL     1       5.451  45.195  51.228  1.00  0.00     0.227 A 
ATOM      2  N   UNL     1       5.760  44.009  50.671  1.00  0.00    -0.195 NA
ATOM      3  C   UNL     1       4.963  42.932  50.879  1.00  0.00     0.147 A 
ATOM      4  C   UNL     1       3.854  43.089  51.711  1.00  0.00     0.082 A 
ATOM      5  C   UNL     1       2.803  42.310  52.236  1.00  0.00     0.149 A 
ATOM      6  N   UNL     1       1.977  43.014  53.020  1.00  0.00    -0.179 NA
ATOM      7  N   UNL     1       2.510  44.257  52.995  1.00  0.00    -0.250 N 
ATOM      8  C   UNL     1       1.875  45.315  53.740  1.00  0.00     0.176 C 
ATOM      9  C   UNL     1       3.643  44.350  52.233  1.00  0.00     0.165 A 
ATOM     10  N   UNL     1       4.401  45.436  52.026  1.00  0.00    -0.193 NA
ENDROOT
BRANCH   1  11
ATOM     11  N   UNL     1       6.326  46.226  50.916  1.00  0.00    -0.350 N 
ATOM     12  H   UNL     1       6.015  46.620  50.036  1.00  0.00     0.164 HD
BRANCH  11  13
ATOM     13  C   UNL     1       7.725  45.854  50.954  1.00  0.00     0.152 C 
BRANCH  13  14
ATOM     14  C   UNL     1       8.349  46.413  52.213  1.00  0.00    -0.029 A 
ATOM     15  C   UNL     1       9.502  47.483  54.552  1.00  0.00     0.118 A 
ATOM     16  C   UNL     1       8.117  47.482  54.381  1.00  0.00     0.047 A 
ATOM     17  C   UNL     1      10.312  46.952  53.547  1.00  0.00     0.047 A 
ATOM     18  C   UNL     1       7.542  46.955  53.222  1.00  0.00     0.009 A 
ATOM     19  C   UNL     1       9.739  46.423  52.385  1.00  0.00     0.009 A 
BRANCH  15  20
ATOM     20  O   UNL     1       9.933  48.027  55.730  1.00  0.00    -0.497 OA
ATOM     21  C   UNL     1      11.106  47.468  56.307  1.00  0.00     0.278 C 
ENDBRANCH  15  20
ENDBRANCH  13  14
ENDBRANCH  11  13
ENDBRANCH   1  11
BRANCH   3  22
ATOM     22  N   UNL     1       5.351  41.725  50.269  1.00  0.00    -0.336 N 
ATOM     23  H   UNL     1       6.368  41.695  50.374  1.00  0.00     0.168 HD
BRANCH  22  24
ATOM     24  C   UNL     1       5.011  41.324  48.953  1.00  0.00     0.082 A 
ATOM     25  C   UNL     1       3.876  40.562  48.661  1.00  0.00     0.030 A 
ATOM     26  C   UNL     1       5.761  41.830  47.881  1.00  0.00     0.139 A 
ATOM     27  C   UNL     1       3.538  40.274  47.334  1.00  0.00     0.006 A 
ATOM     28  C   UNL     1       5.430  41.557  46.559  1.00  0.00     0.051 A 
ATOM     29  C   UNL     1       4.305  40.777  46.274  1.00  0.00    -0.047 A 
ATOM     30  C   UNL     1       3.955  40.439  44.855  1.00  0.00     0.044 C 
BRANCH  26  31
ATOM     31  O   UNL     1       6.868  42.599  48.126  1.00  0.00    -0.506 OA
ATOM     32  H   UNL     1       6.649  43.117  48.925  1.00  0.00     0.293 HD
ENDBRANCH  26  31
ENDBRANCH  22  24
ENDBRANCH   3  22
TORSDOF 7
ENDMDL
MODEL 5
REMARK VINA RESULT:    -9.395      2.946      6.793
REMARK INTER + INTRA:         -14.021
REMARK INTER:                 -12.326
REMARK INTRA:                  -1.695
REMARK UNBOUND:                -1.056
REMARK SMILES COc1ccc(CNc2nc(Nc3ccc(C)cc3O)c3cnn(C)c3n2)cc1
REMARK SMILES IDX 9 1 10 2 11 3 21 4 22 5 23 6 24 7 25 8 26 9 27 10 8 11 7 13
REMARK SMILES IDX 6 14 3 15 4 16 29 17 5 18 28 19 2 20 1 21 12 22 13 24 14 25
REMARK SMILES IDX 19 26 15 27 18 28 16 29 17 30 20 31
REMARK H PARENT 8 12 12 23 20 32
ROOT
ATOM      1  C   UNL     1       1.350  43.898  53.784  1.00  0.00     0.227 A 
ATOM      2  N   UNL     1       2.427  44.582  54.211  1.00  0.00    -0.195 NA
ATOM      3  C   UNL     1       2.382  45.262  55.382  1.00  0.00     0.147 A 
ATOM      4  C   UNL     1       1.182  45.258  56.095  1.00  0.00     0.082 A 
ATOM      5  C   UNL     1       0.650  45.809  57.278  1.00  0.00     0.149 A 
ATOM      6  N   UNL     1      -0.624  45.453  57.489  1.00  0.00    -0.179 NA
ATOM      7  N   UNL     1      -0.906  44.667  56.425  1.00  0.00    -0.250 N 
ATOM      8  C   UNL     1      -2.217  44.081  56.304  1.00  0.00     0.176 C 
ATOM      9  C   UNL     1       0.142  44.528  55.555  1.00  0.00     0.165 A 
ATOM     10  N   UNL     1       0.167  43.830  54.411  1.00  0.00    -0.193 NA
ENDROOT
BRANCH   1  11
ATOM     11  N   UNL     1       1.532  43.220  52.587  1.00  0.00    -0.350 N 
ATOM     12  H   UNL     1       2.275  42.548  52.739  1.00  0.00     0.164 HD
BRANCH  11  13
ATOM     13  C   UNL     1       1.715  44.078  51.436  1.00  0.00     0.152 C 
BRANCH  13  14
ATOM     14  C   UNL     1       3.194  44.210  51.150  1.00  0.00    -0.029 A 
ATOM     15  C   UNL     1       5.945  44.463  50.590  1.00  0.00     0.118 A 
ATOM     16  C   UNL     1       5.125  45.592  50.640  1.00  0.00     0.047 A 
ATOM     17  C   UNL     1       5.386  43.205  50.815  1.00  0.00     0.047 A 
ATOM     18  C   UNL     1       3.760  45.469  50.915  1.00  0.00     0.009 A 
ATOM     19  C   UNL     1       4.020  43.079  51.090  1.00  0.00     0.009 A 
BRANCH  15  20
ATOM     20  O   UNL     1       7.258  44.723  50.312  1.00  0.00    -0.497 OA
ATOM     21  C   UNL     1       7.888  43.893  49.345  1.00  0.00     0.278 C 
ENDBRANCH  15  20
ENDBRANCH  13  14
ENDBRANCH  11  13
ENDBRANCH   1  11
BRANCH   3  22
ATOM     22  N   UNL     1       3.545  45.958  55.762  1.00  0.00    -0.336 N 
ATOM     23  H   UNL     1       3.204  46.814  56.206  1.00  0.00     0.168 HD
BRANCH  22  24
ATOM     24  C   UNL     1       4.625  46.281  54.903  1.00  0.00     0.082 A 
ATOM     25  C   UNL     1       4.772  47.538  54.309  1.00  0.00     0.030 A 
ATOM     26  C   UNL     1       5.667  45.355  54.756  1.00  0.00     0.139 A 
ATOM     27  C   UNL     1       5.907  47.833  53.546  1.00  0.00     0.006 A 
ATOM     28  C   UNL     1       6.802  45.639  54.005  1.00  0.00     0.051 A 
ATOM     29  C   UNL     1       6.934  46.891  53.396  1.00  0.00    -0.047 A 
ATOM     30  C   UNL     1       8.134  47.201  52.551  1.00  0.00     0.044 C 
BRANCH  26  31
ATOM     31  O   UNL     1       5.570  44.120  55.340  1.00  0.00    -0.506 OA
ATOM     32  H   UNL     1       6.223  44.129  56.067  1.00  0.00     0.293 HD
ENDBRANCH  26  31
ENDBRANCH  22  24
ENDBRANCH   3  22
TORSDOF 7
ENDMDL
MODEL 6
REMARK VINA RESULT:    -9.395      3.334      6.666
REMARK INTER + INTRA:         -14.021
REMARK INTER:                 -13.006
REMARK INTRA:                  -1.014
REMARK UNBOUND:                -1.056
REMARK SMILES COc1ccc(CNc2nc(Nc3ccc(C)cc3O)c3cnn(C)c3n2)cc1
REMARK SMILES IDX 9 1 10 2 11 3 21 4 22 5 23 6 24 7 25 8 26 9 27 10 8 11 7 13
REMARK SMILES IDX 6 14 3 15 4 16 29 17 5 18 28 19 2 20 1 21 12 22 13 24 14 25
REMARK SMILES IDX 19 26 15 27 18 28 16 29 17 30 20 31
REMARK H PARENT 8 12 12 23 20 32
ROOT
ATOM      1  C   UNL     1       4.925  42.999  50.829  1.00  0.00     0.227 A 
ATOM      2  N   UNL     1       5.956  43.859  50.724  1.00  0.00    -0.195 NA
ATOM      3  C   UNL     1       5.784  45.167  51.032  1.00  0.00     0.147 A 
ATOM      4  C   UNL     1       4.510  45.587  51.416  1.00  0.00     0.082 A 
ATOM      5  C   UNL     1       3.851  46.779  51.781  1.00  0.00     0.149 A 
ATOM      6  N   UNL     1       2.557  46.590  52.068  1.00  0.00    -0.179 NA
ATOM      7  N   UNL     1       2.390  45.261  51.881  1.00  0.00    -0.250 N 
ATOM      8  C   UNL     1       1.094  44.671  52.104  1.00  0.00     0.176 C 
ATOM      9  C   UNL     1       3.529  44.617  51.480  1.00  0.00     0.165 A 
ATOM     10  N   UNL     1       3.677  43.314  51.201  1.00  0.00    -0.193 NA
ENDROOT
BRANCH   1  11
ATOM     11  N   UNL     1       5.236  41.683  50.515  1.00  0.00    -0.350 N 
ATOM     12  H   UNL     1       5.537  41.238  51.374  1.00  0.00     0.164 HD
BRANCH  11  13
ATOM     13  C   UNL     1       6.149  41.534  49.401  1.00  0.00     0.152 C 
BRANCH  13  14
ATOM     14  C   UNL     1       5.351  41.309  48.137  1.00  0.00    -0.029 A 
ATOM     15  C   UNL     1       3.870  40.861  45.781  1.00  0.00     0.118 A 
ATOM     16  C   UNL     1       3.438  40.337  47.001  1.00  0.00     0.047 A 
ATOM     17  C   UNL     1       5.049  41.606  45.740  1.00  0.00     0.047 A 
ATOM     18  C   UNL     1       4.171  40.555  48.170  1.00  0.00     0.009 A 
ATOM     19  C   UNL     1       5.786  41.826  46.909  1.00  0.00     0.009 A 
BRANCH  15  20
ATOM     20  O   UNL     1       3.061  40.573  44.717  1.00  0.00    -0.497 OA
ATOM     21  C   UNL     1       1.691  40.932  44.834  1.00  0.00     0.278 C 
ENDBRANCH  15  20
ENDBRANCH  13  14
ENDBRANCH  11  13
ENDBRANCH   1  11
BRANCH   3  22
ATOM     22  N   UNL     1       6.905  46.007  50.894  1.00  0.00    -0.336 N 
ATOM     23  H   UNL     1       7.477  45.562  50.172  1.00  0.00     0.168 HD
BRANCH  22  24
ATOM     24  C   UNL     1       7.746  46.435  51.951  1.00  0.00     0.082 A 
ATOM     25  C   UNL     1       7.258  47.055  53.105  1.00  0.00     0.030 A 
ATOM     26  C   UNL     1       9.105  46.094  51.908  1.00  0.00     0.139 A 
ATOM     27  C   UNL     1       8.124  47.371  54.159  1.00  0.00     0.006 A 
ATOM     28  C   UNL     1       9.972  46.397  52.951  1.00  0.00     0.051 A 
ATOM     29  C   UNL     1       9.483  47.036  54.095  1.00  0.00    -0.047 A 
ATOM     30  C   UNL     1      10.411  47.405  55.214  1.00  0.00     0.044 C 
BRANCH  26  31
ATOM     31  O   UNL     1       9.616  45.466  50.803  1.00  0.00    -0.506 OA
ATOM     32  H   UNL     1       9.319  46.001  50.043  1.00  0.00     0.293 HD
ENDBRANCH  26  31
ENDBRANCH  22  24
ENDBRANCH   3  22
TORSDOF 7
ENDMDL
MODEL 7
REMARK VINA RESULT:    -9.383      1.644      7.331
REMARK INTER + INTRA:         -14.005
REMARK INTER:                 -13.117
REMARK INTRA:                  -0.888
REMARK UNBOUND:                -1.056
REMARK SMILES COc1ccc(CNc2nc(Nc3ccc(C)cc3O)c3cnn(C)c3n2)cc1
REMARK SMILES IDX 9 1 10 2 11 3 21 4 22 5 23 6 24 7 25 8 26 9 27 10 8 11 7 13
REMARK SMILES IDX 6 14 3 15 4 16 29 17 5 18 28 19 2 20 1 21 12 22 13 24 14 25
REMARK SMILES IDX 19 26 15 27 18 28 16 29 17 30 20 31
REMARK H PARENT 8 12 12 23 20 32
ROOT
ATOM      1  C   UNL     1       6.190  45.186  50.915  1.00  0.00     0.227 A 
ATOM      2  N   UNL     1       5.399  45.396  51.983  1.00  0.00    -0.195 NA
ATOM      3  C   UNL     1       4.560  44.421  52.411  1.00  0.00     0.147 A 
ATOM      4  C   UNL     1       4.522  43.228  51.689  1.00  0.00     0.082 A 
ATOM      5  C   UNL     1       3.833  41.998  51.709  1.00  0.00     0.149 A 
ATOM      6  N   UNL     1       4.217  41.172  50.729  1.00  0.00    -0.179 NA
ATOM      7  N   UNL     1       5.161  41.887  50.074  1.00  0.00    -0.250 N 
ATOM      8  C   UNL     1       5.823  41.308  48.932  1.00  0.00     0.176 C 
ATOM      9  C   UNL     1       5.372  43.130  50.606  1.00  0.00     0.165 A 
ATOM     10  N   UNL     1       6.225  44.069  50.174  1.00  0.00    -0.193 NA
ENDROOT
BRANCH   1  11
ATOM     11  N   UNL     1       7.023  46.248  50.595  1.00  0.00    -0.350 N 
ATOM     12  H   UNL     1       6.795  46.527  49.648  1.00  0.00     0.164 HD
BRANCH  11  13
ATOM     13  C   UNL     1       8.429  45.997  50.832  1.00  0.00     0.152 C 
BRANCH  13  14
ATOM     14  C   UNL     1       8.824  46.613  52.155  1.00  0.00    -0.029 A 
ATOM     15  C   UNL     1       9.552  47.738  54.635  1.00  0.00     0.118 A 
ATOM     16  C   UNL     1      10.271  46.665  54.104  1.00  0.00     0.047 A 
ATOM     17  C   UNL     1       8.463  48.245  53.925  1.00  0.00     0.047 A 
ATOM     18  C   UNL     1       9.911  46.104  52.877  1.00  0.00     0.009 A 
ATOM     19  C   UNL     1       8.100  47.684  52.695  1.00  0.00     0.009 A 
BRANCH  15  20
ATOM     20  O   UNL     1      10.009  48.191  55.841  1.00  0.00    -0.497 OA
ATOM     21  C   UNL     1      11.117  47.506  56.409  1.00  0.00     0.278 C 
ENDBRANCH  15  20
ENDBRANCH  13  14
ENDBRANCH  11  13
ENDBRANCH   1  11
BRANCH   3  22
ATOM     22  N   UNL     1       3.761  44.715  53.532  1.00  0.00    -0.336 N 
ATOM     23  H   UNL     1       4.040  44.029  54.238  1.00  0.00     0.168 HD
BRANCH  22  24
ATOM     24  C   UNL     1       2.348  44.822  53.527  1.00  0.00     0.082 A 
ATOM     25  C   UNL     1       1.599  44.935  52.351  1.00  0.00     0.030 A 
ATOM     26  C   UNL     1       1.657  44.664  54.737  1.00  0.00     0.139 A 
ATOM     27  C   UNL     1       0.201  44.943  52.400  1.00  0.00     0.006 A 
ATOM     28  C   UNL     1       0.268  44.664  54.796  1.00  0.00     0.051 A 
ATOM     29  C   UNL     1      -0.475  44.798  53.619  1.00  0.00    -0.047 A 
ATOM     30  C   UNL     1      -1.974  44.838  53.668  1.00  0.00     0.044 C 
BRANCH  26  31
ATOM     31  O   UNL     1       2.355  44.529  55.908  1.00  0.00    -0.506 OA
ATOM     32  H   UNL     1       1.692  44.257  56.571  1.00  0.00     0.293 HD
ENDBRANCH  26  31
ENDBRANCH  22  24
ENDBRANCH   3  22
TORSDOF 7
ENDMDL
MODEL 8
REMARK VINA RESULT:    -9.266      2.038      2.566
REMARK INTER + INTRA:         -13.843
REMARK INTER:                 -12.792
REMARK INTRA:                  -1.051
REMARK UNBOUND:                -1.056
REMARK SMILES COc1ccc(CNc2nc(Nc3ccc(C)cc3O)c3cnn(C)c3n2)cc1
REMARK SMILES IDX 9 1 10 2 11 3 21 4 22 5 23 6 24 7 25 8 26 9 27 10 8 11 7 13
REMARK SMILES IDX 6 14 3 15 4 16 29 17 5 18 28 19 2 20 1 21 12 22 13 24 14 25
REMARK SMILES IDX 19 26 15 27 18 28 16 29 17 30 20 31
REMARK H PARENT 8 12 12 23 20 32
ROOT
ATOM      1  C   UNL     1       4.638  43.971  52.365  1.00  0.00     0.227 A 
ATOM      2  N   UNL     1       5.451  45.044  52.408  1.00  0.00    -0.195 NA
ATOM      3  C   UNL     1       6.385  45.229  51.443  1.00  0.00     0.147 A 
ATOM      4  C   UNL     1       6.495  44.260  50.444  1.00  0.00     0.082 A 
ATOM      5  C   UNL     1       7.285  43.995  49.307  1.00  0.00     0.149 A 
ATOM      6  N   UNL     1       6.933  42.864  48.684  1.00  0.00    -0.179 NA
ATOM      7  N   UNL     1       5.907  42.402  49.435  1.00  0.00    -0.250 N 
ATOM      8  C   UNL     1       5.251  41.174  49.062  1.00  0.00     0.176 C 
ATOM      9  C   UNL     1       5.614  43.200  50.508  1.00  0.00     0.165 A 
ATOM     10  N   UNL     1       4.668  43.004  51.438  1.00  0.00    -0.193 NA
ENDROOT
BRANCH   1  11
ATOM     11  N   UNL     1       3.707  43.911  53.391  1.00  0.00    -0.350 N 
ATOM     12  H   UNL     1       3.447  42.937  53.496  1.00  0.00     0.164 HD
BRANCH  11  13
ATOM     13  C   UNL     1       2.593  44.823  53.241  1.00  0.00     0.152 C 
BRANCH  13  14
ATOM     14  C   UNL     1       1.358  44.036  52.866  1.00  0.00    -0.029 A 
ATOM     15  C   UNL     1      -0.929  42.544  52.165  1.00  0.00     0.118 A 
ATOM     16  C   UNL     1      -0.268  42.305  53.372  1.00  0.00     0.047 A 
ATOM     17  C   UNL     1      -0.441  43.529  51.306  1.00  0.00     0.047 A 
ATOM     18  C   UNL     1       0.867  43.041  53.720  1.00  0.00     0.009 A 
ATOM     19  C   UNL     1       0.696  44.268  51.653  1.00  0.00     0.009 A 
BRANCH  15  20
ATOM     20  O   UNL     1      -2.024  41.755  51.947  1.00  0.00    -0.497 OA
ATOM     21  C   UNL     1      -3.087  42.323  51.192  1.00  0.00     0.278 C 
ENDBRANCH  15  20
ENDBRANCH  13  14
ENDBRANCH  11  13
ENDBRANCH   1  11
BRANCH   3  22
ATOM     22  N   UNL     1       7.201  46.370  51.556  1.00  0.00    -0.336 N 
ATOM     23  H   UNL     1       7.703  46.421  50.666  1.00  0.00     0.168 HD
BRANCH  22  24
ATOM     24  C   UNL     1       8.109  46.628  52.613  1.00  0.00     0.082 A 
ATOM     25  C   UNL     1       9.483  46.398  52.507  1.00  0.00     0.030 A 
ATOM     26  C   UNL     1       7.635  47.277  53.762  1.00  0.00     0.139 A 
ATOM     27  C   UNL     1      10.345  46.759  53.548  1.00  0.00     0.006 A 
ATOM     28  C   UNL     1       8.482  47.647  54.800  1.00  0.00     0.051 A 
ATOM     29  C   UNL     1       9.854  47.395  54.697  1.00  0.00    -0.047 A 
ATOM     30  C   UNL     1      10.779  47.752  55.823  1.00  0.00     0.044 C 
BRANCH  26  31
ATOM     31  O   UNL     1       6.297  47.540  53.894  1.00  0.00    -0.506 OA
ATOM     32  H   UNL     1       5.885  46.678  54.096  1.00  0.00     0.293 HD
ENDBRANCH  26  31
ENDBRANCH  22  24
ENDBRANCH   3  22
TORSDOF 7
ENDMDL
MODEL 9
REMARK VINA RESULT:    -9.249      2.934      6.549
REMARK INTER + INTRA:         -13.819
REMARK INTER:                 -13.011
REMARK INTRA:                  -0.809
REMARK UNBOUND:                -1.056
REMARK SMILES COc1ccc(CNc2nc(Nc3ccc(C)cc3O)c3cnn(C)c3n2)cc1
REMARK SMILES IDX 9 1 10 2 11 3 21 4 22 5 23 6 24 7 25 8 26 9 27 10 8 11 7 13
REMARK SMILES IDX 6 14 3 15 4 16 29 17 5 18 28 19 2 20 1 21 12 22 13 24 14 25
REMARK SMILES IDX 19 26 15 27 18 28 16 29 17 30 20 31
REMARK H PARENT 8 12 12 23 20 32
ROOT
ATOM      1  C   UNL     1       6.039  43.467  50.260  1.00  0.00     0.227 A 
ATOM      2  N   UNL     1       6.680  44.614  50.549  1.00  0.00    -0.195 NA
ATOM      3  C   UNL     1       6.192  45.446  51.501  1.00  0.00     0.147 A 
ATOM      4  C   UNL     1       4.997  45.091  52.130  1.00  0.00     0.082 A 
ATOM      5  C   UNL     1       4.117  45.607  53.102  1.00  0.00     0.149 A 
ATOM      6  N   UNL     1       3.071  44.804  53.333  1.00  0.00    -0.179 NA
ATOM      7  N   UNL     1       3.288  43.764  52.495  1.00  0.00    -0.250 N 
ATOM      8  C   UNL     1       2.349  42.671  52.464  1.00  0.00     0.176 C 
ATOM      9  C   UNL     1       4.425  43.895  51.745  1.00  0.00     0.165 A 
ATOM     10  N   UNL     1       4.898  43.044  50.822  1.00  0.00    -0.193 NA
ENDROOT
BRANCH   1  11
ATOM     11  N   UNL     1       6.654  42.689  49.290  1.00  0.00    -0.350 N 
ATOM     12  H   UNL     1       6.639  43.223  48.429  1.00  0.00     0.164 HD
BRANCH  11  13
ATOM     13  C   UNL     1       6.128  41.344  49.180  1.00  0.00     0.152 C 
BRANCH  13  14
ATOM     14  C   UNL     1       5.315  41.236  47.910  1.00  0.00    -0.029 A 
ATOM     15  C   UNL     1       3.804  41.006  45.541  1.00  0.00     0.118 A 
ATOM     16  C   UNL     1       3.375  40.390  46.719  1.00  0.00     0.047 A 
ATOM     17  C   UNL     1       4.995  41.734  45.548  1.00  0.00     0.047 A 
ATOM     18  C   UNL     1       4.123  40.500  47.893  1.00  0.00     0.009 A 
ATOM     19  C   UNL     1       5.746  41.846  46.724  1.00  0.00     0.009 A 
BRANCH  15  20
ATOM     20  O   UNL     1       2.981  40.820  44.466  1.00  0.00    -0.497 OA
ATOM     21  C   UNL     1       1.587  40.998  44.683  1.00  0.00     0.278 C 
ENDBRANCH  15  20
ENDBRANCH  13  14
ENDBRANCH  11  13
ENDBRANCH   1  11
BRANCH   3  22
ATOM     22  N   UNL     1       6.914  46.629  51.746  1.00  0.00    -0.336 N 
ATOM     23  H   UNL     1       7.273  46.909  50.830  1.00  0.00     0.168 HD
BRANCH  22  24
ATOM     24  C   UNL     1       7.940  46.780  52.711  1.00  0.00     0.082 A 
ATOM     25  C   UNL     1       9.289  46.543  52.428  1.00  0.00     0.030 A 
ATOM     26  C   UNL     1       7.613  47.327  53.960  1.00  0.00     0.139 A 
ATOM     27  C   UNL     1      10.270  46.799  53.392  1.00  0.00     0.006 A 
ATOM     28  C   UNL     1       8.581  47.592  54.922  1.00  0.00     0.051 A 
ATOM     29  C   UNL     1       9.926  47.333  54.641  1.00  0.00    -0.047 A 
ATOM     30  C   UNL     1      10.979  47.576  55.681  1.00  0.00     0.044 C 
BRANCH  26  31
ATOM     31  O   UNL     1       6.305  47.593  54.266  1.00  0.00    -0.506 OA
ATOM     32  H   UNL     1       6.146  47.146  55.120  1.00  0.00     0.293 HD
ENDBRANCH  26  31
ENDBRANCH  22  24
ENDBRANCH   3  22
TORSDOF 7
ENDMDL
MODEL 10
REMARK VINA RESULT:    -9.233      2.065      7.486
REMARK INTER + INTRA:         -13.797
REMARK INTER:                 -12.835
REMARK INTRA:                  -0.962
REMARK UNBOUND:                -1.056
REMARK SMILES COc1ccc(CNc2nc(Nc3ccc(C)cc3O)c3cnn(C)c3n2)cc1
REMARK SMILES IDX 9 1 10 2 11 3 21 4 22 5 23 6 24 7 25 8 26 9 27 10 8 11 7 13
REMARK SMILES IDX 6 14 3 15 4 16 29 17 5 18 28 19 2 20 1 21 12 22 13 24 14 25
REMARK SMILES IDX 19 26 15 27 18 28 16 29 17 30 20 31
REMARK H PARENT 8 12 12 23 20 32
ROOT
ATOM      1  C   UNL     1       5.786  45.006  51.095  1.00  0.00     0.227 A 
ATOM      2  N   UNL     1       4.915  44.967  52.120  1.00  0.00    -0.195 NA
ATOM      3  C   UNL     1       4.155  43.864  52.327  1.00  0.00     0.147 A 
ATOM      4  C   UNL     1       4.280  42.805  51.426  1.00  0.00     0.082 A 
ATOM      5  C   UNL     1       3.718  41.532  51.202  1.00  0.00     0.149 A 
ATOM      6  N   UNL     1       4.241  40.915  50.136  1.00  0.00    -0.179 NA
ATOM      7  N   UNL     1       5.146  41.808  49.674  1.00  0.00    -0.250 N 
ATOM      8  C   UNL     1       5.930  41.485  48.508  1.00  0.00     0.176 C 
ATOM      9  C   UNL     1       5.198  42.962  50.408  1.00  0.00     0.165 A 
ATOM     10  N   UNL     1       5.977  44.032  50.194  1.00  0.00    -0.193 NA
ENDROOT
BRANCH   1  11
ATOM     11  N   UNL     1       6.526  46.176  51.008  1.00  0.00    -0.350 N 
ATOM     12  H   UNL     1       6.207  46.666  50.180  1.00  0.00     0.164 HD
BRANCH  11  13
ATOM     13  C   UNL     1       7.959  45.984  51.086  1.00  0.00     0.152 C 
BRANCH  13  14
ATOM     14  C   UNL     1       8.464  46.569  52.385  1.00  0.00    -0.029 A 
ATOM     15  C   UNL     1       9.416  47.633  54.816  1.00  0.00     0.118 A 
ATOM     16  C   UNL     1      10.305  47.117  53.871  1.00  0.00     0.047 A 
ATOM     17  C   UNL     1       8.047  47.612  54.545  1.00  0.00     0.047 A 
ATOM     18  C   UNL     1       9.836  46.586  52.667  1.00  0.00     0.009 A 
ATOM     19  C   UNL     1       7.575  47.081  53.339  1.00  0.00     0.009 A 
BRANCH  15  20
ATOM     20  O   UNL     1      10.005  48.121  55.949  1.00  0.00    -0.497 OA
ATOM     21  C   UNL     1      11.197  47.478  56.383  1.00  0.00     0.278 C 
ENDBRANCH  15  20
ENDBRANCH  13  14
ENDBRANCH  11  13
ENDBRANCH   1  11
BRANCH   3  22
ATOM     22  N   UNL     1       3.264  43.898  53.416  1.00  0.00    -0.336 N 
ATOM     23  H   UNL     1       3.585  43.153  54.039  1.00  0.00     0.168 HD
BRANCH  22  24
ATOM     24  C   UNL     1       1.851  43.846  53.324  1.00  0.00     0.082 A 
ATOM     25  C   UNL     1       1.118  42.681  53.568  1.00  0.00     0.030 A 
ATOM     26  C   UNL     1       1.146  45.040  53.121  1.00  0.00     0.139 A 
ATOM     27  C   UNL     1      -0.281  42.709  53.555  1.00  0.00     0.006 A 
ATOM     28  C   UNL     1      -0.243  45.081  53.112  1.00  0.00     0.051 A 
ATOM     29  C   UNL     1      -0.972  43.909  53.337  1.00  0.00    -0.047 A 
ATOM     30  C   UNL     1      -2.472  43.927  53.292  1.00  0.00     0.044 C 
BRANCH  26  31
ATOM     31  O   UNL     1       1.829  46.206  52.899  1.00  0.00    -0.506 OA
ATOM     32  H   UNL     1       1.416  46.599  52.106  1.00  0.00     0.293 HD
ENDBRANCH  26  31
ENDBRANCH  22  24
ENDBRANCH   3  22
TORSDOF 7
ENDMDL
MODEL 11
REMARK VINA RESULT:    -9.195      2.995      6.923
REMARK INTER + INTRA:         -13.745
REMARK INTER:                 -12.747
REMARK INTRA:                  -0.997
REMARK UNBOUND:                -1.056
REMARK SMILES COc1ccc(CNc2nc(Nc3ccc(C)cc3O)c3cnn(C)c3n2)cc1
REMARK SMILES IDX 9 1 10 2 11 3 21 4 22 5 23 6 24 7 25 8 26 9 27 10 8 11 7 13
REMARK SMILES IDX 6 14 3 15 4 16 29 17 5 18 28 19 2 20 1 21 12 22 13 24 14 25
REMARK SMILES IDX 19 26 15 27 18 28 16 29 17 30 20 31
REMARK H PARENT 8 12 12 23 20 32
ROOT
ATOM      1  C   UNL     1       3.902  42.663  51.542  1.00  0.00     0.227 A 
ATOM      2  N   UNL     1       4.753  43.665  51.255  1.00  0.00    -0.195 NA
ATOM      3  C   UNL     1       4.552  44.899  51.778  1.00  0.00     0.147 A 
ATOM      4  C   UNL     1       3.425  45.096  52.577  1.00  0.00     0.082 A 
ATOM      5  C   UNL     1       2.793  46.141  53.281  1.00  0.00     0.149 A 
ATOM      6  N   UNL     1       1.680  45.745  53.910  1.00  0.00    -0.179 NA
ATOM      7  N   UNL     1       1.601  44.430  53.599  1.00  0.00    -0.250 N 
ATOM      8  C   UNL     1       0.506  43.645  54.114  1.00  0.00     0.176 C 
ATOM      9  C   UNL     1       2.619  43.997  52.794  1.00  0.00     0.165 A 
ATOM     10  N   UNL     1       2.806  42.761  52.307  1.00  0.00    -0.193 NA
ENDROOT
BRANCH   1  11
ATOM     11  N   UNL     1       4.233  41.442  50.972  1.00  0.00    -0.350 N 
ATOM     12  H   UNL     1       4.244  40.760  51.721  1.00  0.00     0.164 HD
BRANCH  11  13
ATOM     13  C   UNL     1       5.428  41.468  50.156  1.00  0.00     0.152 C 
BRANCH  13  14
ATOM     14  C   UNL     1       5.043  41.256  48.710  1.00  0.00    -0.029 A 
ATOM     15  C   UNL     1       4.319  40.887  46.010  1.00  0.00     0.118 A 
ATOM     16  C   UNL     1       5.459  41.620  46.345  1.00  0.00     0.047 A 
ATOM     17  C   UNL     1       3.537  40.342  47.029  1.00  0.00     0.047 A 
ATOM     18  C   UNL     1       5.819  41.807  47.682  1.00  0.00     0.009 A 
ATOM     19  C   UNL     1       3.895  40.528  48.369  1.00  0.00     0.009 A 
BRANCH  15  20
ATOM     20  O   UNL     1       4.081  40.781  44.668  1.00  0.00    -0.497 OA
ATOM     21  C   UNL     1       5.215  40.633  43.823  1.00  0.00     0.278 C 
ENDBRANCH  15  20
ENDBRANCH  13  14
ENDBRANCH  11  13
ENDBRANCH   1  11
BRANCH   3  22
ATOM     22  N   UNL     1       5.481  45.898  51.431  1.00  0.00    -0.336 N 
ATOM     23  H   UNL     1       5.810  45.635  50.499  1.00  0.00     0.168 HD
BRANCH  22  24
ATOM     24  C   UNL     1       6.591  46.296  52.217  1.00  0.00     0.082 A 
ATOM     25  C   UNL     1       6.463  46.766  53.527  1.00  0.00     0.030 A 
ATOM     26  C   UNL     1       7.882  46.075  51.717  1.00  0.00     0.139 A 
ATOM     27  C   UNL     1       7.600  47.056  54.290  1.00  0.00     0.006 A 
ATOM     28  C   UNL     1       9.019  46.353  52.468  1.00  0.00     0.051 A 
ATOM     29  C   UNL     1       8.884  46.843  53.771  1.00  0.00    -0.047 A 
ATOM     30  C   UNL     1      10.099  47.184  54.582  1.00  0.00     0.044 C 
BRANCH  26  31
ATOM     31  O   UNL     1       8.048  45.595  50.445  1.00  0.00    -0.506 OA
ATOM     32  H   UNL     1       7.173  45.247  50.186  1.00  0.00     0.293 HD
ENDBRANCH  26  31
ENDBRANCH  22  24
ENDBRANCH   3  22
TORSDOF 7
ENDMDL
MODEL 12
REMARK VINA RESULT:    -9.125      2.445      5.719
REMARK INTER + INTRA:         -13.648
REMARK INTER:                 -12.670
REMARK INTRA:                  -0.978
REMARK UNBOUND:                -1.056
REMARK SMILES COc1ccc(CNc2nc(Nc3ccc(C)cc3O)c3cnn(C)c3n2)cc1
REMARK SMILES IDX 9 1 10 2 11 3 21 4 22 5 23 6 24 7 25 8 26 9 27 10 8 11 7 13
REMARK SMILES IDX 6 14 3 15 4 16 29 17 5 18 28 19 2 20 1 21 12 22 13 24 14 25
REMARK SMILES IDX 19 26 15 27 18 28 16 29 17 30 20 31
REMARK H PARENT 8 12 12 23 20 32
ROOT
ATOM      1  C   UNL     1       5.709  47.179  53.342  1.00  0.00     0.227 A 
ATOM      2  N   UNL     1       5.749  46.407  52.240  1.00  0.00    -0.195 NA
ATOM      3  C   UNL     1       6.937  45.952  51.770  1.00  0.00     0.147 A 
ATOM      4  C   UNL     1       8.098  46.341  52.440  1.00  0.00     0.082 A 
ATOM      5  C   UNL     1       9.493  46.172  52.329  1.00  0.00     0.149 A 
ATOM      6  N   UNL     1      10.170  46.800  53.298  1.00  0.00    -0.179 NA
ATOM      7  N   UNL     1       9.193  47.379  54.034  1.00  0.00    -0.250 N 
ATOM      8  C   UNL     1       9.546  48.157  55.194  1.00  0.00     0.176 C 
ATOM      9  C   UNL     1       7.933  47.141  53.553  1.00  0.00     0.165 A 
ATOM     10  N   UNL     1       6.771  47.588  54.050  1.00  0.00    -0.193 NA
ENDROOT
BRANCH   1  11
ATOM     11  N   UNL     1       4.434  47.555  53.738  1.00  0.00    -0.350 N 
ATOM     12  H   UNL     1       4.244  47.078  54.612  1.00  0.00     0.164 HD
BRANCH  11  13
ATOM     13  C   UNL     1       3.418  47.387  52.721  1.00  0.00     0.152 C 
BRANCH  13  14
ATOM     14  C   UNL     1       2.602  46.154  53.038  1.00  0.00    -0.029 A 
ATOM     15  C   UNL     1       1.056  43.871  53.624  1.00  0.00     0.118 A 
ATOM     16  C   UNL     1       1.132  44.361  52.318  1.00  0.00     0.047 A 
ATOM     17  C   UNL     1       1.751  44.530  54.639  1.00  0.00     0.047 A 
ATOM     18  C   UNL     1       1.895  45.493  52.026  1.00  0.00     0.009 A 
ATOM     19  C   UNL     1       2.516  45.665  54.348  1.00  0.00     0.009 A 
BRANCH  15  20
ATOM     20  O   UNL     1       0.276  42.758  53.773  1.00  0.00    -0.497 OA
ATOM     21  C   UNL     1      -0.508  42.367  52.654  1.00  0.00     0.278 C 
ENDBRANCH  15  20
ENDBRANCH  13  14
ENDBRANCH  11  13
ENDBRANCH   1  11
BRANCH   3  22
ATOM     22  N   UNL     1       6.900  45.154  50.611  1.00  0.00    -0.336 N 
ATOM     23  H   UNL     1       6.672  45.804  49.855  1.00  0.00     0.168 HD
BRANCH  22  24
ATOM     24  C   UNL     1       6.135  43.972  50.451  1.00  0.00     0.082 A 
ATOM     25  C   UNL     1       4.929  43.752  51.123  1.00  0.00     0.030 A 
ATOM     26  C   UNL     1       6.525  43.046  49.473  1.00  0.00     0.139 A 
ATOM     27  C   UNL     1       4.168  42.609  50.855  1.00  0.00     0.006 A 
ATOM     28  C   UNL     1       5.774  41.911  49.195  1.00  0.00     0.051 A 
ATOM     29  C   UNL     1       4.578  41.686  49.884  1.00  0.00    -0.047 A 
ATOM     30  C   UNL     1       3.774  40.446  49.624  1.00  0.00     0.044 C 
BRANCH  26  31
ATOM     31  O   UNL     1       7.690  43.238  48.779  1.00  0.00    -0.506 OA
ATOM     32  H   UNL     1       7.776  42.455  48.201  1.00  0.00     0.293 HD
ENDBRANCH  26  31
ENDBRANCH  22  24
ENDBRANCH   3  22
TORSDOF 7
ENDMDL
MODEL 13
REMARK VINA RESULT:    -9.093      1.098      1.414
REMARK INTER + INTRA:         -13.604
REMARK INTER:                 -12.876
REMARK INTRA:                  -0.728
REMARK UNBOUND:                -1.056
REMARK SMILES COc1ccc(CNc2nc(Nc3ccc(C)cc3O)c3cnn(C)c3n2)cc1
REMARK SMILES IDX 9 1 10 2 11 3 21 4 22 5 23 6 24 7 25 8 26 9 27 10 8 11 7 13
REMARK SMILES IDX 6 14 3 15 4 16 29 17 5 18 28 19 2 20 1 21 12 22 13 24 14 25
REMARK SMILES IDX 19 26 15 27 18 28 16 29 17 30 20 31
REMARK H PARENT 8 12 12 23 20 32
ROOT
ATOM      1  C   UNL     1       4.337  44.544  52.548  1.00  0.00     0.227 A 
ATOM      2  N   UNL     1       5.253  45.524  52.441  1.00  0.00    -0.195 NA
ATOM      3  C   UNL     1       6.218  45.454  51.491  1.00  0.00     0.147 A 
ATOM      4  C   UNL     1       6.247  44.325  50.670  1.00  0.00     0.082 A 
ATOM      5  C   UNL     1       7.026  43.798  49.621  1.00  0.00     0.149 A 
ATOM      6  N   UNL     1       6.572  42.618  49.181  1.00  0.00    -0.179 NA
ATOM      7  N   UNL     1       5.491  42.391  49.963  1.00  0.00    -0.250 N 
ATOM      8  C   UNL     1       4.721  41.186  49.775  1.00  0.00     0.176 C 
ATOM      9  C   UNL     1       5.262  43.381  50.878  1.00  0.00     0.165 A 
ATOM     10  N   UNL     1       4.284  43.436  51.795  1.00  0.00    -0.193 NA
ENDROOT
BRANCH   1  11
ATOM     11  N   UNL     1       3.386  44.746  53.537  1.00  0.00    -0.350 N 
ATOM     12  H   UNL     1       3.863  44.660  54.427  1.00  0.00     0.164 HD
BRANCH  11  13
ATOM     13  C   UNL     1       2.200  43.928  53.402  1.00  0.00     0.152 C 
BRANCH  13  14
ATOM     14  C   UNL     1       1.216  44.304  54.487  1.00  0.00    -0.029 A 
ATOM     15  C   UNL     1      -0.607  44.985  56.527  1.00  0.00     0.118 A 
ATOM     16  C   UNL     1       0.760  45.216  56.691  1.00  0.00     0.047 A 
ATOM     17  C   UNL     1      -1.062  44.406  55.341  1.00  0.00     0.047 A 
ATOM     18  C   UNL     1       1.666  44.877  55.683  1.00  0.00     0.009 A 
ATOM     19  C   UNL     1      -0.156  44.066  54.330  1.00  0.00     0.009 A 
BRANCH  15  20
ATOM     20  O   UNL     1      -1.382  45.362  57.588  1.00  0.00    -0.497 OA
ATOM     21  C   UNL     1      -1.795  46.721  57.632  1.00  0.00     0.278 C 
ENDBRANCH  15  20
ENDBRANCH  13  14
ENDBRANCH  11  13
ENDBRANCH   1  11
BRANCH   3  22
ATOM     22  N   UNL     1       7.143  46.513  51.443  1.00  0.00    -0.336 N 
ATOM     23  H   UNL     1       7.685  46.348  50.591  1.00  0.00     0.168 HD
BRANCH  22  24
ATOM     24  C   UNL     1       8.027  46.879  52.488  1.00  0.00     0.082 A 
ATOM     25  C   UNL     1       7.610  47.575  53.626  1.00  0.00     0.030 A 
ATOM     26  C   UNL     1       9.345  46.402  52.451  1.00  0.00     0.139 A 
ATOM     27  C   UNL     1       8.507  47.828  54.670  1.00  0.00     0.006 A 
ATOM     28  C   UNL     1      10.243  46.641  53.486  1.00  0.00     0.051 A 
ATOM     29  C   UNL     1       9.825  47.356  54.613  1.00  0.00    -0.047 A 
ATOM     30  C   UNL     1      10.790  47.657  55.721  1.00  0.00     0.044 C 
BRANCH  26  31
ATOM     31  O   UNL     1       9.786  45.697  51.363  1.00  0.00    -0.506 OA
ATOM     32  H   UNL     1       9.045  45.720  50.726  1.00  0.00     0.293 HD
ENDBRANCH  26  31
ENDBRANCH  22  24
ENDBRANCH   3  22
TORSDOF 7
ENDMDL
MODEL 14
REMARK VINA RESULT:    -9.024      2.968      8.477
REMARK INTER + INTRA:         -13.508
REMARK INTER:                 -12.661
REMARK INTRA:                  -0.848
REMARK UNBOUND:                -1.056
REMARK SMILES COc1ccc(CNc2nc(Nc3ccc(C)cc3O)c3cnn(C)c3n2)cc1
REMARK SMILES IDX 9 1 10 2 11 3 21 4 22 5 23 6 24 7 25 8 26 9 27 10 8 11 7 13
REMARK SMILES IDX 6 14 3 15 4 16 29 17 5 18 28 19 2 20 1 21 12 22 13 24 14 25
REMARK SMILES IDX 19 26 15 27 18 28 16 29 17 30 20 31
REMARK H PARENT 8 12 12 23 20 32
ROOT
ATOM      1  C   UNL     1       3.378  45.887  54.439  1.00  0.00     0.227 A 
ATOM      2  N   UNL     1       2.877  45.884  55.688  1.00  0.00    -0.195 NA
ATOM      3  C   UNL     1       1.657  45.346  55.930  1.00  0.00     0.147 A 
ATOM      4  C   UNL     1       0.936  44.843  54.847  1.00  0.00     0.082 A 
ATOM      5  C   UNL     1      -0.316  44.250  54.589  1.00  0.00     0.149 A 
ATOM      6  N   UNL     1      -0.491  43.946  53.297  1.00  0.00    -0.179 NA
ATOM      7  N   UNL     1       0.665  44.354  52.724  1.00  0.00    -0.250 N 
ATOM      8  C   UNL     1       0.851  44.183  51.305  1.00  0.00     0.176 C 
ATOM      9  C   UNL     1       1.548  44.908  53.611  1.00  0.00     0.165 A 
ATOM     10  N   UNL     1       2.761  45.414  53.347  1.00  0.00    -0.193 NA
ENDROOT
BRANCH   1  11
ATOM     11  N   UNL     1       4.647  46.437  54.326  1.00  0.00    -0.350 N 
ATOM     12  H   UNL     1       4.848  46.898  55.206  1.00  0.00     0.164 HD
BRANCH  11  13
ATOM     13  C   UNL     1       4.839  47.261  53.151  1.00  0.00     0.152 C 
BRANCH  13  14
ATOM     14  C   UNL     1       5.884  46.621  52.266  1.00  0.00    -0.029 A 
ATOM     15  C   UNL     1       7.829  45.403  50.629  1.00  0.00     0.118 A 
ATOM     16  C   UNL     1       6.498  44.985  50.580  1.00  0.00     0.047 A 
ATOM     17  C   UNL     1       8.188  46.430  51.503  1.00  0.00     0.047 A 
ATOM     18  C   UNL     1       5.532  45.585  51.392  1.00  0.00     0.009 A 
ATOM     19  C   UNL     1       7.222  47.033  52.317  1.00  0.00     0.009 A 
BRANCH  15  20
ATOM     20  O   UNL     1       8.670  44.734  49.784  1.00  0.00    -0.497 OA
ATOM     21  C   UNL     1       8.092  43.729  48.963  1.00  0.00     0.278 C 
ENDBRANCH  15  20
ENDBRANCH  13  14
ENDBRANCH  11  13
ENDBRANCH   1  11
BRANCH   3  22
ATOM     22  N   UNL     1       1.196  45.383  57.260  1.00  0.00    -0.336 N 
ATOM     23  H   UNL     1       0.690  44.503  57.385  1.00  0.00     0.168 HD
BRANCH  22  24
ATOM     24  C   UNL     1       0.445  46.435  57.840  1.00  0.00     0.082 A 
ATOM     25  C   UNL     1      -0.844  46.771  57.415  1.00  0.00     0.030 A 
ATOM     26  C   UNL     1       0.951  47.072  58.982  1.00  0.00     0.139 A 
ATOM     27  C   UNL     1      -1.576  47.757  58.086  1.00  0.00     0.006 A 
ATOM     28  C   UNL     1       0.230  48.048  59.660  1.00  0.00     0.051 A 
ATOM     29  C   UNL     1      -1.051  48.395  59.218  1.00  0.00    -0.047 A 
ATOM     30  C   UNL     1      -1.829  49.472  59.914  1.00  0.00     0.044 C 
BRANCH  26  31
ATOM     31  O   UNL     1       2.201  46.755  59.442  1.00  0.00    -0.506 OA
ATOM     32  H   UNL     1       2.175  45.793  59.613  1.00  0.00     0.293 HD
ENDBRANCH  26  31
ENDBRANCH  22  24
ENDBRANCH   3  22
TORSDOF 7
ENDMDL
MODEL 15
REMARK VINA RESULT:    -8.928      3.223      7.090
REMARK INTER + INTRA:         -13.377
REMARK INTER:                 -12.042
REMARK INTRA:                  -1.335
REMARK UNBOUND:                -1.056
REMARK SMILES COc1ccc(CNc2nc(Nc3ccc(C)cc3O)c3cnn(C)c3n2)cc1
REMARK SMILES IDX 9 1 10 2 11 3 21 4 22 5 23 6 24 7 25 8 26 9 27 10 8 11 7 13
REMARK SMILES IDX 6 14 3 15 4 16 29 17 5 18 28 19 2 20 1 21 12 22 13 24 14 25
REMARK SMILES IDX 19 26 15 27 18 28 16 29 17 30 20 31
REMARK H PARENT 8 12 12 23 20 32
ROOT
ATOM      1  C   UNL     1       1.352  43.114  51.171  1.00  0.00     0.227 A 
ATOM      2  N   UNL     1       1.724  44.058  52.055  1.00  0.00    -0.195 NA
ATOM      3  C   UNL     1       0.821  44.966  52.501  1.00  0.00     0.147 A 
ATOM      4  C   UNL     1      -0.474  44.909  51.984  1.00  0.00     0.082 A 
ATOM      5  C   UNL     1      -1.692  45.609  52.096  1.00  0.00     0.149 A 
ATOM      6  N   UNL     1      -2.662  45.089  51.334  1.00  0.00    -0.179 NA
ATOM      7  N   UNL     1      -2.052  44.045  50.726  1.00  0.00    -0.250 N 
ATOM      8  C   UNL     1      -2.800  43.223  49.809  1.00  0.00     0.176 C 
ATOM      9  C   UNL     1      -0.736  43.902  51.076  1.00  0.00     0.165 A 
ATOM     10  N   UNL     1       0.131  42.980  50.635  1.00  0.00    -0.193 NA
ENDROOT
BRANCH   1  11
ATOM     11  N   UNL     1       2.358  42.226  50.816  1.00  0.00    -0.350 N 
ATOM     12  H   UNL     1       1.914  41.332  50.641  1.00  0.00     0.164 HD
BRANCH  11  13
ATOM     13  C   UNL     1       3.469  42.182  51.743  1.00  0.00     0.152 C 
BRANCH  13  14
ATOM     14  C   UNL     1       4.732  42.588  51.017  1.00  0.00    -0.029 A 
ATOM     15  C   UNL     1       7.102  43.329  49.682  1.00  0.00     0.118 A 
ATOM     16  C   UNL     1       6.644  42.010  49.636  1.00  0.00     0.047 A 
ATOM     17  C   UNL     1       6.374  44.277  50.403  1.00  0.00     0.047 A 
ATOM     18  C   UNL     1       5.471  41.640  50.298  1.00  0.00     0.009 A 
ATOM     19  C   UNL     1       5.199  43.908  51.068  1.00  0.00     0.009 A 
BRANCH  15  20
ATOM     20  O   UNL     1       8.260  43.557  48.992  1.00  0.00    -0.497 OA
ATOM     21  C   UNL     1       9.260  44.325  49.648  1.00  0.00     0.278 C 
ENDBRANCH  15  20
ENDBRANCH  13  14
ENDBRANCH  11  13
ENDBRANCH   1  11
BRANCH   3  22
ATOM     22  N   UNL     1       1.283  45.925  53.421  1.00  0.00    -0.336 N 
ATOM     23  H   UNL     1       0.880  46.809  53.101  1.00  0.00     0.168 HD
BRANCH  22  24
ATOM     24  C   UNL     1       2.638  46.137  53.776  1.00  0.00     0.082 A 
ATOM     25  C   UNL     1       3.318  45.330  54.694  1.00  0.00     0.030 A 
ATOM     26  C   UNL     1       3.373  47.103  53.074  1.00  0.00     0.139 A 
ATOM     27  C   UNL     1       4.682  45.527  54.935  1.00  0.00     0.006 A 
ATOM     28  C   UNL     1       4.730  47.302  53.301  1.00  0.00     0.051 A 
ATOM     29  C   UNL     1       5.400  46.506  54.236  1.00  0.00    -0.047 A 
ATOM     30  C   UNL     1       6.855  46.733  54.522  1.00  0.00     0.044 C 
BRANCH  26  31
ATOM     31  O   UNL     1       2.748  47.898  52.151  1.00  0.00    -0.506 OA
ATOM     32  H   UNL     1       2.829  47.420  51.303  1.00  0.00     0.293 HD
ENDBRANCH  26  31
ENDBRANCH  22  24
ENDBRANCH   3  22
TORSDOF 7
ENDMDL
MODEL 16
REMARK VINA RESULT:    -8.928      2.585      7.497
REMARK INTER + INTRA:         -13.377
REMARK INTER:                 -12.156
REMARK INTRA:                  -1.221
REMARK UNBOUND:                -1.056
REMARK SMILES COc1ccc(CNc2nc(Nc3ccc(C)cc3O)c3cnn(C)c3n2)cc1
REMARK SMILES IDX 9 1 10 2 11 3 21 4 22 5 23 6 24 7 25 8 26 9 27 10 8 11 7 13
REMARK SMILES IDX 6 14 3 15 4 16 29 17 5 18 28 19 2 20 1 21 12 22 13 24 14 25
REMARK SMILES IDX 19 26 15 27 18 28 16 29 17 30 20 31
REMARK H PARENT 8 12 12 23 20 32
ROOT
ATOM      1  C   UNL     1       7.312  45.408  50.585  1.00  0.00     0.227 A 
ATOM      2  N   UNL     1       5.984  45.560  50.739  1.00  0.00    -0.195 NA
ATOM      3  C   UNL     1       5.491  46.147  51.857  1.00  0.00     0.147 A 
ATOM      4  C   UNL     1       6.397  46.544  52.841  1.00  0.00     0.082 A 
ATOM      5  C   UNL     1       6.381  47.131  54.122  1.00  0.00     0.149 A 
ATOM      6  N   UNL     1       7.607  47.294  54.634  1.00  0.00    -0.179 NA
ATOM      7  N   UNL     1       8.414  46.800  53.667  1.00  0.00    -0.250 N 
ATOM      8  C   UNL     1       9.842  46.809  53.862  1.00  0.00     0.176 C 
ATOM      9  C   UNL     1       7.735  46.329  52.576  1.00  0.00     0.165 A 
ATOM     10  N   UNL     1       8.250  45.770  51.472  1.00  0.00    -0.193 NA
ENDROOT
BRANCH   1  11
ATOM     11  N   UNL     1       7.692  44.821  49.386  1.00  0.00    -0.350 N 
ATOM     12  H   UNL     1       6.959  45.020  48.716  1.00  0.00     0.164 HD
BRANCH  11  13
ATOM     13  C   UNL     1       8.055  43.424  49.493  1.00  0.00     0.152 C 
BRANCH  13  14
ATOM     14  C   UNL     1       6.838  42.575  49.207  1.00  0.00    -0.029 A 
ATOM     15  C   UNL     1       4.554  41.014  48.661  1.00  0.00     0.118 A 
ATOM     16  C   UNL     1       5.295  41.576  47.619  1.00  0.00     0.047 A 
ATOM     17  C   UNL     1       4.955  41.239  49.979  1.00  0.00     0.047 A 
ATOM     18  C   UNL     1       6.426  42.352  47.887  1.00  0.00     0.009 A 
ATOM     19  C   UNL     1       6.087  42.016  50.249  1.00  0.00     0.009 A 
BRANCH  15  20
ATOM     20  O   UNL     1       3.473  40.279  48.263  1.00  0.00    -0.497 OA
ATOM     21  C   UNL     1       3.304  40.089  46.864  1.00  0.00     0.278 C 
ENDBRANCH  15  20
ENDBRANCH  13  14
ENDBRANCH  11  13
ENDBRANCH   1  11
BRANCH   3  22
ATOM     22  N   UNL     1       4.092  46.268  51.950  1.00  0.00    -0.336 N 
ATOM     23  H   UNL     1       3.939  47.030  52.615  1.00  0.00     0.168 HD
BRANCH  22  24
ATOM     24  C   UNL     1       3.195  45.212  52.245  1.00  0.00     0.082 A 
ATOM     25  C   UNL     1       3.579  43.868  52.249  1.00  0.00     0.030 A 
ATOM     26  C   UNL     1       1.904  45.531  52.692  1.00  0.00     0.139 A 
ATOM     27  C   UNL     1       2.675  42.873  52.640  1.00  0.00     0.006 A 
ATOM     28  C   UNL     1       1.001  44.552  53.088  1.00  0.00     0.051 A 
ATOM     29  C   UNL     1       1.385  43.207  53.071  1.00  0.00    -0.047 A 
ATOM     30  C   UNL     1       0.410  42.135  53.459  1.00  0.00     0.044 C 
BRANCH  26  31
ATOM     31  O   UNL     1       1.497  46.838  52.722  1.00  0.00    -0.506 OA
ATOM     32  H   UNL     1       0.671  46.837  53.243  1.00  0.00     0.293 HD
ENDBRANCH  26  31
ENDBRANCH  22  24
ENDBRANCH   3  22
TORSDOF 7
ENDMDL
MODEL 17
REMARK VINA RESULT:    -8.843      2.947      7.835
REMARK INTER + INTRA:         -13.259
REMARK INTER:                 -12.062
REMARK INTRA:                  -1.197
REMARK UNBOUND:                -1.056
REMARK SMILES COc1ccc(CNc2nc(Nc3ccc(C)cc3O)c3cnn(C)c3n2)cc1
REMARK SMILES IDX 9 1 10 2 11 3 21 4 22 5 23 6 24 7 25 8 26 9 27 10 8 11 7 13
REMARK SMILES IDX 6 14 3 15 4 16 29 17 5 18 28 19 2 20 1 21 12 22 13 24 14 25
REMARK SMILES IDX 19 26 15 27 18 28 16 29 17 30 20 31
REMARK H PARENT 8 12 12 23 20 32
ROOT
ATOM      1  C   UNL     1       6.337  44.880  51.166  1.00  0.00     0.227 A 
ATOM      2  N   UNL     1       5.240  44.526  51.861  1.00  0.00    -0.195 NA
ATOM      3  C   UNL     1       5.037  45.016  53.108  1.00  0.00     0.147 A 
ATOM      4  C   UNL     1       6.013  45.854  53.649  1.00  0.00     0.082 A 
ATOM      5  C   UNL     1       6.267  46.549  54.849  1.00  0.00     0.149 A 
ATOM      6  N   UNL     1       7.415  47.237  54.817  1.00  0.00    -0.179 NA
ATOM      7  N   UNL     1       7.899  46.973  53.581  1.00  0.00    -0.250 N 
ATOM      8  C   UNL     1       9.151  47.558  53.171  1.00  0.00     0.176 C 
ATOM      9  C   UNL     1       7.099  46.140  52.847  1.00  0.00     0.165 A 
ATOM     10  N   UNL     1       7.314  45.687  51.603  1.00  0.00    -0.193 NA
ENDROOT
BRANCH   1  11
ATOM     11  N   UNL     1       6.415  44.337  49.892  1.00  0.00    -0.350 N 
ATOM     12  H   UNL     1       5.513  44.481  49.454  1.00  0.00     0.164 HD
BRANCH  11  13
ATOM     13  C   UNL     1       6.898  42.972  49.852  1.00  0.00     0.152 C 
BRANCH  13  14
ATOM     14  C   UNL     1       5.826  42.088  49.256  1.00  0.00    -0.029 A 
ATOM     15  C   UNL     1       3.818  40.461  48.130  1.00  0.00     0.118 A 
ATOM     16  C   UNL     1       4.810  41.023  47.324  1.00  0.00     0.047 A 
ATOM     17  C   UNL     1       3.829  40.718  49.502  1.00  0.00     0.047 A 
ATOM     18  C   UNL     1       5.805  41.832  47.879  1.00  0.00     0.009 A 
ATOM     19  C   UNL     1       4.825  41.528  50.060  1.00  0.00     0.009 A 
BRANCH  15  20
ATOM     20  O   UNL     1       2.907  39.691  47.462  1.00  0.00    -0.497 OA
ATOM     21  C   UNL     1       3.121  39.503  46.070  1.00  0.00     0.278 C 
ENDBRANCH  15  20
ENDBRANCH  13  14
ENDBRANCH  11  13
ENDBRANCH   1  11
BRANCH   3  22
ATOM     22  N   UNL     1       3.870  44.598  53.775  1.00  0.00    -0.336 N 
ATOM     23  H   UNL     1       4.124  43.709  54.213  1.00  0.00     0.168 HD
BRANCH  22  24
ATOM     24  C   UNL     1       2.588  44.472  53.185  1.00  0.00     0.082 A 
ATOM     25  C   UNL     1       1.732  45.560  52.989  1.00  0.00     0.030 A 
ATOM     26  C   UNL     1       2.216  43.233  52.644  1.00  0.00     0.139 A 
ATOM     27  C   UNL     1       0.517  45.393  52.316  1.00  0.00     0.006 A 
ATOM     28  C   UNL     1       1.014  43.057  51.967  1.00  0.00     0.051 A 
ATOM     29  C   UNL     1       0.153  44.146  51.792  1.00  0.00    -0.047 A 
ATOM     30  C   UNL     1      -1.165  43.966  51.099  1.00  0.00     0.044 C 
BRANCH  26  31
ATOM     31  O   UNL     1       3.037  42.148  52.796  1.00  0.00    -0.506 OA
ATOM     32  H   UNL     1       3.897  42.423  52.424  1.00  0.00     0.293 HD
ENDBRANCH  26  31
ENDBRANCH  22  24
ENDBRANCH   3  22
TORSDOF 7
ENDMDL
MODEL 18
REMARK VINA RESULT:    -8.733      2.573      6.127
REMARK INTER + INTRA:         -13.107
REMARK INTER:                 -12.046
REMARK INTRA:                  -1.061
REMARK UNBOUND:                -1.056
REMARK SMILES COc1ccc(CNc2nc(Nc3ccc(C)cc3O)c3cnn(C)c3n2)cc1
REMARK SMILES IDX 9 1 10 2 11 3 21 4 22 5 23 6 24 7 25 8 26 9 27 10 8 11 7 13
REMARK SMILES IDX 6 14 3 15 4 16 29 17 5 18 28 19 2 20 1 21 12 22 13 24 14 25
REMARK SMILES IDX 19 26 15 27 18 28 16 29 17 30 20 31
REMARK H PARENT 8 12 12 23 20 32
ROOT
ATOM      1  C   UNL     1       3.722  42.968  52.296  1.00  0.00     0.227 A 
ATOM      2  N   UNL     1       4.114  42.059  51.385  1.00  0.00    -0.195 NA
ATOM      3  C   UNL     1       5.163  42.323  50.567  1.00  0.00     0.147 A 
ATOM      4  C   UNL     1       5.782  43.568  50.679  1.00  0.00     0.082 A 
ATOM      5  C   UNL     1       6.827  44.291  50.069  1.00  0.00     0.149 A 
ATOM      6  N   UNL     1       7.000  45.506  50.605  1.00  0.00    -0.179 NA
ATOM      7  N   UNL     1       6.050  45.557  51.568  1.00  0.00    -0.250 N 
ATOM      8  C   UNL     1       5.929  46.740  52.382  1.00  0.00     0.176 C 
ATOM      9  C   UNL     1       5.288  44.423  51.644  1.00  0.00     0.165 A 
ATOM     10  N   UNL     1       4.268  44.179  52.479  1.00  0.00    -0.193 NA
ENDROOT
BRANCH   1  11
ATOM     11  N   UNL     1       2.659  42.568  53.092  1.00  0.00    -0.350 N 
ATOM     12  H   UNL     1       2.632  41.555  53.061  1.00  0.00     0.164 HD
BRANCH  11  13
ATOM     13  C   UNL     1       1.403  43.218  52.783  1.00  0.00     0.152 C 
BRANCH  13  14
ATOM     14  C   UNL     1       0.864  43.870  54.036  1.00  0.00    -0.029 A 
ATOM     15  C   UNL     1      -0.126  45.067  56.389  1.00  0.00     0.118 A 
ATOM     16  C   UNL     1       1.234  45.132  56.078  1.00  0.00     0.047 A 
ATOM     17  C   UNL     1      -0.991  44.397  55.522  1.00  0.00     0.047 A 
ATOM     18  C   UNL     1       1.728  44.537  54.914  1.00  0.00     0.009 A 
ATOM     19  C   UNL     1      -0.498  43.801  54.356  1.00  0.00     0.009 A 
BRANCH  15  20
ATOM     20  O   UNL     1      -0.476  45.688  57.555  1.00  0.00    -0.497 OA
ATOM     21  C   UNL     1      -1.403  46.762  57.459  1.00  0.00     0.278 C 
ENDBRANCH  15  20
ENDBRANCH  13  14
ENDBRANCH  11  13
ENDBRANCH   1  11
BRANCH   3  22
ATOM     22  N   UNL     1       5.512  41.327  49.636  1.00  0.00    -0.336 N 
ATOM     23  H   UNL     1       6.533  41.366  49.583  1.00  0.00     0.168 HD
BRANCH  22  24
ATOM     24  C   UNL     1       4.987  41.207  48.326  1.00  0.00     0.082 A 
ATOM     25  C   UNL     1       5.622  41.741  47.201  1.00  0.00     0.030 A 
ATOM     26  C   UNL     1       3.860  40.396  48.126  1.00  0.00     0.139 A 
ATOM     27  C   UNL     1       5.107  41.511  45.921  1.00  0.00     0.006 A 
ATOM     28  C   UNL     1       3.344  40.155  46.858  1.00  0.00     0.051 A 
ATOM     29  C   UNL     1       3.972  40.710  45.738  1.00  0.00    -0.047 A 
ATOM     30  C   UNL     1       3.406  40.493  44.365  1.00  0.00     0.044 C 
BRANCH  26  31
ATOM     31  O   UNL     1       3.222  39.837  49.201  1.00  0.00    -0.506 OA
ATOM     32  H   UNL     1       2.496  39.306  48.820  1.00  0.00     0.293 HD
ENDBRANCH  26  31
ENDBRANCH  22  24
ENDBRANCH   3  22
TORSDOF 7
ENDMDL
MODEL 19
REMARK VINA RESULT:    -8.658      2.856      6.915
REMARK INTER + INTRA:         -13.004
REMARK INTER:                 -11.537
REMARK INTRA:                  -1.467
REMARK UNBOUND:                -1.056
REMARK SMILES COc1ccc(CNc2nc(Nc3ccc(C)cc3O)c3cnn(C)c3n2)cc1
REMARK SMILES IDX 9 1 10 2 11 3 21 4 22 5 23 6 24 7 25 8 26 9 27 10 8 11 7 13
REMARK SMILES IDX 6 14 3 15 4 16 29 17 5 18 28 19 2 20 1 21 12 22 13 24 14 25
REMARK SMILES IDX 19 26 15 27 18 28 16 29 17 30 20 31
REMARK H PARENT 8 12 12 23 20 32
ROOT
ATOM      1  C   UNL     1       2.201  45.204  54.963  1.00  0.00     0.227 A 
ATOM      2  N   UNL     1       2.623  44.847  53.735  1.00  0.00    -0.195 NA
ATOM      3  C   UNL     1       1.801  44.158  52.907  1.00  0.00     0.147 A 
ATOM      4  C   UNL     1       0.538  43.804  53.384  1.00  0.00     0.082 A 
ATOM      5  C   UNL     1      -0.601  43.098  52.946  1.00  0.00     0.149 A 
ATOM      6  N   UNL     1      -1.577  43.070  53.862  1.00  0.00    -0.179 NA
ATOM      7  N   UNL     1      -1.051  43.765  54.897  1.00  0.00    -0.250 N 
ATOM      8  C   UNL     1      -1.832  43.954  56.094  1.00  0.00     0.176 C 
ATOM      9  C   UNL     1       0.219  44.217  54.662  1.00  0.00     0.165 A 
ATOM     10  N   UNL     1       1.004  44.917  55.494  1.00  0.00    -0.193 NA
ENDROOT
BRANCH   1  11
ATOM     11  N   UNL     1       3.123  45.931  55.702  1.00  0.00    -0.350 N 
ATOM     12  H   UNL     1       3.126  46.872  55.326  1.00  0.00     0.164 HD
BRANCH  11  13
ATOM     13  C   UNL     1       4.429  45.314  55.804  1.00  0.00     0.152 C 
BRANCH  13  14
ATOM     14  C   UNL     1       5.359  45.962  54.804  1.00  0.00    -0.029 A 
ATOM     15  C   UNL     1       7.074  47.170  52.921  1.00  0.00     0.118 A 
ATOM     16  C   UNL     1       5.915  47.822  53.345  1.00  0.00     0.047 A 
ATOM     17  C   UNL     1       7.373  45.908  53.437  1.00  0.00     0.047 A 
ATOM     18  C   UNL     1       5.062  47.225  54.276  1.00  0.00     0.009 A 
ATOM     19  C   UNL     1       6.519  45.308  54.370  1.00  0.00     0.009 A 
BRANCH  15  20
ATOM     20  O   UNL     1       7.819  47.863  52.008  1.00  0.00    -0.497 OA
ATOM     21  C   UNL     1       9.088  47.320  51.666  1.00  0.00     0.278 C 
ENDBRANCH  15  20
ENDBRANCH  13  14
ENDBRANCH  11  13
ENDBRANCH   1  11
BRANCH   3  22
ATOM     22  N   UNL     1       2.312  43.817  51.640  1.00  0.00    -0.336 N 
ATOM     23  H   UNL     1       1.996  42.857  51.482  1.00  0.00     0.168 HD
BRANCH  22  24
ATOM     24  C   UNL     1       3.668  43.927  51.245  1.00  0.00     0.082 A 
ATOM     25  C   UNL     1       4.486  42.816  51.019  1.00  0.00     0.030 A 
ATOM     26  C   UNL     1       4.174  45.196  50.928  1.00  0.00     0.139 A 
ATOM     27  C   UNL     1       5.790  42.982  50.539  1.00  0.00     0.006 A 
ATOM     28  C   UNL     1       5.466  45.372  50.444  1.00  0.00     0.051 A 
ATOM     29  C   UNL     1       6.286  44.258  50.239  1.00  0.00    -0.047 A 
ATOM     30  C   UNL     1       7.695  44.432  49.754  1.00  0.00     0.044 C 
BRANCH  26  31
ATOM     31  O   UNL     1       3.396  46.307  51.115  1.00  0.00    -0.506 OA
ATOM     32  H   UNL     1       2.475  45.988  51.058  1.00  0.00     0.293 HD
ENDBRANCH  26  31
ENDBRANCH  22  24
ENDBRANCH   3  22
TORSDOF 7
ENDMDL
