MODEL 1
REMARK VINA RESULT:    -8.598      0.000      0.000
REMARK INTER + INTRA:         -12.997
REMARK INTER:                 -11.614
REMARK INTRA:                  -1.384
REMARK UNBOUND:                -1.384
REMARK SMILES c1ccc(-c2cc(NCC3(Cn4cccn4)CC3)n3nccc3n2)cc1
REMARK SMILES IDX 9 1 8 2 7 4 5 5 6 6 24 7 23 8 19 9 22 10 20 11 21 12 4 13
REMARK SMILES IDX 1 14 2 15 26 16 3 17 25 18 10 19 17 20 18 21 11 22 12 23
REMARK SMILES IDX 13 24 16 25 14 26 15 27
REMARK H PARENT 8 3
ROOT
ATOM      1  C   UNL     1       1.390  42.590  52.257  1.00  0.00     0.123 C 
ENDROOT
BRANCH   1   2
ATOM      2  N   UNL     1       2.750  42.353  52.705  1.00  0.00    -0.369 N 
ATOM      3  H   UNL     1       2.860  42.461  53.720  1.00  0.00     0.162 HD
BRANCH   2   4
ATOM      4  C   UNL     1       3.899  42.821  52.057  1.00  0.00     0.132 A 
ATOM      5  C   UNL     1       5.828  44.233  51.620  1.00  0.00     0.076 A 
ATOM      6  C   UNL     1       4.631  43.877  52.452  1.00  0.00     0.075 A 
ATOM      7  N   UNL     1       6.181  43.616  50.526  1.00  0.00    -0.228 NA
ATOM      8  C   UNL     1       5.417  42.552  50.149  1.00  0.00     0.157 A 
ATOM      9  N   UNL     1       4.299  42.143  50.879  1.00  0.00    -0.199 N 
ATOM     10  C   UNL     1       5.520  41.685  49.088  1.00  0.00     0.071 A 
ATOM     11  N   UNL     1       3.705  41.046  50.315  1.00  0.00    -0.173 NA
ATOM     12  C   UNL     1       4.450  40.790  49.240  1.00  0.00     0.138 A 
BRANCH   5  13
ATOM     13  C   UNL     1       6.646  45.385  52.096  1.00  0.00     0.000 A 
ATOM     14  C   UNL     1       8.110  47.572  53.051  1.00  0.00     0.000 A 
ATOM     15  C   UNL     1       8.198  47.205  51.708  1.00  0.00     0.001 A 
ATOM     16  C   UNL     1       7.288  46.851  53.917  1.00  0.00     0.001 A 
ATOM     17  C   UNL     1       7.468  46.116  51.228  1.00  0.00     0.010 A 
ATOM     18  C   UNL     1       6.551  45.766  53.441  1.00  0.00     0.010 A 
ENDBRANCH   5  13
ENDBRANCH   2   4
ENDBRANCH   1   2
BRANCH   1  19
ATOM     19  C   UNL     1       0.822  43.756  53.037  1.00  0.00     0.007 C 
ATOM     20  C   UNL     1      -0.128  43.440  54.182  1.00  0.00     0.011 C 
ATOM     21  C   UNL     1       1.251  43.942  54.485  1.00  0.00     0.011 C 
BRANCH  19  22
ATOM     22  C   UNL     1       0.531  44.986  52.199  1.00  0.00     0.153 C 
BRANCH  22  23
ATOM     23  N   UNL     1       1.720  45.798  51.952  1.00  0.00    -0.272 N 
ATOM     24  C   UNL     1       2.295  46.685  52.818  1.00  0.00     0.108 A 
ATOM     25  N   UNL     1       2.351  45.744  50.759  1.00  0.00    -0.182 NA
ATOM     26  C   UNL     1       3.363  47.237  52.153  1.00  0.00     0.042 A 
ATOM     27  C   UNL     1       3.346  46.625  50.887  1.00  0.00     0.135 A 
ENDBRANCH  22  23
ENDBRANCH  19  22
ENDBRANCH   1  19
TORSDOF 6
ENDMDL
MODEL 2
REMARK VINA RESULT:    -8.394      2.217      6.736
REMARK INTER + INTRA:         -12.722
REMARK INTER:                 -11.605
REMARK INTRA:                  -1.117
REMARK UNBOUND:                -1.384
REMARK SMILES c1ccc(-c2cc(NCC3(Cn4cccn4)CC3)n3nccc3n2)cc1
REMARK SMILES IDX 9 1 8 2 7 4 5 5 6 6 24 7 23 8 19 9 22 10 20 11 21 12 4 13
REMARK SMILES IDX 1 14 2 15 26 16 3 17 25 18 10 19 17 20 18 21 11 22 12 23
REMARK SMILES IDX 13 24 16 25 14 26 15 27
REMARK H PARENT 8 3
ROOT
ATOM      1  C   UNL     1       7.709  46.205  54.272  1.00  0.00     0.123 C 
ENDROOT
BRANCH   1   2
ATOM      2  N   UNL     1       6.518  46.467  53.485  1.00  0.00    -0.369 N 
ATOM      3  H   UNL     1       6.079  47.366  53.713  1.00  0.00     0.162 HD
BRANCH   2   4
ATOM      4  C   UNL     1       5.526  45.522  53.196  1.00  0.00     0.132 A 
ATOM      5  C   UNL     1       4.421  43.689  52.047  1.00  0.00     0.076 A 
ATOM      6  C   UNL     1       5.589  44.616  52.205  1.00  0.00     0.075 A 
ATOM      7  N   UNL     1       3.338  43.728  52.774  1.00  0.00    -0.228 NA
ATOM      8  C   UNL     1       3.302  44.661  53.767  1.00  0.00     0.157 A 
ATOM      9  N   UNL     1       4.357  45.547  53.995  1.00  0.00    -0.199 N 
ATOM     10  C   UNL     1       2.347  44.951  54.712  1.00  0.00     0.071 A 
ATOM     11  N   UNL     1       4.097  46.375  55.055  1.00  0.00    -0.173 NA
ATOM     12  C   UNL     1       2.885  46.005  55.467  1.00  0.00     0.138 A 
BRANCH   5  13
ATOM     13  C   UNL     1       4.527  42.668  50.964  1.00  0.00     0.000 A 
ATOM     14  C   UNL     1       4.775  40.818  48.879  1.00  0.00     0.000 A 
ATOM     15  C   UNL     1       3.621  40.837  49.662  1.00  0.00     0.001 A 
ATOM     16  C   UNL     1       5.804  41.724  49.133  1.00  0.00     0.001 A 
ATOM     17  C   UNL     1       3.493  41.761  50.702  1.00  0.00     0.010 A 
ATOM     18  C   UNL     1       5.679  42.653  50.167  1.00  0.00     0.010 A 
ENDBRANCH   5  13
ENDBRANCH   2   4
ENDBRANCH   1   2
BRANCH   1  19
ATOM     19  C   UNL     1       8.781  47.192  53.866  1.00  0.00     0.007 C 
ATOM     20  C   UNL     1       9.129  48.299  54.850  1.00  0.00     0.011 C 
ATOM     21  C   UNL     1      10.102  47.183  54.619  1.00  0.00     0.011 C 
BRANCH  19  22
ATOM     22  C   UNL     1       8.787  47.537  52.388  1.00  0.00     0.153 C 
BRANCH  22  23
ATOM     23  N   UNL     1       9.040  46.378  51.537  1.00  0.00    -0.272 N 
ATOM     24  C   UNL     1      10.205  45.668  51.453  1.00  0.00     0.108 A 
ATOM     25  N   UNL     1       8.085  45.921  50.698  1.00  0.00    -0.182 NA
ATOM     26  C   UNL     1       9.995  44.692  50.508  1.00  0.00     0.042 A 
ATOM     27  C   UNL     1       8.675  44.900  50.072  1.00  0.00     0.135 A 
ENDBRANCH  22  23
ENDBRANCH  19  22
ENDBRANCH   1  19
TORSDOF 6
ENDMDL
MODEL 3
REMARK VINA RESULT:    -8.306      1.118      1.575
REMARK INTER + INTRA:         -12.604
REMARK INTER:                 -11.166
REMARK INTRA:                  -1.438
REMARK UNBOUND:                -1.384
REMARK SMILES c1ccc(-c2cc(NCC3(Cn4cccn4)CC3)n3nccc3n2)cc1
REMARK SMILES IDX 9 1 8 2 7 4 5 5 6 6 24 7 23 8 19 9 22 10 20 11 21 12 4 13
REMARK SMILES IDX 1 14 2 15 26 16 3 17 25 18 10 19 17 20 18 21 11 22 12 23
REMARK SMILES IDX 13 24 16 25 14 26 15 27
REMARK H PARENT 8 3
ROOT
ATOM      1  C   UNL     1       1.798  43.468  51.518  1.00  0.00     0.123 C 
ENDROOT
BRANCH   1   2
ATOM      2  N   UNL     1       3.061  42.938  51.998  1.00  0.00    -0.369 N 
ATOM      3  H   UNL     1       3.084  42.828  53.018  1.00  0.00     0.162 HD
BRANCH   2   4
ATOM      4  C   UNL     1       4.322  43.337  51.541  1.00  0.00     0.132 A 
ATOM      5  C   UNL     1       6.359  44.654  51.399  1.00  0.00     0.076 A 
ATOM      6  C   UNL     1       5.025  44.375  52.025  1.00  0.00     0.075 A 
ATOM      7  N   UNL     1       6.862  43.987  50.397  1.00  0.00    -0.228 NA
ATOM      8  C   UNL     1       6.124  42.942  49.924  1.00  0.00     0.157 A 
ATOM      9  N   UNL     1       4.882  42.604  50.466  1.00  0.00    -0.199 N 
ATOM     10  C   UNL     1       6.363  42.037  48.920  1.00  0.00     0.071 A 
ATOM     11  N   UNL     1       4.341  41.513  49.839  1.00  0.00    -0.173 NA
ATOM     12  C   UNL     1       5.243  41.191  48.912  1.00  0.00     0.138 A 
BRANCH   5  13
ATOM     13  C   UNL     1       7.138  45.787  51.976  1.00  0.00     0.000 A 
ATOM     14  C   UNL     1       8.673  47.893  52.996  1.00  0.00     0.000 A 
ATOM     15  C   UNL     1       7.848  47.157  53.845  1.00  0.00     0.001 A 
ATOM     16  C   UNL     1       8.737  47.578  51.639  1.00  0.00     0.001 A 
ATOM     17  C   UNL     1       7.082  46.103  53.339  1.00  0.00     0.010 A 
ATOM     18  C   UNL     1       7.979  46.523  51.130  1.00  0.00     0.010 A 
ENDBRANCH   5  13
ENDBRANCH   2   4
ENDBRANCH   1   2
BRANCH   1  19
ATOM     19  C   UNL     1       0.883  43.683  52.704  1.00  0.00     0.007 C 
ATOM     20  C   UNL     1      -0.282  42.721  52.878  1.00  0.00     0.011 C 
ATOM     21  C   UNL     1       0.881  42.650  53.820  1.00  0.00     0.011 C 
BRANCH  19  22
ATOM     22  C   UNL     1       0.652  45.140  53.060  1.00  0.00     0.153 C 
BRANCH  22  23
ATOM     23  N   UNL     1       1.879  45.829  53.451  1.00  0.00    -0.272 N 
ATOM     24  C   UNL     1       2.606  45.614  54.589  1.00  0.00     0.108 A 
ATOM     25  N   UNL     1       2.390  46.812  52.678  1.00  0.00    -0.182 NA
ATOM     26  C   UNL     1       3.652  46.505  54.551  1.00  0.00     0.042 A 
ATOM     27  C   UNL     1       3.465  47.221  53.356  1.00  0.00     0.135 A 
ENDBRANCH  22  23
ENDBRANCH  19  22
ENDBRANCH   1  19
TORSDOF 6
ENDMDL
MODEL 4
REMARK VINA RESULT:    -8.187      1.830      5.662
REMARK INTER + INTRA:         -12.443
REMARK INTER:                 -11.553
REMARK INTRA:                  -0.890
REMARK UNBOUND:                -1.384
REMARK SMILES c1ccc(-c2cc(NCC3(Cn4cccn4)CC3)n3nccc3n2)cc1
REMARK SMILES IDX 9 1 8 2 7 4 5 5 6 6 24 7 23 8 19 9 22 10 20 11 21 12 4 13
REMARK SMILES IDX 1 14 2 15 26 16 3 17 25 18 10 19 17 20 18 21 11 22 12 23
REMARK SMILES IDX 13 24 16 25 14 26 15 27
REMARK H PARENT 8 3
ROOT
ATOM      1  C   UNL     1       6.438  46.461  51.533  1.00  0.00     0.123 C 
ENDROOT
BRANCH   1   2
ATOM      2  N   UNL     1       6.504  45.011  51.486  1.00  0.00    -0.369 N 
ATOM      3  H   UNL     1       7.206  44.667  50.821  1.00  0.00     0.162 HD
BRANCH   2   4
ATOM      4  C   UNL     1       5.393  44.160  51.479  1.00  0.00     0.132 A 
ATOM      5  C   UNL     1       3.201  43.304  52.082  1.00  0.00     0.076 A 
ATOM      6  C   UNL     1       4.286  44.331  52.221  1.00  0.00     0.075 A 
ATOM      7  N   UNL     1       3.274  42.244  51.325  1.00  0.00    -0.228 NA
ATOM      8  C   UNL     1       4.412  42.096  50.588  1.00  0.00     0.157 A 
ATOM      9  N   UNL     1       5.460  43.018  50.644  1.00  0.00    -0.199 N 
ATOM     10  C   UNL     1       4.797  41.132  49.689  1.00  0.00     0.071 A 
ATOM     11  N   UNL     1       6.483  42.666  49.804  1.00  0.00    -0.173 NA
ATOM     12  C   UNL     1       6.068  41.529  49.245  1.00  0.00     0.138 A 
BRANCH   5  13
ATOM     13  C   UNL     1       1.966  43.532  52.887  1.00  0.00     0.000 A 
ATOM     14  C   UNL     1      -0.399  43.901  54.337  1.00  0.00     0.000 A 
ATOM     15  C   UNL     1       0.506  44.953  54.200  1.00  0.00     0.001 A 
ATOM     16  C   UNL     1      -0.128  42.666  53.748  1.00  0.00     0.001 A 
ATOM     17  C   UNL     1       1.687  44.772  53.475  1.00  0.00     0.010 A 
ATOM     18  C   UNL     1       1.047  42.483  53.018  1.00  0.00     0.010 A 
ENDBRANCH   5  13
ENDBRANCH   2   4
ENDBRANCH   1   2
BRANCH   1  19
ATOM     19  C   UNL     1       7.593  46.968  52.369  1.00  0.00     0.007 C 
ATOM     20  C   UNL     1       8.926  47.186  51.670  1.00  0.00     0.011 C 
ATOM     21  C   UNL     1       8.120  48.371  52.109  1.00  0.00     0.011 C 
BRANCH  19  22
ATOM     22  C   UNL     1       7.622  46.431  53.788  1.00  0.00     0.153 C 
BRANCH  22  23
ATOM     23  N   UNL     1       6.301  46.403  54.410  1.00  0.00    -0.272 N 
ATOM     24  C   UNL     1       5.765  45.377  55.138  1.00  0.00     0.108 A 
ATOM     25  N   UNL     1       5.454  47.446  54.271  1.00  0.00    -0.182 NA
ATOM     26  C   UNL     1       4.500  45.778  55.496  1.00  0.00     0.042 A 
ATOM     27  C   UNL     1       4.360  47.056  54.929  1.00  0.00     0.135 A 
ENDBRANCH  22  23
ENDBRANCH  19  22
ENDBRANCH   1  19
TORSDOF 6
ENDMDL
MODEL 5
REMARK VINA RESULT:    -8.092      1.496      2.128
REMARK INTER + INTRA:         -12.314
REMARK INTER:                 -11.026
REMARK INTRA:                  -1.288
REMARK UNBOUND:                -1.384
REMARK SMILES c1ccc(-c2cc(NCC3(Cn4cccn4)CC3)n3nccc3n2)cc1
REMARK SMILES IDX 9 1 8 2 7 4 5 5 6 6 24 7 23 8 19 9 22 10 20 11 21 12 4 13
REMARK SMILES IDX 1 14 2 15 26 16 3 17 25 18 10 19 17 20 18 21 11 22 12 23
REMARK SMILES IDX 13 24 16 25 14 26 15 27
REMARK H PARENT 8 3
ROOT
ATOM      1  C   UNL     1       1.525  43.023  51.334  1.00  0.00     0.123 C 
ENDROOT
BRANCH   1   2
ATOM      2  N   UNL     1       2.815  42.791  51.958  1.00  0.00    -0.369 N 
ATOM      3  H   UNL     1       2.803  42.955  52.971  1.00  0.00     0.162 HD
BRANCH   2   4
ATOM      4  C   UNL     1       4.044  43.205  51.431  1.00  0.00     0.132 A 
ATOM      5  C   UNL     1       6.013  44.593  51.118  1.00  0.00     0.076 A 
ATOM      6  C   UNL     1       4.711  44.311  51.805  1.00  0.00     0.075 A 
ATOM      7  N   UNL     1       6.521  43.866  50.161  1.00  0.00    -0.228 NA
ATOM      8  C   UNL     1       5.819  42.754  49.800  1.00  0.00     0.157 A 
ATOM      9  N   UNL     1       4.609  42.409  50.405  1.00  0.00    -0.199 N 
ATOM     10  C   UNL     1       6.074  41.777  48.868  1.00  0.00     0.071 A 
ATOM     11  N   UNL     1       4.103  41.245  49.888  1.00  0.00    -0.173 NA
ATOM     12  C   UNL     1       4.994  40.886  48.965  1.00  0.00     0.138 A 
BRANCH   5  13
ATOM     13  C   UNL     1       6.754  45.805  51.574  1.00  0.00     0.000 A 
ATOM     14  C   UNL     1       8.227  48.026  52.427  1.00  0.00     0.000 A 
ATOM     15  C   UNL     1       6.935  47.819  52.909  1.00  0.00     0.001 A 
ATOM     16  C   UNL     1       8.788  47.124  51.524  1.00  0.00     0.001 A 
ATOM     17  C   UNL     1       6.198  46.710  52.486  1.00  0.00     0.010 A 
ATOM     18  C   UNL     1       8.058  46.011  51.103  1.00  0.00     0.010 A 
ENDBRANCH   5  13
ENDBRANCH   2   4
ENDBRANCH   1   2
BRANCH   1  19
ATOM     19  C   UNL     1       0.503  43.276  52.422  1.00  0.00     0.007 C 
ATOM     20  C   UNL     1      -0.767  42.439  52.401  1.00  0.00     0.011 C 
ATOM     21  C   UNL     1       0.263  42.193  53.462  1.00  0.00     0.011 C 
BRANCH  19  22
ATOM     22  C   UNL     1       0.383  44.729  52.841  1.00  0.00     0.153 C 
BRANCH  22  23
ATOM     23  N   UNL     1       1.021  45.003  54.126  1.00  0.00    -0.272 N 
ATOM     24  C   UNL     1       0.389  45.265  55.310  1.00  0.00     0.108 A 
ATOM     25  N   UNL     1       2.367  45.048  54.228  1.00  0.00    -0.182 NA
ATOM     26  C   UNL     1       1.381  45.490  56.234  1.00  0.00     0.042 A 
ATOM     27  C   UNL     1       2.578  45.351  55.510  1.00  0.00     0.135 A 
ENDBRANCH  22  23
ENDBRANCH  19  22
ENDBRANCH   1  19
TORSDOF 6
ENDMDL
MODEL 6
REMARK VINA RESULT:    -7.861      2.151      6.414
REMARK INTER + INTRA:         -12.002
REMARK INTER:                 -11.303
REMARK INTRA:                  -0.699
REMARK UNBOUND:                -1.384
REMARK SMILES c1ccc(-c2cc(NCC3(Cn4cccn4)CC3)n3nccc3n2)cc1
REMARK SMILES IDX 9 1 8 2 7 4 5 5 6 6 24 7 23 8 19 9 22 10 20 11 21 12 4 13
REMARK SMILES IDX 1 14 2 15 26 16 3 17 25 18 10 19 17 20 18 21 11 22 12 23
REMARK SMILES IDX 13 24 16 25 14 26 15 27
REMARK H PARENT 8 3
ROOT
ATOM      1  C   UNL     1       6.847  45.750  52.298  1.00  0.00     0.123 C 
ENDROOT
BRANCH   1   2
ATOM      2  N   UNL     1       5.566  45.651  51.622  1.00  0.00    -0.369 N 
ATOM      3  H   UNL     1       5.130  46.566  51.460  1.00  0.00     0.162 HD
BRANCH   2   4
ATOM      4  C   UNL     1       4.577  44.705  51.916  1.00  0.00     0.132 A 
ATOM      5  C   UNL     1       2.588  43.764  52.946  1.00  0.00     0.076 A 
ATOM      6  C   UNL     1       3.544  44.904  52.752  1.00  0.00     0.075 A 
ATOM      7  N   UNL     1       2.712  42.589  52.394  1.00  0.00    -0.228 NA
ATOM      8  C   UNL     1       3.773  42.416  51.554  1.00  0.00     0.157 A 
ATOM      9  N   UNL     1       4.697  43.433  51.303  1.00  0.00    -0.199 N 
ATOM     10  C   UNL     1       4.177  41.338  50.805  1.00  0.00     0.071 A 
ATOM     11  N   UNL     1       5.659  43.029  50.417  1.00  0.00    -0.173 NA
ATOM     12  C   UNL     1       5.332  41.769  50.135  1.00  0.00     0.138 A 
BRANCH   5  13
ATOM     13  C   UNL     1       1.429  44.019  53.850  1.00  0.00     0.000 A 
ATOM     14  C   UNL     1      -0.806  44.477  55.470  1.00  0.00     0.000 A 
ATOM     15  C   UNL     1       0.350  45.236  55.646  1.00  0.00     0.001 A 
ATOM     16  C   UNL     1      -0.851  43.492  54.484  1.00  0.00     0.001 A 
ATOM     17  C   UNL     1       1.467  45.012  54.837  1.00  0.00     0.010 A 
ATOM     18  C   UNL     1       0.260  43.268  53.669  1.00  0.00     0.010 A 
ENDBRANCH   5  13
ENDBRANCH   2   4
ENDBRANCH   1   2
BRANCH   1  19
ATOM     19  C   UNL     1       7.902  46.127  51.281  1.00  0.00     0.007 C 
ATOM     20  C   UNL     1       8.731  45.003  50.678  1.00  0.00     0.011 C 
ATOM     21  C   UNL     1       7.705  45.699  49.835  1.00  0.00     0.011 C 
BRANCH  19  22
ATOM     22  C   UNL     1       8.600  47.444  51.563  1.00  0.00     0.153 C 
BRANCH  22  23
ATOM     23  N   UNL     1       9.091  47.543  52.935  1.00  0.00    -0.272 N 
ATOM     24  C   UNL     1      10.143  46.857  53.475  1.00  0.00     0.108 A 
ATOM     25  N   UNL     1       8.475  48.350  53.827  1.00  0.00    -0.182 NA
ATOM     26  C   UNL     1      10.218  47.242  54.792  1.00  0.00     0.042 A 
ATOM     27  C   UNL     1       9.163  48.157  54.955  1.00  0.00     0.135 A 
ENDBRANCH  22  23
ENDBRANCH  19  22
ENDBRANCH   1  19
TORSDOF 6
ENDMDL
MODEL 7
REMARK VINA RESULT:    -7.822      2.489      6.623
REMARK INTER + INTRA:         -11.949
REMARK INTER:                 -10.899
REMARK INTRA:                  -1.051
REMARK UNBOUND:                -1.384
REMARK SMILES c1ccc(-c2cc(NCC3(Cn4cccn4)CC3)n3nccc3n2)cc1
REMARK SMILES IDX 9 1 8 2 7 4 5 5 6 6 24 7 23 8 19 9 22 10 20 11 21 12 4 13
REMARK SMILES IDX 1 14 2 15 26 16 3 17 25 18 10 19 17 20 18 21 11 22 12 23
REMARK SMILES IDX 13 24 16 25 14 26 15 27
REMARK H PARENT 8 3
ROOT
ATOM      1  C   UNL     1       5.826  47.403  52.742  1.00  0.00     0.123 C 
ENDROOT
BRANCH   1   2
ATOM      2  N   UNL     1       5.182  46.475  53.652  1.00  0.00    -0.369 N 
ATOM      3  H   UNL     1       5.778  46.219  54.448  1.00  0.00     0.162 HD
BRANCH   2   4
ATOM      4  C   UNL     1       4.423  45.366  53.260  1.00  0.00     0.132 A 
ATOM      5  C   UNL     1       3.793  43.402  51.976  1.00  0.00     0.076 A 
ATOM      6  C   UNL     1       4.738  44.534  52.253  1.00  0.00     0.075 A 
ATOM      7  N   UNL     1       2.675  43.196  52.615  1.00  0.00    -0.228 NA
ATOM      8  C   UNL     1       2.380  44.060  53.628  1.00  0.00     0.157 A 
ATOM      9  N   UNL     1       3.217  45.127  53.963  1.00  0.00    -0.199 N 
ATOM     10  C   UNL     1       1.320  44.116  54.501  1.00  0.00     0.071 A 
ATOM     11  N   UNL     1       2.720  45.841  55.020  1.00  0.00    -0.173 NA
ATOM     12  C   UNL     1       1.580  45.222  55.324  1.00  0.00     0.138 A 
BRANCH   5  13
ATOM     13  C   UNL     1       4.180  42.469  50.879  1.00  0.00     0.000 A 
ATOM     14  C   UNL     1       4.963  40.788  48.783  1.00  0.00     0.000 A 
ATOM     15  C   UNL     1       3.663  40.721  49.282  1.00  0.00     0.001 A 
ATOM     16  C   UNL     1       5.873  41.696  49.325  1.00  0.00     0.001 A 
ATOM     17  C   UNL     1       3.268  41.560  50.327  1.00  0.00     0.010 A 
ATOM     18  C   UNL     1       5.482  42.541  50.365  1.00  0.00     0.010 A 
ENDBRANCH   5  13
ENDBRANCH   2   4
ENDBRANCH   1   2
BRANCH   1  19
ATOM     19  C   UNL     1       7.238  46.922  52.482  1.00  0.00     0.007 C 
ATOM     20  C   UNL     1       7.580  46.474  51.069  1.00  0.00     0.011 C 
ATOM     21  C   UNL     1       8.141  47.761  51.593  1.00  0.00     0.011 C 
BRANCH  19  22
ATOM     22  C   UNL     1       7.859  46.154  53.634  1.00  0.00     0.153 C 
BRANCH  22  23
ATOM     23  N   UNL     1       8.805  46.956  54.405  1.00  0.00    -0.272 N 
ATOM     24  C   UNL     1      10.143  46.715  54.556  1.00  0.00     0.108 A 
ATOM     25  N   UNL     1       8.386  48.042  55.090  1.00  0.00    -0.182 NA
ATOM     26  C   UNL     1      10.621  47.703  55.383  1.00  0.00     0.042 A 
ATOM     27  C   UNL     1       9.495  48.487  55.687  1.00  0.00     0.135 A 
ENDBRANCH  22  23
ENDBRANCH  19  22
ENDBRANCH   1  19
TORSDOF 6
ENDMDL
MODEL 8
REMARK VINA RESULT:    -7.813      2.095      5.950
REMARK INTER + INTRA:         -11.937
REMARK INTER:                 -11.138
REMARK INTRA:                  -0.799
REMARK UNBOUND:                -1.384
REMARK SMILES c1ccc(-c2cc(NCC3(Cn4cccn4)CC3)n3nccc3n2)cc1
REMARK SMILES IDX 9 1 8 2 7 4 5 5 6 6 24 7 23 8 19 9 22 10 20 11 21 12 4 13
REMARK SMILES IDX 1 14 2 15 26 16 3 17 25 18 10 19 17 20 18 21 11 22 12 23
REMARK SMILES IDX 13 24 16 25 14 26 15 27
REMARK H PARENT 8 3
ROOT
ATOM      1  C   UNL     1       5.961  45.260  53.522  1.00  0.00     0.123 C 
ENDROOT
BRANCH   1   2
ATOM      2  N   UNL     1       5.846  44.686  52.194  1.00  0.00    -0.369 N 
ATOM      3  H   UNL     1       6.062  45.358  51.450  1.00  0.00     0.162 HD
BRANCH   2   4
ATOM      4  C   UNL     1       4.814  43.838  51.776  1.00  0.00     0.132 A 
ATOM      5  C   UNL     1       2.584  42.882  51.664  1.00  0.00     0.076 A 
ATOM      6  C   UNL     1       3.550  43.881  52.229  1.00  0.00     0.075 A 
ATOM      7  N   UNL     1       2.894  41.956  50.799  1.00  0.00    -0.228 NA
ATOM      8  C   UNL     1       4.185  41.935  50.362  1.00  0.00     0.157 A 
ATOM      9  N   UNL     1       5.141  42.843  50.822  1.00  0.00    -0.199 N 
ATOM     10  C   UNL     1       4.828  41.128  49.455  1.00  0.00     0.071 A 
ATOM     11  N   UNL     1       6.357  42.636  50.227  1.00  0.00    -0.173 NA
ATOM     12  C   UNL     1       6.149  41.600  49.415  1.00  0.00     0.138 A 
BRANCH   5  13
ATOM     13  C   UNL     1       1.177  42.970  52.154  1.00  0.00     0.000 A 
ATOM     14  C   UNL     1      -1.482  43.194  52.997  1.00  0.00     0.000 A 
ATOM     15  C   UNL     1      -0.455  43.131  53.938  1.00  0.00     0.001 A 
ATOM     16  C   UNL     1      -1.184  43.151  51.635  1.00  0.00     0.001 A 
ATOM     17  C   UNL     1       0.874  43.021  53.521  1.00  0.00     0.010 A 
ATOM     18  C   UNL     1       0.142  43.047  51.213  1.00  0.00     0.010 A 
ENDBRANCH   5  13
ENDBRANCH   2   4
ENDBRANCH   1   2
BRANCH   1  19
ATOM     19  C   UNL     1       5.678  46.744  53.432  1.00  0.00     0.007 C 
ATOM     20  C   UNL     1       4.223  47.177  53.328  1.00  0.00     0.011 C 
ATOM     21  C   UNL     1       4.979  47.425  54.598  1.00  0.00     0.011 C 
BRANCH  19  22
ATOM     22  C   UNL     1       6.705  47.530  52.638  1.00  0.00     0.153 C 
BRANCH  22  23
ATOM     23  N   UNL     1       8.064  47.359  53.145  1.00  0.00    -0.272 N 
ATOM     24  C   UNL     1       9.087  46.694  52.527  1.00  0.00     0.108 A 
ATOM     25  N   UNL     1       8.413  47.852  54.353  1.00  0.00    -0.182 NA
ATOM     26  C   UNL     1      10.162  46.763  53.379  1.00  0.00     0.042 A 
ATOM     27  C   UNL     1       9.688  47.481  54.491  1.00  0.00     0.135 A 
ENDBRANCH  22  23
ENDBRANCH  19  22
ENDBRANCH   1  19
TORSDOF 6
ENDMDL
MODEL 9
REMARK VINA RESULT:    -7.809      1.608      2.821
REMARK INTER + INTRA:         -11.931
REMARK INTER:                 -11.183
REMARK INTRA:                  -0.748
REMARK UNBOUND:                -1.384
REMARK SMILES c1ccc(-c2cc(NCC3(Cn4cccn4)CC3)n3nccc3n2)cc1
REMARK SMILES IDX 9 1 8 2 7 4 5 5 6 6 24 7 23 8 19 9 22 10 20 11 21 12 4 13
REMARK SMILES IDX 1 14 2 15 26 16 3 17 25 18 10 19 17 20 18 21 11 22 12 23
REMARK SMILES IDX 13 24 16 25 14 26 15 27
REMARK H PARENT 8 3
ROOT
ATOM      1  C   UNL     1       1.690  43.187  52.249  1.00  0.00     0.123 C 
ENDROOT
BRANCH   1   2
ATOM      2  N   UNL     1       3.052  42.858  52.623  1.00  0.00    -0.369 N 
ATOM      3  H   UNL     1       3.222  42.952  53.631  1.00  0.00     0.162 HD
BRANCH   2   4
ATOM      4  C   UNL     1       4.194  43.254  51.917  1.00  0.00     0.132 A 
ATOM      5  C   UNL     1       6.115  44.611  51.310  1.00  0.00     0.076 A 
ATOM      6  C   UNL     1       4.927  44.347  52.187  1.00  0.00     0.075 A 
ATOM      7  N   UNL     1       6.461  43.878  50.288  1.00  0.00    -0.228 NA
ATOM      8  C   UNL     1       5.696  42.778  50.037  1.00  0.00     0.157 A 
ATOM      9  N   UNL     1       4.585  42.450  50.818  1.00  0.00    -0.199 N 
ATOM     10  C   UNL     1       5.791  41.799  49.077  1.00  0.00     0.071 A 
ATOM     11  N   UNL     1       3.989  41.296  50.384  1.00  0.00    -0.173 NA
ATOM     12  C   UNL     1       4.725  40.925  49.336  1.00  0.00     0.138 A 
BRANCH   5  13
ATOM     13  C   UNL     1       6.935  45.810  51.649  1.00  0.00     0.000 A 
ATOM     14  C   UNL     1       8.393  48.114  52.282  1.00  0.00     0.000 A 
ATOM     15  C   UNL     1       8.956  47.135  51.464  1.00  0.00     0.001 A 
ATOM     16  C   UNL     1       7.101  47.947  52.782  1.00  0.00     0.001 A 
ATOM     17  C   UNL     1       8.230  45.985  51.144  1.00  0.00     0.010 A 
ATOM     18  C   UNL     1       6.370  46.802  52.460  1.00  0.00     0.010 A 
ENDBRANCH   5  13
ENDBRANCH   2   4
ENDBRANCH   1   2
BRANCH   1  19
ATOM     19  C   UNL     1       1.287  44.459  52.963  1.00  0.00     0.007 C 
ATOM     20  C   UNL     1       1.585  45.780  52.271  1.00  0.00     0.011 C 
ATOM     21  C   UNL     1       0.168  45.303  52.374  1.00  0.00     0.011 C 
BRANCH  19  22
ATOM     22  C   UNL     1       1.442  44.404  54.472  1.00  0.00     0.153 C 
BRANCH  22  23
ATOM     23  N   UNL     1       0.164  44.465  55.176  1.00  0.00    -0.272 N 
ATOM     24  C   UNL     1      -0.184  45.351  56.157  1.00  0.00     0.108 A 
ATOM     25  N   UNL     1      -0.812  43.570  54.905  1.00  0.00    -0.182 NA
ATOM     26  C   UNL     1      -1.459  45.015  56.545  1.00  0.00     0.042 A 
ATOM     27  C   UNL     1      -1.792  43.908  55.745  1.00  0.00     0.135 A 
ENDBRANCH  22  23
ENDBRANCH  19  22
ENDBRANCH   1  19
TORSDOF 6
ENDMDL
MODEL 10
REMARK VINA RESULT:    -7.688      1.651      2.958
REMARK INTER + INTRA:         -11.769
REMARK INTER:                 -10.592
REMARK INTRA:                  -1.176
REMARK UNBOUND:                -1.384
REMARK SMILES c1ccc(-c2cc(NCC3(Cn4cccn4)CC3)n3nccc3n2)cc1
REMARK SMILES IDX 9 1 8 2 7 4 5 5 6 6 24 7 23 8 19 9 22 10 20 11 21 12 4 13
REMARK SMILES IDX 1 14 2 15 26 16 3 17 25 18 10 19 17 20 18 21 11 22 12 23
REMARK SMILES IDX 13 24 16 25 14 26 15 27
REMARK H PARENT 8 3
ROOT
ATOM      1  C   UNL     1       1.499  45.780  53.053  1.00  0.00     0.123 C 
ENDROOT
BRANCH   1   2
ATOM      2  N   UNL     1       2.072  45.067  51.926  1.00  0.00    -0.369 N 
ATOM      3  H   UNL     1       1.497  44.272  51.624  1.00  0.00     0.162 HD
BRANCH   2   4
ATOM      4  C   UNL     1       3.427  44.745  51.789  1.00  0.00     0.132 A 
ATOM      5  C   UNL     1       5.837  45.029  51.899  1.00  0.00     0.076 A 
ATOM      6  C   UNL     1       4.449  45.549  52.130  1.00  0.00     0.075 A 
ATOM      7  N   UNL     1       6.118  43.876  51.359  1.00  0.00    -0.228 NA
ATOM      8  C   UNL     1       5.061  43.085  51.019  1.00  0.00     0.157 A 
ATOM      9  N   UNL     1       3.738  43.485  51.220  1.00  0.00    -0.199 N 
ATOM     10  C   UNL     1       5.001  41.829  50.466  1.00  0.00     0.071 A 
ATOM     11  N   UNL     1       2.854  42.519  50.818  1.00  0.00    -0.173 NA
ATOM     12  C   UNL     1       3.632  41.537  50.364  1.00  0.00     0.138 A 
BRANCH   5  13
ATOM     13  C   UNL     1       6.956  45.922  52.318  1.00  0.00     0.000 A 
ATOM     14  C   UNL     1       9.115  47.551  53.041  1.00  0.00     0.000 A 
ATOM     15  C   UNL     1       8.185  47.157  54.003  1.00  0.00     0.001 A 
ATOM     16  C   UNL     1       8.972  47.129  51.719  1.00  0.00     0.001 A 
ATOM     17  C   UNL     1       7.108  46.342  53.646  1.00  0.00     0.010 A 
ATOM     18  C   UNL     1       7.901  46.310  51.359  1.00  0.00     0.010 A 
ENDBRANCH   5  13
ENDBRANCH   2   4
ENDBRANCH   1   2
BRANCH   1  19
ATOM     19  C   UNL     1       1.394  44.827  54.223  1.00  0.00     0.007 C 
ATOM     20  C   UNL     1       2.413  44.974  55.344  1.00  0.00     0.011 C 
ATOM     21  C   UNL     1       0.990  45.381  55.581  1.00  0.00     0.011 C 
BRANCH  19  22
ATOM     22  C   UNL     1       0.956  43.423  53.850  1.00  0.00     0.153 C 
BRANCH  22  23
ATOM     23  N   UNL     1      -0.337  43.394  53.172  1.00  0.00    -0.272 N 
ATOM     24  C   UNL     1      -1.547  43.736  53.710  1.00  0.00     0.108 A 
ATOM     25  N   UNL     1      -0.432  42.970  51.893  1.00  0.00    -0.182 NA
ATOM     26  C   UNL     1      -2.480  43.525  52.724  1.00  0.00     0.042 A 
ATOM     27  C   UNL     1      -1.738  43.047  51.630  1.00  0.00     0.135 A 
ENDBRANCH  22  23
ENDBRANCH  19  22
ENDBRANCH   1  19
TORSDOF 6
ENDMDL
MODEL 11
REMARK VINA RESULT:    -7.650      2.008      3.238
REMARK INTER + INTRA:         -11.718
REMARK INTER:                 -10.750
REMARK INTRA:                  -0.967
REMARK UNBOUND:                -1.384
REMARK SMILES c1ccc(-c2cc(NCC3(Cn4cccn4)CC3)n3nccc3n2)cc1
REMARK SMILES IDX 9 1 8 2 7 4 5 5 6 6 24 7 23 8 19 9 22 10 20 11 21 12 4 13
REMARK SMILES IDX 1 14 2 15 26 16 3 17 25 18 10 19 17 20 18 21 11 22 12 23
REMARK SMILES IDX 13 24 16 25 14 26 15 27
REMARK H PARENT 8 3
ROOT
ATOM      1  C   UNL     1       1.936  45.571  54.921  1.00  0.00     0.123 C 
ENDROOT
BRANCH   1   2
ATOM      2  N   UNL     1       2.955  44.548  54.784  1.00  0.00    -0.369 N 
ATOM      3  H   UNL     1       3.294  44.201  55.689  1.00  0.00     0.162 HD
BRANCH   2   4
ATOM      4  C   UNL     1       4.016  44.592  53.872  1.00  0.00     0.132 A 
ATOM      5  C   UNL     1       6.146  45.265  52.917  1.00  0.00     0.076 A 
ATOM      6  C   UNL     1       5.119  45.347  54.008  1.00  0.00     0.075 A 
ATOM      7  N   UNL     1       6.024  44.547  51.835  1.00  0.00    -0.228 NA
ATOM      8  C   UNL     1       4.892  43.795  51.724  1.00  0.00     0.157 A 
ATOM      9  N   UNL     1       3.897  43.798  52.704  1.00  0.00    -0.199 N 
ATOM     10  C   UNL     1       4.466  42.926  50.749  1.00  0.00     0.071 A 
ATOM     11  N   UNL     1       2.869  42.955  52.379  1.00  0.00    -0.173 NA
ATOM     12  C   UNL     1       3.227  42.446  51.201  1.00  0.00     0.138 A 
BRANCH   5  13
ATOM     13  C   UNL     1       7.379  46.083  53.106  1.00  0.00     0.000 A 
ATOM     14  C   UNL     1       9.743  47.549  53.411  1.00  0.00     0.000 A 
ATOM     15  C   UNL     1       8.790  47.544  54.428  1.00  0.00     0.001 A 
ATOM     16  C   UNL     1       9.521  46.820  52.242  1.00  0.00     0.001 A 
ATOM     17  C   UNL     1       7.609  46.811  54.280  1.00  0.00     0.010 A 
ATOM     18  C   UNL     1       8.346  46.082  52.092  1.00  0.00     0.010 A 
ENDBRANCH   5  13
ENDBRANCH   2   4
ENDBRANCH   1   2
BRANCH   1  19
ATOM     19  C   UNL     1       0.649  44.913  55.369  1.00  0.00     0.007 C 
ATOM     20  C   UNL     1       0.334  44.922  56.857  1.00  0.00     0.011 C 
ATOM     21  C   UNL     1      -0.461  45.788  55.929  1.00  0.00     0.011 C 
BRANCH  19  22
ATOM     22  C   UNL     1       0.271  43.675  54.576  1.00  0.00     0.153 C 
BRANCH  22  23
ATOM     23  N   UNL     1      -0.684  43.955  53.508  1.00  0.00    -0.272 N 
ATOM     24  C   UNL     1      -0.476  44.756  52.419  1.00  0.00     0.108 A 
ATOM     25  N   UNL     1      -1.928  43.431  53.545  1.00  0.00    -0.182 NA
ATOM     26  C   UNL     1      -1.651  44.750  51.706  1.00  0.00     0.042 A 
ATOM     27  C   UNL     1      -2.512  43.923  52.449  1.00  0.00     0.135 A 
ENDBRANCH  22  23
ENDBRANCH  19  22
ENDBRANCH   1  19
TORSDOF 6
ENDMDL
MODEL 12
REMARK VINA RESULT:    -7.642      1.829      6.076
REMARK INTER + INTRA:         -11.707
REMARK INTER:                 -10.379
REMARK INTRA:                  -1.328
REMARK UNBOUND:                -1.384
REMARK SMILES c1ccc(-c2cc(NCC3(Cn4cccn4)CC3)n3nccc3n2)cc1
REMARK SMILES IDX 9 1 8 2 7 4 5 5 6 6 24 7 23 8 19 9 22 10 20 11 21 12 4 13
REMARK SMILES IDX 1 14 2 15 26 16 3 17 25 18 10 19 17 20 18 21 11 22 12 23
REMARK SMILES IDX 13 24 16 25 14 26 15 27
REMARK H PARENT 8 3
ROOT
ATOM      1  C   UNL     1       5.215  46.815  52.199  1.00  0.00     0.123 C 
ENDROOT
BRANCH   1   2
ATOM      2  N   UNL     1       5.367  45.630  51.375  1.00  0.00    -0.369 N 
ATOM      3  H   UNL     1       5.632  45.849  50.408  1.00  0.00     0.162 HD
BRANCH   2   4
ATOM      4  C   UNL     1       4.501  44.531  51.386  1.00  0.00     0.132 A 
ATOM      5  C   UNL     1       2.494  43.244  51.850  1.00  0.00     0.076 A 
ATOM      6  C   UNL     1       3.272  44.523  51.930  1.00  0.00     0.075 A 
ATOM      7  N   UNL     1       2.940  42.135  51.327  1.00  0.00    -0.228 NA
ATOM      8  C   UNL     1       4.191  42.173  50.788  1.00  0.00     0.157 A 
ATOM      9  N   UNL     1       4.973  43.330  50.802  1.00  0.00    -0.199 N 
ATOM     10  C   UNL     1       4.939  41.213  50.149  1.00  0.00     0.071 A 
ATOM     11  N   UNL     1       6.180  43.128  50.188  1.00  0.00    -0.173 NA
ATOM     12  C   UNL     1       6.142  41.851  49.808  1.00  0.00     0.138 A 
BRANCH   5  13
ATOM     13  C   UNL     1       1.119  43.267  52.428  1.00  0.00     0.000 A 
ATOM     14  C   UNL     1      -1.495  43.348  53.426  1.00  0.00     0.000 A 
ATOM     15  C   UNL     1      -0.418  43.633  54.265  1.00  0.00     0.001 A 
ATOM     16  C   UNL     1      -1.270  43.027  52.088  1.00  0.00     0.001 A 
ATOM     17  C   UNL     1       0.887  43.596  53.770  1.00  0.00     0.010 A 
ATOM     18  C   UNL     1       0.032  42.994  51.586  1.00  0.00     0.010 A 
ENDBRANCH   5  13
ENDBRANCH   2   4
ENDBRANCH   1   2
BRANCH   1  19
ATOM     19  C   UNL     1       6.343  46.850  53.207  1.00  0.00     0.007 C 
ATOM     20  C   UNL     1       5.969  46.864  54.682  1.00  0.00     0.011 C 
ATOM     21  C   UNL     1       6.574  45.629  54.085  1.00  0.00     0.011 C 
BRANCH  19  22
ATOM     22  C   UNL     1       7.541  47.675  52.777  1.00  0.00     0.153 C 
BRANCH  22  23
ATOM     23  N   UNL     1       8.627  46.860  52.239  1.00  0.00    -0.272 N 
ATOM     24  C   UNL     1       9.904  46.784  52.721  1.00  0.00     0.108 A 
ATOM     25  N   UNL     1       8.435  46.103  51.137  1.00  0.00    -0.182 NA
ATOM     26  C   UNL     1      10.580  45.925  51.887  1.00  0.00     0.042 A 
ATOM     27  C   UNL     1       9.628  45.542  50.927  1.00  0.00     0.135 A 
ENDBRANCH  22  23
ENDBRANCH  19  22
ENDBRANCH   1  19
TORSDOF 6
ENDMDL
MODEL 13
REMARK VINA RESULT:    -7.634      1.628      2.553
REMARK INTER + INTRA:         -11.696
REMARK INTER:                 -10.568
REMARK INTRA:                  -1.128
REMARK UNBOUND:                -1.384
REMARK SMILES c1ccc(-c2cc(NCC3(Cn4cccn4)CC3)n3nccc3n2)cc1
REMARK SMILES IDX 9 1 8 2 7 4 5 5 6 6 24 7 23 8 19 9 22 10 20 11 21 12 4 13
REMARK SMILES IDX 1 14 2 15 26 16 3 17 25 18 10 19 17 20 18 21 11 22 12 23
REMARK SMILES IDX 13 24 16 25 14 26 15 27
REMARK H PARENT 8 3
ROOT
ATOM      1  C   UNL     1       1.967  43.203  53.397  1.00  0.00     0.123 C 
ENDROOT
BRANCH   1   2
ATOM      2  N   UNL     1       2.460  43.843  52.191  1.00  0.00    -0.369 N 
ATOM      3  H   UNL     1       1.870  43.658  51.372  1.00  0.00     0.162 HD
BRANCH   2   4
ATOM      4  C   UNL     1       3.804  43.886  51.800  1.00  0.00     0.132 A 
ATOM      5  C   UNL     1       6.082  44.712  51.638  1.00  0.00     0.076 A 
ATOM      6  C   UNL     1       4.684  44.832  52.167  1.00  0.00     0.075 A 
ATOM      7  N   UNL     1       6.489  43.781  50.820  1.00  0.00    -0.228 NA
ATOM      8  C   UNL     1       5.572  42.838  50.461  1.00  0.00     0.157 A 
ATOM      9  N   UNL     1       4.255  42.866  50.927  1.00  0.00    -0.199 N 
ATOM     10  C   UNL     1       5.669  41.730  49.655  1.00  0.00     0.071 A 
ATOM     11  N   UNL     1       3.530  41.809  50.445  1.00  0.00    -0.173 NA
ATOM     12  C   UNL     1       4.395  41.143  49.680  1.00  0.00     0.138 A 
BRANCH   5  13
ATOM     13  C   UNL     1       7.053  45.752  52.087  1.00  0.00     0.000 A 
ATOM     14  C   UNL     1       8.807  47.735  52.995  1.00  0.00     0.000 A 
ATOM     15  C   UNL     1       8.792  47.380  51.646  1.00  0.00     0.001 A 
ATOM     16  C   UNL     1       7.943  47.105  53.891  1.00  0.00     0.001 A 
ATOM     17  C   UNL     1       7.917  46.392  51.190  1.00  0.00     0.010 A 
ATOM     18  C   UNL     1       7.062  46.122  53.439  1.00  0.00     0.010 A 
ENDBRANCH   5  13
ENDBRANCH   2   4
ENDBRANCH   1   2
BRANCH   1  19
ATOM     19  C   UNL     1       1.175  44.218  54.192  1.00  0.00     0.007 C 
ATOM     20  C   UNL     1       1.850  44.847  55.401  1.00  0.00     0.011 C 
ATOM     21  C   UNL     1       1.623  45.671  54.170  1.00  0.00     0.011 C 
BRANCH  19  22
ATOM     22  C   UNL     1      -0.308  43.914  54.293  1.00  0.00     0.153 C 
BRANCH  22  23
ATOM     23  N   UNL     1      -0.934  43.704  52.990  1.00  0.00    -0.272 N 
ATOM     24  C   UNL     1      -1.131  44.647  52.020  1.00  0.00     0.108 A 
ATOM     25  N   UNL     1      -1.418  42.490  52.648  1.00  0.00    -0.182 NA
ATOM     26  C   UNL     1      -1.777  44.010  50.988  1.00  0.00     0.042 A 
ATOM     27  C   UNL     1      -1.934  42.686  51.433  1.00  0.00     0.135 A 
ENDBRANCH  22  23
ENDBRANCH  19  22
ENDBRANCH   1  19
TORSDOF 6
ENDMDL
MODEL 14
REMARK VINA RESULT:    -7.628      2.118      4.880
REMARK INTER + INTRA:         -11.687
REMARK INTER:                 -11.600
REMARK INTRA:                  -0.088
REMARK UNBOUND:                -1.384
REMARK SMILES c1ccc(-c2cc(NCC3(Cn4cccn4)CC3)n3nccc3n2)cc1
REMARK SMILES IDX 9 1 8 2 7 4 5 5 6 6 24 7 23 8 19 9 22 10 20 11 21 12 4 13
REMARK SMILES IDX 1 14 2 15 26 16 3 17 25 18 10 19 17 20 18 21 11 22 12 23
REMARK SMILES IDX 13 24 16 25 14 26 15 27
REMARK H PARENT 8 3
ROOT
ATOM      1  C   UNL     1       3.907  46.758  54.424  1.00  0.00     0.123 C 
ENDROOT
BRANCH   1   2
ATOM      2  N   UNL     1       4.558  47.248  53.223  1.00  0.00    -0.369 N 
ATOM      3  H   UNL     1       3.927  47.787  52.620  1.00  0.00     0.162 HD
BRANCH   2   4
ATOM      4  C   UNL     1       5.441  46.504  52.432  1.00  0.00     0.132 A 
ATOM      5  C   UNL     1       6.222  44.696  51.009  1.00  0.00     0.076 A 
ATOM      6  C   UNL     1       5.136  45.354  51.808  1.00  0.00     0.075 A 
ATOM      7  N   UNL     1       7.444  45.140  50.912  1.00  0.00    -0.228 NA
ATOM      8  C   UNL     1       7.725  46.306  51.559  1.00  0.00     0.157 A 
ATOM      9  N   UNL     1       6.765  46.992  52.307  1.00  0.00    -0.199 N 
ATOM     10  C   UNL     1       8.878  47.049  51.643  1.00  0.00     0.071 A 
ATOM     11  N   UNL     1       7.277  48.142  52.847  1.00  0.00    -0.173 NA
ATOM     12  C   UNL     1       8.546  48.154  52.441  1.00  0.00     0.138 A 
BRANCH   5  13
ATOM     13  C   UNL     1       5.851  43.440  50.295  1.00  0.00     0.000 A 
ATOM     14  C   UNL     1       5.137  41.041  49.043  1.00  0.00     0.000 A 
ATOM     15  C   UNL     1       6.162  41.825  48.515  1.00  0.00     0.001 A 
ATOM     16  C   UNL     1       4.470  41.450  50.198  1.00  0.00     0.001 A 
ATOM     17  C   UNL     1       6.522  43.022  49.139  1.00  0.00     0.010 A 
ATOM     18  C   UNL     1       4.830  42.641  50.828  1.00  0.00     0.010 A 
ENDBRANCH   5  13
ENDBRANCH   2   4
ENDBRANCH   1   2
BRANCH   1  19
ATOM     19  C   UNL     1       2.652  46.014  54.022  1.00  0.00     0.007 C 
ATOM     20  C   UNL     1       2.582  44.528  54.338  1.00  0.00     0.011 C 
ATOM     21  C   UNL     1       1.734  45.489  55.115  1.00  0.00     0.011 C 
BRANCH  19  22
ATOM     22  C   UNL     1       2.035  46.487  52.718  1.00  0.00     0.153 C 
BRANCH  22  23
ATOM     23  N   UNL     1       1.172  45.482  52.103  1.00  0.00    -0.272 N 
ATOM     24  C   UNL     1       1.569  44.444  51.307  1.00  0.00     0.108 A 
ATOM     25  N   UNL     1      -0.168  45.536  52.266  1.00  0.00    -0.182 NA
ATOM     26  C   UNL     1       0.423  43.784  50.935  1.00  0.00     0.042 A 
ATOM     27  C   UNL     1      -0.616  44.504  51.549  1.00  0.00     0.135 A 
ENDBRANCH  22  23
ENDBRANCH  19  22
ENDBRANCH   1  19
TORSDOF 6
ENDMDL
MODEL 15
REMARK VINA RESULT:    -7.461      1.890      4.509
REMARK INTER + INTRA:         -11.462
REMARK INTER:                 -10.842
REMARK INTRA:                  -0.620
REMARK UNBOUND:                -1.384
REMARK SMILES c1ccc(-c2cc(NCC3(Cn4cccn4)CC3)n3nccc3n2)cc1
REMARK SMILES IDX 9 1 8 2 7 4 5 5 6 6 24 7 23 8 19 9 22 10 20 11 21 12 4 13
REMARK SMILES IDX 1 14 2 15 26 16 3 17 25 18 10 19 17 20 18 21 11 22 12 23
REMARK SMILES IDX 13 24 16 25 14 26 15 27
REMARK H PARENT 8 3
ROOT
ATOM      1  C   UNL     1       2.589  45.068  50.656  1.00  0.00     0.123 C 
ENDROOT
BRANCH   1   2
ATOM      2  N   UNL     1       2.765  46.116  51.643  1.00  0.00    -0.369 N 
ATOM      3  H   UNL     1       2.638  47.057  51.253  1.00  0.00     0.162 HD
BRANCH   2   4
ATOM      4  C   UNL     1       3.778  46.143  52.609  1.00  0.00     0.132 A 
ATOM      5  C   UNL     1       6.024  46.300  53.521  1.00  0.00     0.076 A 
ATOM      6  C   UNL     1       5.086  46.308  52.350  1.00  0.00     0.075 A 
ATOM      7  N   UNL     1       5.664  46.107  54.760  1.00  0.00    -0.228 NA
ATOM      8  C   UNL     1       4.331  45.938  54.990  1.00  0.00     0.157 A 
ATOM      9  N   UNL     1       3.389  45.953  53.958  1.00  0.00    -0.199 N 
ATOM     10  C   UNL     1       3.623  45.742  56.151  1.00  0.00     0.071 A 
ATOM     11  N   UNL     1       2.118  45.781  54.436  1.00  0.00    -0.173 NA
ATOM     12  C   UNL     1       2.280  45.652  55.753  1.00  0.00     0.138 A 
BRANCH   5  13
ATOM     13  C   UNL     1       7.467  46.521  53.215  1.00  0.00     0.000 A 
ATOM     14  C   UNL     1      10.173  46.855  52.584  1.00  0.00     0.000 A 
ATOM     15  C   UNL     1       9.711  47.170  53.861  1.00  0.00     0.001 A 
ATOM     16  C   UNL     1       9.288  46.368  51.622  1.00  0.00     0.001 A 
ATOM     17  C   UNL     1       8.361  47.002  54.180  1.00  0.00     0.010 A 
ATOM     18  C   UNL     1       7.940  46.193  51.938  1.00  0.00     0.010 A 
ENDBRANCH   5  13
ENDBRANCH   2   4
ENDBRANCH   1   2
BRANCH   1  19
ATOM     19  C   UNL     1       2.095  43.822  51.358  1.00  0.00     0.007 C 
ATOM     20  C   UNL     1       0.745  43.895  52.055  1.00  0.00     0.011 C 
ATOM     21  C   UNL     1       0.883  43.098  50.793  1.00  0.00     0.011 C 
BRANCH  19  22
ATOM     22  C   UNL     1       3.187  43.005  52.023  1.00  0.00     0.153 C 
BRANCH  22  23
ATOM     23  N   UNL     1       4.185  42.515  51.076  1.00  0.00    -0.272 N 
ATOM     24  C   UNL     1       5.420  43.053  50.843  1.00  0.00     0.108 A 
ATOM     25  N   UNL     1       3.922  41.445  50.295  1.00  0.00    -0.182 NA
ATOM     26  C   UNL     1       5.994  42.287  49.856  1.00  0.00     0.042 A 
ATOM     27  C   UNL     1       5.024  41.316  49.552  1.00  0.00     0.135 A 
ENDBRANCH  22  23
ENDBRANCH  19  22
ENDBRANCH   1  19
TORSDOF 6
ENDMDL
MODEL 16
REMARK VINA RESULT:    -7.446      2.251      3.279
REMARK INTER + INTRA:         -11.442
REMARK INTER:                 -10.684
REMARK INTRA:                  -0.758
REMARK UNBOUND:                -1.384
REMARK SMILES c1ccc(-c2cc(NCC3(Cn4cccn4)CC3)n3nccc3n2)cc1
REMARK SMILES IDX 9 1 8 2 7 4 5 5 6 6 24 7 23 8 19 9 22 10 20 11 21 12 4 13
REMARK SMILES IDX 1 14 2 15 26 16 3 17 25 18 10 19 17 20 18 21 11 22 12 23
REMARK SMILES IDX 13 24 16 25 14 26 15 27
REMARK H PARENT 8 3
ROOT
ATOM      1  C   UNL     1       1.481  45.196  53.884  1.00  0.00     0.123 C 
ENDROOT
BRANCH   1   2
ATOM      2  N   UNL     1       2.539  44.203  53.917  1.00  0.00    -0.369 N 
ATOM      3  H   UNL     1       2.757  43.886  54.868  1.00  0.00     0.162 HD
BRANCH   2   4
ATOM      4  C   UNL     1       3.715  44.262  53.161  1.00  0.00     0.132 A 
ATOM      5  C   UNL     1       5.888  45.060  52.425  1.00  0.00     0.076 A 
ATOM      6  C   UNL     1       4.706  45.150  53.344  1.00  0.00     0.075 A 
ATOM      7  N   UNL     1       6.001  44.210  51.442  1.00  0.00    -0.228 NA
ATOM      8  C   UNL     1       4.978  43.325  51.278  1.00  0.00     0.157 A 
ATOM      9  N   UNL     1       3.851  43.328  52.104  1.00  0.00    -0.199 N 
ATOM     10  C   UNL     1       4.790  42.303  50.379  1.00  0.00     0.071 A 
ATOM     11  N   UNL     1       2.971  42.338  51.756  1.00  0.00    -0.173 NA
ATOM     12  C   UNL     1       3.550  41.739  50.717  1.00  0.00     0.138 A 
BRANCH   5  13
ATOM     13  C   UNL     1       6.993  46.032  52.669  1.00  0.00     0.000 A 
ATOM     14  C   UNL     1       9.114  47.817  53.052  1.00  0.00     0.000 A 
ATOM     15  C   UNL     1       8.419  47.314  54.151  1.00  0.00     0.001 A 
ATOM     16  C   UNL     1       8.756  47.428  51.762  1.00  0.00     0.001 A 
ATOM     17  C   UNL     1       7.361  46.421  53.964  1.00  0.00     0.010 A 
ATOM     18  C   UNL     1       7.703  46.531  51.570  1.00  0.00     0.010 A 
ENDBRANCH   5  13
ENDBRANCH   2   4
ENDBRANCH   1   2
BRANCH   1  19
ATOM     19  C   UNL     1       0.148  44.480  53.903  1.00  0.00     0.007 C 
ATOM     20  C   UNL     1      -0.906  44.927  52.901  1.00  0.00     0.011 C 
ATOM     21  C   UNL     1      -0.226  43.603  52.719  1.00  0.00     0.011 C 
BRANCH  19  22
ATOM     22  C   UNL     1      -0.325  44.075  55.287  1.00  0.00     0.153 C 
BRANCH  22  23
ATOM     23  N   UNL     1      -0.177  45.144  56.272  1.00  0.00    -0.272 N 
ATOM     24  C   UNL     1       0.889  45.341  57.105  1.00  0.00     0.108 A 
ATOM     25  N   UNL     1      -1.163  46.048  56.457  1.00  0.00    -0.182 NA
ATOM     26  C   UNL     1       0.580  46.438  57.873  1.00  0.00     0.042 A 
ATOM     27  C   UNL     1      -0.698  46.828  57.435  1.00  0.00     0.135 A 
ENDBRANCH  22  23
ENDBRANCH  19  22
ENDBRANCH   1  19
TORSDOF 6
ENDMDL
MODEL 17
REMARK VINA RESULT:    -7.247      3.272      6.850
REMARK INTER + INTRA:         -11.173
REMARK INTER:                 -10.561
REMARK INTRA:                  -0.613
REMARK UNBOUND:                -1.384
REMARK SMILES c1ccc(-c2cc(NCC3(Cn4cccn4)CC3)n3nccc3n2)cc1
REMARK SMILES IDX 9 1 8 2 7 4 5 5 6 6 24 7 23 8 19 9 22 10 20 11 21 12 4 13
REMARK SMILES IDX 1 14 2 15 26 16 3 17 25 18 10 19 17 20 18 21 11 22 12 23
REMARK SMILES IDX 13 24 16 25 14 26 15 27
REMARK H PARENT 8 3
ROOT
ATOM      1  C   UNL     1       3.940  45.771  52.841  1.00  0.00     0.123 C 
ENDROOT
BRANCH   1   2
ATOM      2  N   UNL     1       3.586  44.951  53.985  1.00  0.00    -0.369 N 
ATOM      3  H   UNL     1       3.950  43.994  53.917  1.00  0.00     0.162 HD
BRANCH   2   4
ATOM      4  C   UNL     1       2.326  44.930  54.595  1.00  0.00     0.132 A 
ATOM      5  C   UNL     1       0.578  45.496  56.183  1.00  0.00     0.076 A 
ATOM      6  C   UNL     1       1.976  45.661  55.666  1.00  0.00     0.075 A 
ATOM      7  N   UNL     1      -0.303  44.669  55.692  1.00  0.00    -0.228 NA
ATOM      8  C   UNL     1       0.083  43.937  54.608  1.00  0.00     0.157 A 
ATOM      9  N   UNL     1       1.360  44.047  54.052  1.00  0.00    -0.199 N 
ATOM     10  C   UNL     1      -0.588  43.013  53.845  1.00  0.00     0.071 A 
ATOM     11  N   UNL     1       1.506  43.229  52.964  1.00  0.00    -0.173 NA
ATOM     12  C   UNL     1       0.328  42.614  52.860  1.00  0.00     0.138 A 
BRANCH   5  13
ATOM     13  C   UNL     1       0.199  46.344  57.351  1.00  0.00     0.000 A 
ATOM     14  C   UNL     1      -0.573  47.984  59.484  1.00  0.00     0.000 A 
ATOM     15  C   UNL     1       0.743  47.531  59.392  1.00  0.00     0.001 A 
ATOM     16  C   UNL     1      -1.503  47.623  58.509  1.00  0.00     0.001 A 
ATOM     17  C   UNL     1       1.132  46.714  58.328  1.00  0.00     0.010 A 
ATOM     18  C   UNL     1      -1.119  46.812  57.441  1.00  0.00     0.010 A 
ENDBRANCH   5  13
ENDBRANCH   2   4
ENDBRANCH   1   2
BRANCH   1  19
ATOM     19  C   UNL     1       5.201  45.211  52.219  1.00  0.00     0.007 C 
ATOM     20  C   UNL     1       5.068  43.965  51.357  1.00  0.00     0.011 C 
ATOM     21  C   UNL     1       5.364  45.284  50.709  1.00  0.00     0.011 C 
BRANCH  19  22
ATOM     22  C   UNL     1       6.437  45.335  53.092  1.00  0.00     0.153 C 
BRANCH  22  23
ATOM     23  N   UNL     1       7.344  46.387  52.644  1.00  0.00    -0.272 N 
ATOM     24  C   UNL     1       8.584  46.214  52.095  1.00  0.00     0.108 A 
ATOM     25  N   UNL     1       7.008  47.688  52.781  1.00  0.00    -0.182 NA
ATOM     26  C   UNL     1       9.080  47.473  51.858  1.00  0.00     0.042 A 
ATOM     27  C   UNL     1       8.070  48.342  52.307  1.00  0.00     0.135 A 
ENDBRANCH  22  23
ENDBRANCH  19  22
ENDBRANCH   1  19
TORSDOF 6
ENDMDL
MODEL 18
REMARK VINA RESULT:    -7.145      1.673      5.790
REMARK INTER + INTRA:         -11.035
REMARK INTER:                 -10.686
REMARK INTRA:                  -0.349
REMARK UNBOUND:                -1.384
REMARK SMILES c1ccc(-c2cc(NCC3(Cn4cccn4)CC3)n3nccc3n2)cc1
REMARK SMILES IDX 9 1 8 2 7 4 5 5 6 6 24 7 23 8 19 9 22 10 20 11 21 12 4 13
REMARK SMILES IDX 1 14 2 15 26 16 3 17 25 18 10 19 17 20 18 21 11 22 12 23
REMARK SMILES IDX 13 24 16 25 14 26 15 27
REMARK H PARENT 8 3
ROOT
ATOM      1  C   UNL     1       4.452  47.179  54.416  1.00  0.00     0.123 C 
ENDROOT
BRANCH   1   2
ATOM      2  N   UNL     1       3.517  46.819  53.367  1.00  0.00    -0.369 N 
ATOM      3  H   UNL     1       2.664  47.390  53.381  1.00  0.00     0.162 HD
BRANCH   2   4
ATOM      4  C   UNL     1       3.197  45.507  52.997  1.00  0.00     0.132 A 
ATOM      5  C   UNL     1       3.366  43.389  51.820  1.00  0.00     0.076 A 
ATOM      6  C   UNL     1       3.867  44.777  52.089  1.00  0.00     0.075 A 
ATOM      7  N   UNL     1       2.309  42.861  52.372  1.00  0.00    -0.228 NA
ATOM      8  C   UNL     1       1.647  43.628  53.285  1.00  0.00     0.157 A 
ATOM      9  N   UNL     1       2.061  44.922  53.608  1.00  0.00    -0.199 N 
ATOM     10  C   UNL     1       0.538  43.377  54.055  1.00  0.00     0.071 A 
ATOM     11  N   UNL     1       1.252  45.485  54.560  1.00  0.00    -0.173 NA
ATOM     12  C   UNL     1       0.342  44.543  54.810  1.00  0.00     0.138 A 
BRANCH   5  13
ATOM     13  C   UNL     1       4.145  42.583  50.836  1.00  0.00     0.000 A 
ATOM     14  C   UNL     1       5.653  41.152  48.961  1.00  0.00     0.000 A 
ATOM     15  C   UNL     1       4.336  40.780  49.228  1.00  0.00     0.001 A 
ATOM     16  C   UNL     1       6.218  42.241  49.626  1.00  0.00     0.001 A 
ATOM     17  C   UNL     1       3.580  41.493  50.162  1.00  0.00     0.010 A 
ATOM     18  C   UNL     1       5.465  42.960  50.555  1.00  0.00     0.010 A 
ENDBRANCH   5  13
ENDBRANCH   2   4
ENDBRANCH   1   2
BRANCH   1  19
ATOM     19  C   UNL     1       5.853  46.856  53.945  1.00  0.00     0.007 C 
ATOM     20  C   UNL     1       6.940  46.729  55.002  1.00  0.00     0.011 C 
ATOM     21  C   UNL     1       6.447  45.501  54.298  1.00  0.00     0.011 C 
BRANCH  19  22
ATOM     22  C   UNL     1       6.231  47.495  52.621  1.00  0.00     0.153 C 
BRANCH  22  23
ATOM     23  N   UNL     1       7.477  46.968  52.072  1.00  0.00    -0.272 N 
ATOM     24  C   UNL     1       8.734  47.462  52.285  1.00  0.00     0.108 A 
ATOM     25  N   UNL     1       7.464  45.905  51.238  1.00  0.00    -0.182 NA
ATOM     26  C   UNL     1       9.587  46.674  51.550  1.00  0.00     0.042 A 
ATOM     27  C   UNL     1       8.750  45.737  50.920  1.00  0.00     0.135 A 
ENDBRANCH  22  23
ENDBRANCH  19  22
ENDBRANCH   1  19
TORSDOF 6
ENDMDL
