MODEL 1
REMARK VINA RESULT:    -8.591      0.000      0.000
REMARK INTER + INTRA:         -14.552
REMARK INTER:                 -13.111
REMARK INTRA:                  -1.441
REMARK UNBOUND:                -1.441
REMARK SMILES Cc1cc(O)ccc1Nc1nc(NCCCCCO)nc2c1cnn2C
REMARK SMILES IDX 14 1 13 2 12 4 10 5 11 6 22 7 21 8 23 9 20 10 25 11 24 12
REMARK SMILES IDX 26 13 9 14 8 16 2 17 3 18 4 19 7 20 6 21 1 22 5 23 15 25
REMARK SMILES IDX 16 26 17 27 18 28 19 29
REMARK H PARENT 13 3 9 15 5 24 19 30
ROOT
ATOM      1  C   UNL     1       4.303  45.707  55.549  1.00  0.00     0.116 C 
ENDROOT
BRANCH   1   2
ATOM      2  N   UNL     1       4.883  46.919  54.999  1.00  0.00    -0.354 N 
ATOM      3  H   UNL     1       5.136  47.625  55.682  1.00  0.00     0.163 HD
BRANCH   2   4
ATOM      4  C   UNL     1       5.995  46.758  54.184  1.00  0.00     0.226 A 
ATOM      5  C   UNL     1       6.740  45.985  52.102  1.00  0.00     0.147 A 
ATOM      6  N   UNL     1       5.732  46.215  52.981  1.00  0.00    -0.195 NA
ATOM      7  C   UNL     1       8.037  46.320  52.494  1.00  0.00     0.082 A 
ATOM      8  C   UNL     1       8.184  46.873  53.750  1.00  0.00     0.165 A 
ATOM      9  C   UNL     1       9.350  46.269  51.978  1.00  0.00     0.149 A 
ATOM     10  N   UNL     1       7.204  47.121  54.631  1.00  0.00    -0.193 NA
ATOM     11  N   UNL     1       9.523  47.105  53.906  1.00  0.00    -0.250 N 
ATOM     12  N   UNL     1      10.263  46.750  52.831  1.00  0.00    -0.179 NA
ATOM     13  C   UNL     1      10.175  47.664  55.064  1.00  0.00     0.176 C 
BRANCH   5  14
ATOM     14  N   UNL     1       6.390  45.407  50.868  1.00  0.00    -0.339 N 
ATOM     15  H   UNL     1       7.202  45.515  50.265  1.00  0.00     0.168 HD
BRANCH  14  16
ATOM     16  C   UNL     1       5.794  44.138  50.701  1.00  0.00     0.043 A 
ATOM     17  C   UNL     1       6.355  43.120  49.905  1.00  0.00    -0.024 A 
ATOM     18  C   UNL     1       5.678  41.895  49.789  1.00  0.00     0.051 A 
ATOM     19  C   UNL     1       4.450  41.704  50.411  1.00  0.00     0.115 A 
ATOM     20  C   UNL     1       4.537  43.932  51.292  1.00  0.00     0.030 A 
ATOM     21  C   UNL     1       3.866  42.717  51.158  1.00  0.00     0.048 A 
ATOM     22  C   UNL     1       7.672  43.282  49.195  1.00  0.00     0.047 C 
BRANCH  19  23
ATOM     23  O   UNL     1       3.840  40.495  50.255  1.00  0.00    -0.508 OA
ATOM     24  H   UNL     1       2.906  40.581  50.507  1.00  0.00     0.293 HD
ENDBRANCH  19  23
ENDBRANCH  14  16
ENDBRANCH   5  14
ENDBRANCH   2   4
ENDBRANCH   1   2
BRANCH   1  25
ATOM     25  C   UNL     1       2.786  45.702  55.343  1.00  0.00     0.021 C 
BRANCH  25  26
ATOM     26  C   UNL     1       2.370  45.066  54.012  1.00  0.00     0.004 C 
BRANCH  26  27
ATOM     27  C   UNL     1       1.641  46.033  53.078  1.00  0.00     0.028 C 
BRANCH  27  28
ATOM     28  C   UNL     1       2.562  46.752  52.100  1.00  0.00     0.156 C 
BRANCH  28  29
ATOM     29  O   UNL     1       3.069  47.939  52.699  1.00  0.00    -0.396 OA
ATOM     30  H   UNL     1       2.720  48.694  52.194  1.00  0.00     0.210 HD
ENDBRANCH  28  29
ENDBRANCH  27  28
ENDBRANCH  26  27
ENDBRANCH  25  26
ENDBRANCH   1  25
TORSDOF 10
ENDMDL
MODEL 2
REMARK VINA RESULT:    -8.407      1.406      1.582
REMARK INTER + INTRA:         -14.271
REMARK INTER:                 -13.331
REMARK INTRA:                  -0.940
REMARK UNBOUND:                -1.441
REMARK SMILES Cc1cc(O)ccc1Nc1nc(NCCCCCO)nc2c1cnn2C
REMARK SMILES IDX 14 1 13 2 12 4 10 5 11 6 22 7 21 8 23 9 20 10 25 11 24 12
REMARK SMILES IDX 26 13 9 14 8 16 2 17 3 18 4 19 7 20 6 21 1 22 5 23 15 25
REMARK SMILES IDX 16 26 17 27 18 28 19 29
REMARK H PARENT 13 3 9 15 5 24 19 30
ROOT
ATOM      1  C   UNL     1       3.648  46.632  54.546  1.00  0.00     0.116 C 
ENDROOT
BRANCH   1   2
ATOM      2  N   UNL     1       4.928  47.158  54.985  1.00  0.00    -0.354 N 
ATOM      3  H   UNL     1       5.208  46.885  55.922  1.00  0.00     0.163 HD
BRANCH   2   4
ATOM      4  C   UNL     1       6.019  46.899  54.168  1.00  0.00     0.226 A 
ATOM      5  C   UNL     1       6.688  46.036  52.096  1.00  0.00     0.147 A 
ATOM      6  N   UNL     1       5.706  46.357  52.976  1.00  0.00    -0.195 NA
ATOM      7  C   UNL     1       8.010  46.276  52.475  1.00  0.00     0.082 A 
ATOM      8  C   UNL     1       8.207  46.837  53.721  1.00  0.00     0.165 A 
ATOM      9  C   UNL     1       9.311  46.115  51.953  1.00  0.00     0.149 A 
ATOM     10  N   UNL     1       7.255  47.174  54.602  1.00  0.00    -0.193 NA
ATOM     11  N   UNL     1       9.560  46.967  53.866  1.00  0.00    -0.250 N 
ATOM     12  N   UNL     1      10.264  46.538  52.793  1.00  0.00    -0.179 NA
ATOM     13  C   UNL     1      10.262  47.494  55.009  1.00  0.00     0.176 C 
BRANCH   5  14
ATOM     14  N   UNL     1       6.286  45.466  50.874  1.00  0.00    -0.339 N 
ATOM     15  H   UNL     1       7.066  45.594  50.233  1.00  0.00     0.168 HD
BRANCH  14  16
ATOM     16  C   UNL     1       5.702  44.189  50.721  1.00  0.00     0.043 A 
ATOM     17  C   UNL     1       6.282  43.162  49.950  1.00  0.00    -0.024 A 
ATOM     18  C   UNL     1       5.616  41.929  49.847  1.00  0.00     0.051 A 
ATOM     19  C   UNL     1       4.381  41.739  50.457  1.00  0.00     0.115 A 
ATOM     20  C   UNL     1       4.439  43.984  51.299  1.00  0.00     0.030 A 
ATOM     21  C   UNL     1       3.779  42.761  51.177  1.00  0.00     0.048 A 
ATOM     22  C   UNL     1       7.607  43.322  49.256  1.00  0.00     0.047 C 
BRANCH  19  23
ATOM     23  O   UNL     1       3.783  40.523  50.313  1.00  0.00    -0.508 OA
ATOM     24  H   UNL     1       3.392  40.470  49.426  1.00  0.00     0.293 HD
ENDBRANCH  19  23
ENDBRANCH  14  16
ENDBRANCH   5  14
ENDBRANCH   2   4
ENDBRANCH   1   2
BRANCH   1  25
ATOM     25  C   UNL     1       3.326  45.330  55.285  1.00  0.00     0.021 C 
BRANCH  25  26
ATOM     26  C   UNL     1       1.845  44.947  55.195  1.00  0.00     0.004 C 
BRANCH  26  27
ATOM     27  C   UNL     1       1.422  44.483  53.801  1.00  0.00     0.028 C 
BRANCH  27  28
ATOM     28  C   UNL     1       0.590  43.206  53.804  1.00  0.00     0.156 C 
BRANCH  28  29
ATOM     29  O   UNL     1       1.444  42.075  53.686  1.00  0.00    -0.396 OA
ATOM     30  H   UNL     1       0.919  41.350  53.304  1.00  0.00     0.210 HD
ENDBRANCH  28  29
ENDBRANCH  27  28
ENDBRANCH  26  27
ENDBRANCH  25  26
ENDBRANCH   1  25
TORSDOF 10
ENDMDL
MODEL 3
REMARK VINA RESULT:    -8.205      1.581      2.230
REMARK INTER + INTRA:         -13.963
REMARK INTER:                 -12.903
REMARK INTRA:                  -1.060
REMARK UNBOUND:                -1.441
REMARK SMILES Cc1cc(O)ccc1Nc1nc(NCCCCCO)nc2c1cnn2C
REMARK SMILES IDX 14 1 13 2 12 4 10 5 11 6 22 7 21 8 23 9 20 10 25 11 24 12
REMARK SMILES IDX 26 13 9 14 8 16 2 17 3 18 4 19 7 20 6 21 1 22 5 23 15 25
REMARK SMILES IDX 16 26 17 27 18 28 19 29
REMARK H PARENT 13 3 9 15 5 24 19 30
ROOT
ATOM      1  C   UNL     1       3.690  46.732  54.490  1.00  0.00     0.116 C 
ENDROOT
BRANCH   1   2
ATOM      2  N   UNL     1       4.902  47.361  54.982  1.00  0.00    -0.354 N 
ATOM      3  H   UNL     1       5.156  47.121  55.935  1.00  0.00     0.163 HD
BRANCH   2   4
ATOM      4  C   UNL     1       6.048  47.178  54.221  1.00  0.00     0.226 A 
ATOM      5  C   UNL     1       6.862  46.557  52.115  1.00  0.00     0.147 A 
ATOM      6  N   UNL     1       5.821  46.790  52.953  1.00  0.00    -0.195 NA
ATOM      7  C   UNL     1       8.154  46.721  52.616  1.00  0.00     0.082 A 
ATOM      8  C   UNL     1       8.263  47.123  53.932  1.00  0.00     0.165 A 
ATOM      9  C   UNL     1       9.489  46.595  52.176  1.00  0.00     0.149 A 
ATOM     10  N   UNL     1       7.252  47.372  54.776  1.00  0.00    -0.193 NA
ATOM     11  N   UNL     1       9.604  47.205  54.191  1.00  0.00    -0.250 N 
ATOM     12  N   UNL     1      10.381  46.893  53.129  1.00  0.00    -0.179 NA
ATOM     13  C   UNL     1      10.223  47.575  55.439  1.00  0.00     0.176 C 
BRANCH   5  14
ATOM     14  N   UNL     1       6.546  46.147  50.806  1.00  0.00    -0.339 N 
ATOM     15  H   UNL     1       7.115  46.719  50.187  1.00  0.00     0.168 HD
BRANCH  14  16
ATOM     16  C   UNL     1       6.491  44.808  50.361  1.00  0.00     0.043 A 
ATOM     17  C   UNL     1       5.404  43.951  50.621  1.00  0.00    -0.024 A 
ATOM     18  C   UNL     1       5.450  42.629  50.147  1.00  0.00     0.051 A 
ATOM     19  C   UNL     1       6.570  42.159  49.472  1.00  0.00     0.115 A 
ATOM     20  C   UNL     1       7.625  44.299  49.706  1.00  0.00     0.030 A 
ATOM     21  C   UNL     1       7.666  42.980  49.254  1.00  0.00     0.048 A 
ATOM     22  C   UNL     1       4.176  44.405  51.362  1.00  0.00     0.047 C 
BRANCH  19  23
ATOM     23  O   UNL     1       6.556  40.864  49.044  1.00  0.00    -0.508 OA
ATOM     24  H   UNL     1       6.848  40.292  49.771  1.00  0.00     0.293 HD
ENDBRANCH  19  23
ENDBRANCH  14  16
ENDBRANCH   5  14
ENDBRANCH   2   4
ENDBRANCH   1   2
BRANCH   1  25
ATOM     25  C   UNL     1       3.437  45.414  55.228  1.00  0.00     0.021 C 
BRANCH  25  26
ATOM     26  C   UNL     1       1.961  45.000  55.213  1.00  0.00     0.004 C 
BRANCH  26  27
ATOM     27  C   UNL     1       1.469  44.559  53.834  1.00  0.00     0.028 C 
BRANCH  27  28
ATOM     28  C   UNL     1       0.972  43.118  53.792  1.00  0.00     0.156 C 
BRANCH  28  29
ATOM     29  O   UNL     1       2.017  42.262  53.346  1.00  0.00    -0.396 OA
ATOM     30  H   UNL     1       2.021  41.479  53.925  1.00  0.00     0.210 HD
ENDBRANCH  28  29
ENDBRANCH  27  28
ENDBRANCH  26  27
ENDBRANCH  25  26
ENDBRANCH   1  25
TORSDOF 10
ENDMDL
MODEL 4
REMARK VINA RESULT:    -8.191      2.655      5.637
REMARK INTER + INTRA:         -13.941
REMARK INTER:                 -13.202
REMARK INTRA:                  -0.739
REMARK UNBOUND:                -1.441
REMARK SMILES Cc1cc(O)ccc1Nc1nc(NCCCCCO)nc2c1cnn2C
REMARK SMILES IDX 14 1 13 2 12 4 10 5 11 6 22 7 21 8 23 9 20 10 25 11 24 12
REMARK SMILES IDX 26 13 9 14 8 16 2 17 3 18 4 19 7 20 6 21 1 22 5 23 15 25
REMARK SMILES IDX 16 26 17 27 18 28 19 29
REMARK H PARENT 13 3 9 15 5 24 19 30
ROOT
ATOM      1  C   UNL     1       7.066  46.369  54.233  1.00  0.00     0.116 C 
ENDROOT
BRANCH   1   2
ATOM      2  N   UNL     1       5.796  46.806  54.785  1.00  0.00    -0.354 N 
ATOM      3  H   UNL     1       5.546  47.769  54.583  1.00  0.00     0.163 HD
BRANCH   2   4
ATOM      4  C   UNL     1       4.684  46.044  54.458  1.00  0.00     0.226 A 
ATOM      5  C   UNL     1       3.721  44.678  52.817  1.00  0.00     0.147 A 
ATOM      6  N   UNL     1       4.757  45.435  53.261  1.00  0.00    -0.195 NA
ATOM      7  C   UNL     1       2.594  44.570  53.634  1.00  0.00     0.082 A 
ATOM      8  C   UNL     1       2.635  45.238  54.841  1.00  0.00     0.165 A 
ATOM      9  C   UNL     1       1.327  43.949  53.619  1.00  0.00     0.149 A 
ATOM     10  N   UNL     1       3.650  45.980  55.307  1.00  0.00    -0.193 NA
ATOM     11  N   UNL     1       1.435  44.991  55.449  1.00  0.00    -0.250 N 
ATOM     12  N   UNL     1       0.614  44.197  54.725  1.00  0.00    -0.179 NA
ATOM     13  C   UNL     1       0.997  45.485  56.730  1.00  0.00     0.176 C 
BRANCH   5  14
ATOM     14  N   UNL     1       3.866  44.080  51.552  1.00  0.00    -0.339 N 
ATOM     15  H   UNL     1       3.167  44.512  50.953  1.00  0.00     0.168 HD
BRANCH  14  16
ATOM     16  C   UNL     1       5.088  43.905  50.867  1.00  0.00     0.043 A 
ATOM     17  C   UNL     1       5.532  42.657  50.385  1.00  0.00    -0.024 A 
ATOM     18  C   UNL     1       6.772  42.583  49.728  1.00  0.00     0.051 A 
ATOM     19  C   UNL     1       7.571  43.713  49.595  1.00  0.00     0.115 A 
ATOM     20  C   UNL     1       5.928  45.024  50.750  1.00  0.00     0.030 A 
ATOM     21  C   UNL     1       7.165  44.935  50.109  1.00  0.00     0.048 A 
ATOM     22  C   UNL     1       4.714  41.402  50.518  1.00  0.00     0.047 C 
BRANCH  19  23
ATOM     23  O   UNL     1       8.766  43.574  48.954  1.00  0.00    -0.508 OA
ATOM     24  H   UNL     1       8.609  43.161  48.089  1.00  0.00     0.293 HD
ENDBRANCH  19  23
ENDBRANCH  14  16
ENDBRANCH   5  14
ENDBRANCH   2   4
ENDBRANCH   1   2
BRANCH   1  25
ATOM     25  C   UNL     1       7.653  47.454  53.325  1.00  0.00     0.021 C 
BRANCH  25  26
ATOM     26  C   UNL     1       9.178  47.557  53.432  1.00  0.00     0.004 C 
BRANCH  26  27
ATOM     27  C   UNL     1       9.905  46.285  52.994  1.00  0.00     0.028 C 
BRANCH  27  28
ATOM     28  C   UNL     1      10.288  46.275  51.519  1.00  0.00     0.156 C 
BRANCH  28  29
ATOM     29  O   UNL     1      10.652  44.957  51.125  1.00  0.00    -0.396 OA
ATOM     30  H   UNL     1      11.167  45.029  50.302  1.00  0.00     0.210 HD
ENDBRANCH  28  29
ENDBRANCH  27  28
ENDBRANCH  26  27
ENDBRANCH  25  26
ENDBRANCH   1  25
TORSDOF 10
ENDMDL
MODEL 5
REMARK VINA RESULT:    -8.179      1.497      1.885
REMARK INTER + INTRA:         -13.924
REMARK INTER:                 -13.209
REMARK INTRA:                  -0.714
REMARK UNBOUND:                -1.441
REMARK SMILES Cc1cc(O)ccc1Nc1nc(NCCCCCO)nc2c1cnn2C
REMARK SMILES IDX 14 1 13 2 12 4 10 5 11 6 22 7 21 8 23 9 20 10 25 11 24 12
REMARK SMILES IDX 26 13 9 14 8 16 2 17 3 18 4 19 7 20 6 21 1 22 5 23 15 25
REMARK SMILES IDX 16 26 17 27 18 28 19 29
REMARK H PARENT 13 3 9 15 5 24 19 30
ROOT
ATOM      1  C   UNL     1       3.478  46.562  54.525  1.00  0.00     0.116 C 
ENDROOT
BRANCH   1   2
ATOM      2  N   UNL     1       4.739  47.124  54.974  1.00  0.00    -0.354 N 
ATOM      3  H   UNL     1       5.020  46.858  55.912  1.00  0.00     0.163 HD
BRANCH   2   4
ATOM      4  C   UNL     1       5.842  46.896  54.164  1.00  0.00     0.226 A 
ATOM      5  C   UNL     1       6.551  46.050  52.097  1.00  0.00     0.147 A 
ATOM      6  N   UNL     1       5.554  46.343  52.971  1.00  0.00    -0.195 NA
ATOM      7  C   UNL     1       7.862  46.331  52.485  1.00  0.00     0.082 A 
ATOM      8  C   UNL     1       8.034  46.899  53.731  1.00  0.00     0.165 A 
ATOM      9  C   UNL     1       9.171  46.208  51.972  1.00  0.00     0.149 A 
ATOM     10  N   UNL     1       7.067  47.209  54.606  1.00  0.00    -0.193 NA
ATOM     11  N   UNL     1       9.382  47.070  53.884  1.00  0.00    -0.250 N 
ATOM     12  N   UNL     1      10.106  46.660  52.817  1.00  0.00    -0.179 NA
ATOM     13  C   UNL     1      10.060  47.619  55.032  1.00  0.00     0.176 C 
BRANCH   5  14
ATOM     14  N   UNL     1       6.173  45.467  50.874  1.00  0.00    -0.339 N 
ATOM     15  H   UNL     1       6.961  45.601  50.243  1.00  0.00     0.168 HD
BRANCH  14  16
ATOM     16  C   UNL     1       5.609  44.182  50.722  1.00  0.00     0.043 A 
ATOM     17  C   UNL     1       6.206  43.162  49.954  1.00  0.00    -0.024 A 
ATOM     18  C   UNL     1       5.559  41.919  49.851  1.00  0.00     0.051 A 
ATOM     19  C   UNL     1       4.325  41.712  50.458  1.00  0.00     0.115 A 
ATOM     20  C   UNL     1       4.348  43.958  51.297  1.00  0.00     0.030 A 
ATOM     21  C   UNL     1       3.706  42.726  51.175  1.00  0.00     0.048 A 
ATOM     22  C   UNL     1       7.531  43.340  49.263  1.00  0.00     0.047 C 
BRANCH  19  23
ATOM     23  O   UNL     1       3.745  40.487  50.315  1.00  0.00    -0.508 OA
ATOM     24  H   UNL     1       3.540  40.134  51.195  1.00  0.00     0.293 HD
ENDBRANCH  19  23
ENDBRANCH  14  16
ENDBRANCH   5  14
ENDBRANCH   2   4
ENDBRANCH   1   2
BRANCH   1  25
ATOM     25  C   UNL     1       3.092  45.360  55.393  1.00  0.00     0.021 C 
BRANCH  25  26
ATOM     26  C   UNL     1       1.581  45.110  55.424  1.00  0.00     0.004 C 
BRANCH  26  27
ATOM     27  C   UNL     1       0.997  45.094  56.837  1.00  0.00     0.028 C 
BRANCH  27  28
ATOM     28  C   UNL     1       0.927  46.470  57.488  1.00  0.00     0.156 C 
BRANCH  28  29
ATOM     29  O   UNL     1       1.745  46.495  58.651  1.00  0.00    -0.396 OA
ATOM     30  H   UNL     1       2.664  46.632  58.360  1.00  0.00     0.210 HD
ENDBRANCH  28  29
ENDBRANCH  27  28
ENDBRANCH  26  27
ENDBRANCH  25  26
ENDBRANCH   1  25
TORSDOF 10
ENDMDL
MODEL 6
REMARK VINA RESULT:    -8.095      2.363      5.519
REMARK INTER + INTRA:         -13.795
REMARK INTER:                 -12.285
REMARK INTRA:                  -1.510
REMARK UNBOUND:                -1.441
REMARK SMILES Cc1cc(O)ccc1Nc1nc(NCCCCCO)nc2c1cnn2C
REMARK SMILES IDX 14 1 13 2 12 4 10 5 11 6 22 7 21 8 23 9 20 10 25 11 24 12
REMARK SMILES IDX 26 13 9 14 8 16 2 17 3 18 4 19 7 20 6 21 1 22 5 23 15 25
REMARK SMILES IDX 16 26 17 27 18 28 19 29
REMARK H PARENT 13 3 9 15 5 24 19 30
ROOT
ATOM      1  C   UNL     1       2.814  45.880  52.257  1.00  0.00     0.116 C 
ENDROOT
BRANCH   1   2
ATOM      2  N   UNL     1       3.497  44.598  52.262  1.00  0.00    -0.354 N 
ATOM      3  H   UNL     1       2.941  43.812  51.943  1.00  0.00     0.163 HD
BRANCH   2   4
ATOM      4  C   UNL     1       4.693  44.531  51.561  1.00  0.00     0.226 A 
ATOM      5  C   UNL     1       6.698  45.649  51.096  1.00  0.00     0.147 A 
ATOM      6  N   UNL     1       5.508  45.586  51.745  1.00  0.00    -0.195 NA
ATOM      7  C   UNL     1       7.030  44.600  50.237  1.00  0.00     0.082 A 
ATOM      8  C   UNL     1       6.115  43.572  50.130  1.00  0.00     0.165 A 
ATOM      9  C   UNL     1       8.082  44.225  49.374  1.00  0.00     0.149 A 
ATOM     10  N   UNL     1       4.941  43.480  50.769  1.00  0.00    -0.193 NA
ATOM     11  N   UNL     1       6.651  42.682  49.240  1.00  0.00    -0.250 N 
ATOM     12  N   UNL     1       7.862  43.053  48.764  1.00  0.00    -0.179 NA
ATOM     13  C   UNL     1       6.061  41.446  48.790  1.00  0.00     0.176 C 
BRANCH   5  14
ATOM     14  N   UNL     1       7.493  46.785  51.333  1.00  0.00    -0.339 N 
ATOM     15  H   UNL     1       6.907  47.589  51.118  1.00  0.00     0.168 HD
BRANCH  14  16
ATOM     16  C   UNL     1       8.269  47.013  52.490  1.00  0.00     0.043 A 
ATOM     17  C   UNL     1       9.619  46.625  52.603  1.00  0.00    -0.024 A 
ATOM     18  C   UNL     1      10.303  46.883  53.803  1.00  0.00     0.051 A 
ATOM     19  C   UNL     1       9.647  47.468  54.880  1.00  0.00     0.115 A 
ATOM     20  C   UNL     1       7.621  47.572  53.602  1.00  0.00     0.030 A 
ATOM     21  C   UNL     1       8.305  47.809  54.794  1.00  0.00     0.048 A 
ATOM     22  C   UNL     1      10.370  45.972  51.475  1.00  0.00     0.047 C 
BRANCH  19  23
ATOM     23  O   UNL     1      10.365  47.685  56.018  1.00  0.00    -0.508 OA
ATOM     24  H   UNL     1       9.748  47.877  56.743  1.00  0.00     0.293 HD
ENDBRANCH  19  23
ENDBRANCH  14  16
ENDBRANCH   5  14
ENDBRANCH   2   4
ENDBRANCH   1   2
BRANCH   1  25
ATOM     25  C   UNL     1       2.000  46.054  53.542  1.00  0.00     0.021 C 
BRANCH  25  26
ATOM     26  C   UNL     1       2.655  45.384  54.755  1.00  0.00     0.004 C 
BRANCH  26  27
ATOM     27  C   UNL     1       3.816  46.189  55.339  1.00  0.00     0.028 C 
BRANCH  27  28
ATOM     28  C   UNL     1       5.147  45.448  55.320  1.00  0.00     0.156 C 
BRANCH  28  29
ATOM     29  O   UNL     1       4.960  44.134  54.809  1.00  0.00    -0.396 OA
ATOM     30  H   UNL     1       5.546  43.539  55.308  1.00  0.00     0.210 HD
ENDBRANCH  28  29
ENDBRANCH  27  28
ENDBRANCH  26  27
ENDBRANCH  25  26
ENDBRANCH   1  25
TORSDOF 10
ENDMDL
MODEL 7
REMARK VINA RESULT:    -8.085      2.491      5.514
REMARK INTER + INTRA:         -13.780
REMARK INTER:                 -12.916
REMARK INTRA:                  -0.864
REMARK UNBOUND:                -1.441
REMARK SMILES Cc1cc(O)ccc1Nc1nc(NCCCCCO)nc2c1cnn2C
REMARK SMILES IDX 14 1 13 2 12 4 10 5 11 6 22 7 21 8 23 9 20 10 25 11 24 12
REMARK SMILES IDX 26 13 9 14 8 16 2 17 3 18 4 19 7 20 6 21 1 22 5 23 15 25
REMARK SMILES IDX 16 26 17 27 18 28 19 29
REMARK H PARENT 13 3 9 15 5 24 19 30
ROOT
ATOM      1  C   UNL     1       6.804  46.436  54.547  1.00  0.00     0.116 C 
ENDROOT
BRANCH   1   2
ATOM      2  N   UNL     1       5.533  46.979  54.993  1.00  0.00    -0.354 N 
ATOM      3  H   UNL     1       5.348  47.934  54.708  1.00  0.00     0.163 HD
BRANCH   2   4
ATOM      4  C   UNL     1       4.398  46.252  54.661  1.00  0.00     0.226 A 
ATOM      5  C   UNL     1       3.335  45.046  52.957  1.00  0.00     0.147 A 
ATOM      6  N   UNL     1       4.400  45.756  53.410  1.00  0.00    -0.195 NA
ATOM      7  C   UNL     1       2.255  44.865  53.822  1.00  0.00     0.082 A 
ATOM      8  C   UNL     1       2.368  45.419  55.082  1.00  0.00     0.165 A 
ATOM      9  C   UNL     1       0.985  44.252  53.822  1.00  0.00     0.149 A 
ATOM     10  N   UNL     1       3.413  46.113  55.557  1.00  0.00    -0.193 NA
ATOM     11  N   UNL     1       1.203  45.120  55.731  1.00  0.00    -0.250 N 
ATOM     12  N   UNL     1       0.336  44.398  54.984  1.00  0.00    -0.179 NA
ATOM     13  C   UNL     1       0.840  45.495  57.075  1.00  0.00     0.176 C 
BRANCH   5  14
ATOM     14  N   UNL     1       3.406  44.567  51.636  1.00  0.00    -0.339 N 
ATOM     15  H   UNL     1       3.349  45.386  51.035  1.00  0.00     0.168 HD
BRANCH  14  16
ATOM     16  C   UNL     1       4.357  43.643  51.152  1.00  0.00     0.043 A 
ATOM     17  C   UNL     1       5.595  44.027  50.599  1.00  0.00    -0.024 A 
ATOM     18  C   UNL     1       6.469  43.031  50.131  1.00  0.00     0.051 A 
ATOM     19  C   UNL     1       6.101  41.691  50.168  1.00  0.00     0.115 A 
ATOM     20  C   UNL     1       3.995  42.286  51.148  1.00  0.00     0.030 A 
ATOM     21  C   UNL     1       4.864  41.308  50.666  1.00  0.00     0.048 A 
ATOM     22  C   UNL     1       6.034  45.463  50.518  1.00  0.00     0.047 C 
BRANCH  19  23
ATOM     23  O   UNL     1       6.990  40.775  49.692  1.00  0.00    -0.508 OA
ATOM     24  H   UNL     1       7.890  41.080  49.892  1.00  0.00     0.293 HD
ENDBRANCH  19  23
ENDBRANCH  14  16
ENDBRANCH   5  14
ENDBRANCH   2   4
ENDBRANCH   1   2
BRANCH   1  25
ATOM     25  C   UNL     1       7.463  47.384  53.541  1.00  0.00     0.021 C 
BRANCH  25  26
ATOM     26  C   UNL     1       8.924  47.694  53.887  1.00  0.00     0.004 C 
BRANCH  26  27
ATOM     27  C   UNL     1       9.908  46.656  53.349  1.00  0.00     0.028 C 
BRANCH  27  28
ATOM     28  C   UNL     1       9.888  46.518  51.831  1.00  0.00     0.156 C 
BRANCH  28  29
ATOM     29  O   UNL     1      10.916  45.628  51.414  1.00  0.00    -0.396 OA
ATOM     30  H   UNL     1      11.284  45.975  50.583  1.00  0.00     0.210 HD
ENDBRANCH  28  29
ENDBRANCH  27  28
ENDBRANCH  26  27
ENDBRANCH  25  26
ENDBRANCH   1  25
TORSDOF 10
ENDMDL
MODEL 8
REMARK VINA RESULT:    -8.028      2.501      5.633
REMARK INTER + INTRA:         -13.693
REMARK INTER:                 -12.512
REMARK INTRA:                  -1.180
REMARK UNBOUND:                -1.441
REMARK SMILES Cc1cc(O)ccc1Nc1nc(NCCCCCO)nc2c1cnn2C
REMARK SMILES IDX 14 1 13 2 12 4 10 5 11 6 22 7 21 8 23 9 20 10 25 11 24 12
REMARK SMILES IDX 26 13 9 14 8 16 2 17 3 18 4 19 7 20 6 21 1 22 5 23 15 25
REMARK SMILES IDX 16 26 17 27 18 28 19 29
REMARK H PARENT 13 3 9 15 5 24 19 30
ROOT
ATOM      1  C   UNL     1       2.239  46.093  52.735  1.00  0.00     0.116 C 
ENDROOT
BRANCH   1   2
ATOM      2  N   UNL     1       3.244  45.193  53.270  1.00  0.00    -0.354 N 
ATOM      3  H   UNL     1       2.881  44.357  53.715  1.00  0.00     0.163 HD
BRANCH   2   4
ATOM      4  C   UNL     1       4.223  44.762  52.385  1.00  0.00     0.226 A 
ATOM      5  C   UNL     1       6.286  45.295  51.412  1.00  0.00     0.147 A 
ATOM      6  N   UNL     1       5.273  45.595  52.265  1.00  0.00    -0.195 NA
ATOM      7  C   UNL     1       6.190  44.116  50.672  1.00  0.00     0.082 A 
ATOM      8  C   UNL     1       5.067  43.341  50.881  1.00  0.00     0.165 A 
ATOM      9  C   UNL     1       6.929  43.408  49.701  1.00  0.00     0.149 A 
ATOM     10  N   UNL     1       4.060  43.607  51.725  1.00  0.00    -0.193 NA
ATOM     11  N   UNL     1       5.195  42.261  50.052  1.00  0.00    -0.250 N 
ATOM     12  N   UNL     1       6.332  42.271  49.319  1.00  0.00    -0.179 NA
ATOM     13  C   UNL     1       4.263  41.171  49.900  1.00  0.00     0.176 C 
BRANCH   5  14
ATOM     14  N   UNL     1       7.345  46.218  51.334  1.00  0.00    -0.339 N 
ATOM     15  H   UNL     1       6.983  47.020  50.824  1.00  0.00     0.168 HD
BRANCH  14  16
ATOM     16  C   UNL     1       8.157  46.624  52.416  1.00  0.00     0.043 A 
ATOM     17  C   UNL     1       9.544  46.383  52.474  1.00  0.00    -0.024 A 
ATOM     18  C   UNL     1      10.263  46.813  53.602  1.00  0.00     0.051 A 
ATOM     19  C   UNL     1       9.610  47.425  54.666  1.00  0.00     0.115 A 
ATOM     20  C   UNL     1       7.516  47.214  53.517  1.00  0.00     0.030 A 
ATOM     21  C   UNL     1       8.237  47.623  54.639  1.00  0.00     0.048 A 
ATOM     22  C   UNL     1      10.295  45.708  51.359  1.00  0.00     0.047 C 
BRANCH  19  23
ATOM     23  O   UNL     1      10.363  47.813  55.734  1.00  0.00    -0.508 OA
ATOM     24  H   UNL     1      10.193  48.753  55.911  1.00  0.00     0.293 HD
ENDBRANCH  19  23
ENDBRANCH  14  16
ENDBRANCH   5  14
ENDBRANCH   2   4
ENDBRANCH   1   2
BRANCH   1  25
ATOM     25  C   UNL     1       0.849  45.459  52.835  1.00  0.00     0.021 C 
BRANCH  25  26
ATOM     26  C   UNL     1       0.470  44.659  51.584  1.00  0.00     0.004 C 
BRANCH  26  27
ATOM     27  C   UNL     1       0.552  43.145  51.783  1.00  0.00     0.028 C 
BRANCH  27  28
ATOM     28  C   UNL     1       0.690  42.725  53.242  1.00  0.00     0.156 C 
BRANCH  28  29
ATOM     29  O   UNL     1       2.004  42.233  53.479  1.00  0.00    -0.396 OA
ATOM     30  H   UNL     1       2.039  41.320  53.147  1.00  0.00     0.210 HD
ENDBRANCH  28  29
ENDBRANCH  27  28
ENDBRANCH  26  27
ENDBRANCH  25  26
ENDBRANCH   1  25
TORSDOF 10
ENDMDL
MODEL 9
REMARK VINA RESULT:    -8.004      2.517      6.220
REMARK INTER + INTRA:         -13.656
REMARK INTER:                 -11.964
REMARK INTRA:                  -1.692
REMARK UNBOUND:                -1.441
REMARK SMILES Cc1cc(O)ccc1Nc1nc(NCCCCCO)nc2c1cnn2C
REMARK SMILES IDX 14 1 13 2 12 4 10 5 11 6 22 7 21 8 23 9 20 10 25 11 24 12
REMARK SMILES IDX 26 13 9 14 8 16 2 17 3 18 4 19 7 20 6 21 1 22 5 23 15 25
REMARK SMILES IDX 16 26 17 27 18 28 19 29
REMARK H PARENT 13 3 9 15 5 24 19 30
ROOT
ATOM      1  C   UNL     1       9.028  45.789  51.207  1.00  0.00     0.116 C 
ENDROOT
BRANCH   1   2
ATOM      2  N   UNL     1       7.741  46.390  50.905  1.00  0.00    -0.354 N 
ATOM      3  H   UNL     1       7.683  46.855  50.006  1.00  0.00     0.163 HD
BRANCH   2   4
ATOM      4  C   UNL     1       6.635  45.554  50.977  1.00  0.00     0.226 A 
ATOM      5  C   UNL     1       4.389  45.412  51.626  1.00  0.00     0.147 A 
ATOM      6  N   UNL     1       5.530  46.132  51.483  1.00  0.00    -0.195 NA
ATOM      7  C   UNL     1       4.411  44.070  51.243  1.00  0.00     0.082 A 
ATOM      8  C   UNL     1       5.601  43.588  50.736  1.00  0.00     0.165 A 
ATOM      9  C   UNL     1       3.541  42.960  51.208  1.00  0.00     0.149 A 
ATOM     10  N   UNL     1       6.737  44.281  50.573  1.00  0.00    -0.193 NA
ATOM     11  N   UNL     1       5.381  42.270  50.445  1.00  0.00    -0.250 N 
ATOM     12  N   UNL     1       4.122  41.858  50.718  1.00  0.00    -0.179 NA
ATOM     13  C   UNL     1       6.332  41.333  49.902  1.00  0.00     0.176 C 
BRANCH   5  14
ATOM     14  N   UNL     1       3.277  46.082  52.169  1.00  0.00    -0.339 N 
ATOM     15  H   UNL     1       2.585  46.128  51.425  1.00  0.00     0.168 HD
BRANCH  14  16
ATOM     16  C   UNL     1       2.675  45.788  53.412  1.00  0.00     0.043 A 
ATOM     17  C   UNL     1       1.319  45.430  53.547  1.00  0.00    -0.024 A 
ATOM     18  C   UNL     1       0.807  45.171  54.830  1.00  0.00     0.051 A 
ATOM     19  C   UNL     1       1.613  45.311  55.954  1.00  0.00     0.115 A 
ATOM     20  C   UNL     1       3.458  45.956  54.565  1.00  0.00     0.030 A 
ATOM     21  C   UNL     1       2.936  45.711  55.835  1.00  0.00     0.048 A 
ATOM     22  C   UNL     1       0.400  45.281  52.365  1.00  0.00     0.047 C 
BRANCH  19  23
ATOM     23  O   UNL     1       1.056  45.052  57.171  1.00  0.00    -0.508 OA
ATOM     24  H   UNL     1       1.563  45.522  57.853  1.00  0.00     0.293 HD
ENDBRANCH  19  23
ENDBRANCH  14  16
ENDBRANCH   5  14
ENDBRANCH   2   4
ENDBRANCH   1   2
BRANCH   1  25
ATOM     25  C   UNL     1       9.931  46.797  51.923  1.00  0.00     0.021 C 
BRANCH  25  26
ATOM     26  C   UNL     1       9.901  46.643  53.447  1.00  0.00     0.004 C 
BRANCH  26  27
ATOM     27  C   UNL     1       8.938  47.610  54.136  1.00  0.00     0.028 C 
BRANCH  27  28
ATOM     28  C   UNL     1       7.575  47.002  54.446  1.00  0.00     0.156 C 
BRANCH  28  29
ATOM     29  O   UNL     1       6.569  47.663  53.688  1.00  0.00    -0.396 OA
ATOM     30  H   UNL     1       6.467  47.178  52.851  1.00  0.00     0.210 HD
ENDBRANCH  28  29
ENDBRANCH  27  28
ENDBRANCH  26  27
ENDBRANCH  25  26
ENDBRANCH   1  25
TORSDOF 10
ENDMDL
MODEL 10
REMARK VINA RESULT:    -7.968      2.753      5.832
REMARK INTER + INTRA:         -13.601
REMARK INTER:                 -12.611
REMARK INTRA:                  -0.989
REMARK UNBOUND:                -1.441
REMARK SMILES Cc1cc(O)ccc1Nc1nc(NCCCCCO)nc2c1cnn2C
REMARK SMILES IDX 14 1 13 2 12 4 10 5 11 6 22 7 21 8 23 9 20 10 25 11 24 12
REMARK SMILES IDX 26 13 9 14 8 16 2 17 3 18 4 19 7 20 6 21 1 22 5 23 15 25
REMARK SMILES IDX 16 26 17 27 18 28 19 29
REMARK H PARENT 13 3 9 15 5 24 19 30
ROOT
ATOM      1  C   UNL     1       5.830  45.231  55.028  1.00  0.00     0.116 C 
ENDROOT
BRANCH   1   2
ATOM      2  N   UNL     1       4.570  45.475  55.708  1.00  0.00    -0.354 N 
ATOM      3  H   UNL     1       4.426  46.430  56.019  1.00  0.00     0.163 HD
BRANCH   2   4
ATOM      4  C   UNL     1       3.417  45.117  55.024  1.00  0.00     0.226 A 
ATOM      5  C   UNL     1       2.553  44.478  52.943  1.00  0.00     0.147 A 
ATOM      6  N   UNL     1       3.608  44.822  53.725  1.00  0.00    -0.195 NA
ATOM      7  C   UNL     1       1.286  44.455  53.528  1.00  0.00     0.082 A 
ATOM      8  C   UNL     1       1.215  44.774  54.869  1.00  0.00     0.165 A 
ATOM      9  C   UNL     1      -0.050  44.191  53.159  1.00  0.00     0.149 A 
ATOM     10  N   UNL     1       2.241  45.104  55.665  1.00  0.00    -0.193 NA
ATOM     11  N   UNL     1      -0.108  44.691  55.206  1.00  0.00    -0.250 N 
ATOM     12  N   UNL     1      -0.908  44.328  54.178  1.00  0.00    -0.179 NA
ATOM     13  C   UNL     1      -0.689  44.947  56.500  1.00  0.00     0.176 C 
BRANCH   5  14
ATOM     14  N   UNL     1       2.828  44.192  51.593  1.00  0.00    -0.339 N 
ATOM     15  H   UNL     1       2.778  45.081  51.100  1.00  0.00     0.168 HD
BRANCH  14  16
ATOM     16  C   UNL     1       3.908  43.410  51.128  1.00  0.00     0.043 A 
ATOM     17  C   UNL     1       5.140  43.959  50.720  1.00  0.00    -0.024 A 
ATOM     18  C   UNL     1       6.149  43.098  50.257  1.00  0.00     0.051 A 
ATOM     19  C   UNL     1       5.921  41.730  50.158  1.00  0.00     0.115 A 
ATOM     20  C   UNL     1       3.691  42.030  50.987  1.00  0.00     0.030 A 
ATOM     21  C   UNL     1       4.695  41.186  50.511  1.00  0.00     0.048 A 
ATOM     22  C   UNL     1       5.431  45.433  50.790  1.00  0.00     0.047 C 
BRANCH  19  23
ATOM     23  O   UNL     1       6.938  40.949  49.695  1.00  0.00    -0.508 OA
ATOM     24  H   UNL     1       6.559  40.176  49.247  1.00  0.00     0.293 HD
ENDBRANCH  19  23
ENDBRANCH  14  16
ENDBRANCH   5  14
ENDBRANCH   2   4
ENDBRANCH   1   2
BRANCH   1  25
ATOM     25  C   UNL     1       6.476  46.556  54.614  1.00  0.00     0.021 C 
BRANCH  25  26
ATOM     26  C   UNL     1       7.619  46.371  53.610  1.00  0.00     0.004 C 
BRANCH  26  27
ATOM     27  C   UNL     1       8.562  47.572  53.535  1.00  0.00     0.028 C 
BRANCH  27  28
ATOM     28  C   UNL     1       9.532  47.664  54.708  1.00  0.00     0.156 C 
BRANCH  28  29
ATOM     29  O   UNL     1       9.126  48.705  55.588  1.00  0.00    -0.396 OA
ATOM     30  H   UNL     1       8.998  49.508  55.053  1.00  0.00     0.210 HD
ENDBRANCH  28  29
ENDBRANCH  27  28
ENDBRANCH  26  27
ENDBRANCH  25  26
ENDBRANCH   1  25
TORSDOF 10
ENDMDL
MODEL 11
REMARK VINA RESULT:    -7.943      3.212      6.106
REMARK INTER + INTRA:         -13.564
REMARK INTER:                 -12.803
REMARK INTRA:                  -0.761
REMARK UNBOUND:                -1.441
REMARK SMILES Cc1cc(O)ccc1Nc1nc(NCCCCCO)nc2c1cnn2C
REMARK SMILES IDX 14 1 13 2 12 4 10 5 11 6 22 7 21 8 23 9 20 10 25 11 24 12
REMARK SMILES IDX 26 13 9 14 8 16 2 17 3 18 4 19 7 20 6 21 1 22 5 23 15 25
REMARK SMILES IDX 16 26 17 27 18 28 19 29
REMARK H PARENT 13 3 9 15 5 24 19 30
ROOT
ATOM      1  C   UNL     1       8.033  46.464  51.241  1.00  0.00     0.116 C 
ENDROOT
BRANCH   1   2
ATOM      2  N   UNL     1       7.904  45.378  50.286  1.00  0.00    -0.354 N 
ATOM      3  H   UNL     1       8.739  44.815  50.157  1.00  0.00     0.163 HD
BRANCH   2   4
ATOM      4  C   UNL     1       6.867  44.481  50.504  1.00  0.00     0.226 A 
ATOM      5  C   UNL     1       5.886  42.483  49.774  1.00  0.00     0.147 A 
ATOM      6  N   UNL     1       6.864  43.421  49.676  1.00  0.00    -0.195 NA
ATOM      7  C   UNL     1       4.899  42.669  50.742  1.00  0.00     0.082 A 
ATOM      8  C   UNL     1       5.008  43.794  51.534  1.00  0.00     0.165 A 
ATOM      9  C   UNL     1       3.732  42.025  51.206  1.00  0.00     0.149 A 
ATOM     10  N   UNL     1       5.969  44.726  51.467  1.00  0.00    -0.193 NA
ATOM     11  N   UNL     1       3.939  43.760  52.387  1.00  0.00    -0.250 N 
ATOM     12  N   UNL     1       3.141  42.682  52.214  1.00  0.00    -0.179 NA
ATOM     13  C   UNL     1       3.609  44.731  53.400  1.00  0.00     0.176 C 
BRANCH   5  14
ATOM     14  N   UNL     1       5.944  41.407  48.869  1.00  0.00    -0.339 N 
ATOM     15  H   UNL     1       5.845  40.563  49.429  1.00  0.00     0.168 HD
BRANCH  14  16
ATOM     16  C   UNL     1       5.211  41.312  47.666  1.00  0.00     0.043 A 
ATOM     17  C   UNL     1       4.045  40.533  47.532  1.00  0.00    -0.024 A 
ATOM     18  C   UNL     1       3.394  40.490  46.287  1.00  0.00     0.051 A 
ATOM     19  C   UNL     1       3.917  41.168  45.192  1.00  0.00     0.115 A 
ATOM     20  C   UNL     1       5.737  41.959  46.537  1.00  0.00     0.030 A 
ATOM     21  C   UNL     1       5.092  41.898  45.302  1.00  0.00     0.048 A 
ATOM     22  C   UNL     1       3.447  39.767  48.680  1.00  0.00     0.047 C 
BRANCH  19  23
ATOM     23  O   UNL     1       3.243  41.081  44.011  1.00  0.00    -0.508 OA
ATOM     24  H   UNL     1       2.644  40.317  44.048  1.00  0.00     0.293 HD
ENDBRANCH  19  23
ENDBRANCH  14  16
ENDBRANCH   5  14
ENDBRANCH   2   4
ENDBRANCH   1   2
BRANCH   1  25
ATOM     25  C   UNL     1       9.508  46.707  51.575  1.00  0.00     0.021 C 
BRANCH  25  26
ATOM     26  C   UNL     1       9.856  46.348  53.023  1.00  0.00     0.004 C 
BRANCH  26  27
ATOM     27  C   UNL     1       9.773  47.538  53.980  1.00  0.00     0.028 C 
BRANCH  27  28
ATOM     28  C   UNL     1      10.448  47.294  55.324  1.00  0.00     0.156 C 
BRANCH  28  29
ATOM     29  O   UNL     1      10.044  48.291  56.254  1.00  0.00    -0.396 OA
ATOM     30  H   UNL     1       9.202  48.001  56.648  1.00  0.00     0.210 HD
ENDBRANCH  28  29
ENDBRANCH  27  28
ENDBRANCH  26  27
ENDBRANCH  25  26
ENDBRANCH   1  25
TORSDOF 10
ENDMDL
MODEL 12
REMARK VINA RESULT:    -7.784      3.253      7.340
REMARK INTER + INTRA:         -13.321
REMARK INTER:                 -12.741
REMARK INTRA:                  -0.580
REMARK UNBOUND:                -1.441
REMARK SMILES Cc1cc(O)ccc1Nc1nc(NCCCCCO)nc2c1cnn2C
REMARK SMILES IDX 14 1 13 2 12 4 10 5 11 6 22 7 21 8 23 9 20 10 25 11 24 12
REMARK SMILES IDX 26 13 9 14 8 16 2 17 3 18 4 19 7 20 6 21 1 22 5 23 15 25
REMARK SMILES IDX 16 26 17 27 18 28 19 29
REMARK H PARENT 13 3 9 15 5 24 19 30
ROOT
ATOM      1  C   UNL     1       5.632  41.379  48.594  1.00  0.00     0.116 C 
ENDROOT
BRANCH   1   2
ATOM      2  N   UNL     1       6.558  42.049  49.489  1.00  0.00    -0.354 N 
ATOM      3  H   UNL     1       7.378  42.447  49.043  1.00  0.00     0.163 HD
BRANCH   2   4
ATOM      4  C   UNL     1       6.030  43.055  50.287  1.00  0.00     0.226 A 
ATOM      5  C   UNL     1       6.406  45.197  51.156  1.00  0.00     0.147 A 
ATOM      6  N   UNL     1       6.802  44.152  50.386  1.00  0.00    -0.195 NA
ATOM      7  C   UNL     1       5.192  45.083  51.837  1.00  0.00     0.082 A 
ATOM      8  C   UNL     1       4.487  43.910  51.657  1.00  0.00     0.165 A 
ATOM      9  C   UNL     1       4.395  45.840  52.721  1.00  0.00     0.149 A 
ATOM     10  N   UNL     1       4.850  42.871  50.893  1.00  0.00    -0.193 NA
ATOM     11  N   UNL     1       3.357  44.030  52.419  1.00  0.00    -0.250 N 
ATOM     12  N   UNL     1       3.270  45.208  53.079  1.00  0.00    -0.179 NA
ATOM     13  C   UNL     1       2.308  43.053  52.570  1.00  0.00     0.176 C 
BRANCH   5  14
ATOM     14  N   UNL     1       7.269  46.307  51.217  1.00  0.00    -0.339 N 
ATOM     15  H   UNL     1       6.728  47.103  50.885  1.00  0.00     0.168 HD
BRANCH  14  16
ATOM     16  C   UNL     1       8.070  46.658  52.325  1.00  0.00     0.043 A 
ATOM     17  C   UNL     1       9.459  46.429  52.377  1.00  0.00    -0.024 A 
ATOM     18  C   UNL     1      10.167  46.801  53.532  1.00  0.00     0.051 A 
ATOM     19  C   UNL     1       9.502  47.344  54.625  1.00  0.00     0.115 A 
ATOM     20  C   UNL     1       7.417  47.178  53.454  1.00  0.00     0.030 A 
ATOM     21  C   UNL     1       8.128  47.529  54.602  1.00  0.00     0.048 A 
ATOM     22  C   UNL     1      10.223  45.827  51.230  1.00  0.00     0.047 C 
BRANCH  19  23
ATOM     23  O   UNL     1      10.245  47.678  55.718  1.00  0.00    -0.508 OA
ATOM     24  H   UNL     1      10.871  46.959  55.902  1.00  0.00     0.293 HD
ENDBRANCH  19  23
ENDBRANCH  14  16
ENDBRANCH   5  14
ENDBRANCH   2   4
ENDBRANCH   1   2
BRANCH   1  25
ATOM     25  C   UNL     1       5.769  41.935  47.173  1.00  0.00     0.021 C 
BRANCH  25  26
ATOM     26  C   UNL     1       4.815  41.264  46.179  1.00  0.00     0.004 C 
BRANCH  26  27
ATOM     27  C   UNL     1       5.104  41.627  44.722  1.00  0.00     0.028 C 
BRANCH  27  28
ATOM     28  C   UNL     1       5.341  40.418  43.824  1.00  0.00     0.156 C 
BRANCH  28  29
ATOM     29  O   UNL     1       5.766  40.851  42.537  1.00  0.00    -0.396 OA
ATOM     30  H   UNL     1       5.308  40.301  41.877  1.00  0.00     0.210 HD
ENDBRANCH  28  29
ENDBRANCH  27  28
ENDBRANCH  26  27
ENDBRANCH  25  26
ENDBRANCH   1  25
TORSDOF 10
ENDMDL
MODEL 13
REMARK VINA RESULT:    -7.665      2.510      5.685
REMARK INTER + INTRA:         -13.139
REMARK INTER:                 -11.766
REMARK INTRA:                  -1.373
REMARK UNBOUND:                -1.441
REMARK SMILES Cc1cc(O)ccc1Nc1nc(NCCCCCO)nc2c1cnn2C
REMARK SMILES IDX 14 1 13 2 12 4 10 5 11 6 22 7 21 8 23 9 20 10 25 11 24 12
REMARK SMILES IDX 26 13 9 14 8 16 2 17 3 18 4 19 7 20 6 21 1 22 5 23 15 25
REMARK SMILES IDX 16 26 17 27 18 28 19 29
REMARK H PARENT 13 3 9 15 5 24 19 30
ROOT
ATOM      1  C   UNL     1       1.853  43.515  52.367  1.00  0.00     0.116 C 
ENDROOT
BRANCH   1   2
ATOM      2  N   UNL     1       3.185  43.360  52.922  1.00  0.00    -0.354 N 
ATOM      3  H   UNL     1       3.370  42.462  53.355  1.00  0.00     0.163 HD
BRANCH   2   4
ATOM      4  C   UNL     1       4.247  43.596  52.059  1.00  0.00     0.226 A 
ATOM      5  C   UNL     1       5.904  45.134  51.449  1.00  0.00     0.147 A 
ATOM      6  N   UNL     1       4.865  44.777  52.245  1.00  0.00    -0.195 NA
ATOM      7  C   UNL     1       6.290  44.248  50.441  1.00  0.00     0.082 A 
ATOM      8  C   UNL     1       5.582  43.067  50.348  1.00  0.00     0.165 A 
ATOM      9  C   UNL     1       7.245  44.168  49.406  1.00  0.00     0.149 A 
ATOM     10  N   UNL     1       4.562  42.685  51.129  1.00  0.00    -0.193 NA
ATOM     11  N   UNL     1       6.131  42.380  49.300  1.00  0.00    -0.250 N 
ATOM     12  N   UNL     1       7.159  43.029  48.706  1.00  0.00    -0.179 NA
ATOM     13  C   UNL     1       5.723  41.091  48.802  1.00  0.00     0.176 C 
BRANCH   5  14
ATOM     14  N   UNL     1       6.495  46.387  51.697  1.00  0.00    -0.339 N 
ATOM     15  H   UNL     1       5.726  47.037  51.843  1.00  0.00     0.168 HD
BRANCH  14  16
ATOM     16  C   UNL     1       7.548  46.627  52.607  1.00  0.00     0.043 A 
ATOM     17  C   UNL     1       7.338  47.001  53.949  1.00  0.00    -0.024 A 
ATOM     18  C   UNL     1       8.453  47.233  54.773  1.00  0.00     0.051 A 
ATOM     19  C   UNL     1       9.742  47.141  54.261  1.00  0.00     0.115 A 
ATOM     20  C   UNL     1       8.858  46.573  52.106  1.00  0.00     0.030 A 
ATOM     21  C   UNL     1       9.957  46.820  52.929  1.00  0.00     0.048 A 
ATOM     22  C   UNL     1       5.965  47.133  54.547  1.00  0.00     0.047 C 
BRANCH  19  23
ATOM     23  O   UNL     1      10.781  47.384  55.110  1.00  0.00    -0.508 OA
ATOM     24  H   UNL     1      10.441  47.844  55.895  1.00  0.00     0.293 HD
ENDBRANCH  19  23
ENDBRANCH  14  16
ENDBRANCH   5  14
ENDBRANCH   2   4
ENDBRANCH   1   2
BRANCH   1  25
ATOM     25  C   UNL     1       1.089  44.611  53.115  1.00  0.00     0.021 C 
BRANCH  25  26
ATOM     26  C   UNL     1       0.788  44.238  54.571  1.00  0.00     0.004 C 
BRANCH  26  27
ATOM     27  C   UNL     1       1.231  45.303  55.574  1.00  0.00     0.028 C 
BRANCH  27  28
ATOM     28  C   UNL     1       2.674  45.758  55.389  1.00  0.00     0.156 C 
BRANCH  28  29
ATOM     29  O   UNL     1       3.556  44.664  55.612  1.00  0.00    -0.396 OA
ATOM     30  H   UNL     1       3.380  44.322  56.506  1.00  0.00     0.210 HD
ENDBRANCH  28  29
ENDBRANCH  27  28
ENDBRANCH  26  27
ENDBRANCH  25  26
ENDBRANCH   1  25
TORSDOF 10
ENDMDL
MODEL 14
REMARK VINA RESULT:    -7.626      2.594      6.181
REMARK INTER + INTRA:         -13.079
REMARK INTER:                 -12.069
REMARK INTRA:                  -1.010
REMARK UNBOUND:                -1.441
REMARK SMILES Cc1cc(O)ccc1Nc1nc(NCCCCCO)nc2c1cnn2C
REMARK SMILES IDX 14 1 13 2 12 4 10 5 11 6 22 7 21 8 23 9 20 10 25 11 24 12
REMARK SMILES IDX 26 13 9 14 8 16 2 17 3 18 4 19 7 20 6 21 1 22 5 23 15 25
REMARK SMILES IDX 16 26 17 27 18 28 19 29
REMARK H PARENT 13 3 9 15 5 24 19 30
ROOT
ATOM      1  C   UNL     1       8.167  46.334  51.192  1.00  0.00     0.116 C 
ENDROOT
BRANCH   1   2
ATOM      2  N   UNL     1       6.866  46.330  51.836  1.00  0.00    -0.354 N 
ATOM      3  H   UNL     1       6.270  47.119  51.609  1.00  0.00     0.163 HD
BRANCH   2   4
ATOM      4  C   UNL     1       6.088  45.196  51.652  1.00  0.00     0.226 A 
ATOM      5  C   UNL     1       4.316  43.934  52.522  1.00  0.00     0.147 A 
ATOM      6  N   UNL     1       5.129  45.020  52.580  1.00  0.00    -0.195 NA
ATOM      7  C   UNL     1       4.519  43.020  51.487  1.00  0.00     0.082 A 
ATOM      8  C   UNL     1       5.532  43.307  50.594  1.00  0.00     0.165 A 
ATOM      9  C   UNL     1       3.981  41.800  51.026  1.00  0.00     0.149 A 
ATOM     10  N   UNL     1       6.339  44.377  50.621  1.00  0.00    -0.193 NA
ATOM     11  N   UNL     1       5.542  42.280  49.692  1.00  0.00    -0.250 N 
ATOM     12  N   UNL     1       4.595  41.342  49.928  1.00  0.00    -0.179 NA
ATOM     13  C   UNL     1       6.433  42.121  48.570  1.00  0.00     0.176 C 
BRANCH   5  14
ATOM     14  N   UNL     1       3.343  43.814  53.531  1.00  0.00    -0.339 N 
ATOM     15  H   UNL     1       3.625  44.452  54.272  1.00  0.00     0.168 HD
BRANCH  14  16
ATOM     16  C   UNL     1       1.947  43.850  53.328  1.00  0.00     0.043 A 
ATOM     17  C   UNL     1       1.246  45.026  52.994  1.00  0.00    -0.024 A 
ATOM     18  C   UNL     1      -0.148  44.963  52.826  1.00  0.00     0.051 A 
ATOM     19  C   UNL     1      -0.832  43.771  53.033  1.00  0.00     0.115 A 
ATOM     20  C   UNL     1       1.229  42.667  53.563  1.00  0.00     0.030 A 
ATOM     21  C   UNL     1      -0.157  42.619  53.409  1.00  0.00     0.048 A 
ATOM     22  C   UNL     1       1.935  46.345  52.777  1.00  0.00     0.047 C 
BRANCH  19  23
ATOM     23  O   UNL     1      -2.185  43.777  52.862  1.00  0.00    -0.508 OA
ATOM     24  H   UNL     1      -2.415  44.468  52.219  1.00  0.00     0.293 HD
ENDBRANCH  19  23
ENDBRANCH  14  16
ENDBRANCH   5  14
ENDBRANCH   2   4
ENDBRANCH   1   2
BRANCH   1  25
ATOM     25  C   UNL     1       9.068  47.402  51.820  1.00  0.00     0.021 C 
BRANCH  25  26
ATOM     26  C   UNL     1      10.169  46.804  52.703  1.00  0.00     0.004 C 
BRANCH  26  27
ATOM     27  C   UNL     1       9.901  46.966  54.199  1.00  0.00     0.028 C 
BRANCH  27  28
ATOM     28  C   UNL     1       8.795  47.964  54.521  1.00  0.00     0.156 C 
BRANCH  28  29
ATOM     29  O   UNL     1       7.602  47.269  54.860  1.00  0.00    -0.396 OA
ATOM     30  H   UNL     1       7.096  47.834  55.469  1.00  0.00     0.210 HD
ENDBRANCH  28  29
ENDBRANCH  27  28
ENDBRANCH  26  27
ENDBRANCH  25  26
ENDBRANCH   1  25
TORSDOF 10
ENDMDL
MODEL 15
REMARK VINA RESULT:    -7.603      1.823      4.691
REMARK INTER + INTRA:         -13.044
REMARK INTER:                 -11.596
REMARK INTRA:                  -1.448
REMARK UNBOUND:                -1.441
REMARK SMILES Cc1cc(O)ccc1Nc1nc(NCCCCCO)nc2c1cnn2C
REMARK SMILES IDX 14 1 13 2 12 4 10 5 11 6 22 7 21 8 23 9 20 10 25 11 24 12
REMARK SMILES IDX 26 13 9 14 8 16 2 17 3 18 4 19 7 20 6 21 1 22 5 23 15 25
REMARK SMILES IDX 16 26 17 27 18 28 19 29
REMARK H PARENT 13 3 9 15 5 24 19 30
ROOT
ATOM      1  C   UNL     1       8.148  43.922  49.551  1.00  0.00     0.116 C 
ENDROOT
BRANCH   1   2
ATOM      2  N   UNL     1       7.617  45.273  49.594  1.00  0.00    -0.354 N 
ATOM      3  H   UNL     1       6.818  45.442  48.993  1.00  0.00     0.163 HD
BRANCH   2   4
ATOM      4  C   UNL     1       7.267  45.761  50.845  1.00  0.00     0.226 A 
ATOM      5  C   UNL     1       5.473  46.384  52.217  1.00  0.00     0.147 A 
ATOM      6  N   UNL     1       5.942  45.895  51.041  1.00  0.00    -0.195 NA
ATOM      7  C   UNL     1       6.405  46.746  53.192  1.00  0.00     0.082 A 
ATOM      8  C   UNL     1       7.736  46.562  52.878  1.00  0.00     0.165 A 
ATOM      9  C   UNL     1       6.423  47.284  54.496  1.00  0.00     0.149 A 
ATOM     10  N   UNL     1       8.224  46.070  51.730  1.00  0.00    -0.193 NA
ATOM     11  N   UNL     1       8.443  46.989  53.968  1.00  0.00    -0.250 N 
ATOM     12  N   UNL     1       7.663  47.432  54.981  1.00  0.00    -0.179 NA
ATOM     13  C   UNL     1       9.877  47.008  54.116  1.00  0.00     0.176 C 
BRANCH   5  14
ATOM     14  N   UNL     1       4.077  46.503  52.346  1.00  0.00    -0.339 N 
ATOM     15  H   UNL     1       3.791  47.206  51.668  1.00  0.00     0.168 HD
BRANCH  14  16
ATOM     16  C   UNL     1       3.166  45.426  52.381  1.00  0.00     0.043 A 
ATOM     17  C   UNL     1       2.859  44.711  53.557  1.00  0.00    -0.024 A 
ATOM     18  C   UNL     1       1.949  43.643  53.487  1.00  0.00     0.051 A 
ATOM     19  C   UNL     1       1.394  43.265  52.269  1.00  0.00     0.115 A 
ATOM     20  C   UNL     1       2.618  45.003  51.160  1.00  0.00     0.030 A 
ATOM     21  C   UNL     1       1.727  43.931  51.099  1.00  0.00     0.048 A 
ATOM     22  C   UNL     1       3.446  45.068  54.895  1.00  0.00     0.047 C 
BRANCH  19  23
ATOM     23  O   UNL     1       0.523  42.217  52.267  1.00  0.00    -0.508 OA
ATOM     24  H   UNL     1       0.109  42.156  51.391  1.00  0.00     0.293 HD
ENDBRANCH  19  23
ENDBRANCH  14  16
ENDBRANCH   5  14
ENDBRANCH   2   4
ENDBRANCH   1   2
BRANCH   1  25
ATOM     25  C   UNL     1       7.169  42.989  48.832  1.00  0.00     0.021 C 
BRANCH  25  26
ATOM     26  C   UNL     1       6.495  41.992  49.779  1.00  0.00     0.004 C 
BRANCH  26  27
ATOM     27  C   UNL     1       5.138  42.469  50.298  1.00  0.00     0.028 C 
BRANCH  27  28
ATOM     28  C   UNL     1       4.423  41.449  51.176  1.00  0.00     0.156 C 
BRANCH  28  29
ATOM     29  O   UNL     1       3.580  40.630  50.375  1.00  0.00    -0.396 OA
ATOM     30  H   UNL     1       3.527  41.039  49.494  1.00  0.00     0.210 HD
ENDBRANCH  28  29
ENDBRANCH  27  28
ENDBRANCH  26  27
ENDBRANCH  25  26
ENDBRANCH   1  25
TORSDOF 10
ENDMDL
MODEL 16
REMARK VINA RESULT:    -7.567      2.873      6.881
REMARK INTER + INTRA:         -12.989
REMARK INTER:                 -11.803
REMARK INTRA:                  -1.187
REMARK UNBOUND:                -1.441
REMARK SMILES Cc1cc(O)ccc1Nc1nc(NCCCCCO)nc2c1cnn2C
REMARK SMILES IDX 14 1 13 2 12 4 10 5 11 6 22 7 21 8 23 9 20 10 25 11 24 12
REMARK SMILES IDX 26 13 9 14 8 16 2 17 3 18 4 19 7 20 6 21 1 22 5 23 15 25
REMARK SMILES IDX 16 26 17 27 18 28 19 29
REMARK H PARENT 13 3 9 15 5 24 19 30
ROOT
ATOM      1  C   UNL     1       4.387  41.392  49.786  1.00  0.00     0.116 C 
ENDROOT
BRANCH   1   2
ATOM      2  N   UNL     1       4.550  41.645  51.206  1.00  0.00    -0.354 N 
ATOM      3  H   UNL     1       5.511  41.672  51.532  1.00  0.00     0.163 HD
BRANCH   2   4
ATOM      4  C   UNL     1       3.944  42.790  51.705  1.00  0.00     0.226 A 
ATOM      5  C   UNL     1       4.186  45.100  52.009  1.00  0.00     0.147 A 
ATOM      6  N   UNL     1       4.662  43.917  51.543  1.00  0.00    -0.195 NA
ATOM      7  C   UNL     1       2.952  45.097  52.660  1.00  0.00     0.082 A 
ATOM      8  C   UNL     1       2.307  43.880  52.764  1.00  0.00     0.165 A 
ATOM      9  C   UNL     1       2.084  46.009  53.297  1.00  0.00     0.149 A 
ATOM     10  N   UNL     1       2.749  42.702  52.302  1.00  0.00    -0.193 NA
ATOM     11  N   UNL     1       1.142  44.128  53.436  1.00  0.00    -0.250 N 
ATOM     12  N   UNL     1       0.974  45.428  53.770  1.00  0.00    -0.179 NA
ATOM     13  C   UNL     1       0.132  43.166  53.800  1.00  0.00     0.176 C 
BRANCH   5  14
ATOM     14  N   UNL     1       4.996  46.233  51.811  1.00  0.00    -0.339 N 
ATOM     15  H   UNL     1       4.398  47.039  51.978  1.00  0.00     0.168 HD
BRANCH  14  16
ATOM     16  C   UNL     1       6.280  46.426  52.363  1.00  0.00     0.043 A 
ATOM     17  C   UNL     1       6.497  46.786  53.708  1.00  0.00    -0.024 A 
ATOM     18  C   UNL     1       7.815  46.970  54.160  1.00  0.00     0.051 A 
ATOM     19  C   UNL     1       8.887  46.845  53.284  1.00  0.00     0.115 A 
ATOM     20  C   UNL     1       7.377  46.339  51.491  1.00  0.00     0.030 A 
ATOM     21  C   UNL     1       8.681  46.539  51.947  1.00  0.00     0.048 A 
ATOM     22  C   UNL     1       5.371  46.952  54.692  1.00  0.00     0.047 C 
BRANCH  19  23
ATOM     23  O   UNL     1      10.140  47.043  53.783  1.00  0.00    -0.508 OA
ATOM     24  H   UNL     1      10.533  47.815  53.343  1.00  0.00     0.293 HD
ENDBRANCH  19  23
ENDBRANCH  14  16
ENDBRANCH   5  14
ENDBRANCH   2   4
ENDBRANCH   1   2
BRANCH   1  25
ATOM     25  C   UNL     1       5.754  41.241  49.111  1.00  0.00     0.021 C 
BRANCH  25  26
ATOM     26  C   UNL     1       6.366  42.586  48.704  1.00  0.00     0.004 C 
BRANCH  26  27
ATOM     27  C   UNL     1       7.524  43.022  49.602  1.00  0.00     0.028 C 
BRANCH  27  28
ATOM     28  C   UNL     1       8.446  44.051  48.958  1.00  0.00     0.156 C 
BRANCH  28  29
ATOM     29  O   UNL     1       9.677  44.106  49.669  1.00  0.00    -0.396 OA
ATOM     30  H   UNL     1       9.755  44.999  50.049  1.00  0.00     0.210 HD
ENDBRANCH  28  29
ENDBRANCH  27  28
ENDBRANCH  26  27
ENDBRANCH  25  26
ENDBRANCH   1  25
TORSDOF 10
ENDMDL
MODEL 17
REMARK VINA RESULT:    -7.476      2.615      5.797
REMARK INTER + INTRA:         -12.851
REMARK INTER:                 -11.680
REMARK INTRA:                  -1.171
REMARK UNBOUND:                -1.441
REMARK SMILES Cc1cc(O)ccc1Nc1nc(NCCCCCO)nc2c1cnn2C
REMARK SMILES IDX 14 1 13 2 12 4 10 5 11 6 22 7 21 8 23 9 20 10 25 11 24 12
REMARK SMILES IDX 26 13 9 14 8 16 2 17 3 18 4 19 7 20 6 21 1 22 5 23 15 25
REMARK SMILES IDX 16 26 17 27 18 28 19 29
REMARK H PARENT 13 3 9 15 5 24 19 30
ROOT
ATOM      1  C   UNL     1       1.662  45.227  51.577  1.00  0.00     0.116 C 
ENDROOT
BRANCH   1   2
ATOM      2  N   UNL     1       2.637  44.333  52.176  1.00  0.00    -0.354 N 
ATOM      3  H   UNL     1       2.354  43.361  52.231  1.00  0.00     0.163 HD
BRANCH   2   4
ATOM      4  C   UNL     1       3.905  44.332  51.611  1.00  0.00     0.226 A 
ATOM      5  C   UNL     1       5.872  45.572  51.333  1.00  0.00     0.147 A 
ATOM      6  N   UNL     1       4.624  45.443  51.851  1.00  0.00    -0.195 NA
ATOM      7  C   UNL     1       6.364  44.529  50.547  1.00  0.00     0.082 A 
ATOM      8  C   UNL     1       5.536  43.439  50.371  1.00  0.00     0.165 A 
ATOM      9  C   UNL     1       7.526  44.208  49.815  1.00  0.00     0.149 A 
ATOM     10  N   UNL     1       4.306  43.282  50.882  1.00  0.00    -0.193 NA
ATOM     11  N   UNL     1       6.223  42.568  49.572  1.00  0.00    -0.250 N 
ATOM     12  N   UNL     1       7.452  43.010  49.219  1.00  0.00    -0.179 NA
ATOM     13  C   UNL     1       5.767  41.286  49.097  1.00  0.00     0.176 C 
BRANCH   5  14
ATOM     14  N   UNL     1       6.560  46.765  51.621  1.00  0.00    -0.339 N 
ATOM     15  H   UNL     1       5.849  47.487  51.710  1.00  0.00     0.168 HD
BRANCH  14  16
ATOM     16  C   UNL     1       7.563  46.913  52.603  1.00  0.00     0.043 A 
ATOM     17  C   UNL     1       7.283  47.108  53.970  1.00  0.00    -0.024 A 
ATOM     18  C   UNL     1       8.352  47.260  54.870  1.00  0.00     0.051 A 
ATOM     19  C   UNL     1       9.665  47.264  54.413  1.00  0.00     0.115 A 
ATOM     20  C   UNL     1       8.896  46.954  52.164  1.00  0.00     0.030 A 
ATOM     21  C   UNL     1       9.949  47.121  53.063  1.00  0.00     0.048 A 
ATOM     22  C   UNL     1       5.880  47.130  54.513  1.00  0.00     0.047 C 
BRANCH  19  23
ATOM     23  O   UNL     1      10.657  47.423  55.335  1.00  0.00    -0.508 OA
ATOM     24  H   UNL     1      11.046  46.554  55.527  1.00  0.00     0.293 HD
ENDBRANCH  19  23
ENDBRANCH  14  16
ENDBRANCH   5  14
ENDBRANCH   2   4
ENDBRANCH   1   2
BRANCH   1  25
ATOM     25  C   UNL     1       0.381  45.255  52.416  1.00  0.00     0.021 C 
BRANCH  25  26
ATOM     26  C   UNL     1       0.539  44.547  53.765  1.00  0.00     0.004 C 
BRANCH  26  27
ATOM     27  C   UNL     1      -0.422  43.372  53.950  1.00  0.00     0.028 C 
BRANCH  27  28
ATOM     28  C   UNL     1       0.196  42.017  53.625  1.00  0.00     0.156 C 
BRANCH  28  29
ATOM     29  O   UNL     1       1.615  42.123  53.622  1.00  0.00    -0.396 OA
ATOM     30  H   UNL     1       1.973  41.267  53.917  1.00  0.00     0.210 HD
ENDBRANCH  28  29
ENDBRANCH  27  28
ENDBRANCH  26  27
ENDBRANCH  25  26
ENDBRANCH   1  25
TORSDOF 10
ENDMDL
MODEL 18
REMARK VINA RESULT:    -7.437      2.676      5.678
REMARK INTER + INTRA:         -12.792
REMARK INTER:                 -11.294
REMARK INTRA:                  -1.498
REMARK UNBOUND:                -1.441
REMARK SMILES Cc1cc(O)ccc1Nc1nc(NCCCCCO)nc2c1cnn2C
REMARK SMILES IDX 14 1 13 2 12 4 10 5 11 6 22 7 21 8 23 9 20 10 25 11 24 12
REMARK SMILES IDX 26 13 9 14 8 16 2 17 3 18 4 19 7 20 6 21 1 22 5 23 15 25
REMARK SMILES IDX 16 26 17 27 18 28 19 29
REMARK H PARENT 13 3 9 15 5 24 19 30
ROOT
ATOM      1  C   UNL     1       6.055  46.968  53.963  1.00  0.00     0.116 C 
ENDROOT
BRANCH   1   2
ATOM      2  N   UNL     1       6.036  46.849  52.516  1.00  0.00    -0.354 N 
ATOM      3  H   UNL     1       6.884  47.149  52.047  1.00  0.00     0.163 HD
BRANCH   2   4
ATOM      4  C   UNL     1       5.737  45.595  52.002  1.00  0.00     0.226 A 
ATOM      5  C   UNL     1       4.354  43.718  52.230  1.00  0.00     0.147 A 
ATOM      6  N   UNL     1       4.727  44.962  52.626  1.00  0.00    -0.195 NA
ATOM      7  C   UNL     1       5.056  43.130  51.177  1.00  0.00     0.082 A 
ATOM      8  C   UNL     1       6.072  43.876  50.614  1.00  0.00     0.165 A 
ATOM      9  C   UNL     1       5.063  41.922  50.447  1.00  0.00     0.149 A 
ATOM     10  N   UNL     1       6.450  45.110  50.977  1.00  0.00    -0.193 NA
ATOM     11  N   UNL     1       6.607  43.099  49.625  1.00  0.00    -0.250 N 
ATOM     12  N   UNL     1       6.003  41.895  49.494  1.00  0.00    -0.179 NA
ATOM     13  C   UNL     1       7.707  43.438  48.757  1.00  0.00     0.176 C 
BRANCH   5  14
ATOM     14  N   UNL     1       3.295  43.116  52.935  1.00  0.00    -0.339 N 
ATOM     15  H   UNL     1       3.683  42.821  53.828  1.00  0.00     0.168 HD
BRANCH  14  16
ATOM     16  C   UNL     1       2.004  43.665  53.094  1.00  0.00     0.043 A 
ATOM     17  C   UNL     1       1.048  43.704  52.059  1.00  0.00    -0.024 A 
ATOM     18  C   UNL     1      -0.206  44.285  52.313  1.00  0.00     0.051 A 
ATOM     19  C   UNL     1      -0.484  44.856  53.549  1.00  0.00     0.115 A 
ATOM     20  C   UNL     1       1.710  44.277  54.323  1.00  0.00     0.030 A 
ATOM     21  C   UNL     1       0.467  44.865  54.559  1.00  0.00     0.048 A 
ATOM     22  C   UNL     1       1.306  43.118  50.698  1.00  0.00     0.047 C 
BRANCH  19  23
ATOM     23  O   UNL     1      -1.717  45.410  53.730  1.00  0.00    -0.508 OA
ATOM     24  H   UNL     1      -2.255  44.806  54.267  1.00  0.00     0.293 HD
ENDBRANCH  19  23
ENDBRANCH  14  16
ENDBRANCH   5  14
ENDBRANCH   2   4
ENDBRANCH   1   2
BRANCH   1  25
ATOM     25  C   UNL     1       7.473  46.748  54.496  1.00  0.00     0.021 C 
BRANCH  25  26
ATOM     26  C   UNL     1       8.507  47.659  53.826  1.00  0.00     0.004 C 
BRANCH  26  27
ATOM     27  C   UNL     1       9.799  46.935  53.447  1.00  0.00     0.028 C 
BRANCH  27  28
ATOM     28  C   UNL     1       9.842  46.476  51.994  1.00  0.00     0.156 C 
BRANCH  28  29
ATOM     29  O   UNL     1       8.794  47.099  51.261  1.00  0.00    -0.396 OA
ATOM     30  H   UNL     1       8.039  46.486  51.250  1.00  0.00     0.210 HD
ENDBRANCH  28  29
ENDBRANCH  27  28
ENDBRANCH  26  27
ENDBRANCH  25  26
ENDBRANCH   1  25
TORSDOF 10
ENDMDL
MODEL 19
REMARK VINA RESULT:    -7.377      1.825      4.809
REMARK INTER + INTRA:         -12.699
REMARK INTER:                 -11.344
REMARK INTRA:                  -1.355
REMARK UNBOUND:                -1.441
REMARK SMILES Cc1cc(O)ccc1Nc1nc(NCCCCCO)nc2c1cnn2C
REMARK SMILES IDX 14 1 13 2 12 4 10 5 11 6 22 7 21 8 23 9 20 10 25 11 24 12
REMARK SMILES IDX 26 13 9 14 8 16 2 17 3 18 4 19 7 20 6 21 1 22 5 23 15 25
REMARK SMILES IDX 16 26 17 27 18 28 19 29
REMARK H PARENT 13 3 9 15 5 24 19 30
ROOT
ATOM      1  C   UNL     1       6.392  42.462  50.034  1.00  0.00     0.116 C 
ENDROOT
BRANCH   1   2
ATOM      2  N   UNL     1       6.145  43.833  49.625  1.00  0.00    -0.354 N 
ATOM      3  H   UNL     1       5.188  44.038  49.358  1.00  0.00     0.163 HD
BRANCH   2   4
ATOM      4  C   UNL     1       6.512  44.823  50.526  1.00  0.00     0.226 A 
ATOM      5  C   UNL     1       5.708  46.481  51.972  1.00  0.00     0.147 A 
ATOM      6  N   UNL     1       5.479  45.475  51.090  1.00  0.00    -0.195 NA
ATOM      7  C   UNL     1       7.034  46.813  52.254  1.00  0.00     0.082 A 
ATOM      8  C   UNL     1       8.009  46.074  51.615  1.00  0.00     0.165 A 
ATOM      9  C   UNL     1       7.754  47.736  53.042  1.00  0.00     0.149 A 
ATOM     10  N   UNL     1       7.810  45.068  50.751  1.00  0.00    -0.193 NA
ATOM     11  N   UNL     1       9.206  46.583  52.038  1.00  0.00    -0.250 N 
ATOM     12  N   UNL     1       9.081  47.601  52.921  1.00  0.00    -0.179 NA
ATOM     13  C   UNL     1      10.521  46.148  51.639  1.00  0.00     0.176 C 
BRANCH   5  14
ATOM     14  N   UNL     1       4.579  47.121  52.515  1.00  0.00    -0.339 N 
ATOM     15  H   UNL     1       4.252  47.769  51.802  1.00  0.00     0.168 HD
BRANCH  14  16
ATOM     16  C   UNL     1       3.498  46.470  53.149  1.00  0.00     0.043 A 
ATOM     17  C   UNL     1       3.599  45.860  54.415  1.00  0.00    -0.024 A 
ATOM     18  C   UNL     1       2.469  45.224  54.956  1.00  0.00     0.051 A 
ATOM     19  C   UNL     1       1.283  45.156  54.236  1.00  0.00     0.115 A 
ATOM     20  C   UNL     1       2.299  46.359  52.428  1.00  0.00     0.030 A 
ATOM     21  C   UNL     1       1.188  45.711  52.968  1.00  0.00     0.048 A 
ATOM     22  C   UNL     1       4.864  45.889  55.228  1.00  0.00     0.047 C 
BRANCH  19  23
ATOM     23  O   UNL     1       0.225  44.519  54.813  1.00  0.00    -0.508 OA
ATOM     24  H   UNL     1       0.469  44.266  55.718  1.00  0.00     0.293 HD
ENDBRANCH  19  23
ENDBRANCH  14  16
ENDBRANCH   5  14
ENDBRANCH   2   4
ENDBRANCH   1   2
BRANCH   1  25
ATOM     25  C   UNL     1       5.311  41.535  49.470  1.00  0.00     0.021 C 
BRANCH  25  26
ATOM     26  C   UNL     1       4.269  41.131  50.519  1.00  0.00     0.004 C 
BRANCH  26  27
ATOM     27  C   UNL     1       3.336  42.274  50.919  1.00  0.00     0.028 C 
BRANCH  27  28
ATOM     28  C   UNL     1       3.472  42.696  52.377  1.00  0.00     0.156 C 
BRANCH  28  29
ATOM     29  O   UNL     1       2.390  42.168  53.135  1.00  0.00    -0.396 OA
ATOM     30  H   UNL     1       1.571  42.344  52.639  1.00  0.00     0.210 HD
ENDBRANCH  28  29
ENDBRANCH  27  28
ENDBRANCH  26  27
ENDBRANCH  25  26
ENDBRANCH   1  25
TORSDOF 10
ENDMDL
MODEL 20
REMARK VINA RESULT:    -7.287      3.295      7.258
REMARK INTER + INTRA:         -12.562
REMARK INTER:                 -11.346
REMARK INTRA:                  -1.215
REMARK UNBOUND:                -1.441
REMARK SMILES Cc1cc(O)ccc1Nc1nc(NCCCCCO)nc2c1cnn2C
REMARK SMILES IDX 14 1 13 2 12 4 10 5 11 6 22 7 21 8 23 9 20 10 25 11 24 12
REMARK SMILES IDX 26 13 9 14 8 16 2 17 3 18 4 19 7 20 6 21 1 22 5 23 15 25
REMARK SMILES IDX 16 26 17 27 18 28 19 29
REMARK H PARENT 13 3 9 15 5 24 19 30
ROOT
ATOM      1  C   UNL     1       2.167  42.909  51.384  1.00  0.00     0.116 C 
ENDROOT
BRANCH   1   2
ATOM      2  N   UNL     1       1.480  42.406  52.560  1.00  0.00    -0.354 N 
ATOM      3  H   UNL     1       1.932  41.624  53.021  1.00  0.00     0.163 HD
BRANCH   2   4
ATOM      4  C   UNL     1       1.202  43.330  53.557  1.00  0.00     0.226 A 
ATOM      5  C   UNL     1       2.081  45.091  54.827  1.00  0.00     0.147 A 
ATOM      6  N   UNL     1       2.221  44.157  53.853  1.00  0.00    -0.195 NA
ATOM      7  C   UNL     1       0.861  45.150  55.505  1.00  0.00     0.082 A 
ATOM      8  C   UNL     1      -0.111  44.252  55.113  1.00  0.00     0.165 A 
ATOM      9  C   UNL     1       0.258  45.889  56.544  1.00  0.00     0.149 A 
ATOM     10  N   UNL     1      -0.001  43.330  54.146  1.00  0.00    -0.193 NA
ATOM     11  N   UNL     1      -1.193  44.494  55.914  1.00  0.00    -0.250 N 
ATOM     12  N   UNL     1      -0.998  45.500  56.798  1.00  0.00    -0.179 NA
ATOM     13  C   UNL     1      -2.456  43.801  55.895  1.00  0.00     0.176 C 
BRANCH   5  14
ATOM     14  N   UNL     1       3.192  45.914  55.086  1.00  0.00    -0.339 N 
ATOM     15  H   UNL     1       3.455  45.737  56.052  1.00  0.00     0.168 HD
BRANCH  14  16
ATOM     16  C   UNL     1       4.330  46.032  54.259  1.00  0.00     0.043 A 
ATOM     17  C   UNL     1       4.322  46.712  53.025  1.00  0.00    -0.024 A 
ATOM     18  C   UNL     1       5.504  46.761  52.266  1.00  0.00     0.051 A 
ATOM     19  C   UNL     1       6.652  46.111  52.703  1.00  0.00     0.115 A 
ATOM     20  C   UNL     1       5.493  45.356  54.662  1.00  0.00     0.030 A 
ATOM     21  C   UNL     1       6.657  45.399  53.893  1.00  0.00     0.048 A 
ATOM     22  C   UNL     1       3.101  47.416  52.498  1.00  0.00     0.047 C 
BRANCH  19  23
ATOM     23  O   UNL     1       7.764  46.191  51.918  1.00  0.00    -0.508 OA
ATOM     24  H   UNL     1       8.110  45.296  51.776  1.00  0.00     0.293 HD
ENDBRANCH  19  23
ENDBRANCH  14  16
ENDBRANCH   5  14
ENDBRANCH   2   4
ENDBRANCH   1   2
BRANCH   1  25
ATOM     25  C   UNL     1       3.593  42.355  51.323  1.00  0.00     0.021 C 
BRANCH  25  26
ATOM     26  C   UNL     1       4.644  43.445  51.087  1.00  0.00     0.004 C 
BRANCH  26  27
ATOM     27  C   UNL     1       5.907  42.931  50.396  1.00  0.00     0.028 C 
BRANCH  27  28
ATOM     28  C   UNL     1       5.839  41.458  50.009  1.00  0.00     0.156 C 
BRANCH  28  29
ATOM     29  O   UNL     1       7.151  40.908  49.975  1.00  0.00    -0.396 OA
ATOM     30  H   UNL     1       7.736  41.515  50.462  1.00  0.00     0.210 HD
ENDBRANCH  28  29
ENDBRANCH  27  28
ENDBRANCH  26  27
ENDBRANCH  25  26
ENDBRANCH   1  25
TORSDOF 10
ENDMDL
