MODEL 1
REMARK VINA RESULT:    -8.329      0.000      0.000
REMARK INTER + INTRA:         -11.966
REMARK INTER:                 -11.251
REMARK INTRA:                  -0.716
REMARK UNBOUND:                -0.716
REMARK SMILES COCCCNc1nc(-c2ccc(Cl)cc2)cc2ncccc12
REMARK SMILES IDX 5 1 4 2 3 3 2 4 1 5 6 6 7 8 8 9 23 10 9 11 22 12 18 13 17 14
REMARK SMILES IDX 21 15 19 16 20 17 10 18 11 19 16 20 12 21 15 22 13 23 14 24
REMARK H PARENT 6 7
ROOT
ATOM      1  C   UNL     1       6.130  44.129  50.074  1.00  0.00     0.117 C 
ENDROOT
BRANCH   1   2
ATOM      2  C   UNL     1       6.935  42.931  49.574  1.00  0.00     0.050 C 
BRANCH   2   3
ATOM      3  C   UNL     1       6.275  41.623  49.997  1.00  0.00     0.161 C 
BRANCH   3   4
ATOM      4  O   UNL     1       5.020  41.840  50.643  1.00  0.00    -0.385 OA
ATOM      5  C   UNL     1       3.944  41.146  50.026  1.00  0.00     0.194 C 
ENDBRANCH   3   4
ENDBRANCH   2   3
ENDBRANCH   1   2
BRANCH   1   6
ATOM      6  N   UNL     1       7.004  45.163  50.630  1.00  0.00    -0.369 N 
ATOM      7  H   UNL     1       7.974  44.858  50.646  1.00  0.00     0.162 HD
BRANCH   6   8
ATOM      8  C   UNL     1       6.677  45.617  51.928  1.00  0.00     0.136 A 
ATOM      9  N   UNL     1       5.419  45.440  52.381  1.00  0.00    -0.230 NA
ATOM     10  C   UNL     1       7.664  46.257  52.709  1.00  0.00     0.043 A 
ATOM     11  C   UNL     1       5.087  45.878  53.617  1.00  0.00     0.075 A 
ATOM     12  C   UNL     1       8.988  46.513  52.288  1.00  0.00     0.016 A 
ATOM     13  C   UNL     1       7.313  46.683  54.001  1.00  0.00     0.076 A 
ATOM     14  C   UNL     1       6.021  46.485  54.443  1.00  0.00     0.058 A 
ATOM     15  C   UNL     1       9.889  47.142  53.137  1.00  0.00     0.021 A 
ATOM     16  N   UNL     1       8.183  47.288  54.830  1.00  0.00    -0.256 NA
ATOM     17  C   UNL     1       9.442  47.504  54.391  1.00  0.00     0.112 A 
BRANCH  11  18
ATOM     18  C   UNL     1       3.679  45.657  54.011  1.00  0.00     0.000 A 
ATOM     19  C   UNL     1       2.643  45.768  53.062  1.00  0.00     0.012 A 
ATOM     20  C   UNL     1       3.311  45.344  55.334  1.00  0.00     0.012 A 
ATOM     21  C   UNL     1       1.304  45.566  53.412  1.00  0.00     0.021 A 
ATOM     22  C   UNL     1       1.972  45.142  55.689  1.00  0.00     0.021 A 
ATOM     23  C   UNL     1       0.974  45.253  54.725  1.00  0.00     0.041 A 
ATOM     24  Cl  UNL     1      -0.671  45.006  55.161  1.00  0.00    -0.084 Cl
ENDBRANCH  11  18
ENDBRANCH   6   8
ENDBRANCH   1   6
TORSDOF 6
ENDMDL
MODEL 2
REMARK VINA RESULT:    -8.321      0.103      1.009
REMARK INTER + INTRA:         -11.955
REMARK INTER:                 -11.222
REMARK INTRA:                  -0.733
REMARK UNBOUND:                -0.716
REMARK SMILES COCCCNc1nc(-c2ccc(Cl)cc2)cc2ncccc12
REMARK SMILES IDX 5 1 4 2 3 3 2 4 1 5 6 6 7 8 8 9 23 10 9 11 22 12 18 13 17 14
REMARK SMILES IDX 21 15 19 16 20 17 10 18 11 19 16 20 12 21 15 22 13 23 14 24
REMARK H PARENT 6 7
ROOT
ATOM      1  C   UNL     1       6.157  44.260  50.062  1.00  0.00     0.117 C 
ENDROOT
BRANCH   1   2
ATOM      2  C   UNL     1       6.931  43.023  49.612  1.00  0.00     0.050 C 
BRANCH   2   3
ATOM      3  C   UNL     1       6.221  41.749  50.058  1.00  0.00     0.161 C 
BRANCH   3   4
ATOM      4  O   UNL     1       4.931  42.019  50.607  1.00  0.00    -0.385 OA
ATOM      5  C   UNL     1       3.921  41.141  50.127  1.00  0.00     0.194 C 
ENDBRANCH   3   4
ENDBRANCH   2   3
ENDBRANCH   1   2
BRANCH   1   6
ATOM      6  N   UNL     1       7.046  45.255  50.664  1.00  0.00    -0.369 N 
ATOM      7  H   UNL     1       8.004  44.916  50.708  1.00  0.00     0.162 HD
BRANCH   6   8
ATOM      8  C   UNL     1       6.689  45.702  51.957  1.00  0.00     0.136 A 
ATOM      9  N   UNL     1       5.423  45.519  52.381  1.00  0.00    -0.230 NA
ATOM     10  C   UNL     1       7.658  46.340  52.761  1.00  0.00     0.043 A 
ATOM     11  C   UNL     1       5.063  45.950  53.612  1.00  0.00     0.075 A 
ATOM     12  C   UNL     1       8.989  46.603  52.370  1.00  0.00     0.016 A 
ATOM     13  C   UNL     1       7.277  46.760  54.047  1.00  0.00     0.076 A 
ATOM     14  C   UNL     1       5.977  46.556  54.460  1.00  0.00     0.058 A 
ATOM     15  C   UNL     1       9.870  47.230  53.242  1.00  0.00     0.021 A 
ATOM     16  N   UNL     1       8.127  47.363  54.898  1.00  0.00    -0.256 NA
ATOM     17  C   UNL     1       9.395  47.585  54.487  1.00  0.00     0.112 A 
BRANCH  11  18
ATOM     18  C   UNL     1       3.648  45.723  53.974  1.00  0.00     0.000 A 
ATOM     19  C   UNL     1       3.292  45.377  55.294  1.00  0.00     0.012 A 
ATOM     20  C   UNL     1       2.607  45.824  53.032  1.00  0.00     0.012 A 
ATOM     21  C   UNL     1       1.960  45.154  55.659  1.00  0.00     0.021 A 
ATOM     22  C   UNL     1       1.272  45.601  53.393  1.00  0.00     0.021 A 
ATOM     23  C   UNL     1       0.955  45.268  54.706  1.00  0.00     0.041 A 
ATOM     24  Cl  UNL     1      -0.683  44.992  55.150  1.00  0.00    -0.084 Cl
ENDBRANCH  11  18
ENDBRANCH   6   8
ENDBRANCH   1   6
TORSDOF 6
ENDMDL
MODEL 3
REMARK VINA RESULT:    -8.147      2.392      4.802
REMARK INTER + INTRA:         -11.721
REMARK INTER:                 -11.066
REMARK INTRA:                  -0.655
REMARK UNBOUND:                -0.716
REMARK SMILES COCCCNc1nc(-c2ccc(Cl)cc2)cc2ncccc12
REMARK SMILES IDX 5 1 4 2 3 3 2 4 1 5 6 6 7 8 8 9 23 10 9 11 22 12 18 13 17 14
REMARK SMILES IDX 21 15 19 16 20 17 10 18 11 19 16 20 12 21 15 22 13 23 14 24
REMARK H PARENT 6 7
ROOT
ATOM      1  C   UNL     1       7.640  47.400  53.216  1.00  0.00     0.117 C 
ENDROOT
BRANCH   1   2
ATOM      2  C   UNL     1       9.147  47.518  52.999  1.00  0.00     0.050 C 
BRANCH   2   3
ATOM      3  C   UNL     1       9.911  46.908  54.169  1.00  0.00     0.161 C 
BRANCH   3   4
ATOM      4  O   UNL     1       9.786  47.692  55.357  1.00  0.00    -0.385 OA
ATOM      5  C   UNL     1      10.963  47.693  56.154  1.00  0.00     0.194 C 
ENDBRANCH   3   4
ENDBRANCH   2   3
ENDBRANCH   1   2
BRANCH   1   6
ATOM      6  N   UNL     1       6.940  47.137  51.958  1.00  0.00    -0.369 N 
ATOM      7  H   UNL     1       6.362  47.928  51.684  1.00  0.00     0.162 HD
BRANCH   6   8
ATOM      8  C   UNL     1       6.126  45.981  51.933  1.00  0.00     0.136 A 
ATOM      9  N   UNL     1       5.071  45.911  52.770  1.00  0.00    -0.230 NA
ATOM     10  C   UNL     1       6.445  44.927  51.050  1.00  0.00     0.043 A 
ATOM     11  C   UNL     1       4.289  44.807  52.765  1.00  0.00     0.075 A 
ATOM     12  C   UNL     1       7.555  44.912  50.176  1.00  0.00     0.016 A 
ATOM     13  C   UNL     1       5.609  43.798  51.037  1.00  0.00     0.076 A 
ATOM     14  C   UNL     1       4.532  43.753  51.899  1.00  0.00     0.058 A 
ATOM     15  C   UNL     1       7.777  43.827  49.337  1.00  0.00     0.021 A 
ATOM     16  N   UNL     1       5.816  42.747  50.223  1.00  0.00    -0.256 NA
ATOM     17  C   UNL     1       6.883  42.778  49.395  1.00  0.00     0.112 A 
BRANCH  11  18
ATOM     18  C   UNL     1       3.172  44.819  53.734  1.00  0.00     0.000 A 
ATOM     19  C   UNL     1       1.963  44.156  53.442  1.00  0.00     0.012 A 
ATOM     20  C   UNL     1       3.256  45.494  54.966  1.00  0.00     0.012 A 
ATOM     21  C   UNL     1       0.891  44.156  54.342  1.00  0.00     0.021 A 
ATOM     22  C   UNL     1       2.186  45.497  55.871  1.00  0.00     0.021 A 
ATOM     23  C   UNL     1       1.008  44.826  55.553  1.00  0.00     0.041 A 
ATOM     24  Cl  UNL     1      -0.307  44.831  56.662  1.00  0.00    -0.084 Cl
ENDBRANCH  11  18
ENDBRANCH   6   8
ENDBRANCH   1   6
TORSDOF 6
ENDMDL
MODEL 4
REMARK VINA RESULT:    -7.997      2.152      4.447
REMARK INTER + INTRA:         -11.518
REMARK INTER:                 -10.482
REMARK INTRA:                  -1.035
REMARK UNBOUND:                -0.716
REMARK SMILES COCCCNc1nc(-c2ccc(Cl)cc2)cc2ncccc12
REMARK SMILES IDX 5 1 4 2 3 3 2 4 1 5 6 6 7 8 8 9 23 10 9 11 22 12 18 13 17 14
REMARK SMILES IDX 21 15 19 16 20 17 10 18 11 19 16 20 12 21 15 22 13 23 14 24
REMARK H PARENT 6 7
ROOT
ATOM      1  C   UNL     1       7.429  47.560  53.230  1.00  0.00     0.117 C 
ENDROOT
BRANCH   1   2
ATOM      2  C   UNL     1       8.492  46.662  53.858  1.00  0.00     0.050 C 
BRANCH   2   3
ATOM      3  C   UNL     1       9.885  47.052  53.374  1.00  0.00     0.161 C 
BRANCH   3   4
ATOM      4  O   UNL     1      10.015  46.924  51.958  1.00  0.00    -0.385 OA
ATOM      5  C   UNL     1      10.627  45.705  51.559  1.00  0.00     0.194 C 
ENDBRANCH   3   4
ENDBRANCH   2   3
ENDBRANCH   1   2
BRANCH   1   6
ATOM      6  N   UNL     1       7.043  47.079  51.902  1.00  0.00    -0.369 N 
ATOM      7  H   UNL     1       6.596  47.814  51.359  1.00  0.00     0.162 HD
BRANCH   6   8
ATOM      8  C   UNL     1       6.194  45.949  51.877  1.00  0.00     0.136 A 
ATOM      9  N   UNL     1       5.153  45.898  52.733  1.00  0.00    -0.230 NA
ATOM     10  C   UNL     1       6.464  44.899  50.973  1.00  0.00     0.043 A 
ATOM     11  C   UNL     1       4.337  44.819  52.727  1.00  0.00     0.075 A 
ATOM     12  C   UNL     1       7.556  44.864  50.077  1.00  0.00     0.016 A 
ATOM     13  C   UNL     1       5.593  43.796  50.960  1.00  0.00     0.076 A 
ATOM     14  C   UNL     1       4.532  43.771  51.842  1.00  0.00     0.058 A 
ATOM     15  C   UNL     1       7.729  43.786  49.218  1.00  0.00     0.021 A 
ATOM     16  N   UNL     1       5.752  42.752  50.127  1.00  0.00    -0.256 NA
ATOM     17  C   UNL     1       6.804  42.763  49.279  1.00  0.00     0.112 A 
BRANCH  11  18
ATOM     18  C   UNL     1       3.240  44.850  53.718  1.00  0.00     0.000 A 
ATOM     19  C   UNL     1       3.368  45.597  54.907  1.00  0.00     0.012 A 
ATOM     20  C   UNL     1       2.042  44.135  53.532  1.00  0.00     0.012 A 
ATOM     21  C   UNL     1       2.345  45.638  55.860  1.00  0.00     0.021 A 
ATOM     22  C   UNL     1       1.015  44.173  54.483  1.00  0.00     0.021 A 
ATOM     23  C   UNL     1       1.171  44.925  55.643  1.00  0.00     0.041 A 
ATOM     24  Cl  UNL     1      -0.089  44.971  56.813  1.00  0.00    -0.084 Cl
ENDBRANCH  11  18
ENDBRANCH   6   8
ENDBRANCH   1   6
TORSDOF 6
ENDMDL
MODEL 5
REMARK VINA RESULT:    -7.987      2.094      4.769
REMARK INTER + INTRA:         -11.504
REMARK INTER:                 -10.664
REMARK INTRA:                  -0.840
REMARK UNBOUND:                -0.716
REMARK SMILES COCCCNc1nc(-c2ccc(Cl)cc2)cc2ncccc12
REMARK SMILES IDX 5 1 4 2 3 3 2 4 1 5 6 6 7 8 8 9 23 10 9 11 22 12 18 13 17 14
REMARK SMILES IDX 21 15 19 16 20 17 10 18 11 19 16 20 12 21 15 22 13 23 14 24
REMARK H PARENT 6 7
ROOT
ATOM      1  C   UNL     1       6.812  47.039  52.489  1.00  0.00     0.117 C 
ENDROOT
BRANCH   1   2
ATOM      2  C   UNL     1       8.012  47.969  52.326  1.00  0.00     0.050 C 
BRANCH   2   3
ATOM      3  C   UNL     1       9.152  47.546  53.246  1.00  0.00     0.161 C 
BRANCH   3   4
ATOM      4  O   UNL     1       9.575  46.205  52.994  1.00  0.00    -0.385 OA
ATOM      5  C   UNL     1      10.331  46.071  51.798  1.00  0.00     0.194 C 
ENDBRANCH   3   4
ENDBRANCH   2   3
ENDBRANCH   1   2
BRANCH   1   6
ATOM      6  N   UNL     1       6.734  46.073  51.392  1.00  0.00    -0.369 N 
ATOM      7  H   UNL     1       6.557  46.536  50.504  1.00  0.00     0.162 HD
BRANCH   6   8
ATOM      8  C   UNL     1       5.775  45.045  51.539  1.00  0.00     0.136 A 
ATOM      9  N   UNL     1       4.801  45.192  52.460  1.00  0.00    -0.230 NA
ATOM     10  C   UNL     1       5.869  43.888  50.735  1.00  0.00     0.043 A 
ATOM     11  C   UNL     1       3.882  44.213  52.620  1.00  0.00     0.075 A 
ATOM     12  C   UNL     1       6.882  43.647  49.781  1.00  0.00     0.016 A 
ATOM     13  C   UNL     1       4.893  42.891  50.894  1.00  0.00     0.076 A 
ATOM     14  C   UNL     1       3.903  43.068  51.839  1.00  0.00     0.058 A 
ATOM     15  C   UNL     1       6.880  42.477  49.031  1.00  0.00     0.021 A 
ATOM     16  N   UNL     1       4.882  41.759  50.167  1.00  0.00    -0.256 NA
ATOM     17  C   UNL     1       5.864  41.573  49.257  1.00  0.00     0.112 A 
BRANCH  11  18
ATOM     18  C   UNL     1       2.870  44.460  53.669  1.00  0.00     0.000 A 
ATOM     19  C   UNL     1       3.171  45.275  54.778  1.00  0.00     0.012 A 
ATOM     20  C   UNL     1       1.584  43.889  53.620  1.00  0.00     0.012 A 
ATOM     21  C   UNL     1       2.231  45.521  55.785  1.00  0.00     0.021 A 
ATOM     22  C   UNL     1       0.639  44.131  54.625  1.00  0.00     0.021 A 
ATOM     23  C   UNL     1       0.968  44.947  55.703  1.00  0.00     0.041 A 
ATOM     24  Cl  UNL     1      -0.190  45.244  56.939  1.00  0.00    -0.084 Cl
ENDBRANCH  11  18
ENDBRANCH   6   8
ENDBRANCH   1   6
TORSDOF 6
ENDMDL
MODEL 6
REMARK VINA RESULT:    -7.978      2.077      4.666
REMARK INTER + INTRA:         -11.492
REMARK INTER:                 -10.652
REMARK INTRA:                  -0.840
REMARK UNBOUND:                -0.716
REMARK SMILES COCCCNc1nc(-c2ccc(Cl)cc2)cc2ncccc12
REMARK SMILES IDX 5 1 4 2 3 3 2 4 1 5 6 6 7 8 8 9 23 10 9 11 22 12 18 13 17 14
REMARK SMILES IDX 21 15 19 16 20 17 10 18 11 19 16 20 12 21 15 22 13 23 14 24
REMARK H PARENT 6 7
ROOT
ATOM      1  C   UNL     1       6.788  47.144  52.571  1.00  0.00     0.117 C 
ENDROOT
BRANCH   1   2
ATOM      2  C   UNL     1       8.019  48.037  52.429  1.00  0.00     0.050 C 
BRANCH   2   3
ATOM      3  C   UNL     1       9.147  47.549  53.332  1.00  0.00     0.161 C 
BRANCH   3   4
ATOM      4  O   UNL     1       9.508  46.196  53.056  1.00  0.00    -0.385 OA
ATOM      5  C   UNL     1      10.270  46.050  51.865  1.00  0.00     0.194 C 
ENDBRANCH   3   4
ENDBRANCH   2   3
ENDBRANCH   1   2
BRANCH   1   6
ATOM      6  N   UNL     1       6.657  46.233  51.433  1.00  0.00    -0.369 N 
ATOM      7  H   UNL     1       6.414  46.736  50.583  1.00  0.00     0.162 HD
BRANCH   6   8
ATOM      8  C   UNL     1       5.727  45.180  51.588  1.00  0.00     0.136 A 
ATOM      9  N   UNL     1       4.748  45.306  52.507  1.00  0.00    -0.230 NA
ATOM     10  C   UNL     1       5.855  44.020  50.794  1.00  0.00     0.043 A 
ATOM     11  C   UNL     1       3.857  44.302  52.674  1.00  0.00     0.075 A 
ATOM     12  C   UNL     1       6.875  43.799  49.842  1.00  0.00     0.016 A 
ATOM     13  C   UNL     1       4.907  42.996  50.960  1.00  0.00     0.076 A 
ATOM     14  C   UNL     1       3.911  43.152  51.903  1.00  0.00     0.058 A 
ATOM     15  C   UNL     1       6.907  42.624  49.102  1.00  0.00     0.021 A 
ATOM     16  N   UNL     1       4.929  41.858  50.242  1.00  0.00    -0.256 NA
ATOM     17  C   UNL     1       5.917  41.692  49.335  1.00  0.00     0.112 A 
BRANCH  11  18
ATOM     18  C   UNL     1       2.837  44.529  53.721  1.00  0.00     0.000 A 
ATOM     19  C   UNL     1       1.549  43.970  53.600  1.00  0.00     0.012 A 
ATOM     20  C   UNL     1       3.095  45.313  54.861  1.00  0.00     0.012 A 
ATOM     21  C   UNL     1       0.567  44.173  54.575  1.00  0.00     0.021 A 
ATOM     22  C   UNL     1       2.115  45.520  55.841  1.00  0.00     0.021 A 
ATOM     23  C   UNL     1       0.855  44.948  55.693  1.00  0.00     0.041 A 
ATOM     24  Cl  UNL     1      -0.349  45.202  56.894  1.00  0.00    -0.084 Cl
ENDBRANCH  11  18
ENDBRANCH   6   8
ENDBRANCH   1   6
TORSDOF 6
ENDMDL
MODEL 7
REMARK VINA RESULT:    -7.882      2.738      5.192
REMARK INTER + INTRA:         -11.363
REMARK INTER:                 -10.371
REMARK INTRA:                  -0.992
REMARK UNBOUND:                -0.716
REMARK SMILES COCCCNc1nc(-c2ccc(Cl)cc2)cc2ncccc12
REMARK SMILES IDX 5 1 4 2 3 3 2 4 1 5 6 6 7 8 8 9 23 10 9 11 22 12 18 13 17 14
REMARK SMILES IDX 21 15 19 16 20 17 10 18 11 19 16 20 12 21 15 22 13 23 14 24
REMARK H PARENT 6 7
ROOT
ATOM      1  C   UNL     1       4.230  44.939  55.153  1.00  0.00     0.117 C 
ENDROOT
BRANCH   1   2
ATOM      2  C   UNL     1       3.223  46.086  55.113  1.00  0.00     0.050 C 
BRANCH   2   3
ATOM      3  C   UNL     1       2.451  46.083  53.798  1.00  0.00     0.161 C 
BRANCH   3   4
ATOM      4  O   UNL     1       2.813  47.183  52.962  1.00  0.00    -0.385 OA
ATOM      5  C   UNL     1       3.118  46.797  51.628  1.00  0.00     0.194 C 
ENDBRANCH   3   4
ENDBRANCH   2   3
ENDBRANCH   1   2
BRANCH   1   6
ATOM      6  N   UNL     1       5.583  45.407  54.850  1.00  0.00    -0.369 N 
ATOM      7  H   UNL     1       5.707  46.379  55.122  1.00  0.00     0.162 HD
BRANCH   6   8
ATOM      8  C   UNL     1       5.994  45.283  53.503  1.00  0.00     0.136 A 
ATOM      9  N   UNL     1       5.464  44.298  52.750  1.00  0.00    -0.230 NA
ATOM     10  C   UNL     1       6.956  46.177  52.986  1.00  0.00     0.043 A 
ATOM     11  C   UNL     1       5.854  44.159  51.462  1.00  0.00     0.075 A 
ATOM     12  C   UNL     1       7.584  47.205  53.724  1.00  0.00     0.016 A 
ATOM     13  C   UNL     1       7.333  46.038  51.640  1.00  0.00     0.076 A 
ATOM     14  C   UNL     1       6.772  45.025  50.888  1.00  0.00     0.058 A 
ATOM     15  C   UNL     1       8.514  48.041  53.118  1.00  0.00     0.021 A 
ATOM     16  N   UNL     1       8.229  46.847  51.046  1.00  0.00    -0.256 NA
ATOM     17  C   UNL     1       8.798  47.825  51.786  1.00  0.00     0.112 A 
BRANCH  11  18
ATOM     18  C   UNL     1       5.232  43.036  50.729  1.00  0.00     0.000 A 
ATOM     19  C   UNL     1       3.927  42.609  51.046  1.00  0.00     0.012 A 
ATOM     20  C   UNL     1       5.907  42.342  49.707  1.00  0.00     0.012 A 
ATOM     21  C   UNL     1       3.318  41.546  50.369  1.00  0.00     0.021 A 
ATOM     22  C   UNL     1       5.302  41.278  49.026  1.00  0.00     0.021 A 
ATOM     23  C   UNL     1       4.009  40.886  49.360  1.00  0.00     0.041 A 
ATOM     24  Cl  UNL     1       3.267  39.578  48.526  1.00  0.00    -0.084 Cl
ENDBRANCH  11  18
ENDBRANCH   6   8
ENDBRANCH   1   6
TORSDOF 6
ENDMDL
MODEL 8
REMARK VINA RESULT:    -7.836      3.063      6.076
REMARK INTER + INTRA:         -11.300
REMARK INTER:                 -10.479
REMARK INTRA:                  -0.821
REMARK UNBOUND:                -0.716
REMARK SMILES COCCCNc1nc(-c2ccc(Cl)cc2)cc2ncccc12
REMARK SMILES IDX 5 1 4 2 3 3 2 4 1 5 6 6 7 8 8 9 23 10 9 11 22 12 18 13 17 14
REMARK SMILES IDX 21 15 19 16 20 17 10 18 11 19 16 20 12 21 15 22 13 23 14 24
REMARK H PARENT 6 7
ROOT
ATOM      1  C   UNL     1       4.249  41.214  50.833  1.00  0.00     0.117 C 
ENDROOT
BRANCH   1   2
ATOM      2  C   UNL     1       4.430  41.142  49.318  1.00  0.00     0.050 C 
BRANCH   2   3
ATOM      3  C   UNL     1       5.843  41.558  48.922  1.00  0.00     0.161 C 
BRANCH   3   4
ATOM      4  O   UNL     1       6.121  42.913  49.279  1.00  0.00    -0.385 OA
ATOM      5  C   UNL     1       7.508  43.227  49.250  1.00  0.00     0.194 C 
ENDBRANCH   3   4
ENDBRANCH   2   3
ENDBRANCH   1   2
BRANCH   1   6
ATOM      6  N   UNL     1       2.993  41.876  51.188  1.00  0.00    -0.369 N 
ATOM      7  H   UNL     1       2.497  42.196  50.360  1.00  0.00     0.162 HD
BRANCH   6   8
ATOM      8  C   UNL     1       3.101  42.972  52.074  1.00  0.00     0.136 A 
ATOM      9  N   UNL     1       4.264  43.652  52.130  1.00  0.00    -0.230 NA
ATOM     10  C   UNL     1       2.000  43.317  52.888  1.00  0.00     0.043 A 
ATOM     11  C   UNL     1       4.387  44.697  52.980  1.00  0.00     0.075 A 
ATOM     12  C   UNL     1       0.767  42.628  52.915  1.00  0.00     0.016 A 
ATOM     13  C   UNL     1       2.133  44.420  53.748  1.00  0.00     0.076 A 
ATOM     14  C   UNL     1       3.331  45.103  53.781  1.00  0.00     0.058 A 
ATOM     15  C   UNL     1      -0.261  43.054  53.747  1.00  0.00     0.021 A 
ATOM     16  N   UNL     1       1.139  44.841  54.552  1.00  0.00    -0.256 NA
ATOM     17  C   UNL     1      -0.028  44.160  54.538  1.00  0.00     0.112 A 
BRANCH  11  18
ATOM     18  C   UNL     1       5.708  45.361  52.981  1.00  0.00     0.000 A 
ATOM     19  C   UNL     1       6.314  45.748  54.193  1.00  0.00     0.012 A 
ATOM     20  C   UNL     1       6.404  45.648  51.791  1.00  0.00     0.012 A 
ATOM     21  C   UNL     1       7.562  46.381  54.219  1.00  0.00     0.021 A 
ATOM     22  C   UNL     1       7.653  46.281  51.812  1.00  0.00     0.021 A 
ATOM     23  C   UNL     1       8.226  46.644  53.027  1.00  0.00     0.041 A 
ATOM     24  Cl  UNL     1       9.759  47.424  53.053  1.00  0.00    -0.084 Cl
ENDBRANCH  11  18
ENDBRANCH   6   8
ENDBRANCH   1   6
TORSDOF 6
ENDMDL
MODEL 9
REMARK VINA RESULT:    -7.834      3.071      5.988
REMARK INTER + INTRA:         -11.298
REMARK INTER:                 -10.479
REMARK INTRA:                  -0.819
REMARK UNBOUND:                -0.716
REMARK SMILES COCCCNc1nc(-c2ccc(Cl)cc2)cc2ncccc12
REMARK SMILES IDX 5 1 4 2 3 3 2 4 1 5 6 6 7 8 8 9 23 10 9 11 22 12 18 13 17 14
REMARK SMILES IDX 21 15 19 16 20 17 10 18 11 19 16 20 12 21 15 22 13 23 14 24
REMARK H PARENT 6 7
ROOT
ATOM      1  C   UNL     1       4.348  41.192  50.851  1.00  0.00     0.117 C 
ENDROOT
BRANCH   1   2
ATOM      2  C   UNL     1       5.022  41.392  49.496  1.00  0.00     0.050 C 
BRANCH   2   3
ATOM      3  C   UNL     1       6.477  41.816  49.672  1.00  0.00     0.161 C 
BRANCH   3   4
ATOM      4  O   UNL     1       6.649  43.223  49.500  1.00  0.00    -0.385 OA
ATOM      5  C   UNL     1       7.984  43.589  49.179  1.00  0.00     0.194 C 
ENDBRANCH   3   4
ENDBRANCH   2   3
ENDBRANCH   1   2
BRANCH   1   6
ATOM      6  N   UNL     1       3.141  42.011  50.971  1.00  0.00    -0.369 N 
ATOM      7  H   UNL     1       2.889  42.431  50.080  1.00  0.00     0.162 HD
BRANCH   6   8
ATOM      8  C   UNL     1       3.188  43.044  51.935  1.00  0.00     0.136 A 
ATOM      9  N   UNL     1       4.333  43.741  52.087  1.00  0.00    -0.230 NA
ATOM     10  C   UNL     1       2.047  43.310  52.723  1.00  0.00     0.043 A 
ATOM     11  C   UNL     1       4.396  44.726  53.011  1.00  0.00     0.075 A 
ATOM     12  C   UNL     1       0.829  42.598  52.649  1.00  0.00     0.016 A 
ATOM     13  C   UNL     1       2.119  44.353  53.662  1.00  0.00     0.076 A 
ATOM     14  C   UNL     1       3.300  45.055  53.793  1.00  0.00     0.058 A 
ATOM     15  C   UNL     1      -0.241  42.944  53.465  1.00  0.00     0.021 A 
ATOM     16  N   UNL     1       1.084  44.697  54.450  1.00  0.00    -0.256 NA
ATOM     17  C   UNL     1      -0.066  43.996  54.340  1.00  0.00     0.112 A 
BRANCH  11  18
ATOM     18  C   UNL     1       5.701  45.414  53.115  1.00  0.00     0.000 A 
ATOM     19  C   UNL     1       6.503  45.607  51.972  1.00  0.00     0.012 A 
ATOM     20  C   UNL     1       6.204  45.887  54.342  1.00  0.00     0.012 A 
ATOM     21  C   UNL     1       7.742  46.252  52.045  1.00  0.00     0.021 A 
ATOM     22  C   UNL     1       7.444  46.533  54.421  1.00  0.00     0.021 A 
ATOM     23  C   UNL     1       8.207  46.713  53.271  1.00  0.00     0.041 A 
ATOM     24  Cl  UNL     1       9.731  47.505  53.368  1.00  0.00    -0.084 Cl
ENDBRANCH  11  18
ENDBRANCH   6   8
ENDBRANCH   1   6
TORSDOF 6
ENDMDL
MODEL 10
REMARK VINA RESULT:    -7.706      2.635      5.206
REMARK INTER + INTRA:         -11.125
REMARK INTER:                 -10.271
REMARK INTRA:                  -0.854
REMARK UNBOUND:                -0.716
REMARK SMILES COCCCNc1nc(-c2ccc(Cl)cc2)cc2ncccc12
REMARK SMILES IDX 5 1 4 2 3 3 2 4 1 5 6 6 7 8 8 9 23 10 9 11 22 12 18 13 17 14
REMARK SMILES IDX 21 15 19 16 20 17 10 18 11 19 16 20 12 21 15 22 13 23 14 24
REMARK H PARENT 6 7
ROOT
ATOM      1  C   UNL     1       3.861  46.113  54.535  1.00  0.00     0.117 C 
ENDROOT
BRANCH   1   2
ATOM      2  C   UNL     1       2.818  45.295  55.294  1.00  0.00     0.050 C 
BRANCH   2   3
ATOM      3  C   UNL     1       1.715  44.821  54.354  1.00  0.00     0.161 C 
BRANCH   3   4
ATOM      4  O   UNL     1       2.112  43.677  53.597  1.00  0.00    -0.385 OA
ATOM      5  C   UNL     1       1.021  42.846  53.223  1.00  0.00     0.194 C 
ENDBRANCH   3   4
ENDBRANCH   2   3
ENDBRANCH   1   2
BRANCH   1   6
ATOM      6  N   UNL     1       5.155  45.429  54.504  1.00  0.00    -0.369 N 
ATOM      7  H   UNL     1       5.845  45.918  55.069  1.00  0.00     0.162 HD
BRANCH   6   8
ATOM      8  C   UNL     1       5.716  45.225  53.223  1.00  0.00     0.136 A 
ATOM      9  N   UNL     1       5.236  44.227  52.454  1.00  0.00    -0.230 NA
ATOM     10  C   UNL     1       6.772  46.054  52.788  1.00  0.00     0.043 A 
ATOM     11  C   UNL     1       5.769  44.012  51.230  1.00  0.00     0.075 A 
ATOM     12  C   UNL     1       7.354  47.091  53.552  1.00  0.00     0.016 A 
ATOM     13  C   UNL     1       7.300  45.837  51.504  1.00  0.00     0.076 A 
ATOM     14  C   UNL     1       6.786  44.813  50.734  1.00  0.00     0.058 A 
ATOM     15  C   UNL     1       8.386  47.859  53.028  1.00  0.00     0.021 A 
ATOM     16  N   UNL     1       8.295  46.581  50.989  1.00  0.00    -0.256 NA
ATOM     17  C   UNL     1       8.816  47.569  51.750  1.00  0.00     0.112 A 
BRANCH  11  18
ATOM     18  C   UNL     1       5.188  42.881  50.475  1.00  0.00     0.000 A 
ATOM     19  C   UNL     1       3.958  42.314  50.867  1.00  0.00     0.012 A 
ATOM     20  C   UNL     1       5.831  42.316  49.358  1.00  0.00     0.012 A 
ATOM     21  C   UNL     1       3.390  41.242  50.170  1.00  0.00     0.021 A 
ATOM     22  C   UNL     1       5.267  41.242  48.657  1.00  0.00     0.021 A 
ATOM     23  C   UNL     1       4.048  40.711  49.067  1.00  0.00     0.041 A 
ATOM     24  Cl  UNL     1       3.355  39.391  48.209  1.00  0.00    -0.084 Cl
ENDBRANCH  11  18
ENDBRANCH   6   8
ENDBRANCH   1   6
TORSDOF 6
ENDMDL
MODEL 11
REMARK VINA RESULT:    -7.688      1.298      1.803
REMARK INTER + INTRA:         -11.100
REMARK INTER:                 -10.289
REMARK INTRA:                  -0.811
REMARK UNBOUND:                -0.716
REMARK SMILES COCCCNc1nc(-c2ccc(Cl)cc2)cc2ncccc12
REMARK SMILES IDX 5 1 4 2 3 3 2 4 1 5 6 6 7 8 8 9 23 10 9 11 22 12 18 13 17 14
REMARK SMILES IDX 21 15 19 16 20 17 10 18 11 19 16 20 12 21 15 22 13 23 14 24
REMARK H PARENT 6 7
ROOT
ATOM      1  C   UNL     1       5.791  44.030  50.338  1.00  0.00     0.117 C 
ENDROOT
BRANCH   1   2
ATOM      2  C   UNL     1       6.508  43.181  49.291  1.00  0.00     0.050 C 
BRANCH   2   3
ATOM      3  C   UNL     1       7.969  42.969  49.675  1.00  0.00     0.161 C 
BRANCH   3   4
ATOM      4  O   UNL     1       8.814  43.996  49.154  1.00  0.00    -0.385 OA
ATOM      5  C   UNL     1       9.898  44.320  50.015  1.00  0.00     0.194 C 
ENDBRANCH   3   4
ENDBRANCH   2   3
ENDBRANCH   1   2
BRANCH   1   6
ATOM      6  N   UNL     1       6.637  45.131  50.801  1.00  0.00    -0.369 N 
ATOM      7  H   UNL     1       7.621  44.873  50.785  1.00  0.00     0.162 HD
BRANCH   6   8
ATOM      8  C   UNL     1       6.347  45.634  52.090  1.00  0.00     0.136 A 
ATOM      9  N   UNL     1       5.110  45.454  52.595  1.00  0.00    -0.230 NA
ATOM     10  C   UNL     1       7.348  46.325  52.807  1.00  0.00     0.043 A 
ATOM     11  C   UNL     1       4.814  45.938  53.823  1.00  0.00     0.075 A 
ATOM     12  C   UNL     1       8.651  46.588  52.327  1.00  0.00     0.016 A 
ATOM     13  C   UNL     1       7.035  46.800  54.091  1.00  0.00     0.076 A 
ATOM     14  C   UNL     1       5.763  46.597  54.588  1.00  0.00     0.058 A 
ATOM     15  C   UNL     1       9.569  47.270  53.116  1.00  0.00     0.021 A 
ATOM     16  N   UNL     1       7.921  47.456  54.862  1.00  0.00    -0.256 NA
ATOM     17  C   UNL     1       9.159  47.677  54.368  1.00  0.00     0.112 A 
BRANCH  11  18
ATOM     18  C   UNL     1       3.426  45.707  54.277  1.00  0.00     0.000 A 
ATOM     19  C   UNL     1       2.374  45.602  53.344  1.00  0.00     0.012 A 
ATOM     20  C   UNL     1       3.091  45.598  55.640  1.00  0.00     0.012 A 
ATOM     21  C   UNL     1       1.053  45.387  53.749  1.00  0.00     0.021 A 
ATOM     22  C   UNL     1       1.769  45.384  56.051  1.00  0.00     0.021 A 
ATOM     23  C   UNL     1       0.756  45.278  55.103  1.00  0.00     0.041 A 
ATOM     24  Cl  UNL     1      -0.867  45.016  55.607  1.00  0.00    -0.084 Cl
ENDBRANCH  11  18
ENDBRANCH   6   8
ENDBRANCH   1   6
TORSDOF 6
ENDMDL
MODEL 12
REMARK VINA RESULT:    -7.644      2.415      5.060
REMARK INTER + INTRA:         -11.041
REMARK INTER:                 -10.374
REMARK INTRA:                  -0.667
REMARK UNBOUND:                -0.716
REMARK SMILES COCCCNc1nc(-c2ccc(Cl)cc2)cc2ncccc12
REMARK SMILES IDX 5 1 4 2 3 3 2 4 1 5 6 6 7 8 8 9 23 10 9 11 22 12 18 13 17 14
REMARK SMILES IDX 21 15 19 16 20 17 10 18 11 19 16 20 12 21 15 22 13 23 14 24
REMARK H PARENT 6 7
ROOT
ATOM      1  C   UNL     1       5.777  47.091  52.695  1.00  0.00     0.117 C 
ENDROOT
BRANCH   1   2
ATOM      2  C   UNL     1       7.295  47.028  52.853  1.00  0.00     0.050 C 
BRANCH   2   3
ATOM      3  C   UNL     1       7.674  46.632  54.276  1.00  0.00     0.161 C 
BRANCH   3   4
ATOM      4  O   UNL     1       8.477  47.626  54.913  1.00  0.00    -0.385 OA
ATOM      5  C   UNL     1       9.870  47.452  54.686  1.00  0.00     0.194 C 
ENDBRANCH   3   4
ENDBRANCH   2   3
ENDBRANCH   1   2
BRANCH   1   6
ATOM      6  N   UNL     1       5.331  46.326  51.529  1.00  0.00    -0.369 N 
ATOM      7  H   UNL     1       4.778  46.902  50.899  1.00  0.00     0.162 HD
BRANCH   6   8
ATOM      8  C   UNL     1       4.587  45.156  51.805  1.00  0.00     0.136 A 
ATOM      9  N   UNL     1       3.560  45.228  52.675  1.00  0.00    -0.230 NA
ATOM     10  C   UNL     1       4.946  43.942  51.179  1.00  0.00     0.043 A 
ATOM     11  C   UNL     1       2.845  44.115  52.957  1.00  0.00     0.075 A 
ATOM     12  C   UNL     1       6.032  43.781  50.290  1.00  0.00     0.016 A 
ATOM     13  C   UNL     1       4.179  42.800  51.461  1.00  0.00     0.076 A 
ATOM     14  C   UNL     1       3.129  42.902  52.350  1.00  0.00     0.058 A 
ATOM     15  C   UNL     1       6.297  42.543  49.717  1.00  0.00     0.021 A 
ATOM     16  N   UNL     1       4.427  41.600  50.905  1.00  0.00    -0.256 NA
ATOM     17  C   UNL     1       5.469  41.492  50.052  1.00  0.00     0.112 A 
BRANCH  11  18
ATOM     18  C   UNL     1       1.754  44.295  53.939  1.00  0.00     0.000 A 
ATOM     19  C   UNL     1       1.966  45.039  55.117  1.00  0.00     0.012 A 
ATOM     20  C   UNL     1       0.479  43.728  53.755  1.00  0.00     0.012 A 
ATOM     21  C   UNL     1       0.951  45.219  56.063  1.00  0.00     0.021 A 
ATOM     22  C   UNL     1      -0.541  43.905  54.699  1.00  0.00     0.021 A 
ATOM     23  C   UNL     1      -0.299  44.652  55.849  1.00  0.00     0.041 A 
ATOM     24  Cl  UNL     1      -1.551  44.869  57.009  1.00  0.00    -0.084 Cl
ENDBRANCH  11  18
ENDBRANCH   6   8
ENDBRANCH   1   6
TORSDOF 6
ENDMDL
MODEL 13
REMARK VINA RESULT:    -7.593      3.159      6.445
REMARK INTER + INTRA:         -10.972
REMARK INTER:                  -9.972
REMARK INTRA:                  -1.000
REMARK UNBOUND:                -0.716
REMARK SMILES COCCCNc1nc(-c2ccc(Cl)cc2)cc2ncccc12
REMARK SMILES IDX 5 1 4 2 3 3 2 4 1 5 6 6 7 8 8 9 23 10 9 11 22 12 18 13 17 14
REMARK SMILES IDX 21 15 19 16 20 17 10 18 11 19 16 20 12 21 15 22 13 23 14 24
REMARK H PARENT 6 7
ROOT
ATOM      1  C   UNL     1       1.775  43.329  52.991  1.00  0.00     0.117 C 
ENDROOT
BRANCH   1   2
ATOM      2  C   UNL     1       1.360  44.113  51.748  1.00  0.00     0.050 C 
BRANCH   2   3
ATOM      3  C   UNL     1       1.418  45.614  52.012  1.00  0.00     0.161 C 
BRANCH   3   4
ATOM      4  O   UNL     1       2.602  46.207  51.476  1.00  0.00    -0.385 OA
ATOM      5  C   UNL     1       3.178  47.183  52.333  1.00  0.00     0.194 C 
ENDBRANCH   3   4
ENDBRANCH   2   3
ENDBRANCH   1   2
BRANCH   1   6
ATOM      6  N   UNL     1       2.746  42.285  52.662  1.00  0.00    -0.369 N 
ATOM      7  H   UNL     1       3.057  41.793  53.496  1.00  0.00     0.162 HD
BRANCH   6   8
ATOM      8  C   UNL     1       3.897  42.709  51.960  1.00  0.00     0.136 A 
ATOM      9  N   UNL     1       4.666  43.678  52.497  1.00  0.00    -0.230 NA
ATOM     10  C   UNL     1       4.204  42.124  50.712  1.00  0.00     0.043 A 
ATOM     11  C   UNL     1       5.765  44.102  51.832  1.00  0.00     0.075 A 
ATOM     12  C   UNL     1       3.425  41.135  50.069  1.00  0.00     0.016 A 
ATOM     13  C   UNL     1       5.363  42.556  50.045  1.00  0.00     0.076 A 
ATOM     14  C   UNL     1       6.136  43.544  50.619  1.00  0.00     0.058 A 
ATOM     15  C   UNL     1       3.819  40.615  48.843  1.00  0.00     0.021 A 
ATOM     16  N   UNL     1       5.752  42.051  48.860  1.00  0.00    -0.256 NA
ATOM     17  C   UNL     1       4.984  41.100  48.285  1.00  0.00     0.112 A 
BRANCH  11  18
ATOM     18  C   UNL     1       6.528  45.182  52.494  1.00  0.00     0.000 A 
ATOM     19  C   UNL     1       6.326  45.470  53.859  1.00  0.00     0.012 A 
ATOM     20  C   UNL     1       7.465  45.972  51.801  1.00  0.00     0.012 A 
ATOM     21  C   UNL     1       7.033  46.489  54.506  1.00  0.00     0.021 A 
ATOM     22  C   UNL     1       8.175  46.994  52.444  1.00  0.00     0.021 A 
ATOM     23  C   UNL     1       7.956  47.247  53.795  1.00  0.00     0.041 A 
ATOM     24  Cl  UNL     1       8.826  48.502  54.584  1.00  0.00    -0.084 Cl
ENDBRANCH  11  18
ENDBRANCH   6   8
ENDBRANCH   1   6
TORSDOF 6
ENDMDL
MODEL 14
REMARK VINA RESULT:    -7.519      3.337      6.224
REMARK INTER + INTRA:         -10.872
REMARK INTER:                 -10.035
REMARK INTRA:                  -0.837
REMARK UNBOUND:                -0.716
REMARK SMILES COCCCNc1nc(-c2ccc(Cl)cc2)cc2ncccc12
REMARK SMILES IDX 5 1 4 2 3 3 2 4 1 5 6 6 7 8 8 9 23 10 9 11 22 12 18 13 17 14
REMARK SMILES IDX 21 15 19 16 20 17 10 18 11 19 16 20 12 21 15 22 13 23 14 24
REMARK H PARENT 6 7
ROOT
ATOM      1  C   UNL     1       4.471  41.125  50.466  1.00  0.00     0.117 C 
ENDROOT
BRANCH   1   2
ATOM      2  C   UNL     1       4.952  41.071  49.017  1.00  0.00     0.050 C 
BRANCH   2   3
ATOM      3  C   UNL     1       3.807  40.698  48.081  1.00  0.00     0.161 C 
BRANCH   3   4
ATOM      4  O   UNL     1       3.158  39.492  48.485  1.00  0.00    -0.385 OA
ATOM      5  C   UNL     1       2.870  38.620  47.400  1.00  0.00     0.194 C 
ENDBRANCH   3   4
ENDBRANCH   2   3
ENDBRANCH   1   2
BRANCH   1   6
ATOM      6  N   UNL     1       3.183  41.811  50.574  1.00  0.00    -0.369 N 
ATOM      7  H   UNL     1       2.725  41.882  49.669  1.00  0.00     0.162 HD
BRANCH   6   8
ATOM      8  C   UNL     1       3.218  43.106  51.140  1.00  0.00     0.136 A 
ATOM      9  N   UNL     1       4.415  43.672  51.396  1.00  0.00    -0.230 NA
ATOM     10  C   UNL     1       2.006  43.766  51.437  1.00  0.00     0.043 A 
ATOM     11  C   UNL     1       4.465  44.907  51.946  1.00  0.00     0.075 A 
ATOM     12  C   UNL     1       0.718  43.222  51.236  1.00  0.00     0.016 A 
ATOM     13  C   UNL     1       2.073  45.058  51.985  1.00  0.00     0.076 A 
ATOM     14  C   UNL     1       3.310  45.617  52.232  1.00  0.00     0.058 A 
ATOM     15  C   UNL     1      -0.417  43.958  51.553  1.00  0.00     0.021 A 
ATOM     16  N   UNL     1       0.977  45.778  52.289  1.00  0.00    -0.256 NA
ATOM     17  C   UNL     1      -0.235  45.224  52.070  1.00  0.00     0.112 A 
BRANCH  11  18
ATOM     18  C   UNL     1       5.823  45.429  52.208  1.00  0.00     0.000 A 
ATOM     19  C   UNL     1       6.229  45.744  53.520  1.00  0.00     0.012 A 
ATOM     20  C   UNL     1       6.755  45.647  51.175  1.00  0.00     0.012 A 
ATOM     21  C   UNL     1       7.508  46.243  53.792  1.00  0.00     0.021 A 
ATOM     22  C   UNL     1       8.036  46.146  51.442  1.00  0.00     0.021 A 
ATOM     23  C   UNL     1       8.407  46.441  52.750  1.00  0.00     0.041 A 
ATOM     24  Cl  UNL     1       9.979  47.055  53.079  1.00  0.00    -0.084 Cl
ENDBRANCH  11  18
ENDBRANCH   6   8
ENDBRANCH   1   6
TORSDOF 6
ENDMDL
MODEL 15
REMARK VINA RESULT:    -7.502      1.603      2.056
REMARK INTER + INTRA:         -10.849
REMARK INTER:                 -10.131
REMARK INTRA:                  -0.718
REMARK UNBOUND:                -0.716
REMARK SMILES COCCCNc1nc(-c2ccc(Cl)cc2)cc2ncccc12
REMARK SMILES IDX 5 1 4 2 3 3 2 4 1 5 6 6 7 8 8 9 23 10 9 11 22 12 18 13 17 14
REMARK SMILES IDX 21 15 19 16 20 17 10 18 11 19 16 20 12 21 15 22 13 23 14 24
REMARK H PARENT 6 7
ROOT
ATOM      1  C   UNL     1       6.482  42.338  50.118  1.00  0.00     0.117 C 
ENDROOT
BRANCH   1   2
ATOM      2  C   UNL     1       5.511  41.601  49.199  1.00  0.00     0.050 C 
BRANCH   2   3
ATOM      3  C   UNL     1       4.280  41.138  49.971  1.00  0.00     0.161 C 
BRANCH   3   4
ATOM      4  O   UNL     1       3.378  40.399  49.148  1.00  0.00    -0.385 OA
ATOM      5  C   UNL     1       3.752  40.386  47.776  1.00  0.00     0.194 C 
ENDBRANCH   3   4
ENDBRANCH   2   3
ENDBRANCH   1   2
BRANCH   1   6
ATOM      6  N   UNL     1       6.439  43.783  49.889  1.00  0.00    -0.369 N 
ATOM      7  H   UNL     1       7.353  44.144  49.630  1.00  0.00     0.162 HD
BRANCH   6   8
ATOM      8  C   UNL     1       5.958  44.566  50.964  1.00  0.00     0.136 A 
ATOM      9  N   UNL     1       4.774  44.245  51.524  1.00  0.00    -0.230 NA
ATOM     10  C   UNL     1       6.717  45.669  51.412  1.00  0.00     0.043 A 
ATOM     11  C   UNL     1       4.296  44.990  52.547  1.00  0.00     0.075 A 
ATOM     12  C   UNL     1       7.943  46.090  50.850  1.00  0.00     0.016 A 
ATOM     13  C   UNL     1       6.221  46.419  52.492  1.00  0.00     0.076 A 
ATOM     14  C   UNL     1       5.010  46.066  53.051  1.00  0.00     0.058 A 
ATOM     15  C   UNL     1       8.619  47.186  51.371  1.00  0.00     0.021 A 
ATOM     16  N   UNL     1       6.873  47.478  53.005  1.00  0.00    -0.256 NA
ATOM     17  C   UNL     1       8.048  47.840  52.443  1.00  0.00     0.112 A 
BRANCH  11  18
ATOM     18  C   UNL     1       2.981  44.570  53.076  1.00  0.00     0.000 A 
ATOM     19  C   UNL     1       2.262  45.404  53.955  1.00  0.00     0.012 A 
ATOM     20  C   UNL     1       2.401  43.331  52.745  1.00  0.00     0.012 A 
ATOM     21  C   UNL     1       1.018  45.027  54.471  1.00  0.00     0.021 A 
ATOM     22  C   UNL     1       1.156  42.947  53.259  1.00  0.00     0.021 A 
ATOM     23  C   UNL     1       0.470  43.799  54.120  1.00  0.00     0.041 A 
ATOM     24  Cl  UNL     1      -1.059  43.329  54.753  1.00  0.00    -0.084 Cl
ENDBRANCH  11  18
ENDBRANCH   6   8
ENDBRANCH   1   6
TORSDOF 6
ENDMDL
MODEL 16
REMARK VINA RESULT:    -7.459      2.751      5.221
REMARK INTER + INTRA:         -10.791
REMARK INTER:                  -9.851
REMARK INTRA:                  -0.941
REMARK UNBOUND:                -0.716
REMARK SMILES COCCCNc1nc(-c2ccc(Cl)cc2)cc2ncccc12
REMARK SMILES IDX 5 1 4 2 3 3 2 4 1 5 6 6 7 8 8 9 23 10 9 11 22 12 18 13 17 14
REMARK SMILES IDX 21 15 19 16 20 17 10 18 11 19 16 20 12 21 15 22 13 23 14 24
REMARK H PARENT 6 7
ROOT
ATOM      1  C   UNL     1       3.103  46.809  52.766  1.00  0.00     0.117 C 
ENDROOT
BRANCH   1   2
ATOM      2  C   UNL     1       2.489  46.107  53.975  1.00  0.00     0.050 C 
BRANCH   2   3
ATOM      3  C   UNL     1       3.491  46.033  55.123  1.00  0.00     0.161 C 
BRANCH   3   4
ATOM      4  O   UNL     1       4.240  44.817  55.101  1.00  0.00    -0.385 OA
ATOM      5  C   UNL     1       5.559  44.961  55.612  1.00  0.00     0.194 C 
ENDBRANCH   3   4
ENDBRANCH   2   3
ENDBRANCH   1   2
BRANCH   1   6
ATOM      6  N   UNL     1       4.529  47.071  52.969  1.00  0.00    -0.369 N 
ATOM      7  H   UNL     1       4.759  48.041  52.768  1.00  0.00     0.162 HD
BRANCH   6   8
ATOM      8  C   UNL     1       5.418  46.258  52.231  1.00  0.00     0.136 A 
ATOM      9  N   UNL     1       4.947  45.132  51.657  1.00  0.00    -0.230 NA
ATOM     10  C   UNL     1       6.776  46.631  52.126  1.00  0.00     0.043 A 
ATOM     11  C   UNL     1       5.788  44.338  50.956  1.00  0.00     0.075 A 
ATOM     12  C   UNL     1       7.350  47.771  52.732  1.00  0.00     0.016 A 
ATOM     13  C   UNL     1       7.632  45.811  51.373  1.00  0.00     0.076 A 
ATOM     14  C   UNL     1       7.124  44.668  50.791  1.00  0.00     0.058 A 
ATOM     15  C   UNL     1       8.698  48.058  52.560  1.00  0.00     0.021 A 
ATOM     16  N   UNL     1       8.938  46.086  51.198  1.00  0.00    -0.256 NA
ATOM     17  C   UNL     1       9.444  47.193  51.787  1.00  0.00     0.112 A 
BRANCH  11  18
ATOM     18  C   UNL     1       5.178  43.117  50.386  1.00  0.00     0.000 A 
ATOM     19  C   UNL     1       3.922  42.665  50.838  1.00  0.00     0.012 A 
ATOM     20  C   UNL     1       5.819  42.353  49.393  1.00  0.00     0.012 A 
ATOM     21  C   UNL     1       3.327  41.511  50.316  1.00  0.00     0.021 A 
ATOM     22  C   UNL     1       5.228  41.197  48.867  1.00  0.00     0.021 A 
ATOM     23  C   UNL     1       3.983  40.782  49.331  1.00  0.00     0.041 A 
ATOM     24  Cl  UNL     1       3.257  39.362  48.688  1.00  0.00    -0.084 Cl
ENDBRANCH  11  18
ENDBRANCH   6   8
ENDBRANCH   1   6
TORSDOF 6
ENDMDL
MODEL 17
REMARK VINA RESULT:    -7.385      3.629      7.408
REMARK INTER + INTRA:         -10.691
REMARK INTER:                 -10.397
REMARK INTRA:                  -0.293
REMARK UNBOUND:                -0.716
REMARK SMILES COCCCNc1nc(-c2ccc(Cl)cc2)cc2ncccc12
REMARK SMILES IDX 5 1 4 2 3 3 2 4 1 5 6 6 7 8 8 9 23 10 9 11 22 12 18 13 17 14
REMARK SMILES IDX 21 15 19 16 20 17 10 18 11 19 16 20 12 21 15 22 13 23 14 24
REMARK H PARENT 6 7
ROOT
ATOM      1  C   UNL     1       3.529  46.057  55.461  1.00  0.00     0.117 C 
ENDROOT
BRANCH   1   2
ATOM      2  C   UNL     1       5.032  45.833  55.309  1.00  0.00     0.050 C 
BRANCH   2   3
ATOM      3  C   UNL     1       5.676  46.987  54.549  1.00  0.00     0.161 C 
BRANCH   3   4
ATOM      4  O   UNL     1       7.044  47.173  54.916  1.00  0.00    -0.385 OA
ATOM      5  C   UNL     1       7.957  46.745  53.913  1.00  0.00     0.194 C 
ENDBRANCH   3   4
ENDBRANCH   2   3
ENDBRANCH   1   2
BRANCH   1   6
ATOM      6  N   UNL     1       2.789  44.799  55.347  1.00  0.00    -0.369 N 
ATOM      7  H   UNL     1       3.192  44.078  55.940  1.00  0.00     0.162 HD
BRANCH   6   8
ATOM      8  C   UNL     1       2.672  44.266  54.043  1.00  0.00     0.136 A 
ATOM      9  N   UNL     1       3.761  44.249  53.248  1.00  0.00    -0.230 NA
ATOM     10  C   UNL     1       1.422  43.783  53.601  1.00  0.00     0.043 A 
ATOM     11  C   UNL     1       3.663  43.752  51.994  1.00  0.00     0.075 A 
ATOM     12  C   UNL     1       0.231  43.806  54.361  1.00  0.00     0.016 A 
ATOM     13  C   UNL     1       1.340  43.246  52.305  1.00  0.00     0.076 A 
ATOM     14  C   UNL     1       2.470  43.234  51.513  1.00  0.00     0.058 A 
ATOM     15  C   UNL     1      -0.950  43.296  53.837  1.00  0.00     0.021 A 
ATOM     16  N   UNL     1       0.201  42.745  51.794  1.00  0.00    -0.256 NA
ATOM     17  C   UNL     1      -0.913  42.777  52.559  1.00  0.00     0.112 A 
BRANCH  11  18
ATOM     18  C   UNL     1       4.906  43.798  51.195  1.00  0.00     0.000 A 
ATOM     19  C   UNL     1       5.706  44.958  51.181  1.00  0.00     0.012 A 
ATOM     20  C   UNL     1       5.335  42.709  50.412  1.00  0.00     0.012 A 
ATOM     21  C   UNL     1       6.885  45.027  50.430  1.00  0.00     0.021 A 
ATOM     22  C   UNL     1       6.514  42.773  49.658  1.00  0.00     0.021 A 
ATOM     23  C   UNL     1       7.284  43.932  49.672  1.00  0.00     0.041 A 
ATOM     24  Cl  UNL     1       8.731  44.012  48.746  1.00  0.00    -0.084 Cl
ENDBRANCH  11  18
ENDBRANCH   6   8
ENDBRANCH   1   6
TORSDOF 6
ENDMDL
MODEL 18
REMARK VINA RESULT:    -7.279      4.053      7.959
REMARK INTER + INTRA:         -10.549
REMARK INTER:                  -9.992
REMARK INTRA:                  -0.556
REMARK UNBOUND:                -0.716
REMARK SMILES COCCCNc1nc(-c2ccc(Cl)cc2)cc2ncccc12
REMARK SMILES IDX 5 1 4 2 3 3 2 4 1 5 6 6 7 8 8 9 23 10 9 11 22 12 18 13 17 14
REMARK SMILES IDX 21 15 19 16 20 17 10 18 11 19 16 20 12 21 15 22 13 23 14 24
REMARK H PARENT 6 7
ROOT
ATOM      1  C   UNL     1       1.365  45.753  56.038  1.00  0.00     0.117 C 
ENDROOT
BRANCH   1   2
ATOM      2  C   UNL     1       0.108  45.417  56.837  1.00  0.00     0.050 C 
BRANCH   2   3
ATOM      3  C   UNL     1      -0.340  46.614  57.669  1.00  0.00     0.161 C 
BRANCH   3   4
ATOM      4  O   UNL     1       0.585  46.916  58.714  1.00  0.00    -0.385 OA
ATOM      5  C   UNL     1       0.131  47.943  59.586  1.00  0.00     0.194 C 
ENDBRANCH   3   4
ENDBRANCH   2   3
ENDBRANCH   1   2
BRANCH   1   6
ATOM      6  N   UNL     1       2.108  44.544  55.679  1.00  0.00    -0.369 N 
ATOM      7  H   UNL     1       2.908  44.407  56.292  1.00  0.00     0.162 HD
BRANCH   6   8
ATOM      8  C   UNL     1       2.572  44.475  54.346  1.00  0.00     0.136 A 
ATOM      9  N   UNL     1       3.826  44.889  54.072  1.00  0.00    -0.230 NA
ATOM     10  C   UNL     1       1.711  43.995  53.336  1.00  0.00     0.043 A 
ATOM     11  C   UNL     1       4.281  44.839  52.799  1.00  0.00     0.075 A 
ATOM     12  C   UNL     1       0.375  43.585  53.540  1.00  0.00     0.016 A 
ATOM     13  C   UNL     1       2.206  43.925  52.023  1.00  0.00     0.076 A 
ATOM     14  C   UNL     1       3.495  44.348  51.769  1.00  0.00     0.058 A 
ATOM     15  C   UNL     1      -0.389  43.117  52.478  1.00  0.00     0.021 A 
ATOM     16  N   UNL     1       1.473  43.468  50.991  1.00  0.00    -0.256 NA
ATOM     17  C   UNL     1       0.202  43.075  51.232  1.00  0.00     0.112 A 
BRANCH  11  18
ATOM     18  C   UNL     1       5.660  45.334  52.600  1.00  0.00     0.000 A 
ATOM     19  C   UNL     1       6.462  45.686  53.704  1.00  0.00     0.012 A 
ATOM     20  C   UNL     1       6.223  45.491  51.319  1.00  0.00     0.012 A 
ATOM     21  C   UNL     1       7.768  46.160  53.541  1.00  0.00     0.021 A 
ATOM     22  C   UNL     1       7.530  45.966  51.150  1.00  0.00     0.021 A 
ATOM     23  C   UNL     1       8.297  46.298  52.263  1.00  0.00     0.041 A 
ATOM     24  Cl  UNL     1       9.901  46.882  52.056  1.00  0.00    -0.084 Cl
ENDBRANCH  11  18
ENDBRANCH   6   8
ENDBRANCH   1   6
TORSDOF 6
ENDMDL
MODEL 19
REMARK VINA RESULT:    -7.276      1.566      2.110
REMARK INTER + INTRA:         -10.544
REMARK INTER:                  -9.681
REMARK INTRA:                  -0.863
REMARK UNBOUND:                -0.716
REMARK SMILES COCCCNc1nc(-c2ccc(Cl)cc2)cc2ncccc12
REMARK SMILES IDX 5 1 4 2 3 3 2 4 1 5 6 6 7 8 8 9 23 10 9 11 22 12 18 13 17 14
REMARK SMILES IDX 21 15 19 16 20 17 10 18 11 19 16 20 12 21 15 22 13 23 14 24
REMARK H PARENT 6 7
ROOT
ATOM      1  C   UNL     1       4.549  42.592  50.868  1.00  0.00     0.117 C 
ENDROOT
BRANCH   1   2
ATOM      2  C   UNL     1       5.151  41.355  50.206  1.00  0.00     0.050 C 
BRANCH   2   3
ATOM      3  C   UNL     1       6.508  41.679  49.589  1.00  0.00     0.161 C 
BRANCH   3   4
ATOM      4  O   UNL     1       6.386  42.510  48.434  1.00  0.00    -0.385 OA
ATOM      5  C   UNL     1       5.744  41.864  47.343  1.00  0.00     0.194 C 
ENDBRANCH   3   4
ENDBRANCH   2   3
ENDBRANCH   1   2
BRANCH   1   6
ATOM      6  N   UNL     1       5.513  43.692  50.920  1.00  0.00    -0.369 N 
ATOM      7  H   UNL     1       6.460  43.347  51.058  1.00  0.00     0.162 HD
BRANCH   6   8
ATOM      8  C   UNL     1       5.270  44.683  51.898  1.00  0.00     0.136 A 
ATOM      9  N   UNL     1       4.163  44.586  52.661  1.00  0.00    -0.230 NA
ATOM     10  C   UNL     1       6.178  45.754  52.040  1.00  0.00     0.043 A 
ATOM     11  C   UNL     1       3.911  45.532  53.594  1.00  0.00     0.075 A 
ATOM     12  C   UNL     1       7.335  45.944  51.252  1.00  0.00     0.016 A 
ATOM     13  C   UNL     1       5.918  46.716  53.031  1.00  0.00     0.076 A 
ATOM     14  C   UNL     1       4.781  46.590  53.803  1.00  0.00     0.058 A 
ATOM     15  C   UNL     1       8.173  47.029  51.478  1.00  0.00     0.021 A 
ATOM     16  N   UNL     1       6.728  47.766  53.259  1.00  0.00    -0.256 NA
ATOM     17  C   UNL     1       7.830  47.904  52.488  1.00  0.00     0.112 A 
BRANCH  11  18
ATOM     18  C   UNL     1       2.661  45.346  54.362  1.00  0.00     0.000 A 
ATOM     19  C   UNL     1       2.579  45.757  55.708  1.00  0.00     0.012 A 
ATOM     20  C   UNL     1       1.518  44.747  53.801  1.00  0.00     0.012 A 
ATOM     21  C   UNL     1       1.409  45.589  56.456  1.00  0.00     0.021 A 
ATOM     22  C   UNL     1       0.344  44.576  54.545  1.00  0.00     0.021 A 
ATOM     23  C   UNL     1       0.295  44.999  55.870  1.00  0.00     0.041 A 
ATOM     24  Cl  UNL     1      -1.145  44.788  56.786  1.00  0.00    -0.084 Cl
ENDBRANCH  11  18
ENDBRANCH   6   8
ENDBRANCH   1   6
TORSDOF 6
ENDMDL
